data_PCOD8234620
_publ_section_title
;
Structure prediction by ZEFSAII (Michael W. Deem and Ramdas Pophale) SiO2 
 PCOD8234620
Probable space group: P B C M
;
_chemical_formula_sum "Si O2"
_cell_formula_units_Z 64
_cell_length_a 19.671089
_cell_length_b 18.396098
_cell_length_c 8.635648
_cell_angle_alpha 90.000000
_cell_angle_beta 90.000000
_cell_angle_gamma 90.000000
_cell_volume 3124.993004
_symmetry_space_group_name_H-M "P B C M"
_symmetry_group_IT_number 57
_symmetry_cell_setting 'orthorhombic'
loop_
_space_group_symop_operation_xyz
x,y,z
-x,-y,1/2+z
x,1/2-y,-z
-x,1/2+y,1/2-z
-x,-y,-z
x,y,1/2-z
-x,1/2+y,z
x,1/2-y,1/2+z
loop_
_atom_site_type_symbol
_atom_site_label
_atom_site_fract_x
_atom_site_fract_y
_atom_site_fract_z
Si Si1 0.713399 0.549758 0.929970
Si Si2 0.030328 0.327931 0.067676
Si Si3 0.393790 0.326721 0.068575
Si Si4 0.142955 0.077317 0.428550
Si Si5 0.898946 0.081976 0.572757
Si Si6 0.537695 0.328234 0.567361
Si Si7 0.662613 0.097867 0.568827
Si Si8 0.786247 0.324643 0.569152
O O1 0.709663 0.528446 0.750000
O O2 0.663744 0.615472 0.971866
O O3 0.789007 0.574027 0.971605
O O4 0.691634 0.481085 0.030530
O O5 0.041518 0.322391 0.250000
O O6 0.970778 0.384204 0.024110
O O7 0.009925 0.250000 0.000000
O O8 0.099422 0.354826 0.988364
O O9 0.405800 0.317813 0.250000
O O10 0.369627 0.250000 0.000000
O O11 0.464044 0.352939 0.992563
O O12 0.162399 0.089356 0.250000
O O13 0.098281 0.004489 0.451236
O O14 0.880726 0.102130 0.750000
O O15 0.840128 0.112043 0.462430
O O16 0.558773 0.250000 0.500000
O O17 0.536130 0.322537 0.750000
O O18 0.590997 0.389508 0.515553
O O19 0.651317 0.105324 0.750000
O O20 0.715147 0.158982 0.513418
O O21 0.816013 0.250000 0.500000
O O22 0.773375 0.317572 0.750000
#
# Coordination Sequence:
#
# PCOD8234620 Si02
#       8
#     8   8   8   8   8   8   8   8
#     4  11  24  42  64  93 126 164 209 256 310 370
#     4  11  24  42  64  92 127 163 210 261 312 370
#     4  10  22  41  65  92 123 159 206 257 309 370
#     4  11  23  41  66  93 126 166 208 255 315 376
#     4  10  22  41  64  93 125 163 206 254 309 372
#     4  11  22  39  63  91 125 164 208 255 311 371
#     4  12  24  40  61  88 125 164 208 257 308 368
#     4  12  24  38  60  89 125 166 208 254 305 364
#
# _framework density 20.480045
#
# number of rings (size 3 to 8) (size 9 to 14) (size 15 to 20)
#    0.000    1.000    1.250    6.750    0.000    5.500 
#    0.000    1.250    0.000    0.000    0.000    0.000 
#    0.000    0.000    0.000    0.000    0.000    0.000 
#
# Total GULP energy -794107.620354 kJ/mol
# GULP energy per Si atom -12407.931568 kJ/mol
# Density = 2.043343 g / cm^3
# Si number density = 20.480045 Si / 1000 Ang^3
#
#
#
# Elastic Constant Matrix: (Units=GPa)
#
#
# Indices 1 2 3 4 5 6 
#
# 1 111.0410 35.1267 34.7794 0.0000 0.0000 0.0000
# 2 35.1267 60.0187 27.8647 0.0000 0.0000 0.0000
# 3 34.7794 27.8647 101.1168 0.0000 0.0000 0.0000
# 4 0.0000 0.0000 0.0000 35.8657 0.0000 0.0000
# 5 0.0000 0.0000 0.0000 0.0000 28.2263 0.0000
# 6 0.0000 0.0000 0.0000 0.0000 0.0000 35.7527
#
#
#
# Elastic Compliance Matrix: (Units=1/GPa)
#
#
# Indices 1 2 3 4 5 6 
#
# 1 0.011546 -0.005634 -0.002418 0.000000 0.000000 0.000000
# 2 -0.005634 0.021855 -0.004085 0.000000 0.000000 0.000000
# 3 -0.002418 -0.004085 0.011847 0.000000 0.000000 0.000000
# 4 0.000000 0.000000 0.000000 0.027882 0.000000 0.000000
# 5 0.000000 0.000000 0.000000 0.000000 0.035428 0.000000
# 6 0.000000 0.000000 0.000000 0.000000 0.000000 0.027970
#
#
# Mechanical properties :
#
#
# Convention : Reuss Voigt Hill
#
# Bulk Modulus (GPa) = 47.68062 51.96870 49.82466
# Shear Modulus (GPa) = 29.79848 31.59599 30.69724
#
# Velocity S-wave (km/s) = 3.81859 3.93207 3.87574
# Velocity P-wave (km/s) = 6.54020 6.78567 6.66406
#
# Compressibility (1/GPa) = 0.02097288
#
# Stress axis : x y z
#
# Youngs Moduli (GPa) = 86.61348 45.75518 84.40939
#
# Poissons Ratio (x) = 0.25780 0.20414
# Poissons Ratio (y) = 0.48801 0.34479
# Poissons Ratio (z) = 0.20947 0.18690
#
# Static dielectric constant tensor:
#      x y z
#    x 3.737750 0.000000 0.000000 
#    y 0.000000 3.713020 0.000000 
#    z 0.000000 0.000000 3.780490 
# 
# 
# High freq. dielectric constant tensor:
#      x y z
#    x 1.807200 0.000000 0.000000 
#    y 0.000000 1.801490 0.000000 
#    z 0.000000 0.000000 1.815130 
# 
# From -- ./inp_files/8528.got.cif
#   From: 2010.03.12/outbox.cif.g09.slc.cpg/sg57_5_cif.got.tgz:8528.got - 2010.04.16 15:48:40.
