data_PCOD8234955
_publ_section_title
;
Structure prediction by ZEFSAII (Michael W. Deem and Ramdas Pophale) SiO2 
 PCOD8234955
Probable space group: P B C M
;
_chemical_formula_sum "Si O2"
_cell_formula_units_Z 64
_cell_length_a 9.379622
_cell_length_b 19.350806
_cell_length_c 17.799738
_cell_angle_alpha 90.000000
_cell_angle_beta 90.000000
_cell_angle_gamma 90.000000
_cell_volume 3230.710219
_symmetry_space_group_name_H-M "P B C M"
_symmetry_group_IT_number 57
_symmetry_cell_setting 'orthorhombic'
loop_
_space_group_symop_operation_xyz
x,y,z
-x,-y,1/2+z
x,1/2-y,-z
-x,1/2+y,1/2-z
-x,-y,-z
x,y,1/2-z
-x,1/2+y,z
x,1/2-y,1/2+z
loop_
_atom_site_type_symbol
_atom_site_label
_atom_site_fract_x
_atom_site_fract_y
_atom_site_fract_z
Si Si1 0.388855 0.012452 0.431689
Si Si2 0.831090 0.356395 0.578024
Si Si3 0.443015 0.618847 0.338988
Si Si4 0.831999 0.801686 0.431230
Si Si5 0.719969 0.134837 0.908594
Si Si6 0.517295 0.738566 0.914098
Si Si7 0.913314 0.931029 0.520068
Si Si8 0.079844 0.726148 0.835586
O O1 0.461381 0.055256 0.365638
O O2 0.246276 0.053368 0.454174
O O3 0.500000 0.000000 0.500000
O O4 0.338819 0.941220 0.395624
O O5 0.715595 0.395803 0.629333
O O6 0.773469 0.355016 0.493488
O O7 0.838199 0.279110 0.609787
O O8 0.986319 0.393378 0.582555
O O9 0.439182 0.621811 0.250000
O O10 0.512955 0.689215 0.370308
O O11 0.864479 0.750000 0.500000
O O12 0.668249 0.799789 0.408097
O O13 0.889778 0.878228 0.451015
O O14 0.914293 0.776045 0.357284
O O15 0.596216 0.185927 0.881119
O O16 0.850303 0.151080 0.851975
O O17 0.477164 0.750000 0.000000
O O18 0.000000 0.000000 0.500000
O O19 0.095998 0.749507 0.750000
#
# Coordination Sequence:
#
# PCOD8234955 Si02
#       8
#     8   8   8   8   8   8   8   8
#     4  12  23  43  69 101 134 180 223 271 336 412
#     4  12  22  41  65  95 127 169 223 276 330 393
#     4  12  26  43  64 100 141 174 220 286 348 403
#     4  11  21  38  61  93 125 163 220 273 320 393
#     4  12  21  41  70  95 125 169 229 268 321 402
#     4  11  21  38  67  95 125 172 224 278 328 398
#     4  12  22  39  69 102 128 169 228 285 330 395
#     4  12  24  39  61  93 133 173 214 275 341 395
#
# _framework density 19.809885999999999
#
# number of rings (size 3 to 8) (size 9 to 14) (size 15 to 20)
#    0.000    0.250    7.500    3.000    0.000    1.000 
#    0.000    0.625    0.000    9.750    0.000    0.000 
#    0.000    0.000    0.000    0.000    0.000    0.000 
#
# Total GULP energy -793400.686239 kJ/mol
# GULP energy per Si atom -12396.885722 kJ/mol
# Density = 1.976480 g / cm^3
# Si number density = 19.809886 Si / 1000 Ang^3
#
#
#
# Elastic Constant Matrix: (Units=GPa)
#
#
# Indices 1 2 3 4 5 6 
#
# 1 137.2824 42.8732 39.4238 0.0000 0.0000 0.0000
# 2 42.8732 108.9330 34.2344 0.0000 0.0000 0.0000
# 3 39.4238 34.2344 101.2308 0.0000 0.0000 0.0000
# 4 0.0000 0.0000 0.0000 20.3672 0.0000 0.0000
# 5 0.0000 0.0000 0.0000 0.0000 14.7628 0.0000
# 6 0.0000 0.0000 0.0000 0.0000 0.0000 36.1710
#
#
#
# Elastic Compliance Matrix: (Units=1/GPa)
#
#
# Indices 1 2 3 4 5 6 
#
# 1 0.008852 -0.002686 -0.002539 0.000000 0.000000 0.000000
# 2 -0.002686 0.011087 -0.002703 0.000000 0.000000 0.000000
# 3 -0.002539 -0.002703 0.011781 0.000000 0.000000 0.000000
# 4 0.000000 0.000000 0.000000 0.049098 0.000000 0.000000
# 5 0.000000 0.000000 0.000000 0.000000 0.067738 0.000000
# 6 0.000000 0.000000 0.000000 0.000000 0.000000 0.027646
#
#
# Mechanical properties :
#
#
# Convention : Reuss Voigt Hill
#
# Bulk Modulus (GPa) = 63.03744 64.50101 63.76923
# Shear Modulus (GPa) = 25.33597 29.65453 27.49525
#
# Velocity S-wave (km/s) = 3.58013 3.87325 3.72957
# Velocity P-wave (km/s) = 6.99857 7.25489 7.12789
#
# Compressibility (1/GPa) = 0.01586359
#
# Stress axis : x y z
#
# Youngs Moduli (GPa) = 112.96544 90.19845 84.87928
#
# Poissons Ratio (x) = 0.24228 0.21552
# Poissons Ratio (y) = 0.30343 0.22945
# Poissons Ratio (z) = 0.28683 0.24383
#
# Static dielectric constant tensor:
#      x y z
#    x 4.114870 0.000000 0.000000 
#    y 0.000000 4.011740 0.000000 
#    z 0.000000 0.000000 3.284600 
# 
# 
# High freq. dielectric constant tensor:
#      x y z
#    x 1.801940 0.000000 0.000000 
#    y 0.000000 1.779790 0.000000 
#    z 0.000000 0.000000 1.732470 
# 
# From -- ./inp_files/21426.got.cif
#   From: 2010.03.12/outbox.cif.g09.slc.cpg/sg57_11_cif.got.tgz:21426.got - 2010.04.16 15:48:40.
