data_PCOD8234494
_publ_section_title
;
Structure prediction by ZEFSAII (Michael W. Deem and Ramdas Pophale) SiO2 
 PCOD8234494
Probable space group: P B C M
;
_chemical_formula_sum "Si O2"
_cell_formula_units_Z 60
_cell_length_a 15.111220
_cell_length_b 7.798645
_cell_length_c 24.225363
_cell_angle_alpha 90.000000
_cell_angle_beta 90.000000
_cell_angle_gamma 90.000000
_cell_volume 2854.887330
_symmetry_space_group_name_H-M "P B C M"
_symmetry_group_IT_number 57
_symmetry_cell_setting 'orthorhombic'
loop_
_space_group_symop_operation_xyz
x,y,z
-x,-y,1/2+z
x,1/2-y,-z
-x,1/2+y,1/2-z
-x,-y,-z
x,y,1/2-z
-x,1/2+y,z
x,1/2-y,1/2+z
loop_
_atom_site_type_symbol
_atom_site_label
_atom_site_fract_x
_atom_site_fract_y
_atom_site_fract_z
Si Si1 0.577288 0.785841 0.620187
Si Si2 0.065076 0.936111 0.547437
Si Si3 0.382914 0.589730 0.363460
Si Si4 0.976413 0.791460 0.373092
Si Si5 0.318622 0.923568 0.312979
Si Si6 0.349450 0.250000 0.000000
Si Si7 0.266529 0.913428 0.530223
Si Si8 0.882763 0.492105 0.313481
O O1 0.474557 0.828518 0.617507
O O2 0.599512 0.609656 0.654885
O O3 0.594351 0.747795 0.555913
O O4 0.629903 0.945861 0.646541
O O5 0.024265 0.760553 0.569930
O O6 0.161681 0.900296 0.525264
O O7 0.000000 0.000000 0.500000
O O8 0.076663 0.045317 0.604318
O O9 0.347951 0.723410 0.317271
O O10 0.306331 0.584411 0.408945
O O11 0.905836 0.657061 0.350177
O O12 0.048282 0.839697 0.326365
O O13 0.335603 0.982124 0.250000
O O14 0.215482 0.932266 0.328825
O O15 0.289142 0.417052 0.996252
O O16 0.309148 0.750000 0.500000
O O17 0.890638 0.543790 0.250000
#
# Coordination Sequence:
#
# PCOD8234494 Si02
#       8
#     8   8   8   8   8   4   8   8
#     4  11  24  44  67  99 131 175 224 280 338 405
#     4  11  23  38  57  92 128 177 214 259 324 395
#     4  11  24  43  67  94 131 170 224 277 337 403
#     4  10  22  38  65  87 127 168 215 271 317 399
#     4  11  25  45  69  97 134 175 222 283 342 409
#     4  10  26  38  68  94 128 174 218 274 328 402
#     4  11  24  39  62  93 130 171 216 272 327 396
#     4  10  22  42  67  94 125 166 218 277 337 391
#
# _framework density 21.016593
#
# number of rings (size 3 to 8) (size 9 to 14) (size 15 to 20)
#    0.000    1.333    1.333    3.200    6.533    4.267 
#    0.000    0.000    0.000    0.000    0.000    0.000 
#    0.000    0.000    0.000    0.000    0.000    0.000 
#
# Total GULP energy -743578.409352 kJ/mol
# GULP energy per Si atom -12392.973489 kJ/mol
# Density = 2.096876 g / cm^3
# Si number density = 21.016593 Si / 1000 Ang^3
#
#
#
# Elastic Constant Matrix: (Units=GPa)
#
#
# Indices 1 2 3 4 5 6 
#
# 1 106.4291 36.1312 30.7871 0.0000 0.0000 0.0000
# 2 36.1312 129.8659 30.1668 0.0000 0.0000 0.0000
# 3 30.7871 30.1668 65.5626 0.0000 0.0000 0.0000
# 4 0.0000 0.0000 0.0000 33.5730 0.0000 0.0000
# 5 0.0000 0.0000 0.0000 0.0000 21.9081 0.0000
# 6 0.0000 0.0000 0.0000 0.0000 0.0000 29.3728
#
#
#
# Elastic Compliance Matrix: (Units=1/GPa)
#
#
# Indices 1 2 3 4 5 6 
#
# 1 0.011388 -0.002157 -0.004355 0.000000 0.000000 0.000000
# 2 -0.002157 0.009030 -0.003142 0.000000 0.000000 0.000000
# 3 -0.004355 -0.003142 0.018744 0.000000 0.000000 0.000000
# 4 0.000000 0.000000 0.000000 0.029786 0.000000 0.000000
# 5 0.000000 0.000000 0.000000 0.000000 0.045645 0.000000
# 6 0.000000 0.000000 0.000000 0.000000 0.000000 0.034045
#
#
# Mechanical properties :
#
#
# Convention : Reuss Voigt Hill
#
# Bulk Modulus (GPa) = 50.36930 55.11418 52.74174
# Shear Modulus (GPa) = 28.64278 30.62228 29.63253
#
# Velocity S-wave (km/s) = 3.69571 3.82128 3.75902
# Velocity P-wave (km/s) = 6.49842 6.76392 6.63250
#
# Compressibility (1/GPa) = 0.01985337
#
# Stress axis : x y z
#
# Youngs Moduli (GPa) = 87.81222 110.73955 53.35158
#
# Poissons Ratio (x) = 0.23883 0.23236
# Poissons Ratio (y) = 0.18938 0.16764
# Poissons Ratio (z) = 0.38245 0.34797
#
# Static dielectric constant tensor:
#      x y z
#    x 3.760480 0.000000 0.000000 
#    y 0.000000 3.825790 0.000000 
#    z 0.000000 0.000000 3.604300 
# 
# 
# High freq. dielectric constant tensor:
#      x y z
#    x 1.827780 0.000000 0.000000 
#    y 0.000000 1.844530 0.000000 
#    z 0.000000 0.000000 1.814310 
# 
# From -- ./inp_files/27441.got.cif
#   From: 2010.03.12/outbox.cif.g09.slc.cpg/sg57_14_cif.got.tgz:27441.got - 2010.04.16 15:48:40.
