data_PCOD8234800
_publ_section_title
;
Structure prediction by ZEFSAII (Michael W. Deem and Ramdas Pophale) SiO2 
 PCOD8234800
Probable space group: P B C M
;
_chemical_formula_sum "Si O2"
_cell_formula_units_Z 40
_cell_length_a 11.624793
_cell_length_b 17.919563
_cell_length_c 9.879177
_cell_angle_alpha 90.000000
_cell_angle_beta 90.000000
_cell_angle_gamma 90.000000
_cell_volume 2057.943320
_symmetry_space_group_name_H-M "P B C M"
_symmetry_group_IT_number 57
_symmetry_cell_setting 'orthorhombic'
loop_
_space_group_symop_operation_xyz
x,y,z
-x,-y,1/2+z
x,1/2-y,-z
-x,1/2+y,1/2-z
-x,-y,-z
x,y,1/2-z
-x,1/2+y,z
x,1/2-y,1/2+z
loop_
_atom_site_type_symbol
_atom_site_label
_atom_site_fract_x
_atom_site_fract_y
_atom_site_fract_z
Si Si1 0.150878 0.250000 0.500000
Si Si2 0.461651 0.833642 0.750000
Si Si3 0.690330 0.734838 0.250000
Si Si4 0.411519 0.932553 0.000458
Si Si5 0.984770 0.892026 0.095082
Si Si6 0.477896 0.831938 0.250000
Si Si7 0.833790 0.035856 0.091804
O O1 0.232647 0.277058 0.619336
O O2 0.070276 0.186045 0.557252
O O3 0.600460 0.833393 0.750000
O O4 0.417522 0.876939 0.877347
O O5 0.413018 0.748355 0.750000
O O6 0.616874 0.813788 0.250000
O O7 0.284692 0.967587 0.992145
O O8 0.437321 0.880654 0.125949
O O9 0.500000 0.000000 0.000000
O O10 0.031911 0.890353 0.250000
O O11 0.886355 0.953860 0.081652
O O12 0.085907 0.905617 0.987386
O O13 0.819547 0.059869 0.250000
#
# Coordination Sequence:
#
# PCOD8234800 Si02
#       7
#     4   4   4   8   8   4   8
#     4  12  22  42  68  96 120 172 222 266 320 380
#     4  10  23  45  61  94 135 172 213 267 329 385
#     4  10  24  38  68  90 134 166 216 266 324 376
#     4  12  24  41  67 100 131 175 217 267 323 402
#     4  10  24  45  65  94 127 167 215 277 323 385
#     4  10  25  41  63  96 135 174 215 263 331 385
#     4  10  24  44  66  92 133 168 214 268 332 376
#
# _framework density 19.436883000000002
#
# number of rings (size 3 to 8) (size 9 to 14) (size 15 to 20)
#    0.600    0.800    2.000    2.400    8.400    0.000 
#    3.600    0.000    0.000    0.000    0.000    0.000 
#    0.000    0.000    0.000    0.000    0.000    0.000 
#
# Total GULP energy -495806.894426 kJ/mol
# GULP energy per Si atom -12395.172361 kJ/mol
# Density = 1.939264 g / cm^3
# Si number density = 19.436883 Si / 1000 Ang^3
#
#
#
# Elastic Constant Matrix: (Units=GPa)
#
#
# Indices 1 2 3 4 5 6 
#
# 1 92.0884 23.0529 16.3254 0.0000 0.0000 0.0000
# 2 23.0529 90.3026 35.3070 0.0000 0.0000 0.0000
# 3 16.3254 35.3070 115.2975 0.0000 0.0000 0.0000
# 4 0.0000 0.0000 0.0000 36.6331 0.0000 0.0000
# 5 0.0000 0.0000 0.0000 0.0000 35.6708 0.0000
# 6 0.0000 0.0000 0.0000 0.0000 0.0000 21.0776
#
#
#
# Elastic Compliance Matrix: (Units=1/GPa)
#
#
# Indices 1 2 3 4 5 6 
#
# 1 0.011672 -0.002651 -0.000841 0.000000 0.000000 0.000000
# 2 -0.002651 0.013182 -0.003661 0.000000 0.000000 0.000000
# 3 -0.000841 -0.003661 0.009913 0.000000 0.000000 0.000000
# 4 0.000000 0.000000 0.000000 0.027298 0.000000 0.000000
# 5 0.000000 0.000000 0.000000 0.000000 0.028034 0.000000
# 6 0.000000 0.000000 0.000000 0.000000 0.000000 0.047444
#
#
# Mechanical properties :
#
#
# Convention : Reuss Voigt Hill
#
# Bulk Modulus (GPa) = 48.87298 49.67323 49.27311
# Shear Modulus (GPa) = 31.51202 33.54318 32.52760
#
# Velocity S-wave (km/s) = 4.03084 4.15872 4.09528
# Velocity P-wave (km/s) = 6.84563 6.97650 6.91137
#
# Compressibility (1/GPa) = 0.02046120
#
# Stress axis : x y z
#
# Youngs Moduli (GPa) = 85.67650 75.86021 100.87279
#
# Poissons Ratio (x) = 0.20110 0.08482
# Poissons Ratio (y) = 0.22712 0.36933
# Poissons Ratio (z) = 0.07204 0.27775
#
# Static dielectric constant tensor:
#      x y z
#    x 3.657730 0.000000 0.000000 
#    y 0.000000 3.497890 0.000000 
#    z 0.000000 0.000000 3.705180 
# 
# 
# High freq. dielectric constant tensor:
#      x y z
#    x 1.755240 0.000000 0.000000 
#    y 0.000000 1.757860 0.000000 
#    z 0.000000 0.000000 1.776790 
# 
# From -- ./inp_files/2760.got.cif
#   From: 2010.03.12/outbox.cif.g09.slc.cpg/sg57_2_cif.got.tgz:2760.got - 2010.04.16 15:48:40.
