data_PCOD8234406
_publ_section_title
;
Structure prediction by ZEFSAII (Michael W. Deem and Ramdas Pophale) SiO2 
 PCOD8234406
Probable space group: P B C M
;
_chemical_formula_sum "Si O2"
_cell_formula_units_Z 60
_cell_length_a 14.089129
_cell_length_b 7.804714
_cell_length_c 24.396524
_cell_angle_alpha 90.000000
_cell_angle_beta 90.000000
_cell_angle_gamma 90.000000
_cell_volume 2682.681359
_symmetry_space_group_name_H-M "P B C M"
_symmetry_group_IT_number 57
_symmetry_cell_setting 'orthorhombic'
loop_
_space_group_symop_operation_xyz
x,y,z
-x,-y,1/2+z
x,1/2-y,-z
-x,1/2+y,1/2-z
-x,-y,-z
x,y,1/2-z
-x,1/2+y,z
x,1/2-y,1/2+z
loop_
_atom_site_type_symbol
_atom_site_label
_atom_site_fract_x
_atom_site_fract_y
_atom_site_fract_z
Si Si1 0.298772 0.205985 0.881696
Si Si2 0.060702 0.715126 0.685824
Si Si3 0.610571 0.915474 0.966355
Si Si4 0.136920 0.147015 0.187874
Si Si5 0.485117 0.485240 0.368481
Si Si6 0.714300 0.250000 0.500000
Si Si7 0.369159 0.717137 0.685850
Si Si8 0.789770 0.339585 0.612849
O O1 0.300709 0.341775 0.931251
O O2 0.237593 0.294730 0.834997
O O3 0.409678 0.173124 0.865978
O O4 0.248918 0.029097 0.897395
O O5 0.085111 0.760065 0.750000
O O6 0.097145 0.531585 0.665192
O O7 0.106501 0.847219 0.641311
O O8 0.946647 0.714386 0.678976
O O9 0.521662 0.985293 0.930554
O O10 0.572941 0.750000 0.000000
O O11 0.649144 0.077606 0.001350
O O12 0.162558 0.117193 0.250000
O O13 0.431717 0.647299 0.346180
O O14 0.576113 0.458455 0.328285
O O15 0.781797 0.247037 0.553819
O O16 0.360517 0.752650 0.750000
O O17 0.266419 0.726190 0.658489
#
# Coordination Sequence:
#
# PCOD8234406 Si02
#       8
#     8   8   8   8   8   4   8   8
#     4  11  24  44  65  96 138 178 232 294 349 420
#     4  10  21  41  71 108 141 178 233 286 353 428
#     4  12  25  47  69  98 137 188 246 307 351 419
#     4  10  22  40  70 104 138 181 226 290 353 424
#     4  11  24  44  61  97 134 182 239 289 355 421
#     4  12  24  44  74 100 140 186 244 292 364 422
#     4  11  23  40  61  91 133 181 228 285 353 421
#     4  11  23  41  66  99 136 182 230 292 353 417
#
# _framework density 22.365684000000002
#
# number of rings (size 3 to 8) (size 9 to 14) (size 15 to 20)
#    0.000    1.067    4.000    2.400    0.000    4.800 
#    6.000    0.000    1.467    2.400    0.000    0.000 
#    0.000    0.000    0.000    0.000    0.000    0.000 
#
# Total GULP energy -743558.007051 kJ/mol
# GULP energy per Si atom -12392.633451 kJ/mol
# Density = 2.231478 g / cm^3
# Si number density = 22.365684 Si / 1000 Ang^3
#
#
#
# Elastic Constant Matrix: (Units=GPa)
#
#
# Indices 1 2 3 4 5 6 
#
# 1 100.1515 26.9873 49.5751 0.0000 0.0000 0.0000
# 2 26.9873 77.9826 19.7700 0.0000 0.0000 0.0000
# 3 49.5751 19.7700 109.6027 0.0000 0.0000 0.0000
# 4 0.0000 0.0000 0.0000 38.7874 0.0000 0.0000
# 5 0.0000 0.0000 0.0000 0.0000 35.5362 0.0000
# 6 0.0000 0.0000 0.0000 0.0000 0.0000 34.0345
#
#
#
# Elastic Compliance Matrix: (Units=1/GPa)
#
#
# Indices 1 2 3 4 5 6 
#
# 1 0.013633 -0.003306 -0.005570 0.000000 0.000000 0.000000
# 2 -0.003306 0.014239 -0.001073 0.000000 0.000000 0.000000
# 3 -0.005570 -0.001073 0.011837 0.000000 0.000000 0.000000
# 4 0.000000 0.000000 0.000000 0.025782 0.000000 0.000000
# 5 0.000000 0.000000 0.000000 0.000000 0.028140 0.000000
# 6 0.000000 0.000000 0.000000 0.000000 0.000000 0.029382
#
#
# Mechanical properties :
#
#
# Convention : Reuss Voigt Hill
#
# Bulk Modulus (GPa) = 50.47691 53.37796 51.92743
# Shear Modulus (GPa) = 33.44146 34.43190 33.93668
#
# Velocity S-wave (km/s) = 3.87099 3.92790 3.89955
# Velocity P-wave (km/s) = 6.52666 6.67001 6.59873
#
# Compressibility (1/GPa) = 0.01981104
#
# Stress axis : x y z
#
# Youngs Moduli (GPa) = 73.35215 70.22721 84.48161
#
# Poissons Ratio (x) = 0.23216 0.47057
# Poissons Ratio (y) = 0.24249 0.09067
# Poissons Ratio (z) = 0.40858 0.07537
#
# Static dielectric constant tensor:
#      x y z
#    x 4.191590 0.000000 0.000000 
#    y 0.000000 4.442740 0.000000 
#    z 0.000000 0.000000 3.934930 
# 
# 
# High freq. dielectric constant tensor:
#      x y z
#    x 1.873570 0.000000 0.000000 
#    y 0.000000 1.899730 0.000000 
#    z 0.000000 0.000000 1.868000 
# 
# From -- ./inp_files/27440.got.cif
#   From: 2010.03.12/outbox.cif.g09.slc.cpg/sg57_14_cif.got.tgz:27440.got - 2010.04.16 15:48:40.
