data_PCOD8234938
_publ_section_title
;
Structure prediction by ZEFSAII (Michael W. Deem and Ramdas Pophale) SiO2 
 PCOD8234938
Probable space group: P B C M
;
_chemical_formula_sum "Si O2"
_cell_formula_units_Z 40
_cell_length_a 12.729489
_cell_length_b 20.094810
_cell_length_c 8.864028
_cell_angle_alpha 90.000000
_cell_angle_beta 90.000000
_cell_angle_gamma 90.000000
_cell_volume 2267.388782
_symmetry_space_group_name_H-M "P B C M"
_symmetry_group_IT_number 57
_symmetry_cell_setting 'orthorhombic'
loop_
_space_group_symop_operation_xyz
x,y,z
-x,-y,1/2+z
x,1/2-y,-z
-x,1/2+y,1/2-z
-x,-y,-z
x,y,1/2-z
-x,1/2+y,z
x,1/2-y,1/2+z
loop_
_atom_site_type_symbol
_atom_site_label
_atom_site_fract_x
_atom_site_fract_y
_atom_site_fract_z
Si Si1 0.889715 0.678972 0.929585
Si Si2 0.033807 0.569143 0.072785
Si Si3 0.728991 0.450181 0.575287
Si Si4 0.472123 0.569681 0.573528
Si Si5 0.304430 0.098053 0.573365
O O1 0.895722 0.683659 0.750000
O O2 0.775565 0.653575 0.989917
O O3 0.912982 0.750000 0.000000
O O4 0.977716 0.628898 0.987964
O O5 0.006504 0.568238 0.250000
O O6 0.157601 0.581329 0.045997
O O7 0.000000 0.500000 0.000000
O O8 0.700028 0.451939 0.750000
O O9 0.638480 0.404797 0.495438
O O10 0.725392 0.525262 0.506742
O O11 0.500000 0.500000 0.500000
O O12 0.457915 0.560512 0.750000
O O13 0.573377 0.617253 0.538020
O O14 0.284094 0.093440 0.750000
#
# Coordination Sequence:
#
# PCOD8234938 Si02
#       5
#     8   8   8   8   8
#     4  11  22  38  55  77 108 144 182 224 274 330
#     4  11  21  35  55  80 109 143 183 229 276 325
#     4   9  17  31  49  74 106 137 169 215 267 315
#     4   9  16  27  45  72 102 133 167 208 260 311
#     4   8  15  30  49  70 103 137 166 211 264 312
#
# _framework density 17.641438000000001
#
# number of rings (size 3 to 8) (size 9 to 14) (size 15 to 20)
#    0.000    2.400    2.000    3.000    0.000    1.600 
#    0.000    3.000    0.000    1.200    0.000    5.600 
#    0.000    0.000    0.000    0.000    0.000    0.000 
#
# Total GULP energy -495646.331540 kJ/mol
# GULP energy per Si atom -12391.158288 kJ/mol
# Density = 1.760128 g / cm^3
# Si number density = 17.641438 Si / 1000 Ang^3
#
#
#
# Elastic Constant Matrix: (Units=GPa)
#
#
# Indices 1 2 3 4 5 6 
#
# 1 147.4043 57.7318 61.2705 0.0000 0.0000 0.0000
# 2 57.7318 92.1642 36.2470 0.0000 0.0000 0.0000
# 3 61.2705 36.2470 83.0072 0.0000 0.0000 0.0000
# 4 0.0000 0.0000 0.0000 21.0416 0.0000 0.0000
# 5 0.0000 0.0000 0.0000 0.0000 32.5179 0.0000
# 6 0.0000 0.0000 0.0000 0.0000 0.0000 19.3746
#
#
#
# Elastic Compliance Matrix: (Units=1/GPa)
#
#
# Indices 1 2 3 4 5 6 
#
# 1 0.011160 -0.004529 -0.006260 0.000000 0.000000 0.000000
# 2 -0.004529 0.014938 -0.003180 0.000000 0.000000 0.000000
# 3 -0.006260 -0.003180 0.018056 0.000000 0.000000 0.000000
# 4 0.000000 0.000000 0.000000 0.047525 0.000000 0.000000
# 5 0.000000 0.000000 0.000000 0.000000 0.030752 0.000000
# 6 0.000000 0.000000 0.000000 0.000000 0.000000 0.051614
#
#
# Mechanical properties :
#
#
# Convention : Reuss Voigt Hill
#
# Bulk Modulus (GPa) = 61.66518 70.34160 66.00339
# Shear Modulus (GPa) = 24.10945 25.74192 24.92568
#
# Velocity S-wave (km/s) = 3.70082 3.82406 3.76294
# Velocity P-wave (km/s) = 7.30014 7.71086 7.50831
#
# Compressibility (1/GPa) = 0.01621661
#
# Stress axis : x y z
#
# Youngs Moduli (GPa) = 89.60834 66.94511 55.38182
#
# Poissons Ratio (x) = 0.30316 0.34668
# Poissons Ratio (y) = 0.40579 0.17612
# Poissons Ratio (z) = 0.56094 0.21290
#
# Static dielectric constant tensor:
#      x y z
#    x 4.012640 0.000000 0.000000 
#    y 0.000000 2.936030 0.000000 
#    z 0.000000 0.000000 3.347660 
# 
# 
# High freq. dielectric constant tensor:
#      x y z
#    x 1.707190 0.000000 0.000000 
#    y 0.000000 1.626510 0.000000 
#    z 0.000000 0.000000 1.678250 
# 
# From -- ./inp_files/2890.got.cif
#   From: 2010.03.12/outbox.cif.g09.slc.cpg/sg57_2_cif.got.tgz:2890.got - 2010.04.16 15:48:40.
