data_PCOD8234727
_publ_section_title
;
Structure prediction by ZEFSAII (Michael W. Deem and Ramdas Pophale) SiO2 
 PCOD8234727
Probable space group: P B C M
;
_chemical_formula_sum "Si O2"
_cell_formula_units_Z 64
_cell_length_a 11.872761
_cell_length_b 15.265132
_cell_length_c 16.779617
_cell_angle_alpha 90.000000
_cell_angle_beta 90.000000
_cell_angle_gamma 90.000000
_cell_volume 3041.125433
_symmetry_space_group_name_H-M "P B C M"
_symmetry_group_IT_number 57
_symmetry_cell_setting 'orthorhombic'
loop_
_space_group_symop_operation_xyz
x,y,z
-x,-y,1/2+z
x,1/2-y,-z
-x,1/2+y,1/2-z
-x,-y,-z
x,y,1/2-z
-x,1/2+y,z
x,1/2-y,1/2+z
loop_
_atom_site_type_symbol
_atom_site_label
_atom_site_fract_x
_atom_site_fract_y
_atom_site_fract_z
Si Si1 0.887295 0.729428 0.658518
Si Si2 0.282910 0.386929 0.841553
Si Si3 0.869263 0.239984 0.592718
Si Si4 0.518120 0.365092 0.341449
Si Si5 0.743237 0.070524 0.909607
Si Si6 0.277297 0.083072 0.841841
Si Si7 0.503049 0.807185 0.580595
Si Si8 0.729788 0.400819 0.911299
O O1 0.921951 0.713112 0.750000
O O2 0.813256 0.815467 0.648856
O O3 0.819422 0.646200 0.621801
O O4 0.998806 0.743719 0.607587
O O5 0.324910 0.392392 0.750000
O O6 0.226914 0.478854 0.867796
O O7 0.385905 0.363487 0.900114
O O8 0.841200 0.250000 0.500000
O O9 0.817823 0.149612 0.627916
O O10 0.803476 0.323439 0.629179
O O11 0.534856 0.394406 0.250000
O O12 0.612076 0.409742 0.395721
O O13 0.399401 0.396560 0.379376
O O14 0.521234 0.259936 0.347240
O O15 0.772883 0.065687 0.002859
O O16 0.285357 0.109820 0.750000
O O17 0.250690 0.981393 0.851856
O O18 0.515327 0.750000 0.500000
O O19 0.399716 0.873937 0.577472
#
# Coordination Sequence:
#
# PCOD8234727 Si02
#       8
#     8   8   8   8   8   8   8   8
#     4  10  23  44  64  86 121 164 210 262 312 371
#     4  11  25  42  63  95 130 163 210 260 311 376
#     4  10  23  44  63  87 124 160 209 264 315 371
#     4  11  21  38  63  90 125 164 201 248 309 369
#     4  11  23  41  63  92 126 164 204 258 312 375
#     4  10  23  41  62  91 127 163 206 258 315 377
#     4  12  22  39  66  94 130 169 206 251 314 376
#     4  11  23  41  63  93 129 162 207 259 311 377
#
# _framework density 21.044839
#
# number of rings (size 3 to 8) (size 9 to 14) (size 15 to 20)
#    0.000    1.250    3.750    1.875    1.750    7.000 
#    0.000    5.000    0.000    0.000    0.000    0.000 
#    0.000    0.000    0.000    0.000    0.000    0.000 
#
# Total GULP energy -793671.646386 kJ/mol
# GULP energy per Si atom -12401.119475 kJ/mol
# Density = 2.099694 g / cm^3
# Si number density = 21.044839 Si / 1000 Ang^3
#
#
#
# Elastic Constant Matrix: (Units=GPa)
#
#
# Indices 1 2 3 4 5 6 
#
# 1 119.2944 53.0064 25.2285 0.0000 0.0000 0.0000
# 2 53.0064 165.8481 27.3397 0.0000 0.0000 0.0000
# 3 25.2285 27.3397 36.6181 0.0000 0.0000 0.0000
# 4 0.0000 0.0000 0.0000 35.8420 0.0000 0.0000
# 5 0.0000 0.0000 0.0000 0.0000 25.6131 0.0000
# 6 0.0000 0.0000 0.0000 0.0000 0.0000 15.5150
#
#
#
# Elastic Compliance Matrix: (Units=1/GPa)
#
#
# Indices 1 2 3 4 5 6 
#
# 1 0.010651 -0.002503 -0.005470 0.000000 0.000000 0.000000
# 2 -0.002503 0.007464 -0.003848 0.000000 0.000000 0.000000
# 3 -0.005470 -0.003848 0.033951 0.000000 0.000000 0.000000
# 4 0.000000 0.000000 0.000000 0.027900 0.000000 0.000000
# 5 0.000000 0.000000 0.000000 0.000000 0.039042 0.000000
# 6 0.000000 0.000000 0.000000 0.000000 0.000000 0.064454
#
#
# Mechanical properties :
#
#
# Convention : Reuss Voigt Hill
#
# Bulk Modulus (GPa) = 35.18140 59.21222 47.19681
# Shear Modulus (GPa) = 23.08625 29.80644 26.44635
#
# Velocity S-wave (km/s) = 3.31570 3.76750 3.54880
# Velocity P-wave (km/s) = 5.60465 6.86460 6.26637
#
# Compressibility (1/GPa) = 0.02842411
#
# Stress axis : x y z
#
# Youngs Moduli (GPa) = 93.88450 133.97879 29.45431
#
# Poissons Ratio (x) = 0.33529 0.16111
# Poissons Ratio (y) = 0.23495 0.11335
# Poissons Ratio (z) = 0.51355 0.51562
#
# Static dielectric constant tensor:
#      x y z
#    x 3.655760 0.000000 0.000000 
#    y 0.000000 3.985320 0.000000 
#    z 0.000000 0.000000 3.620560 
# 
# 
# High freq. dielectric constant tensor:
#      x y z
#    x 1.815960 0.000000 0.000000 
#    y 0.000000 1.839040 0.000000 
#    z 0.000000 0.000000 1.810360 
# 
# From -- ./inp_files/22073.got.cif
#   From: 2010.03.12/outbox.cif.g09.slc.cpg/sg57_12_cif.got.tgz:22073.got - 2010.04.16 15:48:40.
