data_PCOD8234885
_publ_section_title
;
Structure prediction by ZEFSAII (Michael W. Deem and Ramdas Pophale) SiO2 
 PCOD8234885
Probable space group: P B C M
;
_chemical_formula_sum "Si O2"
_cell_formula_units_Z 48
_cell_length_a 11.170917
_cell_length_b 9.320027
_cell_length_c 23.360941
_cell_angle_alpha 90.000000
_cell_angle_beta 90.000000
_cell_angle_gamma 90.000000
_cell_volume 2432.183445
_symmetry_space_group_name_H-M "P B C M"
_symmetry_group_IT_number 57
_symmetry_cell_setting 'orthorhombic'
loop_
_space_group_symop_operation_xyz
x,y,z
-x,-y,1/2+z
x,1/2-y,-z
-x,1/2+y,1/2-z
-x,-y,-z
x,y,1/2-z
-x,1/2+y,z
x,1/2-y,1/2+z
loop_
_atom_site_type_symbol
_atom_site_label
_atom_site_fract_x
_atom_site_fract_y
_atom_site_fract_z
Si Si1 0.654054 0.782556 0.602329
Si Si2 0.136639 0.384789 0.973590
Si Si3 0.779455 0.364145 0.950374
Si Si4 0.862294 0.784675 0.316235
Si Si5 0.535658 0.008328 0.066309
Si Si6 0.972495 0.433211 0.872519
O O1 0.745275 0.809063 0.550999
O O2 0.730459 0.755932 0.660075
O O3 0.570909 0.925268 0.605312
O O4 0.568241 0.647935 0.589863
O O5 0.061603 0.468866 0.925567
O O6 0.060696 0.250000 0.000000
O O7 0.171851 0.486650 0.025111
O O8 0.646014 0.382211 0.927094
O O9 0.865372 0.330435 0.896265
O O10 0.782602 0.250000 0.000000
O O11 0.847552 0.819940 0.250000
O O12 0.953893 0.652247 0.324284
O O13 0.916959 0.921830 0.348054
O O14 0.500000 0.000000 0.000000
#
# Coordination Sequence:
#
# PCOD8234885 Si02
#       6
#     8   8   8   8   8   8
#     4  11  23  40  59  89 122 164 206 246 291 360
#     4  11  19  36  56  90 137 162 190 236 304 381
#     4  12  21  32  55  96 131 164 193 238 300 374
#     4  11  24  46  66  84 116 159 211 268 311 346
#     4  12  21  37  60  90 130 166 196 233 295 371
#     4  11  22  38  63  92 121 156 205 251 310 369
#
# _framework density 19.735354000000001
#
# number of rings (size 3 to 8) (size 9 to 14) (size 15 to 20)
#    0.000    0.667    5.000    5.000    0.000    0.000 
#    0.000    0.833    0.000    0.000    0.000    0.000 
#    0.000    0.000    0.000    0.000    0.000    0.000 
#
# Total GULP energy -595054.262471 kJ/mol
# GULP energy per Si atom -12396.963801 kJ/mol
# Density = 1.969044 g / cm^3
# Si number density = 19.735354 Si / 1000 Ang^3
#
#
#
# Elastic Constant Matrix: (Units=GPa)
#
#
# Indices 1 2 3 4 5 6 
#
# 1 97.2585 38.2881 33.0454 0.0000 0.0000 0.0000
# 2 38.2881 86.8819 21.0891 0.0000 0.0000 0.0000
# 3 33.0454 21.0891 86.6155 0.0000 0.0000 0.0000
# 4 0.0000 0.0000 0.0000 21.3158 0.0000 0.0000
# 5 0.0000 0.0000 0.0000 0.0000 7.5913 0.0000
# 6 0.0000 0.0000 0.0000 0.0000 0.0000 44.6461
#
#
#
# Elastic Compliance Matrix: (Units=1/GPa)
#
#
# Indices 1 2 3 4 5 6 
#
# 1 0.013612 -0.005036 -0.003967 0.000000 0.000000 0.000000
# 2 -0.005036 0.014096 -0.001511 0.000000 0.000000 0.000000
# 3 -0.003967 -0.001511 0.013427 0.000000 0.000000 0.000000
# 4 0.000000 0.000000 0.000000 0.046914 0.000000 0.000000
# 5 0.000000 0.000000 0.000000 0.000000 0.131730 0.000000
# 6 0.000000 0.000000 0.000000 0.000000 0.000000 0.022398
#
#
# Mechanical properties :
#
#
# Convention : Reuss Voigt Hill
#
# Bulk Modulus (GPa) = 49.73358 50.62234 50.17796
# Shear Modulus (GPa) = 18.52488 26.59952 22.56220
#
# Velocity S-wave (km/s) = 3.06709 3.67524 3.38485
# Velocity P-wave (km/s) = 6.14798 6.61181 6.38411
#
# Compressibility (1/GPa) = 0.02010714
#
# Stress axis : x y z
#
# Youngs Moduli (GPa) = 73.46300 70.94291 74.47857
#
# Poissons Ratio (x) = 0.35726 0.29547
# Poissons Ratio (y) = 0.36995 0.11252
# Poissons Ratio (z) = 0.29144 0.10718
#
# Static dielectric constant tensor:
#      x y z
#    x 4.027430 0.000000 0.000000 
#    y 0.000000 3.373890 0.000000 
#    z 0.000000 0.000000 3.274350 
# 
# 
# High freq. dielectric constant tensor:
#      x y z
#    x 1.786950 0.000000 0.000000 
#    y 0.000000 1.777330 0.000000 
#    z 0.000000 0.000000 1.729400 
# 
# From -- ./inp_files/27110.got.cif
#   From: 2010.03.12/outbox.cif.g09.slc.cpg/sg57_14_cif.got.tgz:27110.got - 2010.04.16 15:48:40.
