data_PCOD8234128
_publ_section_title
;
Structure prediction by ZEFSAII (Michael W. Deem and Ramdas Pophale) SiO2 
 PCOD8234128
Probable space group: P B C M
;
_chemical_formula_sum "Si O2"
_cell_formula_units_Z 64
_cell_length_a 9.363924
_cell_length_b 11.518935
_cell_length_c 29.978704
_cell_angle_alpha 90.000000
_cell_angle_beta 90.000000
_cell_angle_gamma 90.000000
_cell_volume 3233.575919
_symmetry_space_group_name_H-M "P B C M"
_symmetry_group_IT_number 57
_symmetry_cell_setting 'orthorhombic'
loop_
_space_group_symop_operation_xyz
x,y,z
-x,-y,1/2+z
x,1/2-y,-z
-x,1/2+y,1/2-z
-x,-y,-z
x,y,1/2-z
-x,1/2+y,z
x,1/2-y,1/2+z
loop_
_atom_site_type_symbol
_atom_site_label
_atom_site_fract_x
_atom_site_fract_y
_atom_site_fract_z
Si Si1 0.754260 0.257235 0.051022
Si Si2 0.577734 0.710416 0.451470
Si Si3 0.147262 0.601905 0.372604
Si Si4 0.881611 0.291234 0.198322
Si Si5 0.795313 0.727872 0.799533
Si Si6 0.844723 0.964694 0.663611
Si Si7 0.356425 0.114215 0.879069
Si Si8 0.650308 0.018047 0.910305
O O1 0.590593 0.220471 0.056125
O O2 0.857108 0.178358 0.081981
O O3 0.759678 0.389997 0.067842
O O4 0.808443 0.250000 0.000000
O O5 0.625322 0.750000 0.500000
O O6 0.671142 0.791071 0.418058
O O7 0.604189 0.572721 0.448196
O O8 0.187620 0.688583 0.331549
O O9 0.261016 0.500965 0.381392
O O10 0.998494 0.543281 0.359987
O O11 0.858584 0.257235 0.250000
O O12 0.807950 0.412540 0.186336
O O13 0.047682 0.318152 0.187339
O O14 0.751168 0.688153 0.750000
O O15 0.813951 0.866941 0.799742
O O16 0.674641 0.677453 0.832116
O O17 0.732306 0.940242 0.625074
O O18 0.520187 0.077743 0.884034
#
# Coordination Sequence:
#
# PCOD8234128 Si02
#       8
#     8   8   8   8   8   8   8   8
#     4  10  22  38  62  90 122 160 208 255 304 363
#     4  10  22  38  64  93 118 160 210 251 300 366
#     4  11  22  38  62  91 122 158 201 254 305 354
#     4  10  21  38  63  91 117 158 208 247 295 364
#     4  10  21  38  61  89 118 157 203 249 298 357
#     4  11  21  39  63  87 123 158 200 247 305 361
#     4  11  22  38  64  87 122 154 201 254 304 355
#     4  11  22  39  64  87 124 160 200 252 306 362
#
# _framework density 19.792328999999999
#
# number of rings (size 3 to 8) (size 9 to 14) (size 15 to 20)
#    0.000    1.500    5.000    0.375    1.750    2.500 
#    0.000    2.500    0.000    0.000    0.000    0.000 
#    0.000    0.000    0.000    0.000    0.000    0.000 
#
# Total GULP energy -793247.058024 kJ/mol
# GULP energy per Si atom -12394.485282 kJ/mol
# Density = 1.974728 g / cm^3
# Si number density = 19.792329 Si / 1000 Ang^3
#
#
#
# Elastic Constant Matrix: (Units=GPa)
#
#
# Indices 1 2 3 4 5 6 
#
# 1 20.2516 21.3353 16.9301 0.0000 0.0000 0.0000
# 2 21.3353 102.4639 43.7291 0.0000 0.0000 0.0000
# 3 16.9301 43.7291 126.2357 0.0000 0.0000 0.0000
# 4 0.0000 0.0000 0.0000 29.9053 0.0000 0.0000
# 5 0.0000 0.0000 0.0000 0.0000 22.6840 0.0000
# 6 0.0000 0.0000 0.0000 0.0000 0.0000 26.7056
#
#
#
# Elastic Compliance Matrix: (Units=1/GPa)
#
#
# Indices 1 2 3 4 5 6 
#
# 1 0.065617 -0.011626 -0.004773 0.000000 0.000000 0.000000
# 2 -0.011626 0.013513 -0.003122 0.000000 0.000000 0.000000
# 3 -0.004773 -0.003122 0.009643 0.000000 0.000000 0.000000
# 4 0.000000 0.000000 0.000000 0.033439 0.000000 0.000000
# 5 0.000000 0.000000 0.000000 0.000000 0.044084 0.000000
# 6 0.000000 0.000000 0.000000 0.000000 0.000000 0.037445
#
#
# Mechanical properties :
#
#
# Convention : Reuss Voigt Hill
#
# Bulk Modulus (GPa) = 20.10786 45.88225 32.99506
# Shear Modulus (GPa) = 19.27825 26.98940 23.13383
#
# Velocity S-wave (km/s) = 3.12433 3.69674 3.42252
# Velocity P-wave (km/s) = 4.81629 6.43843 5.68551
#
# Compressibility (1/GPa) = 0.04973179
#
# Stress axis : x y z
#
# Youngs Moduli (GPa) = 15.23991 74.00505 103.70030
#
# Poissons Ratio (x) = 0.86039 0.49495
# Poissons Ratio (y) = 0.17718 0.32372
# Poissons Ratio (z) = 0.07274 0.23102
#
# Static dielectric constant tensor:
#      x y z
#    x 3.321030 0.000000 0.000000 
#    y 0.000000 3.757470 0.000000 
#    z 0.000000 0.000000 3.600920 
# 
# 
# High freq. dielectric constant tensor:
#      x y z
#    x 1.739420 0.000000 0.000000 
#    y 0.000000 1.793040 0.000000 
#    z 0.000000 0.000000 1.773580 
# 
# From -- ./inp_files/29616.got.cif
#   From: 2010.03.12/outbox.cif.g09.slc.cpg/sg57_15_cif.got.tgz:29616.got - 2010.04.16 15:48:40.
