data_PCOD8234834
_publ_section_title
;
Structure prediction by ZEFSAII (Michael W. Deem and Ramdas Pophale) SiO2 
 PCOD8234834
Probable space group: P B C M
;
_chemical_formula_sum "Si O2"
_cell_formula_units_Z 64
_cell_length_a 14.889055
_cell_length_b 11.742857
_cell_length_c 18.179218
_cell_angle_alpha 90.000000
_cell_angle_beta 90.000000
_cell_angle_gamma 90.000000
_cell_volume 3178.455270
_symmetry_space_group_name_H-M "P B C M"
_symmetry_group_IT_number 57
_symmetry_cell_setting 'orthorhombic'
loop_
_space_group_symop_operation_xyz
x,y,z
-x,-y,1/2+z
x,1/2-y,-z
-x,1/2+y,1/2-z
-x,-y,-z
x,y,1/2-z
-x,1/2+y,z
x,1/2-y,1/2+z
loop_
_atom_site_type_symbol
_atom_site_label
_atom_site_fract_x
_atom_site_fract_y
_atom_site_fract_z
Si Si1 0.736059 0.088783 0.068691
Si Si2 0.323636 0.957193 0.094301
Si Si3 0.915069 0.262669 0.581353
Si Si4 0.436071 0.745351 0.082968
Si Si5 0.087886 0.310540 0.664291
Si Si6 0.762430 0.865010 0.164679
Si Si7 0.610807 0.818400 0.664764
Si Si8 0.149912 0.557775 0.667193
O O1 0.821041 0.170613 0.081344
O O2 0.647073 0.158216 0.090667
O O3 0.750061 0.979237 0.118884
O O4 0.727583 0.050244 0.984150
O O5 0.407676 0.873938 0.100484
O O6 0.254852 0.916064 0.157013
O O7 0.357438 0.083745 0.109557
O O8 0.952777 0.250000 0.500000
O O9 0.908410 0.136610 0.614549
O O10 0.991744 0.326214 0.626571
O O11 0.509930 0.712614 0.142504
O O12 0.475133 0.750000 0.000000
O O13 0.070544 0.296952 0.750000
O O14 0.149560 0.204927 0.636788
O O15 0.140307 0.425915 0.646011
O O16 0.774087 0.897844 0.250000
O O17 0.673810 0.790088 0.153042
O O18 0.613263 0.858474 0.750000
O O19 0.119519 0.583993 0.750000
#
# Coordination Sequence:
#
# PCOD8234834 Si02
#       8
#     8   8   8   8   8   8   8   8
#     4  11  24  43  66  94 134 168 215 270 325 384
#     4  11  22  44  69  92 129 172 214 264 320 382
#     4  12  24  43  65  97 131 163 214 271 317 381
#     4  10  24  43  65  95 129 170 212 265 322 387
#     4  10  24  44  64  93 131 172 217 260 322 390
#     4  10  24  44  62  91 134 173 214 269 323 384
#     4  11  25  43  66  97 129 168 220 266 316 385
#     4  11  22  42  68  90 123 174 217 259 316 381
#
# _framework density 20.135566000000001
#
# number of rings (size 3 to 8) (size 9 to 14) (size 15 to 20)
#    0.000    1.250    3.750    1.125    5.250    5.000 
#    0.000    0.000    0.000    0.000    0.000    0.000 
#    0.000    0.000    0.000    0.000    0.000    0.000 
#
# Total GULP energy -793623.977271 kJ/mol
# GULP energy per Si atom -12400.374645 kJ/mol
# Density = 2.008974 g / cm^3
# Si number density = 20.135566 Si / 1000 Ang^3
#
#
#
# Elastic Constant Matrix: (Units=GPa)
#
#
# Indices 1 2 3 4 5 6 
#
# 1 106.7599 21.3935 46.6036 0.0000 0.0000 0.0000
# 2 21.3935 104.3904 69.2269 0.0000 0.0000 0.0000
# 3 46.6036 69.2269 76.0833 0.0000 0.0000 0.0000
# 4 0.0000 0.0000 0.0000 36.5255 0.0000 0.0000
# 5 0.0000 0.0000 0.0000 0.0000 40.7164 0.0000
# 6 0.0000 0.0000 0.0000 0.0000 0.0000 38.6067
#
#
#
# Elastic Compliance Matrix: (Units=1/GPa)
#
#
# Indices 1 2 3 4 5 6 
#
# 1 0.014804 0.007512 -0.015903 0.000000 0.000000 0.000000
# 2 0.007512 0.027966 -0.030047 0.000000 0.000000 0.000000
# 3 -0.015903 -0.030047 0.050224 0.000000 0.000000 0.000000
# 4 0.000000 0.000000 0.000000 0.027378 0.000000 0.000000
# 5 0.000000 0.000000 0.000000 0.000000 0.024560 0.000000
# 6 0.000000 0.000000 0.000000 0.000000 0.000000 0.025902
#
#
# Mechanical properties :
#
#
# Convention : Reuss Voigt Hill
#
# Bulk Modulus (GPa) = 62.04369 62.40907 62.22638
# Shear Modulus (GPa) = 19.75646 33.17036 26.46341
#
# Velocity S-wave (km/s) = 3.13576 4.06316 3.62921
# Velocity P-wave (km/s) = 6.63254 7.28520 6.96652
#
# Compressibility (1/GPa) = 0.01611768
#
# Stress axis : x y z
#
# Youngs Moduli (GPa) = 67.55159 35.75801 19.91081
#
# Poissons Ratio (x) = -0.26863 0.31664
# Poissons Ratio (y) = -0.50747 0.59826
# Poissons Ratio (z) = 1.07427 1.07443
#
# Static dielectric constant tensor:
#      x y z
#    x 3.838910 0.000000 0.000000 
#    y 0.000000 3.748410 0.000000 
#    z 0.000000 0.000000 3.788400 
# 
# 
# High freq. dielectric constant tensor:
#      x y z
#    x 1.792160 0.000000 0.000000 
#    y 0.000000 1.794260 0.000000 
#    z 0.000000 0.000000 1.787510 
# 
# From -- ./inp_files/22639.got.cif
#   From: 2010.03.12/outbox.cif.g09.slc.cpg/sg57_12_cif.got.tgz:22639.got - 2010.04.16 15:48:40.
