data_PCOD8234368
_publ_section_title
;
Structure prediction by ZEFSAII (Michael W. Deem and Ramdas Pophale) SiO2 
 PCOD8234368
Probable space group: P B C M
;
_chemical_formula_sum "Si O2"
_cell_formula_units_Z 64
_cell_length_a 6.879692
_cell_length_b 16.438333
_cell_length_c 28.580202
_cell_angle_alpha 90.000000
_cell_angle_beta 90.000000
_cell_angle_gamma 90.000000
_cell_volume 3232.154137
_symmetry_space_group_name_H-M "P B C M"
_symmetry_group_IT_number 57
_symmetry_cell_setting 'orthorhombic'
loop_
_space_group_symop_operation_xyz
x,y,z
-x,-y,1/2+z
x,1/2-y,-z
-x,1/2+y,1/2-z
-x,-y,-z
x,y,1/2-z
-x,1/2+y,z
x,1/2-y,1/2+z
loop_
_atom_site_type_symbol
_atom_site_label
_atom_site_fract_x
_atom_site_fract_y
_atom_site_fract_z
Si Si1 0.338900 0.971094 0.534944
Si Si2 0.464818 0.196012 0.889638
Si Si3 0.095613 0.394640 0.418323
Si Si4 0.120143 0.007368 0.153733
Si Si5 0.281071 0.546589 0.303343
Si Si6 0.439467 0.598637 0.802675
Si Si7 0.460754 0.114844 0.121149
Si Si8 0.241338 0.670360 0.529158
O O1 0.432927 0.940203 0.582864
O O2 0.223429 0.900989 0.508507
O O3 0.500000 0.000000 0.500000
O O4 0.193587 0.044568 0.544942
O O5 0.252854 0.156074 0.889460
O O6 0.562091 0.172195 0.839960
O O7 0.446277 0.292486 0.895332
O O8 0.586998 0.158816 0.932759
O O9 0.954464 0.446013 0.385412
O O10 0.965876 0.327450 0.444982
O O11 0.250973 0.957992 0.190551
O O12 0.245694 0.079274 0.129894
O O13 0.941891 0.048725 0.180606
O O14 0.294104 0.575032 0.250000
O O15 0.367954 0.456063 0.310428
O O16 0.407188 0.611291 0.332471
O O17 0.434795 0.634524 0.750000
O O18 0.283334 0.750000 0.500000
#
# Coordination Sequence:
#
# PCOD8234368 Si02
#       8
#     8   8   8   8   8   8   8   8
#     4  12  23  42  66  93 125 172 216 267 311 382
#     4  12  24  44  63  95 135 172 209 272 325 387
#     4  12  24  41  69  94 128 168 224 268 313 380
#     4  11  20  41  68  98 122 169 216 268 313 383
#     4  10  21  41  67  96 127 167 215 264 320 386
#     4  10  21  40  69  96 125 167 214 262 320 387
#     4  11  25  40  66  93 134 167 212 266 328 380
#     4  12  26  43  65  95 133 173 216 261 332 379
#
# _framework density 19.801036
#
# number of rings (size 3 to 8) (size 9 to 14) (size 15 to 20)
#    0.000    0.750    6.250    2.250    0.000    4.500 
#    0.000    0.000    0.000    0.000    0.000    0.000 
#    0.000    0.000    0.000    0.000    0.000    0.000 
#
# Total GULP energy -793798.263027 kJ/mol
# GULP energy per Si atom -12403.097860 kJ/mol
# Density = 1.975597 g / cm^3
# Si number density = 19.801036 Si / 1000 Ang^3
#
#
#
# Elastic Constant Matrix: (Units=GPa)
#
#
# Indices 1 2 3 4 5 6 
#
# 1 118.0217 23.4680 38.3786 0.0000 0.0000 0.0000
# 2 23.4680 53.4049 15.3541 0.0000 0.0000 0.0000
# 3 38.3786 15.3541 112.1012 0.0000 0.0000 0.0000
# 4 0.0000 0.0000 0.0000 34.2206 0.0000 0.0000
# 5 0.0000 0.0000 0.0000 0.0000 30.7728 0.0000
# 6 0.0000 0.0000 0.0000 0.0000 0.0000 24.9672
#
#
#
# Elastic Compliance Matrix: (Units=1/GPa)
#
#
# Indices 1 2 3 4 5 6 
#
# 1 0.010161 -0.003607 -0.002985 0.000000 0.000000 0.000000
# 2 -0.003607 0.020773 -0.001610 0.000000 0.000000 0.000000
# 3 -0.002985 -0.001610 0.010163 0.000000 0.000000 0.000000
# 4 0.000000 0.000000 0.000000 0.029222 0.000000 0.000000
# 5 0.000000 0.000000 0.000000 0.000000 0.032496 0.000000
# 6 0.000000 0.000000 0.000000 0.000000 0.000000 0.040053
#
#
# Mechanical properties :
#
#
# Convention : Reuss Voigt Hill
#
# Bulk Modulus (GPa) = 40.49760 48.65879 44.57819
# Shear Modulus (GPa) = 29.85038 31.74725 30.79881
#
# Velocity S-wave (km/s) = 3.88689 4.00848 3.94815
# Velocity P-wave (km/s) = 6.37499 6.78610 6.58375
#
# Compressibility (1/GPa) = 0.02469282
#
# Stress axis : x y z
#
# Youngs Moduli (GPa) = 98.41772 48.13975 98.39741
#
# Poissons Ratio (x) = 0.17364 0.29368
# Poissons Ratio (y) = 0.35498 0.15845
# Poissons Ratio (z) = 0.29374 0.07752
#
# Static dielectric constant tensor:
#      x y z
#    x 1.916650 0.000000 0.000000 
#    y 0.000000 3.167140 0.000000 
#    z 0.000000 0.000000 3.553370 
# 
# 
# High freq. dielectric constant tensor:
#      x y z
#    x 1.782070 0.000000 0.000000 
#    y 0.000000 1.755830 0.000000 
#    z 0.000000 0.000000 1.785490 
# 
# From -- ./inp_files/29273.got.cif
#   From: 2010.03.12/outbox.cif.g09.slc.cpg/sg57_15_cif.got.tgz:29273.got - 2010.04.16 15:48:40.
