data_PCOD8234813
_publ_section_title
;
Structure prediction by ZEFSAII (Michael W. Deem and Ramdas Pophale) SiO2 
 PCOD8234813
Probable space group: P B C M
;
_chemical_formula_sum "Si O2"
_cell_formula_units_Z 56
_cell_length_a 9.110036
_cell_length_b 13.715428
_cell_length_c 22.638171
_cell_angle_alpha 90.000000
_cell_angle_beta 90.000000
_cell_angle_gamma 90.000000
_cell_volume 2828.595160
_symmetry_space_group_name_H-M "P B C M"
_symmetry_group_IT_number 57
_symmetry_cell_setting 'orthorhombic'
loop_
_space_group_symop_operation_xyz
x,y,z
-x,-y,1/2+z
x,1/2-y,-z
-x,1/2+y,1/2-z
-x,-y,-z
x,y,1/2-z
-x,1/2+y,z
x,1/2-y,1/2+z
loop_
_atom_site_type_symbol
_atom_site_label
_atom_site_fract_x
_atom_site_fract_y
_atom_site_fract_z
Si Si1 0.671680 0.355109 0.907026
Si Si2 0.933899 0.394037 0.992767
Si Si3 0.877523 0.249041 0.318949
Si Si4 0.394728 0.238520 0.565666
Si Si5 0.123016 0.344062 0.608378
Si Si6 0.821838 0.068514 0.611881
Si Si7 0.496048 0.467374 0.068706
O O1 0.779874 0.390649 0.958593
O O2 0.754703 0.318424 0.849190
O O3 0.563930 0.271139 0.930444
O O4 0.571294 0.447682 0.890739
O O5 0.048372 0.326812 0.956514
O O6 0.902202 0.365071 0.060792
O O7 0.000000 0.500000 0.000000
O O8 0.868485 0.230443 0.250000
O O9 0.844975 0.363983 0.330752
O O10 0.037339 0.215664 0.341529
O O11 0.335113 0.250000 0.500000
O O12 0.288179 0.301820 0.607923
O O13 0.389328 0.124162 0.579966
O O14 0.113261 0.460147 0.622743
O O15 0.655224 0.055767 0.593132
O O16 0.500000 0.500000 0.000000
#
# Coordination Sequence:
#
# PCOD8234813 Si02
#       7
#     8   8   8   8   8   8   8
#     4  11  22  40  64  92 134 170 211 264 329 393
#     4   9  20  34  57  95 131 167 194 253 328 411
#     4  11  27  47  65  87 126 181 236 270 309 375
#     4  12  22  34  63 101 136 167 200 260 334 408
#     4  10  24  39  63  98 132 165 214 270 335 387
#     4  11  20  40  66  94 129 168 216 264 335 392
#     4  12  21  36  64 102 138 166 204 257 337 413
#
# _framework density 19.797813999999999
#
# number of rings (size 3 to 8) (size 9 to 14) (size 15 to 20)
#    0.000    1.143    5.714    0.000    4.000    4.000 
#    0.000    1.429    0.000    0.000    0.000    0.000 
#    0.000    0.000    0.000    0.000    0.000    0.000 
#
# Total GULP energy -694061.082451 kJ/mol
# GULP energy per Si atom -12393.947901 kJ/mol
# Density = 1.975275 g / cm^3
# Si number density = 19.797814 Si / 1000 Ang^3
#
#
#
# Elastic Constant Matrix: (Units=GPa)
#
#
# Indices 1 2 3 4 5 6 
#
# 1 103.5251 39.0150 39.9703 0.0000 0.0000 0.0000
# 2 39.0150 125.2587 38.2629 0.0000 0.0000 0.0000
# 3 39.9703 38.2629 98.0173 0.0000 0.0000 0.0000
# 4 0.0000 0.0000 0.0000 21.7729 0.0000 0.0000
# 5 0.0000 0.0000 0.0000 0.0000 17.1742 0.0000
# 6 0.0000 0.0000 0.0000 0.0000 0.0000 30.8139
#
#
#
# Elastic Compliance Matrix: (Units=1/GPa)
#
#
# Indices 1 2 3 4 5 6 
#
# 1 0.012157 -0.002580 -0.003950 0.000000 0.000000 0.000000
# 2 -0.002580 0.009612 -0.002700 0.000000 0.000000 0.000000
# 3 -0.003950 -0.002700 0.012867 0.000000 0.000000 0.000000
# 4 0.000000 0.000000 0.000000 0.045929 0.000000 0.000000
# 5 0.000000 0.000000 0.000000 0.000000 0.058227 0.000000
# 6 0.000000 0.000000 0.000000 0.000000 0.000000 0.032453
#
#
# Mechanical properties :
#
#
# Convention : Reuss Voigt Hill
#
# Bulk Modulus (GPa) = 61.82253 62.36638 62.09446
# Shear Modulus (GPa) = 25.62828 27.92240 26.77534
#
# Velocity S-wave (km/s) = 3.60182 3.75957 3.68154
# Velocity P-wave (km/s) = 6.97081 7.10042 7.03591
#
# Compressibility (1/GPa) = 0.01617533
#
# Stress axis : x y z
#
# Youngs Moduli (GPa) = 82.25739 104.03824 77.71672
#
# Poissons Ratio (x) = 0.26841 0.30701
# Poissons Ratio (y) = 0.21221 0.20985
# Poissons Ratio (z) = 0.32495 0.28092
#
# Static dielectric constant tensor:
#      x y z
#    x 3.803550 0.000000 0.000000 
#    y 0.000000 3.817590 0.000000 
#    z 0.000000 0.000000 3.294270 
# 
# 
# High freq. dielectric constant tensor:
#      x y z
#    x 1.787200 0.000000 0.000000 
#    y 0.000000 1.792860 0.000000 
#    z 0.000000 0.000000 1.713930 
# 
# From -- ./inp_files/24402.got.cif
#   From: 2010.03.12/outbox.cif.g09.slc.cpg/sg57_13_cif.got.tgz:24402.got - 2010.04.16 15:48:40.
