data_PCOD8234244
_publ_section_title
;
Structure prediction by ZEFSAII (Michael W. Deem and Ramdas Pophale) SiO2 
 PCOD8234244
Probable space group: P B C M
;
_chemical_formula_sum "Si O2"
_cell_formula_units_Z 64
_cell_length_a 11.804616
_cell_length_b 18.507227
_cell_length_c 14.349157
_cell_angle_alpha 90.000000
_cell_angle_beta 90.000000
_cell_angle_gamma 90.000000
_cell_volume 3134.870488
_symmetry_space_group_name_H-M "P B C M"
_symmetry_group_IT_number 57
_symmetry_cell_setting 'orthorhombic'
loop_
_space_group_symop_operation_xyz
x,y,z
-x,-y,1/2+z
x,1/2-y,-z
-x,1/2+y,1/2-z
-x,-y,-z
x,y,1/2-z
-x,1/2+y,z
x,1/2-y,1/2+z
loop_
_atom_site_type_symbol
_atom_site_label
_atom_site_fract_x
_atom_site_fract_y
_atom_site_fract_z
Si Si1 0.274277 0.751450 0.610679
Si Si2 0.050840 0.924807 0.971821
Si Si3 0.735360 0.408242 0.855417
Si Si4 0.905994 0.706253 0.092508
Si Si5 0.067023 0.668138 0.848003
Si Si6 0.506428 0.083252 0.473822
Si Si7 0.345326 0.320060 0.644314
Si Si8 0.492337 0.311498 0.144961
O O1 0.260110 0.750000 0.500000
O O2 0.227121 0.825755 0.651527
O O3 0.197522 0.691109 0.656743
O O4 0.401810 0.742140 0.643696
O O5 0.165447 0.945887 0.915582
O O6 0.970027 0.870567 0.915236
O O7 0.066036 0.887752 0.070297
O O8 0.000000 0.000000 0.000000
O O9 0.725418 0.441406 0.750000
O O10 0.616949 0.408832 0.910437
O O11 0.790070 0.683869 0.142351
O O12 0.985673 0.762020 0.146922
O O13 0.873745 0.750000 0.000000
O O14 0.037609 0.628972 0.750000
O O15 0.396885 0.115399 0.419625
O O16 0.514411 0.124359 0.572533
O O17 0.500000 0.000000 0.500000
O O18 0.384547 0.335982 0.750000
O O19 0.389054 0.240284 0.613604
O O20 0.473354 0.342798 0.250000
#
# Coordination Sequence:
#
# PCOD8234244 Si02
#       8
#     8   8   8   8   8   8   8   8
#     4  12  18  37  67  96 123 152 200 265 320 359
#     4  11  25  42  64  91 134 168 209 259 321 380
#     4  12  24  42  68  96 124 164 214 263 321 383
#     4  10  21  39  63  90 125 167 213 263 314 372
#     4  11  21  38  64  94 124 163 210 262 313 371
#     4  12  26  42  65  90 133 169 206 259 321 382
#     4  11  23  41  65  92 122 165 218 265 313 375
#     4  11  22  39  65  94 123 160 210 263 312 371
#
# _framework density 20.415517000000001
#
# number of rings (size 3 to 8) (size 9 to 14) (size 15 to 20)
#    0.000    0.750    5.000    3.375    1.750    2.000 
#    0.000    0.000    0.000    0.000    0.000    0.000 
#    0.000    0.000    0.000    0.000    0.000    0.000 
#
# Total GULP energy -793040.489333 kJ/mol
# GULP energy per Si atom -12391.257646 kJ/mol
# Density = 2.036905 g / cm^3
# Si number density = 20.415517 Si / 1000 Ang^3
#
#
#
# Elastic Constant Matrix: (Units=GPa)
#
#
# Indices 1 2 3 4 5 6 
#
# 1 97.1538 13.1241 39.0604 0.0000 0.0000 0.0000
# 2 13.1241 82.7687 37.7580 0.0000 0.0000 0.0000
# 3 39.0604 37.7580 148.8031 0.0000 0.0000 0.0000
# 4 0.0000 0.0000 0.0000 -0.7312 0.0000 0.0000
# 5 0.0000 0.0000 0.0000 0.0000 24.0011 0.0000
# 6 0.0000 0.0000 0.0000 0.0000 0.0000 19.4522
#
#
#
# Elastic Compliance Matrix: (Units=1/GPa)
#
#
# Indices 1 2 3 4 5 6 
#
# 1 0.011526 -0.000506 -0.002897 0.000000 0.000000 0.000000
# 2 -0.000506 0.013686 -0.003340 0.000000 0.000000 0.000000
# 3 -0.002897 -0.003340 0.008328 0.000000 0.000000 0.000000
# 4 0.000000 0.000000 0.000000 -1.367566 0.000000 0.000000
# 5 0.000000 0.000000 0.000000 0.000000 0.041665 0.000000
# 6 0.000000 0.000000 0.000000 0.000000 0.000000 0.051408
#
#
# Mechanical properties :
#
#
# Convention : Reuss Voigt Hill
#
# Bulk Modulus (GPa) = 49.86525 56.51230 53.18878
# Shear Modulus (GPa) = -4.09573 24.46330 10.18378
#
# Velocity S-wave (km/s) = -1.41794 3.46536 2.23586
# Velocity P-wave (km/s) = 4.66878 6.61459 5.72496
#
# Compressibility (1/GPa) = 0.02005405
#
# Stress axis : x y z
#
# Youngs Moduli (GPa) = 86.75952 73.06906 120.07309
#
# Poissons Ratio (x) = 0.03697 0.34787
# Poissons Ratio (y) = 0.04390 0.40103
# Poissons Ratio (z) = 0.25136 0.24404
#
# Static dielectric constant tensor:
#      x y z
#    x 3.814900 0.000000 0.000000 
#    y 0.000000 3.162720 0.000000 
#    z 0.000000 0.000000 4.064890 
# 
# 
# High freq. dielectric constant tensor:
#      x y z
#    x 1.806250 0.000000 0.000000 
#    y 0.000000 1.771460 0.000000 
#    z 0.000000 0.000000 1.818010 
# 
# From -- ./inp_files/17979.got.cif
#   From: 2010.03.12/outbox.cif.g09.slc.cpg/sg57_9_cif.got.tgz:17979.got - 2010.04.16 15:48:40.
