data_PCOD8234467
_publ_section_title
;
Structure prediction by ZEFSAII (Michael W. Deem and Ramdas Pophale) SiO2 
 PCOD8234467
Probable space group: P B C M
;
_chemical_formula_sum "Si O2"
_cell_formula_units_Z 48
_cell_length_a 15.617461
_cell_length_b 18.198202
_cell_length_c 8.828131
_cell_angle_alpha 90.000000
_cell_angle_beta 90.000000
_cell_angle_gamma 90.000000
_cell_volume 2509.040551
_symmetry_space_group_name_H-M "P B C M"
_symmetry_group_IT_number 57
_symmetry_cell_setting 'orthorhombic'
loop_
_space_group_symop_operation_xyz
x,y,z
-x,-y,1/2+z
x,1/2-y,-z
-x,1/2+y,1/2-z
-x,-y,-z
x,y,1/2-z
-x,1/2+y,z
x,1/2-y,1/2+z
loop_
_atom_site_type_symbol
_atom_site_label
_atom_site_fract_x
_atom_site_fract_y
_atom_site_fract_z
Si Si1 0.682532 0.577892 0.426996
Si Si2 0.995182 0.579554 0.928138
Si Si3 0.673201 0.411743 0.430032
Si Si4 0.161659 0.672855 0.574114
Si Si5 0.158085 0.330200 0.569240
Si Si6 0.495568 0.920742 0.572809
O O1 0.699210 0.570768 0.250000
O O2 0.687155 0.494824 0.492995
O O3 0.756930 0.629070 0.495158
O O4 0.589234 0.615374 0.459188
O O5 0.974917 0.575213 0.750000
O O6 0.085797 0.616941 0.960745
O O7 0.000000 0.500000 0.000000
O O8 0.923422 0.625396 0.013413
O O9 0.667603 0.411321 0.250000
O O10 0.750636 0.361745 0.491172
O O11 0.584085 0.377940 0.496021
O O12 0.140199 0.750000 0.500000
O O13 0.172172 0.687248 0.750000
O O14 0.155580 0.250000 0.500000
O O15 0.156788 0.324900 0.750000
O O16 0.478255 0.927459 0.750000
O O17 0.500000 0.000000 0.500000
#
# Coordination Sequence:
#
# PCOD8234467 Si02
#       6
#     8   8   8   8   8   8
#     4   8  16  32  54  75 103 141 179 219 269 320
#     4  11  23  40  61  85 109 140 180 225 272 323
#     4   9  17  33  54  77 103 137 179 224 269 316
#     4  10  22  38  56  78 110 146 179 216 267 322
#     4  11  22  38  57  80 111 147 182 222 270 324
#     4   9  16  29  50  77 105 137 176 222 270 317
#
# _framework density 19.130818999999999
#
# number of rings (size 3 to 8) (size 9 to 14) (size 15 to 20)
#    0.000    2.333    0.000    4.000    0.000    6.000 
#    0.000   12.500    0.000    4.000    0.000    0.000 
#    0.000    0.000    0.000    0.000    0.000    0.000 
#
# Total GULP energy -594981.087479 kJ/mol
# GULP energy per Si atom -12395.439322 kJ/mol
# Density = 1.908728 g / cm^3
# Si number density = 19.130819 Si / 1000 Ang^3
#
#
#
# Elastic Constant Matrix: (Units=GPa)
#
#
# Indices 1 2 3 4 5 6 
#
# 1 95.8932 12.9542 47.0186 0.0000 0.0000 0.0000
# 2 12.9542 77.5244 33.5394 0.0000 0.0000 0.0000
# 3 47.0186 33.5394 62.5369 0.0000 0.0000 0.0000
# 4 0.0000 0.0000 0.0000 25.0048 0.0000 0.0000
# 5 0.0000 0.0000 0.0000 0.0000 32.6629 0.0000
# 6 0.0000 0.0000 0.0000 0.0000 0.0000 -11.3789
#
#
#
# Elastic Compliance Matrix: (Units=1/GPa)
#
#
# Indices 1 2 3 4 5 6 
#
# 1 0.017237 0.003550 -0.014863 0.000000 0.000000 0.000000
# 2 0.003550 0.017528 -0.012069 0.000000 0.000000 0.000000
# 3 -0.014863 -0.012069 0.033639 0.000000 0.000000 0.000000
# 4 0.000000 0.000000 0.000000 0.039992 0.000000 0.000000
# 5 0.000000 0.000000 0.000000 0.000000 0.030616 0.000000
# 6 0.000000 0.000000 0.000000 0.000000 0.000000 -0.087882
#
#
# Mechanical properties :
#
#
# Convention : Reuss Voigt Hill
#
# Bulk Modulus (GPa) = 46.21627 46.99766 46.60696
# Shear Modulus (GPa) = 47.57092 18.75393 33.16242
#
# Velocity S-wave (km/s) = 4.99200 3.13437 4.16800
# Velocity P-wave (km/s) = 7.57874 6.14157 6.89768
#
# Compressibility (1/GPa) = 0.02163740
#
# Stress axis : x y z
#
# Youngs Moduli (GPa) = 58.01640 57.05301 29.72776
#
# Poissons Ratio (x) = -0.20255 0.44185
# Poissons Ratio (y) = -0.20597 0.35880
# Poissons Ratio (z) = 0.86232 0.68860
#
# Static dielectric constant tensor:
#      x y z
#    x 4.183100 0.000000 0.000000 
#    y 0.000000 3.412550 0.000000 
#    z 0.000000 0.000000 3.501700 
# 
# 
# High freq. dielectric constant tensor:
#      x y z
#    x 1.770740 0.000000 0.000000 
#    y 0.000000 1.722360 0.000000 
#    z 0.000000 0.000000 1.731750 
# 
# From -- ./inp_files/4641.got.cif
#   From: 2010.03.12/outbox.cif.g09.slc.cpg/sg57_3_cif.got.tgz:4641.got - 2010.04.16 15:48:40.
