data_PCOD8234678
_publ_section_title
;
Structure prediction by ZEFSAII (Michael W. Deem and Ramdas Pophale) SiO2 
 PCOD8234678
Probable space group: P B C M
;
_chemical_formula_sum "Si O2"
_cell_formula_units_Z 32
_cell_length_a 9.881722
_cell_length_b 10.467690
_cell_length_c 12.844609
_cell_angle_alpha 90.000000
_cell_angle_beta 90.000000
_cell_angle_gamma 90.000000
_cell_volume 1328.630974
_symmetry_space_group_name_H-M "P B C M"
_symmetry_group_IT_number 57
_symmetry_cell_setting 'orthorhombic'
loop_
_space_group_symop_operation_xyz
x,y,z
-x,-y,1/2+z
x,1/2-y,-z
-x,1/2+y,1/2-z
-x,-y,-z
x,y,1/2-z
-x,1/2+y,z
x,1/2-y,1/2+z
loop_
_atom_site_type_symbol
_atom_site_label
_atom_site_fract_x
_atom_site_fract_y
_atom_site_fract_z
Si Si1 0.327821 0.116978 0.535195
Si Si2 0.884193 0.311480 0.128482
Si Si3 0.601406 0.081313 0.868367
Si Si4 0.080785 0.970811 0.873530
O O1 0.258971 0.250000 0.500000
O O2 0.459909 0.149292 0.604624
O O3 0.224746 0.033131 0.601750
O O4 0.377982 0.047274 0.432123
O O5 0.922043 0.309707 0.250000
O O6 0.723907 0.320706 0.109646
O O7 0.960009 0.438345 0.081043
O O8 0.928319 0.174224 0.078024
O O9 0.602284 0.036493 0.750000
O O10 0.068321 0.957042 0.750000
#
# Coordination Sequence:
#
# PCOD8234678 Si02
#       4
#     8   8   8   8
#     4  11  26  42  65 102 129 175 229 277 337 404
#     4   9  21  41  69  99 132 178 220 271 336 396
#     4  10  24  45  67  93 134 177 222 279 339 401
#     4  10  22  43  69 100 137 175 224 278 335 400
#
# _framework density 24.084944
#
# number of rings (size 3 to 8) (size 9 to 14) (size 15 to 20)
#    0.000    2.000    0.000    0.750   10.500    3.000 
#    0.000    0.000    0.000    0.000    0.000    0.000 
#    0.000    0.000    0.000    0.000    0.000    0.000 
#
# Total GULP energy -396916.619166 kJ/mol
# GULP energy per Si atom -12403.644349 kJ/mol
# Density = 2.403013 g / cm^3
# Si number density = 24.084944 Si / 1000 Ang^3
#
#
#
# Elastic Constant Matrix: (Units=GPa)
#
#
# Indices 1 2 3 4 5 6 
#
# 1 145.2578 68.9861 26.0892 0.0000 0.0000 0.0000
# 2 68.9861 197.8476 28.3661 0.0000 0.0000 0.0000
# 3 26.0892 28.3661 42.0152 0.0000 0.0000 0.0000
# 4 0.0000 0.0000 0.0000 13.1582 0.0000 0.0000
# 5 0.0000 0.0000 0.0000 0.0000 34.9913 0.0000
# 6 0.0000 0.0000 0.0000 0.0000 0.0000 30.1477
#
#
#
# Elastic Compliance Matrix: (Units=1/GPa)
#
#
# Indices 1 2 3 4 5 6 
#
# 1 0.008750 -0.002515 -0.003735 0.000000 0.000000 0.000000
# 2 -0.002515 0.006319 -0.002704 0.000000 0.000000 0.000000
# 3 -0.003735 -0.002704 0.027946 0.000000 0.000000 0.000000
# 4 0.000000 0.000000 0.000000 0.075998 0.000000 0.000000
# 5 0.000000 0.000000 0.000000 0.000000 0.028579 0.000000
# 6 0.000000 0.000000 0.000000 0.000000 0.000000 0.033170
#
#
# Mechanical properties :
#
#
# Convention : Reuss Voigt Hill
#
# Bulk Modulus (GPa) = 39.83191 70.22261 55.02726
# Shear Modulus (GPa) = 24.14997 33.10471 28.62734
#
# Velocity S-wave (km/s) = 3.16998 3.71144 3.45135
# Velocity P-wave (km/s) = 5.47470 6.89826 6.22729
#
# Compressibility (1/GPa) = 0.02510550
#
# Stress axis : x y z
#
# Youngs Moduli (GPa) = 114.28906 158.24748 35.78335
#
# Poissons Ratio (x) = 0.39806 0.13365
# Poissons Ratio (y) = 0.28748 0.09677
# Poissons Ratio (z) = 0.42686 0.42797
#
# Static dielectric constant tensor:
#      x y z
#    x 4.381730 0.000000 0.000000 
#    y 0.000000 4.502110 0.000000 
#    z 0.000000 0.000000 4.542980 
# 
# 
# High freq. dielectric constant tensor:
#      x y z
#    x 1.951790 0.000000 0.000000 
#    y 0.000000 1.960060 0.000000 
#    z 0.000000 0.000000 1.987280 
# 
# From -- ./inp_files/15491.got.cif
#   From: 2010.03.12/outbox.cif.g09.slc.cpg/sg57_8_cif.got.tgz:15491.got - 2010.04.16 15:48:40.
