data_PCOD8234357
_publ_section_title
;
Structure prediction by ZEFSAII (Michael W. Deem and Ramdas Pophale) SiO2 
 PCOD8234357
Probable space group: P B C M
;
_chemical_formula_sum "Si O2"
_cell_formula_units_Z 64
_cell_length_a 12.435591
_cell_length_b 15.691568
_cell_length_c 16.225520
_cell_angle_alpha 90.000000
_cell_angle_beta 90.000000
_cell_angle_gamma 90.000000
_cell_volume 3166.149351
_symmetry_space_group_name_H-M "P B C M"
_symmetry_group_IT_number 57
_symmetry_cell_setting 'orthorhombic'
loop_
_space_group_symop_operation_xyz
x,y,z
-x,-y,1/2+z
x,1/2-y,-z
-x,1/2+y,1/2-z
-x,-y,-z
x,y,1/2-z
-x,1/2+y,z
x,1/2-y,1/2+z
loop_
_atom_site_type_symbol
_atom_site_label
_atom_site_fract_x
_atom_site_fract_y
_atom_site_fract_z
Si Si1 0.069510 0.690900 0.347884
Si Si2 0.305287 0.182566 0.931443
Si Si3 0.982210 0.987856 0.904541
Si Si4 0.277543 0.783298 0.152624
Si Si5 0.492579 0.282259 0.652465
Si Si6 0.245492 0.526208 0.847921
Si Si7 0.916721 0.659756 0.654958
Si Si8 0.577808 0.938155 0.951956
O O1 0.065539 0.691794 0.250000
O O2 0.189447 0.715312 0.379666
O O3 0.044191 0.597250 0.379503
O O4 0.986541 0.762200 0.382959
O O5 0.393394 0.220256 0.868340
O O6 0.199884 0.154610 0.884058
O O7 0.271859 0.250000 0.000000
O O8 0.348669 0.099303 0.976113
O O9 0.856879 0.975617 0.883467
O O10 0.024475 0.069538 0.855270
O O11 0.000000 0.000000 0.000000
O O12 0.278462 0.783484 0.250000
O O13 0.397110 0.761628 0.121717
O O14 0.240983 0.876212 0.121970
O O15 0.492236 0.302548 0.750000
O O16 0.487728 0.367425 0.598551
O O17 0.248681 0.516430 0.750000
O O18 0.352916 0.486133 0.883800
O O19 0.900430 0.678290 0.750000
O O20 0.500000 0.000000 0.000000
#
# Coordination Sequence:
#
# PCOD8234357 Si02
#       8
#     8   8   8   8   8   8   8   8
#     4  10  22  41  65  92 125 170 216 270 327 391
#     4  10  23  40  62  90 129 162 212 271 330 392
#     4  12  26  40  62  98 136 171 218 274 339 398
#     4   9  19  39  65  92 122 159 216 269 314 381
#     4  10  21  40  66  94 122 170 223 267 329 405
#     4  11  22  42  67  93 127 176 230 272 322 410
#     4  11  23  42  66  92 128 170 218 270 327 393
#     4  11  24  41  61  93 133 168 212 274 338 390
#
# _framework density 20.213826999999998
#
# number of rings (size 3 to 8) (size 9 to 14) (size 15 to 20)
#    0.000    1.500    1.250    3.375    5.250    2.000 
#    0.000    4.375    0.000    0.000    0.000    0.000 
#    0.000    0.000    0.000    0.000    0.000    0.000 
#
# Total GULP energy -793709.495705 kJ/mol
# GULP energy per Si atom -12401.710870 kJ/mol
# Density = 2.016782 g / cm^3
# Si number density = 20.213827 Si / 1000 Ang^3
#
#
#
# Elastic Constant Matrix: (Units=GPa)
#
#
# Indices 1 2 3 4 5 6 
#
# 1 104.1417 32.4852 35.5248 0.0000 0.0000 0.0000
# 2 32.4852 106.7490 20.2115 0.0000 0.0000 0.0000
# 3 35.5248 20.2115 79.5158 0.0000 0.0000 0.0000
# 4 0.0000 0.0000 0.0000 23.2272 0.0000 0.0000
# 5 0.0000 0.0000 0.0000 0.0000 19.0708 0.0000
# 6 0.0000 0.0000 0.0000 0.0000 0.0000 30.9239
#
#
#
# Elastic Compliance Matrix: (Units=1/GPa)
#
#
# Indices 1 2 3 4 5 6 
#
# 1 0.012069 -0.002786 -0.004684 0.000000 0.000000 0.000000
# 2 -0.002786 0.010484 -0.001420 0.000000 0.000000 0.000000
# 3 -0.004684 -0.001420 0.015030 0.000000 0.000000 0.000000
# 4 0.000000 0.000000 0.000000 0.043053 0.000000 0.000000
# 5 0.000000 0.000000 0.000000 0.000000 0.052436 0.000000
# 6 0.000000 0.000000 0.000000 0.000000 0.000000 0.032337
#
#
# Mechanical properties :
#
#
# Convention : Reuss Voigt Hill
#
# Bulk Modulus (GPa) = 50.49741 51.87218 51.18480
# Shear Modulus (GPa) = 26.34472 28.12337 27.23405
#
# Velocity S-wave (km/s) = 3.61404 3.73405 3.67454
# Velocity P-wave (km/s) = 6.51544 6.65645 6.58632
#
# Compressibility (1/GPa) = 0.01980299
#
# Stress axis : x y z
#
# Youngs Moduli (GPa) = 82.85619 95.37894 66.53475
#
# Poissons Ratio (x) = 0.26572 0.31164
# Poissons Ratio (y) = 0.23083 0.09450
# Poissons Ratio (z) = 0.38809 0.13547
#
# Static dielectric constant tensor:
#      x y z
#    x 3.835550 0.000000 0.000000 
#    y 0.000000 2.146880 0.000000 
#    z 0.000000 0.000000 3.561680 
# 
# 
# High freq. dielectric constant tensor:
#      x y z
#    x 1.803200 0.000000 0.000000 
#    y 0.000000 1.796380 0.000000 
#    z 0.000000 0.000000 1.788900 
# 
# From -- ./inp_files/22066.got.cif
#   From: 2010.03.12/outbox.cif.g09.slc.cpg/sg57_12_cif.got.tgz:22066.got - 2010.04.16 15:48:40.
