data_PCOD8234801
_publ_section_title
;
Structure prediction by ZEFSAII (Michael W. Deem and Ramdas Pophale) SiO2 
 PCOD8234801
Probable space group: P B C M
;
_chemical_formula_sum "Si O2"
_cell_formula_units_Z 48
_cell_length_a 11.803951
_cell_length_b 11.693259
_cell_length_c 16.153888
_cell_angle_alpha 90.000000
_cell_angle_beta 90.000000
_cell_angle_gamma 90.000000
_cell_volume 2229.667146
_symmetry_space_group_name_H-M "P B C M"
_symmetry_group_IT_number 57
_symmetry_cell_setting 'orthorhombic'
loop_
_space_group_symop_operation_xyz
x,y,z
-x,-y,1/2+z
x,1/2-y,-z
-x,1/2+y,1/2-z
-x,-y,-z
x,y,1/2-z
-x,1/2+y,z
x,1/2-y,1/2+z
loop_
_atom_site_type_symbol
_atom_site_label
_atom_site_fract_x
_atom_site_fract_y
_atom_site_fract_z
Si Si1 0.824632 0.207093 0.909982
Si Si2 0.728255 0.600687 0.655829
Si Si3 0.591844 0.704594 0.091102
Si Si4 0.224600 0.460929 0.846319
Si Si5 0.355778 0.636567 0.344481
Si Si6 0.932144 0.747843 0.654466
O O1 0.744226 0.270809 0.844511
O O2 0.954307 0.242632 0.897776
O O3 0.809541 0.072239 0.898021
O O4 0.785966 0.250000 0.000000
O O5 0.756434 0.572340 0.750000
O O6 0.627539 0.693590 0.652857
O O7 0.690242 0.481640 0.614101
O O8 0.842831 0.655092 0.616743
O O9 0.662334 0.590474 0.112172
O O10 0.459768 0.679048 0.100236
O O11 0.619969 0.750000 0.000000
O O12 0.248382 0.489635 0.750000
O O13 0.120351 0.373659 0.854059
O O14 0.396757 0.617707 0.250000
O O15 0.959095 0.719731 0.750000
#
# Coordination Sequence:
#
# PCOD8234801 Si02
#       6
#     8   8   8   8   8   8
#     4  12  27  41  64 100 138 168 218 279 339 390
#     4   9  21  41  66  93 127 174 226 269 322 400
#     4  11  24  41  69  97 133 171 216 279 342 390
#     4  10  23  45  71  96 131 183 229 266 324 408
#     4  11  24  42  66  94 129 174 223 271 325 400
#     4   9  20  42  67  93 126 174 227 272 325 393
#
# _framework density 21.527877
#
# number of rings (size 3 to 8) (size 9 to 14) (size 15 to 20)
#    0.000    1.667    0.000    4.500    7.000    4.000 
#    0.000    0.000    0.000    0.000    0.000    0.000 
#    0.000    0.000    0.000    0.000    0.000    0.000 
#
# Total GULP energy -595310.005124 kJ/mol
# GULP energy per Si atom -12402.291773 kJ/mol
# Density = 2.147888 g / cm^3
# Si number density = 21.527877 Si / 1000 Ang^3
#
#
#
# Elastic Constant Matrix: (Units=GPa)
#
#
# Indices 1 2 3 4 5 6 
#
# 1 141.7674 62.9580 24.3597 0.0000 0.0000 0.0000
# 2 62.9580 129.7393 29.4731 0.0000 0.0000 0.0000
# 3 24.3597 29.4731 80.6281 0.0000 0.0000 0.0000
# 4 0.0000 0.0000 0.0000 32.6814 0.0000 0.0000
# 5 0.0000 0.0000 0.0000 0.0000 29.8891 0.0000
# 6 0.0000 0.0000 0.0000 0.0000 0.0000 26.9068
#
#
#
# Elastic Compliance Matrix: (Units=1/GPa)
#
#
# Indices 1 2 3 4 5 6 
#
# 1 0.009103 -0.004136 -0.001238 0.000000 0.000000 0.000000
# 2 -0.004136 0.010285 -0.002510 0.000000 0.000000 0.000000
# 3 -0.001238 -0.002510 0.013694 0.000000 0.000000 0.000000
# 4 0.000000 0.000000 0.000000 0.030598 0.000000 0.000000
# 5 0.000000 0.000000 0.000000 0.000000 0.033457 0.000000
# 6 0.000000 0.000000 0.000000 0.000000 0.000000 0.037165
#
#
# Mechanical properties :
#
#
# Convention : Reuss Voigt Hill
#
# Bulk Modulus (GPa) = 57.75812 65.07958 61.41885
# Shear Modulus (GPa) = 32.08333 33.58508 32.83421
#
# Velocity S-wave (km/s) = 3.86465 3.95406 3.90961
# Velocity P-wave (km/s) = 6.84118 7.15137 6.99799
#
# Compressibility (1/GPa) = 0.01731358
#
# Stress axis : x y z
#
# Youngs Moduli (GPa) = 109.84789 97.22748 73.02317
#
# Poissons Ratio (x) = 0.40216 0.09043
# Poissons Ratio (y) = 0.45436 0.18329
# Poissons Ratio (z) = 0.13603 0.24404
#
# Static dielectric constant tensor:
#      x y z
#    x 3.782820 0.000000 0.000000 
#    y 0.000000 4.024800 0.000000 
#    z 0.000000 0.000000 3.641600 
# 
# 
# High freq. dielectric constant tensor:
#      x y z
#    x 1.847280 0.000000 0.000000 
#    y 0.000000 1.853740 0.000000 
#    z 0.000000 0.000000 1.833030 
# 
# From -- ./inp_files/21822.got.cif
#   From: 2010.03.12/outbox.cif.g09.slc.cpg/sg57_11_cif.got.tgz:21822.got - 2010.04.16 15:48:40.
