data_PCOD8234925
_publ_section_title
;
Structure prediction by ZEFSAII (Michael W. Deem and Ramdas Pophale) SiO2 
 PCOD8234925
Probable space group: P B C M
;
_chemical_formula_sum "Si O2"
_cell_formula_units_Z 48
_cell_length_a 31.242482
_cell_length_b 9.703678
_cell_length_c 8.529397
_cell_angle_alpha 90.000000
_cell_angle_beta 90.000000
_cell_angle_gamma 90.000000
_cell_volume 2585.831574
_symmetry_space_group_name_H-M "P B C M"
_symmetry_group_IT_number 57
_symmetry_cell_setting 'orthorhombic'
loop_
_space_group_symop_operation_xyz
x,y,z
-x,-y,1/2+z
x,1/2-y,-z
-x,1/2+y,1/2-z
-x,-y,-z
x,y,1/2-z
-x,1/2+y,z
x,1/2-y,1/2+z
loop_
_atom_site_type_symbol
_atom_site_label
_atom_site_fract_x
_atom_site_fract_y
_atom_site_fract_z
Si Si1 0.373243 0.601131 0.434834
Si Si2 0.122916 0.401705 0.066892
Si Si3 0.301804 0.404555 0.934585
Si Si4 0.464385 0.600093 0.935402
Si Si5 0.784474 0.901833 0.433588
Si Si6 0.036603 0.403926 0.933846
O O1 0.359730 0.750000 0.500000
O O2 0.378479 0.612122 0.250000
O O3 0.337791 0.490907 0.478976
O O4 0.417928 0.550068 0.507469
O O5 0.112681 0.394440 0.250000
O O6 0.169218 0.476786 0.037159
O O7 0.126607 0.250000 0.000000
O O8 0.082489 0.473155 0.981532
O O9 0.309642 0.407034 0.750000
O O10 0.303509 0.250000 0.000000
O O11 0.255429 0.473225 0.976723
O O12 0.465319 0.601984 0.750000
O O13 0.475000 0.750000 0.000000
O O14 0.500000 0.500000 0.000000
O O15 0.788894 0.750000 0.500000
O O16 0.773656 0.895873 0.250000
O O17 0.032269 0.397361 0.750000
O O18 0.032250 0.250000 0.000000
O O19 0.000000 0.500000 0.000000
#
# Coordination Sequence:
#
# PCOD8234925 Si02
#       6
#     8   8   8   8   8   8
#     4  11  22  39  59  81 109 144 181 218 262 316
#     4   9  16  27  45  70  99 131 169 210 256 307
#     4  11  21  34  53  80 110 141 177 220 265 310
#     4  11  22  39  60  85 112 143 180 220 265 313
#     4   9  16  27  45  71 102 134 168 212 260 307
#     4  11  21  34  52  75 103 135 173 214 260 311
#
# _framework density 18.562694
#
# number of rings (size 3 to 8) (size 9 to 14) (size 15 to 20)
#    0.000    1.667    0.000   10.000    0.000    2.667 
#    0.000    3.333    0.000    1.000    0.000    0.000 
#    0.000    0.000    0.000    0.000    0.000    0.000 
#
# Total GULP energy -594897.636428 kJ/mol
# GULP energy per Si atom -12393.700759 kJ/mol
# Density = 1.852044 g / cm^3
# Si number density = 18.562694 Si / 1000 Ang^3
#
#
#
# Elastic Constant Matrix: (Units=GPa)
#
#
# Indices 1 2 3 4 5 6 
#
# 1 175.4752 64.6790 57.6051 0.0000 0.0000 0.0000
# 2 64.6790 50.7737 31.2540 0.0000 0.0000 0.0000
# 3 57.6051 31.2540 162.7475 0.0000 0.0000 0.0000
# 4 0.0000 0.0000 0.0000 26.0981 0.0000 0.0000
# 5 0.0000 0.0000 0.0000 0.0000 38.3935 0.0000
# 6 0.0000 0.0000 0.0000 0.0000 0.0000 -6.1560
#
#
#
# Elastic Compliance Matrix: (Units=1/GPa)
#
#
# Indices 1 2 3 4 5 6 
#
# 1 0.011004 -0.013178 -0.001364 0.000000 0.000000 0.000000
# 2 -0.013178 0.038117 -0.002656 0.000000 0.000000 0.000000
# 3 -0.001364 -0.002656 0.007137 0.000000 0.000000 0.000000
# 4 0.000000 0.000000 0.000000 0.038317 0.000000 0.000000
# 5 0.000000 0.000000 0.000000 0.000000 0.026046 0.000000
# 6 0.000000 0.000000 0.000000 0.000000 0.000000 -0.162443
#
#
# Mechanical properties :
#
#
# Convention : Reuss Voigt Hill
#
# Bulk Modulus (GPa) = 45.73994 77.34140 61.54067
# Shear Modulus (GPa) = -35884.04193 27.36435 -17928.33879
#
# Velocity S-wave (km/s) = -139.18777 3.84364 -98.38308
# Velocity P-wave (km/s) = 160.64335 7.83923 113.45667
#
# Compressibility (1/GPa) = 0.02186273
#
# Stress axis : x y z
#
# Youngs Moduli (GPa) = 90.87701 26.23526 140.10833
#
# Poissons Ratio (x) = 0.34572 0.19114
# Poissons Ratio (y) = 1.19755 0.37207
# Poissons Ratio (z) = 0.12398 0.06967
#
# Static dielectric constant tensor:
#      x y z
#    x 4.367830 0.000000 0.000000 
#    y 0.000000 2.618140 0.000000 
#    z 0.000000 0.000000 3.668250 
# 
# 
# High freq. dielectric constant tensor:
#      x y z
#    x 1.750760 0.000000 0.000000 
#    y 0.000000 1.664550 0.000000 
#    z 0.000000 0.000000 1.746860 
# 
# From -- ./inp_files/9980.got.cif
#   From: 2010.03.12/outbox.cif.g09.slc.cpg/sg57_5_cif.got.tgz:9980.got - 2010.04.16 15:48:40.
