data_PCOD8234731
_publ_section_title
;
Structure prediction by ZEFSAII (Michael W. Deem and Ramdas Pophale) SiO2 
 PCOD8234731
Probable space group: P B C M
;
_chemical_formula_sum "Si O2"
_cell_formula_units_Z 48
_cell_length_a 28.134696
_cell_length_b 8.785149
_cell_length_c 9.310786
_cell_angle_alpha 90.000000
_cell_angle_beta 90.000000
_cell_angle_gamma 90.000000
_cell_volume 2301.323665
_symmetry_space_group_name_H-M "P B C M"
_symmetry_group_IT_number 57
_symmetry_cell_setting 'orthorhombic'
loop_
_space_group_symop_operation_xyz
x,y,z
-x,-y,1/2+z
x,1/2-y,-z
-x,1/2+y,1/2-z
-x,-y,-z
x,y,1/2-z
-x,1/2+y,z
x,1/2-y,1/2+z
loop_
_atom_site_type_symbol
_atom_site_label
_atom_site_fract_x
_atom_site_fract_y
_atom_site_fract_z
Si Si1 0.723560 0.595932 0.078553
Si Si2 0.460152 0.406539 0.918308
Si Si3 0.965206 0.913150 0.250000
Si Si4 0.795852 0.096369 0.086417
Si Si5 0.064287 0.438262 0.750000
Si Si6 0.902799 0.074938 0.476002
Si Si7 0.366954 0.600185 0.587486
O O1 0.730422 0.619364 0.250000
O O2 0.682459 0.475930 0.041732
O O3 0.708374 0.750000 0.000000
O O4 0.771776 0.539083 0.002971
O O5 0.473454 0.385510 0.750000
O O6 0.409384 0.483709 0.937081
O O7 0.456144 0.250000 0.000000
O O8 0.500000 0.500000 0.000000
O O9 0.954425 0.733774 0.250000
O O10 0.943991 0.995246 0.387371
O O11 0.021476 0.939515 0.250000
O O12 0.775942 0.108117 0.250000
O O13 0.785126 0.250000 0.000000
O O14 0.851807 0.063974 0.099209
O O15 0.099269 0.475823 0.880396
O O16 0.917323 0.250000 0.500000
O O17 0.377514 0.750000 0.500000
O O18 0.364093 0.654067 0.750000
#
# Coordination Sequence:
#
# PCOD8234731 Si02
#       7
#     8   8   4   8   4   8   8
#     4  11  24  42  65  95 131 170 215 266 323 380
#     4  11  23  40  62  92 129 170 218 269 327 387
#     4  12  24  46  62  98 128 168 212 262 319 382
#     4  11  24  43  68  95 128 166 211 261 320 387
#     4  12  26  40  70  92 130 168 212 264 317 384
#     4  11  24  43  67  94 128 167 212 261 321 383
#     4  10  23  41  63  92 126 168 216 270 325 387
#
# _framework density 20.857562000000001
#
# number of rings (size 3 to 8) (size 9 to 14) (size 15 to 20)
#    0.000    1.000    0.833    5.500    4.667    6.667 
#    0.000    0.000    0.000    0.000    0.000    0.000 
#    0.000    0.000    0.000    0.000    0.000    0.000 
#
# Total GULP energy -595313.579821 kJ/mol
# GULP energy per Si atom -12402.366246 kJ/mol
# Density = 2.081009 g / cm^3
# Si number density = 20.857562 Si / 1000 Ang^3
#
#
#
# Elastic Constant Matrix: (Units=GPa)
#
#
# Indices 1 2 3 4 5 6 
#
# 1 60.7266 26.9313 33.5156 0.0000 0.0000 0.0000
# 2 26.9313 132.5207 61.8003 0.0000 0.0000 0.0000
# 3 33.5156 61.8003 156.0092 0.0000 0.0000 0.0000
# 4 0.0000 0.0000 0.0000 42.9769 0.0000 0.0000
# 5 0.0000 0.0000 0.0000 0.0000 33.4830 0.0000
# 6 0.0000 0.0000 0.0000 0.0000 0.0000 8.7660
#
#
#
# Elastic Compliance Matrix: (Units=1/GPa)
#
#
# Indices 1 2 3 4 5 6 
#
# 1 0.019305 -0.002440 -0.003181 0.000000 0.000000 0.000000
# 2 -0.002440 0.009564 -0.003265 0.000000 0.000000 0.000000
# 3 -0.003181 -0.003265 0.008386 0.000000 0.000000 0.000000
# 4 0.000000 0.000000 0.000000 0.023268 0.000000 0.000000
# 5 0.000000 0.000000 0.000000 0.000000 0.029866 0.000000
# 6 0.000000 0.000000 0.000000 0.000000 0.000000 0.114077
#
#
# Mechanical properties :
#
#
# Convention : Reuss Voigt Hill
#
# Bulk Modulus (GPa) = 51.32129 65.97232 58.64681
# Shear Modulus (GPa) = 21.85964 32.17913 27.01939
#
# Velocity S-wave (km/s) = 3.24086 3.93212 3.60310
# Velocity P-wave (km/s) = 6.21798 7.23284 6.74453
#
# Compressibility (1/GPa) = 0.01948509
#
# Stress axis : x y z
#
# Youngs Moduli (GPa) = 51.80063 104.55627 119.24064
#
# Poissons Ratio (x) = 0.25510 0.37928
# Poissons Ratio (y) = 0.12639 0.38927
# Poissons Ratio (z) = 0.16477 0.34133
#
# Static dielectric constant tensor:
#      x y z
#    x 3.779010 0.000000 0.000000 
#    y 0.000000 3.900640 0.000000 
#    z 0.000000 0.000000 3.907600 
# 
# 
# High freq. dielectric constant tensor:
#      x y z
#    x 1.821900 0.000000 0.000000 
#    y 0.000000 1.824940 0.000000 
#    z 0.000000 0.000000 1.835840 
# 
# From -- ./inp_files/10164.got.cif
#   From: 2010.03.12/outbox.cif.g09.slc.cpg/sg57_6_cif.got.tgz:10164.got - 2010.04.16 15:48:40.
