data_PCOD8234683
_publ_section_title
;
Structure prediction by ZEFSAII (Michael W. Deem and Ramdas Pophale) SiO2 
 PCOD8234683
Probable space group: P B C M
;
_chemical_formula_sum "Si O2"
_cell_formula_units_Z 40
_cell_length_a 6.990686
_cell_length_b 11.831956
_cell_length_c 20.376971
_cell_angle_alpha 90.000000
_cell_angle_beta 90.000000
_cell_angle_gamma 90.000000
_cell_volume 1685.450370
_symmetry_space_group_name_H-M "P B C M"
_symmetry_group_IT_number 57
_symmetry_cell_setting 'orthorhombic'
loop_
_space_group_symop_operation_xyz
x,y,z
-x,-y,1/2+z
x,1/2-y,-z
-x,1/2+y,1/2-z
-x,-y,-z
x,y,1/2-z
-x,1/2+y,z
x,1/2-y,1/2+z
loop_
_atom_site_type_symbol
_atom_site_label
_atom_site_fract_x
_atom_site_fract_y
_atom_site_fract_z
Si Si1 0.890124 0.128251 0.176283
Si Si2 0.340791 0.490743 0.926892
Si Si3 0.215514 0.464418 0.439310
Si Si4 0.626049 0.166493 0.676657
Si Si5 0.247045 0.254435 0.624859
O O1 0.873522 0.074900 0.250000
O O2 0.885436 0.037149 0.117689
O O3 0.714175 0.211067 0.163146
O O4 0.085291 0.198947 0.173293
O O5 0.553551 0.531990 0.941788
O O6 0.271267 0.570136 0.867136
O O7 0.351139 0.358506 0.910254
O O8 0.179084 0.506909 0.985232
O O9 0.157285 0.333202 0.428314
O O10 0.665030 0.124545 0.750000
O O11 0.398905 0.180060 0.666038
#
# Coordination Sequence:
#
# PCOD8234683 Si02
#       5
#     8   8   8   8   8
#     4  11  25  43  65  97 135 176 224 277 334 399
#     4  10  22  43  71  97 133 178 222 277 341 400
#     4  10  23  44  69 100 135 176 226 278 337 405
#     4  10  23  43  65  96 133 175 222 275 334 399
#     4  11  23  43  68  99 130 178 223 281 333 406
#
# _framework density 23.732527000000001
#
# number of rings (size 3 to 8) (size 9 to 14) (size 15 to 20)
#    0.000    1.600    2.000    1.200    2.800    7.200 
#    3.600    0.000    0.000    0.000    0.000    0.000 
#    0.000    0.000    0.000    0.000    0.000    0.000 
#
# Total GULP energy -495792.130300 kJ/mol
# GULP energy per Si atom -12394.803258 kJ/mol
# Density = 2.367851 g / cm^3
# Si number density = 23.732527 Si / 1000 Ang^3
#
#
#
# Elastic Constant Matrix: (Units=GPa)
#
#
# Indices 1 2 3 4 5 6 
#
# 1 48.5624 5.4326 13.1711 0.0000 0.0000 0.0000
# 2 5.4326 124.5414 85.5183 0.0000 0.0000 0.0000
# 3 13.1711 85.5183 179.3054 0.0000 0.0000 0.0000
# 4 0.0000 0.0000 0.0000 37.1758 0.0000 0.0000
# 5 0.0000 0.0000 0.0000 0.0000 22.9444 0.0000
# 6 0.0000 0.0000 0.0000 0.0000 0.0000 22.4170
#
#
#
# Elastic Compliance Matrix: (Units=1/GPa)
#
#
# Indices 1 2 3 4 5 6 
#
# 1 0.021014 0.000213 -0.001645 0.000000 0.000000 0.000000
# 2 0.000213 0.011942 -0.005711 0.000000 0.000000 0.000000
# 3 -0.001645 -0.005711 0.008422 0.000000 0.000000 0.000000
# 4 0.000000 0.000000 0.000000 0.026899 0.000000 0.000000
# 5 0.000000 0.000000 0.000000 0.000000 0.043584 0.000000
# 6 0.000000 0.000000 0.000000 0.000000 0.000000 0.044609
#
#
# Mechanical properties :
#
#
# Convention : Reuss Voigt Hill
#
# Bulk Modulus (GPa) = 36.91217 62.29479 49.60348
# Shear Modulus (GPa) = 27.81065 33.05994 30.43529
#
# Velocity S-wave (km/s) = 3.42692 3.73637 3.58499
# Velocity P-wave (km/s) = 5.58977 6.70221 6.17111
#
# Compressibility (1/GPa) = 0.02709134
#
# Stress axis : x y z
#
# Youngs Moduli (GPa) = 47.58633 83.73902 118.73871
#
# Poissons Ratio (x) = -0.01784 0.19536
# Poissons Ratio (y) = -0.01014 0.67814
# Poissons Ratio (z) = 0.07829 0.47825
#
# Static dielectric constant tensor:
#      x y z
#    x 4.091070 0.000000 0.000000 
#    y 0.000000 4.224850 0.000000 
#    z 0.000000 0.000000 4.627130 
# 
# 
# High freq. dielectric constant tensor:
#      x y z
#    x 1.943990 0.000000 0.000000 
#    y 0.000000 1.934550 0.000000 
#    z 0.000000 0.000000 1.946290 
# 
# From -- ./inp_files/24147.got.cif
#   From: 2010.03.12/outbox.cif.g09.slc.cpg/sg57_13_cif.got.tgz:24147.got - 2010.04.16 15:48:40.
