data_PCOD8234156
_publ_section_title
;
Structure prediction by ZEFSAII (Michael W. Deem and Ramdas Pophale) SiO2 
 PCOD8234156
Probable space group: P B C M
;
_chemical_formula_sum "Si O2"
_cell_formula_units_Z 36
_cell_length_a 7.334323
_cell_length_b 8.854244
_cell_length_c 25.938253
_cell_angle_alpha 90.000000
_cell_angle_beta 90.000000
_cell_angle_gamma 90.000000
_cell_volume 1684.427178
_symmetry_space_group_name_H-M "P B C M"
_symmetry_group_IT_number 57
_symmetry_cell_setting 'orthorhombic'
loop_
_space_group_symop_operation_xyz
x,y,z
-x,-y,1/2+z
x,1/2-y,-z
-x,1/2+y,1/2-z
-x,-y,-z
x,y,1/2-z
-x,1/2+y,z
x,1/2-y,1/2+z
loop_
_atom_site_type_symbol
_atom_site_label
_atom_site_fract_x
_atom_site_fract_y
_atom_site_fract_z
Si Si1 0.526197 0.250000 0.000000
Si Si2 0.097087 0.138920 0.141554
Si Si3 0.610928 0.500732 0.071508
Si Si4 0.592385 0.585489 0.750000
Si Si5 0.252571 0.031092 0.859810
Si Si6 0.249587 0.406132 0.750000
O O1 0.650690 0.151233 0.961231
O O2 0.395157 0.359313 0.967560
O O3 0.149411 0.310976 0.130272
O O4 0.117833 0.096230 0.201297
O O5 0.225158 0.024041 0.110545
O O6 0.887056 0.105037 0.127262
O O7 0.421366 0.483781 0.101952
O O8 0.683401 0.515057 0.699107
O O9 0.376063 0.554411 0.750000
O O10 0.611041 0.765547 0.750000
#
# Coordination Sequence:
#
# PCOD8234156 Si02
#       6
#     4   8   8   4   8   4
#     4  10  24  42  70  88 122 166 208 282 314 370
#     4  11  24  40  65  97 131 168 208 253 310 379
#     4  11  22  45  66  92 126 163 216 259 328 364
#     4  10  21  38  62  97 131 167 205 247 307 374
#     4  11  24  40  65  97 131 168 208 253 310 379
#     4  10  21  38  62  97 131 167 205 247 307 374
#
# _framework density 21.372250000000001
#
# number of rings (size 3 to 8) (size 9 to 14) (size 15 to 20)
#    0.000    1.333    4.444    0.667    3.111    1.778 
#    0.000    6.667    0.000    0.000    0.000    0.000 
#    0.000    0.000    0.000    0.000    0.000    0.000 
#
# Total GULP energy -446486.722256 kJ/mol
# GULP energy per Si atom -12402.408952 kJ/mol
# Density = 2.132361 g / cm^3
# Si number density = 21.372250 Si / 1000 Ang^3
#
#
#
# Elastic Constant Matrix: (Units=GPa)
#
#
# Indices 1 2 3 4 5 6 
#
# 1 75.3995 17.6430 31.7987 0.0000 0.0000 0.0000
# 2 17.6430 72.2363 38.3442 0.0000 0.0000 0.0000
# 3 31.7987 38.3442 117.7086 0.0000 0.0000 0.0000
# 4 0.0000 0.0000 0.0000 37.3134 0.0000 0.0000
# 5 0.0000 0.0000 0.0000 0.0000 -14.3640 0.0000
# 6 0.0000 0.0000 0.0000 0.0000 0.0000 31.8086
#
#
#
# Elastic Compliance Matrix: (Units=1/GPa)
#
#
# Indices 1 2 3 4 5 6 
#
# 1 0.015170 -0.001850 -0.003496 0.000000 0.000000 0.000000
# 2 -0.001850 0.016963 -0.005026 0.000000 0.000000 0.000000
# 3 -0.003496 -0.005026 0.011077 0.000000 0.000000 0.000000
# 4 0.000000 0.000000 0.000000 0.026800 0.000000 0.000000
# 5 0.000000 0.000000 0.000000 0.000000 -0.069619 0.000000
# 6 0.000000 0.000000 0.000000 0.000000 0.000000 0.031438
#
#
# Mechanical properties :
#
#
# Convention : Reuss Voigt Hill
#
# Bulk Modulus (GPa) = 44.50888 48.99070 46.74979
# Shear Modulus (GPa) = 83.24830 22.78883 53.01856
#
# Velocity S-wave (km/s) = 6.24789 3.26894 4.98609
# Velocity P-wave (km/s) = 8.53926 6.10084 7.42089
#
# Compressibility (1/GPa) = 0.02246743
#
# Stress axis : x y z
#
# Youngs Moduli (GPa) = 65.92106 58.95122 90.27565
#
# Poissons Ratio (x) = 0.10903 0.31556
# Poissons Ratio (y) = 0.12192 0.45374
# Poissons Ratio (z) = 0.23043 0.29630
#
# Static dielectric constant tensor:
#      x y z
#    x 3.513570 0.000000 0.000000 
#    y 0.000000 3.952170 0.000000 
#    z 0.000000 0.000000 4.137190 
# 
# 
# High freq. dielectric constant tensor:
#      x y z
#    x 1.816410 0.000000 0.000000 
#    y 0.000000 1.845450 0.000000 
#    z 0.000000 0.000000 1.853600 
# 
# From -- ./inp_files/29364.got.cif
#   From: 2010.03.12/outbox.cif.g09.slc.cpg/sg57_15_cif.got.tgz:29364.got - 2010.04.16 15:48:40.
