data_PCOD8234050
_publ_section_title
;
Structure prediction by ZEFSAII (Michael W. Deem and Ramdas Pophale) SiO2 
 PCOD8234050
Probable space group: P B C M
;
_chemical_formula_sum "Si O2"
_cell_formula_units_Z 64
_cell_length_a 6.995375
_cell_length_b 27.810890
_cell_length_c 16.868822
_cell_angle_alpha 90.000000
_cell_angle_beta 90.000000
_cell_angle_gamma 90.000000
_cell_volume 3281.788913
_symmetry_space_group_name_H-M "P B C M"
_symmetry_group_IT_number 57
_symmetry_cell_setting 'orthorhombic'
loop_
_space_group_symop_operation_xyz
x,y,z
-x,-y,1/2+z
x,1/2-y,-z
-x,1/2+y,1/2-z
-x,-y,-z
x,y,1/2-z
-x,1/2+y,z
x,1/2-y,1/2+z
loop_
_atom_site_type_symbol
_atom_site_label
_atom_site_fract_x
_atom_site_fract_y
_atom_site_fract_z
Si Si1 0.713102 0.096121 0.155641
Si Si2 0.008482 0.426098 0.159298
Si Si3 0.287435 0.140959 0.921444
Si Si4 0.687378 0.145171 0.659681
Si Si5 0.016457 0.283238 0.341914
Si Si6 0.987638 0.322618 0.839548
Si Si7 0.998560 0.524480 0.414362
Si Si8 0.711201 0.889978 0.598322
O O1 0.745624 0.088367 0.250000
O O2 0.805594 0.052410 0.105864
O O3 0.492717 0.098602 0.134957
O O4 0.814430 0.145351 0.125084
O O5 0.043413 0.411747 0.250000
O O6 0.194669 0.408270 0.111535
O O7 0.976201 0.482619 0.150388
O O8 0.820116 0.398464 0.128447
O O9 0.503240 0.147271 0.894334
O O10 0.166139 0.186813 0.893922
O O11 0.294444 0.137723 0.015560
O O12 0.623080 0.136372 0.750000
O O13 0.804719 0.194667 0.651251
O O14 0.085963 0.283947 0.250000
O O15 0.008600 0.229689 0.380182
O O16 0.935230 0.310604 0.750000
O O17 0.181638 0.353517 0.842893
O O18 0.000000 0.500000 0.500000
O O19 0.818424 0.559344 0.407739
#
# Coordination Sequence:
#
# PCOD8234050 Si02
#       8
#     8   8   8   8   8   8   8   8
#     4  10  23  41  62  88 119 156 204 247 292 358
#     4  10  21  38  59  83 114 153 196 240 290 353
#     4  11  21  35  56  86 122 153 189 239 295 353
#     4   9  19  34  56  85 116 150 190 235 288 348
#     4   9  19  37  61  85 113 153 199 242 288 348
#     4   9  20  41  63  83 113 154 198 245 293 345
#     4  11  23  41  62  85 117 155 197 247 300 350
#     4  11  24  38  60  87 119 156 195 243 299 349
#
# _framework density 19.501560000000001
#
# number of rings (size 3 to 8) (size 9 to 14) (size 15 to 20)
#    0.000    2.000    1.250    2.625    1.750    5.500 
#    0.000    3.750    0.000    0.000    0.000    0.000 
#    0.000    0.000    0.000    0.000    0.000    0.000 
#
# Total GULP energy -793596.743257 kJ/mol
# GULP energy per Si atom -12399.949113 kJ/mol
# Density = 1.945717 g / cm^3
# Si number density = 19.501560 Si / 1000 Ang^3
#
#
#
# Elastic Constant Matrix: (Units=GPa)
#
#
# Indices 1 2 3 4 5 6 
#
# 1 129.4471 53.9277 20.2545 0.0000 0.0000 0.0000
# 2 53.9277 155.0827 21.4715 0.0000 0.0000 0.0000
# 3 20.2545 21.4715 54.1126 0.0000 0.0000 0.0000
# 4 0.0000 0.0000 0.0000 24.4964 0.0000 0.0000
# 5 0.0000 0.0000 0.0000 0.0000 21.5057 0.0000
# 6 0.0000 0.0000 0.0000 0.0000 0.0000 15.8514
#
#
#
# Elastic Compliance Matrix: (Units=1/GPa)
#
#
# Indices 1 2 3 4 5 6 
#
# 1 0.009303 -0.002913 -0.002326 0.000000 0.000000 0.000000
# 2 -0.002913 0.007735 -0.001979 0.000000 0.000000 0.000000
# 3 -0.002326 -0.001979 0.020136 0.000000 0.000000 0.000000
# 4 0.000000 0.000000 0.000000 0.040822 0.000000 0.000000
# 5 0.000000 0.000000 0.000000 0.000000 0.046499 0.000000
# 6 0.000000 0.000000 0.000000 0.000000 0.000000 0.063086
#
#
# Mechanical properties :
#
#
# Convention : Reuss Voigt Hill
#
# Bulk Modulus (GPa) = 43.97984 58.88330 51.43157
# Shear Modulus (GPa) = 23.85541 28.56996 26.21268
#
# Velocity S-wave (km/s) = 3.50130 3.83170 3.67022
# Velocity P-wave (km/s) = 6.24071 7.05943 6.66266
#
# Compressibility (1/GPa) = 0.02273769
#
# Stress axis : x y z
#
# Youngs Moduli (GPa) = 107.49669 129.28196 49.66242
#
# Poissons Ratio (x) = 0.37657 0.11553
# Poissons Ratio (y) = 0.31311 0.09828
# Poissons Ratio (z) = 0.25006 0.25584
#
# Static dielectric constant tensor:
#      x y z
#    x 3.445220 0.000000 0.000000 
#    y 0.000000 3.832260 0.000000 
#    z 0.000000 0.000000 3.494230 
# 
# 
# High freq. dielectric constant tensor:
#      x y z
#    x 1.755320 0.000000 0.000000 
#    y 0.000000 1.768590 0.000000 
#    z 0.000000 0.000000 1.755960 
# 
# From -- ./inp_files/20370.got.cif
#   From: 2010.03.12/outbox.cif.g09.slc.cpg/sg57_11_cif.got.tgz:20370.got - 2010.04.16 15:48:40.
