data_PCOD8234174
_publ_section_title
;
Structure prediction by ZEFSAII (Michael W. Deem and Ramdas Pophale) SiO2 
 PCOD8234174
Probable space group: P B C M
;
_chemical_formula_sum "Si O2"
_cell_formula_units_Z 32
_cell_length_a 4.945907
_cell_length_b 16.565071
_cell_length_c 15.917003
_cell_angle_alpha 90.000000
_cell_angle_beta 90.000000
_cell_angle_gamma 90.000000
_cell_volume 1304.068924
_symmetry_space_group_name_H-M "P B C M"
_symmetry_group_IT_number 57
_symmetry_cell_setting 'orthorhombic'
loop_
_space_group_symop_operation_xyz
x,y,z
-x,-y,1/2+z
x,1/2-y,-z
-x,1/2+y,1/2-z
-x,-y,-z
x,y,1/2-z
-x,1/2+y,z
x,1/2-y,1/2+z
loop_
_atom_site_type_symbol
_atom_site_label
_atom_site_fract_x
_atom_site_fract_y
_atom_site_fract_z
Si Si1 0.641914 0.145446 0.411940
Si Si2 0.332724 0.956610 0.750000
Si Si3 0.831765 0.062979 0.750000
Si Si4 0.851568 0.843830 0.012784
Si Si5 0.488352 0.817506 0.342904
O O1 0.736042 0.096404 0.331101
O O2 0.351292 0.115504 0.444421
O O3 0.642126 0.241154 0.390682
O O4 0.847301 0.126912 0.489763
O O5 0.644359 0.982886 0.750000
O O6 0.144345 0.036696 0.750000
O O7 0.753991 0.116806 0.832366
O O8 0.738218 0.859699 0.106956
O O9 0.828157 0.750000 0.000000
O O10 0.600030 0.791817 0.250000
#
# Coordination Sequence:
#
# PCOD8234174 Si02
#       5
#     8   4   4   8   8
#     4  11  22  41  67  95 129 163 218 269 320 378
#     4  12  23  44  59  98 128 180 214 262 321 386
#     4  10  25  40  67  90 134 174 220 258 313 400
#     4  10  21  38  65  99 126 157 214 278 315 377
#     4   9  21  46  67  97 127 175 215 267 329 387
#
# _framework density 24.538582000000002
#
# number of rings (size 3 to 8) (size 9 to 14) (size 15 to 20)
#    0.750    1.000    1.250    3.750    0.000    6.000 
#    2.250    7.500    0.000    0.000    0.000    0.000 
#    0.000    0.000    0.000    0.000    0.000    0.000 
#
# Total GULP energy -396551.152601 kJ/mol
# GULP energy per Si atom -12392.223519 kJ/mol
# Density = 2.448273 g / cm^3
# Si number density = 24.538582 Si / 1000 Ang^3
#
#
#
# Elastic Constant Matrix: (Units=GPa)
#
#
# Indices 1 2 3 4 5 6 
#
# 1 88.5527 6.4109 17.7232 0.0000 0.0000 0.0000
# 2 6.4109 50.7622 2.6898 0.0000 0.0000 0.0000
# 3 17.7232 2.6898 111.6263 0.0000 0.0000 0.0000
# 4 0.0000 0.0000 0.0000 4.4559 0.0000 0.0000
# 5 0.0000 0.0000 0.0000 0.0000 15.1708 0.0000
# 6 0.0000 0.0000 0.0000 0.0000 0.0000 13.1561
#
#
#
# Elastic Compliance Matrix: (Units=1/GPa)
#
#
# Indices 1 2 3 4 5 6 
#
# 1 0.011760 -0.001388 -0.001834 0.000000 0.000000 0.000000
# 2 -0.001388 0.019889 -0.000259 0.000000 0.000000 0.000000
# 3 -0.001834 -0.000259 0.009256 0.000000 0.000000 0.000000
# 4 0.000000 0.000000 0.000000 0.224421 0.000000 0.000000
# 5 0.000000 0.000000 0.000000 0.000000 0.065916 0.000000
# 6 0.000000 0.000000 0.000000 0.000000 0.000000 0.076010
#
#
# Mechanical properties :
#
#
# Convention : Reuss Voigt Hill
#
# Bulk Modulus (GPa) = 29.46079 33.84322 31.65200
# Shear Modulus (GPa) = 11.75012 21.49771 16.62391
#
# Velocity S-wave (km/s) = 2.19062 2.96307 2.60563
# Velocity P-wave (km/s) = 4.29306 5.05254 4.68821
#
# Compressibility (1/GPa) = 0.03394343
#
# Stress axis : x y z
#
# Youngs Moduli (GPa) = 85.03245 50.27972 108.03975
#
# Poissons Ratio (x) = 0.06979 0.19812
# Poissons Ratio (y) = 0.11803 0.02797
# Poissons Ratio (z) = 0.15593 0.01302
#
# Static dielectric constant tensor:
#      x y z
#    x 4.517410 0.000000 0.000000 
#    y 0.000000 4.006810 0.000000 
#    z 0.000000 0.000000 4.858050 
# 
# 
# High freq. dielectric constant tensor:
#      x y z
#    x 1.977070 0.000000 0.000000 
#    y 0.000000 1.936730 0.000000 
#    z 0.000000 0.000000 1.992240 
# 
# From -- ./inp_files/19952.got.cif
#   From: 2010.03.12/outbox.cif.g09.slc.cpg/sg57_10_cif.got.tgz:19952.got - 2010.04.16 15:48:40.
