data_PCOD8234432
_publ_section_title
;
Structure prediction by ZEFSAII (Michael W. Deem and Ramdas Pophale) SiO2 
 PCOD8234432
Probable space group: P B C M
;
_chemical_formula_sum "Si O2"
_cell_formula_units_Z 40
_cell_length_a 4.995337
_cell_length_b 30.121350
_cell_length_c 13.068697
_cell_angle_alpha 90.000000
_cell_angle_beta 90.000000
_cell_angle_gamma 90.000000
_cell_volume 1966.398407
_symmetry_space_group_name_H-M "P B C M"
_symmetry_group_IT_number 57
_symmetry_cell_setting 'orthorhombic'
loop_
_space_group_symop_operation_xyz
x,y,z
-x,-y,1/2+z
x,1/2-y,-z
-x,1/2+y,1/2-z
-x,-y,-z
x,y,1/2-z
-x,1/2+y,z
x,1/2-y,1/2+z
loop_
_atom_site_type_symbol
_atom_site_label
_atom_site_fract_x
_atom_site_fract_y
_atom_site_fract_z
Si Si1 0.734098 0.843251 0.461130
Si Si2 0.244615 0.797222 0.542660
Si Si3 0.399337 0.302878 0.250000
Si Si4 0.899815 0.258682 0.750000
Si Si5 0.234903 0.522861 0.128604
Si Si6 0.272670 0.056947 0.018463
O O1 0.505630 0.828427 0.541428
O O2 0.627706 0.834672 0.347329
O O3 0.798418 0.894529 0.478166
O O4 0.007260 0.815977 0.472736
O O5 0.341175 0.750000 0.500000
O O6 0.135120 0.792201 0.656311
O O7 0.694132 0.282107 0.250000
O O8 0.195887 0.261655 0.250000
O O9 0.271200 0.520457 0.250000
O O10 0.280917 0.474012 0.081865
O O11 0.445226 0.556730 0.077449
O O12 0.942033 0.540438 0.101194
#
# Coordination Sequence:
#
# PCOD8234432 Si02
#       6
#     8   8   4   4   8   8
#     4  12  24  41  63  92 122 156 204 261 294 354
#     4  12  23  43  61  86 126 163 200 253 304 354
#     4  12  22  38  66  88 115 156 213 254 300 348
#     4  12  24  40  62  86 115 172 207 238 314 356
#     4  10  21  43  67  89 125 162 194 243 308 370
#     4  10  23  41  64  95 122 156 203 248 302 361
#
# _framework density 20.341760000000001
#
# number of rings (size 3 to 8) (size 9 to 14) (size 15 to 20)
#    0.000    0.800    4.000    3.600    1.400    0.000 
#   10.800    0.000    0.000    0.000    0.000    0.000 
#    0.000    0.000    0.000    0.000    0.000    0.000 
#
# Total GULP energy -496268.550722 kJ/mol
# GULP energy per Si atom -12406.713768 kJ/mol
# Density = 2.029546 g / cm^3
# Si number density = 20.341760 Si / 1000 Ang^3
#
#
#
# Elastic Constant Matrix: (Units=GPa)
#
#
# Indices 1 2 3 4 5 6 
#
# 1 75.7264 9.9328 -3.0254 0.0000 0.0000 0.0000
# 2 9.9328 92.8522 35.0764 0.0000 0.0000 0.0000
# 3 -3.0254 35.0764 107.9746 0.0000 0.0000 0.0000
# 4 0.0000 0.0000 0.0000 18.7386 0.0000 0.0000
# 5 0.0000 0.0000 0.0000 0.0000 25.2556 0.0000
# 6 0.0000 0.0000 0.0000 0.0000 0.0000 20.7150
#
#
#
# Elastic Compliance Matrix: (Units=1/GPa)
#
#
# Indices 1 2 3 4 5 6 
#
# 1 0.013481 -0.001806 0.000965 0.000000 0.000000 0.000000
# 2 -0.001806 0.012518 -0.004117 0.000000 0.000000 0.000000
# 3 0.000965 -0.004117 0.010626 0.000000 0.000000 0.000000
# 4 0.000000 0.000000 0.000000 0.053366 0.000000 0.000000
# 5 0.000000 0.000000 0.000000 0.000000 0.039595 0.000000
# 6 0.000000 0.000000 0.000000 0.000000 0.000000 0.048274
#
#
# Mechanical properties :
#
#
# Convention : Reuss Voigt Hill
#
# Bulk Modulus (GPa) = 37.44355 40.05788 38.75071
# Shear Modulus (GPa) = 25.42182 28.57979 27.00080
#
# Velocity S-wave (km/s) = 3.53899 3.75237 3.64725
# Velocity P-wave (km/s) = 5.92845 6.20556 6.06858
#
# Compressibility (1/GPa) = 0.02670687
#
# Stress axis : x y z
#
# Youngs Moduli (GPa) = 74.17893 79.88214 94.10862
#
# Poissons Ratio (x) = 0.14431 -0.09078
# Poissons Ratio (y) = 0.13400 0.38748
# Poissons Ratio (z) = -0.07155 0.32890
#
# Static dielectric constant tensor:
#      x y z
#    x 3.823610 0.000000 0.000000 
#    y 0.000000 3.543010 0.000000 
#    z 0.000000 0.000000 3.881950 
# 
# 
# High freq. dielectric constant tensor:
#      x y z
#    x 1.813840 0.000000 0.000000 
#    y 0.000000 1.783630 0.000000 
#    z 0.000000 0.000000 1.799900 
# 
# From -- ./inp_files/11058.got.cif
#   From: 2010.03.12/outbox.cif.g09.slc.cpg/sg57_6_cif.got.tgz:11058.got - 2010.04.16 15:48:40.
