data_PCOD8234150
_publ_section_title
;
Structure prediction by ZEFSAII (Michael W. Deem and Ramdas Pophale) SiO2 
 PCOD8234150
Probable space group: P B C M
;
_chemical_formula_sum "Si O2"
_cell_formula_units_Z 56
_cell_length_a 20.134984
_cell_length_b 8.880983
_cell_length_c 14.874151
_cell_angle_alpha 90.000000
_cell_angle_beta 90.000000
_cell_angle_gamma 90.000000
_cell_volume 2659.772636
_symmetry_space_group_name_H-M "P B C M"
_symmetry_group_IT_number 57
_symmetry_cell_setting 'orthorhombic'
loop_
_space_group_symop_operation_xyz
x,y,z
-x,-y,1/2+z
x,1/2-y,-z
-x,1/2+y,1/2-z
-x,-y,-z
x,y,1/2-z
-x,1/2+y,z
x,1/2-y,1/2+z
loop_
_atom_site_type_symbol
_atom_site_label
_atom_site_fract_x
_atom_site_fract_y
_atom_site_fract_z
Si Si1 0.446769 0.594612 0.147239
Si Si2 0.797617 0.920348 0.480803
Si Si3 0.887960 0.380272 0.850778
Si Si4 0.351431 0.077581 0.514936
Si Si5 0.026905 0.380420 0.566369
Si Si6 0.151031 0.958096 0.350110
Si Si7 0.416209 0.938214 0.353013
O O1 0.427672 0.561418 0.250000
O O2 0.399364 0.492890 0.087956
O O3 0.522558 0.549901 0.128705
O O4 0.438552 0.769365 0.123218
O O5 0.819746 0.750000 0.500000
O O6 0.722960 0.933662 0.443374
O O7 0.852642 0.000069 0.417278
O O8 0.793451 0.998830 0.578130
O O9 0.882693 0.447418 0.750000
O O10 0.852688 0.220890 0.857838
O O11 0.964559 0.339286 0.870940
O O12 0.371113 0.250000 0.500000
O O13 0.357620 0.988537 0.420176
O O14 0.053330 0.250000 0.500000
O O15 0.084321 0.449273 0.627724
O O16 0.000000 0.500000 0.500000
O O17 0.173136 0.005021 0.250000
O O18 0.391077 0.950246 0.250000
#
# Coordination Sequence:
#
# PCOD8234150 Si02
#       7
#     8   8   8   8   8   8   8
#     4  10  21  38  62  92 124 158 198 246 299 357
#     4  11  25  44  61  85 119 162 206 255 303 356
#     4  11  24  42  64  90 122 160 201 248 308 367
#     4  11  24  40  61  86 120 161 205 249 303 360
#     4  12  21  39  65  91 125 158 195 246 301 357
#     4  11  24  41  63  92 122 159 203 249 306 365
#     4  10  21  38  62  92 124 158 198 247 301 356
#
# _framework density 21.054431000000001
#
# number of rings (size 3 to 8) (size 9 to 14) (size 15 to 20)
#    0.000    1.143    2.857    3.000    0.000    5.714 
#    0.000    5.714    0.000    0.000    0.000    0.000 
#    0.000    0.000    0.000    0.000    0.000    0.000 
#
# Total GULP energy -694187.694790 kJ/mol
# GULP energy per Si atom -12396.208836 kJ/mol
# Density = 2.100651 g / cm^3
# Si number density = 21.054431 Si / 1000 Ang^3
#
#
#
# Elastic Constant Matrix: (Units=GPa)
#
#
# Indices 1 2 3 4 5 6 
#
# 1 66.5946 18.0503 21.7137 0.0000 0.0000 0.0000
# 2 18.0503 106.8212 41.6736 0.0000 0.0000 0.0000
# 3 21.7137 41.6736 115.7006 0.0000 0.0000 0.0000
# 4 0.0000 0.0000 0.0000 29.2994 0.0000 0.0000
# 5 0.0000 0.0000 0.0000 0.0000 20.0238 0.0000
# 6 0.0000 0.0000 0.0000 0.0000 0.0000 26.8591
#
#
#
# Elastic Compliance Matrix: (Units=1/GPa)
#
#
# Indices 1 2 3 4 5 6 
#
# 1 0.016292 -0.001815 -0.002404 0.000000 0.000000 0.000000
# 2 -0.001815 0.011094 -0.003655 0.000000 0.000000 0.000000
# 3 -0.002404 -0.003655 0.010411 0.000000 0.000000 0.000000
# 4 0.000000 0.000000 0.000000 0.034130 0.000000 0.000000
# 5 0.000000 0.000000 0.000000 0.000000 0.049941 0.000000
# 6 0.000000 0.000000 0.000000 0.000000 0.000000 0.037231
#
#
# Mechanical properties :
#
#
# Convention : Reuss Voigt Hill
#
# Bulk Modulus (GPa) = 45.35478 50.22130 47.78804
# Shear Modulus (GPa) = 27.44282 29.08173 28.26228
#
# Velocity S-wave (km/s) = 3.61421 3.72057 3.66778
# Velocity P-wave (km/s) = 6.24541 6.50859 6.37836
#
# Compressibility (1/GPa) = 0.02204839
#
# Stress axis : x y z
#
# Youngs Moduli (GPa) = 61.37986 90.13730 96.05511
#
# Poissons Ratio (x) = 0.16362 0.23089
# Poissons Ratio (y) = 0.11142 0.35111
# Poissons Ratio (z) = 0.14754 0.32948
#
# Static dielectric constant tensor:
#      x y z
#    x 4.102560 0.000000 0.000000 
#    y 0.000000 3.895730 0.000000 
#    z 0.000000 0.000000 4.011760 
# 
# 
# High freq. dielectric constant tensor:
#      x y z
#    x 1.815570 0.000000 0.000000 
#    y 0.000000 1.839770 0.000000 
#    z 0.000000 0.000000 1.832830 
# 
# From -- ./inp_files/19359.got.cif
#   From: 2010.03.12/outbox.cif.g09.slc.cpg/sg57_10_cif.got.tgz:19359.got - 2010.04.16 15:48:40.
