data_PCOD8234908
_publ_section_title
;
Structure prediction by ZEFSAII (Michael W. Deem and Ramdas Pophale) SiO2 
 PCOD8234908
Probable space group: P B C M
;
_chemical_formula_sum "Si O2"
_cell_formula_units_Z 64
_cell_length_a 8.039338
_cell_length_b 12.808634
_cell_length_c 30.053278
_cell_angle_alpha 90.000000
_cell_angle_beta 90.000000
_cell_angle_gamma 90.000000
_cell_volume 3094.674334
_symmetry_space_group_name_H-M "P B C M"
_symmetry_group_IT_number 57
_symmetry_cell_setting 'orthorhombic'
loop_
_space_group_symop_operation_xyz
x,y,z
-x,-y,1/2+z
x,1/2-y,-z
-x,1/2+y,1/2-z
-x,-y,-z
x,y,1/2-z
-x,1/2+y,z
x,1/2-y,1/2+z
loop_
_atom_site_type_symbol
_atom_site_label
_atom_site_fract_x
_atom_site_fract_y
_atom_site_fract_z
Si Si1 0.807955 0.611013 0.924553
Si Si2 0.464273 0.587726 0.699162
Si Si3 0.632971 0.219338 0.137562
Si Si4 0.835481 0.521279 0.341479
Si Si5 0.310438 0.170678 0.403281
Si Si6 0.209416 0.518629 0.337537
Si Si7 0.685721 0.520290 0.014286
Si Si8 0.176794 0.862983 0.078914
O O1 0.683935 0.705507 0.913324
O O2 0.789348 0.520747 0.888262
O O3 0.985479 0.667654 0.925749
O O4 0.786591 0.556334 0.971604
O O5 0.461194 0.623831 0.750000
O O6 0.433187 0.689871 0.669640
O O7 0.315759 0.501898 0.692837
O O8 0.649784 0.542374 0.690159
O O9 0.486187 0.145044 0.119767
O O10 0.755556 0.142526 0.164473
O O11 0.722203 0.260717 0.092856
O O12 0.824190 0.635730 0.365355
O O13 0.798741 0.444168 0.381709
O O14 0.018587 0.504075 0.319177
O O15 0.293002 0.110208 0.449303
O O16 0.756579 0.411055 0.032773
O O17 0.500000 0.500000 0.000000
#
# Coordination Sequence:
#
# PCOD8234908 Si02
#       8
#     8   8   8   8   8   8   8   8
#     4  11  21  37  58  87 124 166 213 262 305 358
#     4  11  24  43  66  94 124 154 199 260 315 380
#     4  11  21  40  66  90 125 166 209 253 317 381
#     4   9  21  40  65  91 125 164 203 252 310 376
#     4  11  20  37  61  90 123 166 211 255 307 368
#     4  11  22  41  67  92 123 167 207 249 314 380
#     4  11  22  35  55  86 125 165 216 263 306 355
#     4   9  21  37  57  84 122 167 212 257 307 365
#
# _framework density 20.680689999999998
#
# number of rings (size 3 to 8) (size 9 to 14) (size 15 to 20)
#    0.000    1.500    2.500    3.000    1.750    1.000 
#    0.000    5.625    0.000    0.000    0.000    0.000 
#    0.000    0.000    0.000    0.000    0.000    0.000 
#
# Total GULP energy -793300.546484 kJ/mol
# GULP energy per Si atom -12395.321039 kJ/mol
# Density = 2.063362 g / cm^3
# Si number density = 20.680690 Si / 1000 Ang^3
#
#
#
# Elastic Constant Matrix: (Units=GPa)
#
#
# Indices 1 2 3 4 5 6 
#
# 1 123.7354 13.2196 34.6601 0.0000 0.0000 0.0000
# 2 13.2196 63.4035 6.7504 0.0000 0.0000 0.0000
# 3 34.6601 6.7504 83.5166 0.0000 0.0000 0.0000
# 4 0.0000 0.0000 0.0000 15.9531 0.0000 0.0000
# 5 0.0000 0.0000 0.0000 0.0000 22.2741 0.0000
# 6 0.0000 0.0000 0.0000 0.0000 0.0000 30.7558
#
#
#
# Elastic Compliance Matrix: (Units=1/GPa)
#
#
# Indices 1 2 3 4 5 6 
#
# 1 0.009292 -0.001540 -0.003732 0.000000 0.000000 0.000000
# 2 -0.001540 0.016164 -0.000667 0.000000 0.000000 0.000000
# 3 -0.003732 -0.000667 0.013576 0.000000 0.000000 0.000000
# 4 0.000000 0.000000 0.000000 0.062684 0.000000 0.000000
# 5 0.000000 0.000000 0.000000 0.000000 0.044895 0.000000
# 6 0.000000 0.000000 0.000000 0.000000 0.000000 0.032514
#
#
# Mechanical properties :
#
#
# Convention : Reuss Voigt Hill
#
# Bulk Modulus (GPa) = 36.82700 42.21285 39.51992
# Shear Modulus (GPa) = 24.99321 28.19830 26.59576
#
# Velocity S-wave (km/s) = 3.48016 3.69658 3.59000
# Velocity P-wave (km/s) = 5.83050 6.21897 6.02787
#
# Compressibility (1/GPa) = 0.02715399
#
# Stress axis : x y z
#
# Youngs Moduli (GPa) = 107.62450 61.86537 73.65799
#
# Poissons Ratio (x) = 0.09527 0.27486
# Poissons Ratio (y) = 0.16574 0.04916
# Poissons Ratio (z) = 0.40161 0.04129
#
# Static dielectric constant tensor:
#      x y z
#    x 3.804090 0.000000 0.000000 
#    y 0.000000 3.638880 0.000000 
#    z 0.000000 0.000000 3.077960 
# 
# 
# High freq. dielectric constant tensor:
#      x y z
#    x 1.825260 0.000000 0.000000 
#    y 0.000000 1.804650 0.000000 
#    z 0.000000 0.000000 1.787230 
# 
# From -- ./inp_files/29605.got.cif
#   From: 2010.03.12/outbox.cif.g09.slc.cpg/sg57_15_cif.got.tgz:29605.got - 2010.04.16 15:48:40.
