data_PCOD8234136
_publ_section_title
;
Structure prediction by ZEFSAII (Michael W. Deem and Ramdas Pophale) SiO2 
 PCOD8234136
Probable space group: P B C M
;
_chemical_formula_sum "Si O2"
_cell_formula_units_Z 48
_cell_length_a 14.971733
_cell_length_b 18.939288
_cell_length_c 8.877332
_cell_angle_alpha 90.000000
_cell_angle_beta 90.000000
_cell_angle_gamma 90.000000
_cell_volume 2517.202671
_symmetry_space_group_name_H-M "P B C M"
_symmetry_group_IT_number 57
_symmetry_cell_setting 'orthorhombic'
loop_
_space_group_symop_operation_xyz
x,y,z
-x,-y,1/2+z
x,1/2-y,-z
-x,1/2+y,1/2-z
-x,-y,-z
x,y,1/2-z
-x,1/2+y,z
x,1/2-y,1/2+z
loop_
_atom_site_type_symbol
_atom_site_label
_atom_site_fract_x
_atom_site_fract_y
_atom_site_fract_z
Si Si1 0.231967 0.575341 0.926908
Si Si2 0.467844 0.428582 0.575588
Si Si3 0.630342 0.175719 0.425058
Si Si4 0.714799 0.571846 0.571685
Si Si5 0.125798 0.174131 0.927291
Si Si6 0.972555 0.427500 0.425443
O O1 0.249211 0.566404 0.750000
O O2 0.128969 0.591761 0.963521
O O3 0.286157 0.641197 0.990534
O O4 0.262779 0.505026 0.009660
O O5 0.500000 0.500000 0.500000
O O6 0.449182 0.443565 0.750000
O O7 0.542083 0.369864 0.550864
O O8 0.377839 0.400719 0.497374
O O9 0.610027 0.250000 0.500000
O O10 0.654261 0.184369 0.250000
O O11 0.705884 0.565943 0.750000
O O12 0.790584 0.626673 0.521484
O O13 0.124713 0.184434 0.750000
O O14 0.035501 0.135838 0.984946
O O15 0.134293 0.250000 0.000000
O O16 0.989037 0.438301 0.250000
O O17 0.000000 0.500000 0.500000
#
# Coordination Sequence:
#
# PCOD8234136 Si02
#       6
#     8   8   8   8   8   8
#     4  11  22  37  63  93 122 159 206 253 302 363
#     4  11  23  39  63  92 122 159 204 250 301 363
#     4  11  25  43  63  89 125 163 201 252 310 361
#     4  11  22  38  62  90 122 160 204 253 303 359
#     4  10  23  41  60  87 125 161 201 251 306 361
#     4  10  21  38  61  91 122 158 204 251 301 361
#
# _framework density 19.068784999999998
#
# number of rings (size 3 to 8) (size 9 to 14) (size 15 to 20)
#    0.000    1.333    3.333    2.000    0.000    6.000 
#    0.000    5.000    0.000    0.000    0.000    0.000 
#    0.000    0.000    0.000    0.000    0.000    0.000 
#
# Total GULP energy -595437.100206 kJ/mol
# GULP energy per Si atom -12404.939588 kJ/mol
# Density = 1.902538 g / cm^3
# Si number density = 19.068785 Si / 1000 Ang^3
#
#
#
# Elastic Constant Matrix: (Units=GPa)
#
#
# Indices 1 2 3 4 5 6 
#
# 1 149.6018 52.1422 61.6995 0.0000 0.0000 0.0000
# 2 52.1422 121.5043 44.2085 0.0000 0.0000 0.0000
# 3 61.6995 44.2085 84.4450 0.0000 0.0000 0.0000
# 4 0.0000 0.0000 0.0000 37.8739 0.0000 0.0000
# 5 0.0000 0.0000 0.0000 0.0000 30.9110 0.0000
# 6 0.0000 0.0000 0.0000 0.0000 0.0000 36.5562
#
#
#
# Elastic Compliance Matrix: (Units=1/GPa)
#
#
# Indices 1 2 3 4 5 6 
#
# 1 0.009948 -0.002007 -0.006218 0.000000 0.000000 0.000000
# 2 -0.002007 0.010572 -0.004068 0.000000 0.000000 0.000000
# 3 -0.006218 -0.004068 0.018515 0.000000 0.000000 0.000000
# 4 0.000000 0.000000 0.000000 0.026403 0.000000 0.000000
# 5 0.000000 0.000000 0.000000 0.000000 0.032351 0.000000
# 6 0.000000 0.000000 0.000000 0.000000 0.000000 0.027355
#
#
# Mechanical properties :
#
#
# Convention : Reuss Voigt Hill
#
# Bulk Modulus (GPa) = 69.21000 74.62795 71.91898
# Shear Modulus (GPa) = 32.35264 34.23495 33.29380
#
# Velocity S-wave (km/s) = 4.12348 4.24174 4.18303
# Velocity P-wave (km/s) = 7.68404 7.95053 7.81842
#
# Compressibility (1/GPa) = 0.01444878
#
# Stress axis : x y z
#
# Youngs Moduli (GPa) = 100.51876 94.59385 54.01011
#
# Poissons Ratio (x) = 0.18983 0.33584
# Poissons Ratio (y) = 0.20172 0.21972
# Poissons Ratio (z) = 0.62504 0.38482
#
# Static dielectric constant tensor:
#      x y z
#    x 2.383980 0.000000 0.000000 
#    y 0.000000 3.420420 0.000000 
#    z 0.000000 0.000000 3.621260 
# 
# 
# High freq. dielectric constant tensor:
#      x y z
#    x 1.761470 0.000000 0.000000 
#    y 0.000000 1.739850 0.000000 
#    z 0.000000 0.000000 1.751010 
# 
# From -- ./inp_files/4687.got.cif
#   From: 2010.03.12/outbox.cif.g09.slc.cpg/sg57_3_cif.got.tgz:4687.got - 2010.04.16 15:48:40.
