data_PCOD8234710
_publ_section_title
;
Structure prediction by ZEFSAII (Michael W. Deem and Ramdas Pophale) SiO2 
 PCOD8234710
Probable space group: P B C M
;
_chemical_formula_sum "Si O2"
_cell_formula_units_Z 40
_cell_length_a 25.592742
_cell_length_b 8.915626
_cell_length_c 8.814056
_cell_angle_alpha 90.000000
_cell_angle_beta 90.000000
_cell_angle_gamma 90.000000
_cell_volume 2011.150013
_symmetry_space_group_name_H-M "P B C M"
_symmetry_group_IT_number 57
_symmetry_cell_setting 'orthorhombic'
loop_
_space_group_symop_operation_xyz
x,y,z
-x,-y,1/2+z
x,1/2-y,-z
-x,1/2+y,1/2-z
-x,-y,-z
x,y,1/2-z
-x,1/2+y,z
x,1/2-y,1/2+z
loop_
_atom_site_type_symbol
_atom_site_label
_atom_site_fract_x
_atom_site_fract_y
_atom_site_fract_z
Si Si1 0.754890 0.912931 0.929619
Si Si2 0.652394 0.087473 0.571862
Si Si3 0.151421 0.908211 0.574401
Si Si4 0.548473 0.913734 0.930176
Si Si5 0.953846 0.909234 0.424328
O O1 0.757919 0.898083 0.750000
O O2 0.700720 0.986805 0.984144
O O3 0.760321 0.750000 0.000000
O O4 0.801157 0.016950 0.986598
O O5 0.655457 0.250000 0.500000
O O6 0.654274 0.109978 0.750000
O O7 0.599820 0.004448 0.520656
O O8 0.138937 0.750000 0.500000
O O9 0.166573 0.888518 0.750000
O O10 0.100344 0.006917 0.553129
O O11 0.542329 0.901965 0.750000
O O12 0.552184 0.750000 0.000000
O O13 0.500000 0.000000 0.000000
O O14 0.947625 0.750000 0.500000
O O15 0.968366 0.886819 0.250000
O O16 0.000000 0.000000 0.500000
#
# Coordination Sequence:
#
# PCOD8234710 Si02
#       5
#     8   8   8   8   8
#     4  11  23  40  62  89 120 157 199 245 296 352
#     4  10  23  40  60  87 119 155 197 244 295 350
#     4  11  24  41  62  90 122 158 198 245 296 351
#     4  11  23  40  61  88 120 156 198 245 296 352
#     4  11  24  41  63  90 122 158 199 245 296 351
#
# _framework density 19.889118
#
# number of rings (size 3 to 8) (size 9 to 14) (size 15 to 20)
#    0.000    1.200    0.000    5.400    0.000   12.800 
#    0.000    0.000    0.000    0.000    0.000    0.000 
#    0.000    0.000    0.000    0.000    0.000    0.000 
#
# Total GULP energy -496245.636126 kJ/mol
# GULP energy per Si atom -12406.140903 kJ/mol
# Density = 1.984385 g / cm^3
# Si number density = 19.889118 Si / 1000 Ang^3
#
#
#
# Elastic Constant Matrix: (Units=GPa)
#
#
# Indices 1 2 3 4 5 6 
#
# 1 110.8900 31.7572 64.0156 0.0000 0.0000 0.0000
# 2 31.7572 139.3876 65.1800 0.0000 0.0000 0.0000
# 3 64.0156 65.1800 107.8640 0.0000 0.0000 0.0000
# 4 0.0000 0.0000 0.0000 42.8597 0.0000 0.0000
# 5 0.0000 0.0000 0.0000 0.0000 33.9043 0.0000
# 6 0.0000 0.0000 0.0000 0.0000 0.0000 53.0119
#
#
#
# Elastic Compliance Matrix: (Units=1/GPa)
#
#
# Indices 1 2 3 4 5 6 
#
# 1 0.013809 0.000956 -0.008773 0.000000 0.000000 0.000000
# 2 0.000956 0.010066 -0.006650 0.000000 0.000000 0.000000
# 3 -0.008773 -0.006650 0.018496 0.000000 0.000000 0.000000
# 4 0.000000 0.000000 0.000000 0.023332 0.000000 0.000000
# 5 0.000000 0.000000 0.000000 0.000000 0.029495 0.000000
# 6 0.000000 0.000000 0.000000 0.000000 0.000000 0.018864
#
#
# Mechanical properties :
#
#
# Convention : Reuss Voigt Hill
#
# Bulk Modulus (GPa) = 74.42189 75.56081 74.99135
# Shear Modulus (GPa) = 33.90402 39.10108 36.50255
#
# Velocity S-wave (km/s) = 4.13322 4.43872 4.28869
# Velocity P-wave (km/s) = 7.76387 8.02142 7.89369
#
# Compressibility (1/GPa) = 0.01343691
#
# Stress axis : x y z
#
# Youngs Moduli (GPa) = 72.41797 99.34257 54.06455
#
# Poissons Ratio (x) = -0.09501 0.47432
# Poissons Ratio (y) = -0.06926 0.35955
# Poissons Ratio (z) = 0.63534 0.66067
#
# Static dielectric constant tensor:
#      x y z
#    x 3.856230 0.000000 0.000000 
#    y 0.000000 3.718370 0.000000 
#    z 0.000000 0.000000 3.826620 
# 
# 
# High freq. dielectric constant tensor:
#      x y z
#    x 1.797420 0.000000 0.000000 
#    y 0.000000 1.797950 0.000000 
#    z 0.000000 0.000000 1.788940 
# 
# From -- ./inp_files/8893.got.cif
#   From: 2010.03.12/outbox.cif.g09.slc.cpg/sg57_5_cif.got.tgz:8893.got - 2010.04.16 15:48:40.
