data_PCOD8234555
_publ_section_title
;
Structure prediction by ZEFSAII (Michael W. Deem and Ramdas Pophale) SiO2 
 PCOD8234555
Probable space group: P B C M
;
_chemical_formula_sum "Si O2"
_cell_formula_units_Z 64
_cell_length_a 11.971485
_cell_length_b 31.242689
_cell_length_c 8.768539
_cell_angle_alpha 90.000000
_cell_angle_beta 90.000000
_cell_angle_gamma 90.000000
_cell_volume 3279.621081
_symmetry_space_group_name_H-M "P B C M"
_symmetry_group_IT_number 57
_symmetry_cell_setting 'orthorhombic'
loop_
_space_group_symop_operation_xyz
x,y,z
-x,-y,1/2+z
x,1/2-y,-z
-x,1/2+y,1/2-z
-x,-y,-z
x,y,1/2-z
-x,1/2+y,z
x,1/2-y,1/2+z
loop_
_atom_site_type_symbol
_atom_site_label
_atom_site_fract_x
_atom_site_fract_y
_atom_site_fract_z
Si Si1 0.869579 0.386536 0.575832
Si Si2 0.518162 0.546860 0.930353
Si Si3 0.506233 0.706025 0.930031
Si Si4 0.098723 0.126365 0.929856
Si Si5 0.250923 0.055683 0.429976
Si Si6 0.115231 0.986919 0.924916
Si Si7 0.636843 0.375045 0.069878
Si Si8 0.759275 0.706723 0.929488
O O1 0.885513 0.371947 0.750000
O O2 0.866834 0.437083 0.560453
O O3 0.754102 0.368391 0.512732
O O4 0.970153 0.367580 0.475672
O O5 0.525671 0.542153 0.750000
O O6 0.420530 0.579913 0.978080
O O7 0.500000 0.500000 0.000000
O O8 0.632549 0.567954 0.991235
O O9 0.501008 0.710256 0.750000
O O10 0.437816 0.664820 0.986233
O O11 0.633063 0.699129 0.987621
O O12 0.456804 0.750000 0.000000
O O13 0.110018 0.118892 0.750000
O O14 0.164883 0.167907 0.986669
O O15 0.150682 0.086207 0.017707
O O16 0.265471 0.057265 0.250000
O O17 0.217388 0.008056 0.482837
O O18 0.116180 0.002477 0.750000
O O19 0.000000 0.000000 0.000000
O O20 0.655056 0.373895 0.250000
O O21 0.763545 0.710861 0.750000
O O22 0.809244 0.750000 0.000000
#
# Coordination Sequence:
#
# PCOD8234555 Si02
#       8
#     8   8   8   8   8   8   8   8
#     4  11  24  39  57  84 116 150 195 245 290 343
#     4  11  23  40  60  85 118 156 198 244 296 354
#     4   9  18  36  61  89 117 145 186 235 289 351
#     4  11  22  38  60  84 114 151 192 235 287 344
#     4  12  24  37  57  86 117 151 195 241 290 343
#     4  11  22  37  57  81 113 152 195 244 292 342
#     4  10  22  40  61  83 115 158 198 239 293 357
#     4   9  19  36  60  89 117 147 181 229 289 350
#
# _framework density 19.51445
#
# number of rings (size 3 to 8) (size 9 to 14) (size 15 to 20)
#    0.000    1.500    1.250    4.125    0.000    8.000 
#    0.000    3.125    0.000    0.000    0.000    0.000 
#    0.000    0.000    0.000    0.000    0.000    0.000 
#
# Total GULP energy -793863.210808 kJ/mol
# GULP energy per Si atom -12404.112669 kJ/mol
# Density = 1.947003 g / cm^3
# Si number density = 19.514450 Si / 1000 Ang^3
#
#
#
# Elastic Constant Matrix: (Units=GPa)
#
#
# Indices 1 2 3 4 5 6 
#
# 1 114.6015 47.4875 36.2138 0.0000 0.0000 0.0000
# 2 47.4875 114.6450 37.9642 0.0000 0.0000 0.0000
# 3 36.2138 37.9642 73.7696 0.0000 0.0000 0.0000
# 4 0.0000 0.0000 0.0000 31.2797 0.0000 0.0000
# 5 0.0000 0.0000 0.0000 0.0000 33.8975 0.0000
# 6 0.0000 0.0000 0.0000 0.0000 0.0000 34.2326
#
#
#
# Elastic Compliance Matrix: (Units=1/GPa)
#
#
# Indices 1 2 3 4 5 6 
#
# 1 0.011354 -0.003444 -0.003801 0.000000 0.000000 0.000000
# 2 -0.003444 0.011559 -0.004258 0.000000 0.000000 0.000000
# 3 -0.003801 -0.004258 0.017613 0.000000 0.000000 0.000000
# 4 0.000000 0.000000 0.000000 0.031970 0.000000 0.000000
# 5 0.000000 0.000000 0.000000 0.000000 0.029501 0.000000
# 6 0.000000 0.000000 0.000000 0.000000 0.000000 0.029212
#
#
# Mechanical properties :
#
#
# Convention : Reuss Voigt Hill
#
# Bulk Modulus (GPa) = 57.07925 60.70523 58.89224
# Shear Modulus (GPa) = 31.23909 31.97201 31.60555
#
# Velocity S-wave (km/s) = 4.00536 4.05208 4.02879
# Velocity P-wave (km/s) = 7.12066 7.28477 7.20318
#
# Compressibility (1/GPa) = 0.01751950
#
# Stress axis : x y z
#
# Youngs Moduli (GPa) = 88.07220 86.51079 56.77600
#
# Poissons Ratio (x) = 0.29797 0.21582
# Poissons Ratio (y) = 0.30335 0.24175
# Poissons Ratio (z) = 0.33479 0.36836
#
# Static dielectric constant tensor:
#      x y z
#    x 3.620420 0.000000 0.000000 
#    y 0.000000 3.545710 0.000000 
#    z 0.000000 0.000000 3.578790 
# 
# 
# High freq. dielectric constant tensor:
#      x y z
#    x 1.764260 0.000000 0.000000 
#    y 0.000000 1.756880 0.000000 
#    z 0.000000 0.000000 1.762920 
# 
# From -- ./inp_files/3764.got.cif
#   From: 2010.03.12/outbox.cif.g09.slc.cpg/sg57_2_cif.got.tgz:3764.got - 2010.04.16 15:48:40.
