data_PCOD8234585
_publ_section_title
;
Structure prediction by ZEFSAII (Michael W. Deem and Ramdas Pophale) SiO2 
 PCOD8234585
Probable space group: P B C M
;
_chemical_formula_sum "Si O2"
_cell_formula_units_Z 56
_cell_length_a 12.440261
_cell_length_b 13.248812
_cell_length_c 15.091754
_cell_angle_alpha 90.000000
_cell_angle_beta 90.000000
_cell_angle_gamma 90.000000
_cell_volume 2487.402961
_symmetry_space_group_name_H-M "P B C M"
_symmetry_group_IT_number 57
_symmetry_cell_setting 'orthorhombic'
loop_
_space_group_symop_operation_xyz
x,y,z
-x,-y,1/2+z
x,1/2-y,-z
-x,1/2+y,1/2-z
-x,-y,-z
x,y,1/2-z
-x,1/2+y,z
x,1/2-y,1/2+z
loop_
_atom_site_type_symbol
_atom_site_label
_atom_site_fract_x
_atom_site_fract_y
_atom_site_fract_z
Si Si1 0.169298 0.781951 0.593104
Si Si2 0.949253 0.797624 0.149753
Si Si3 0.730665 0.797523 0.850434
Si Si4 0.342588 0.858340 0.346839
Si Si5 0.898937 0.505245 0.935387
Si Si6 0.581555 0.889686 0.151592
Si Si7 0.682747 0.963310 0.518899
O O1 0.219633 0.750000 0.500000
O O2 0.264279 0.740166 0.656521
O O3 0.057568 0.721920 0.596462
O O4 0.143219 0.900019 0.606896
O O5 0.974677 0.770355 0.250000
O O6 0.853095 0.723702 0.116926
O O7 0.923470 0.916816 0.143488
O O8 0.729751 0.840380 0.750000
O O9 0.676280 0.689385 0.854187
O O10 0.661655 0.871259 0.913377
O O11 0.326378 0.910678 0.250000
O O12 0.468464 0.830617 0.357682
O O13 0.318251 0.932535 0.427852
O O14 0.804139 0.554564 0.990708
O O15 0.000000 0.500000 0.000000
O O16 0.586976 0.943602 0.250000
O O17 0.601438 0.965071 0.066880
#
# Coordination Sequence:
#
# PCOD8234585 Si02
#       7
#     8   8   8   8   8   8   8
#     4  12  24  42  67  98 134 178 225 275 349 414
#     4  11  24  42  65  94 134 172 218 280 336 402
#     4  10  22  40  65 101 131 169 228 280 335 404
#     4  11  25  46  66  95 140 180 228 288 345 414
#     4  12  24  40  67 100 134 173 227 280 340 416
#     4  10  23  43  65  96 137 179 231 291 341 402
#     4  12  22  40  71  98 130 182 226 281 348 408
#
# _framework density 22.513441
#
# number of rings (size 3 to 8) (size 9 to 14) (size 15 to 20)
#    0.000    0.857    4.286    2.571    0.000    2.286 
#    2.571    2.143    0.000    0.000    0.000    0.000 
#    0.000    0.000    0.000    0.000    0.000    0.000 
#
# Total GULP energy -693801.301981 kJ/mol
# GULP energy per Si atom -12389.308964 kJ/mol
# Density = 2.246220 g / cm^3
# Si number density = 22.513441 Si / 1000 Ang^3
#
#
#
# Elastic Constant Matrix: (Units=GPa)
#
#
# Indices 1 2 3 4 5 6 
#
# 1 110.0463 11.5187 38.7066 0.0000 0.0000 0.0000
# 2 11.5187 99.7794 41.7913 0.0000 0.0000 0.0000
# 3 38.7066 41.7913 119.6693 0.0000 0.0000 0.0000
# 4 0.0000 0.0000 0.0000 30.9669 0.0000 0.0000
# 5 0.0000 0.0000 0.0000 0.0000 26.7714 0.0000
# 6 0.0000 0.0000 0.0000 0.0000 0.0000 22.1593
#
#
#
# Elastic Compliance Matrix: (Units=1/GPa)
#
#
# Indices 1 2 3 4 5 6 
#
# 1 0.010259 0.000241 -0.003402 0.000000 0.000000 0.000000
# 2 0.000241 0.011745 -0.004179 0.000000 0.000000 0.000000
# 3 -0.003402 -0.004179 0.010916 0.000000 0.000000 0.000000
# 4 0.000000 0.000000 0.000000 0.032293 0.000000 0.000000
# 5 0.000000 0.000000 0.000000 0.000000 0.037353 0.000000
# 6 0.000000 0.000000 0.000000 0.000000 0.000000 0.045128
#
#
# Mechanical properties :
#
#
# Convention : Reuss Voigt Hill
#
# Bulk Modulus (GPa) = 54.83081 57.05872 55.94477
# Shear Modulus (GPa) = 29.68162 31.81140 30.74651
#
# Velocity S-wave (km/s) = 3.63491 3.76306 3.69954
# Velocity P-wave (km/s) = 6.48262 6.65433 6.56904
#
# Compressibility (1/GPa) = 0.01823792
#
# Stress axis : x y z
#
# Youngs Moduli (GPa) = 97.47986 85.14397 91.60598
#
# Poissons Ratio (x) = -0.02049 0.31166
# Poissons Ratio (y) = -0.02346 0.38286
# Poissons Ratio (z) = 0.33164 0.35585
#
# Static dielectric constant tensor:
#      x y z
#    x 4.187810 0.000000 0.000000 
#    y 0.000000 3.769810 0.000000 
#    z 0.000000 0.000000 4.335770 
# 
# 
# High freq. dielectric constant tensor:
#      x y z
#    x 1.899470 0.000000 0.000000 
#    y 0.000000 1.860700 0.000000 
#    z 0.000000 0.000000 1.898780 
# 
# From -- ./inp_files/17777.got.cif
#   From: 2010.03.12/outbox.cif.g09.slc.cpg/sg57_9_cif.got.tgz:17777.got - 2010.04.16 15:48:40.
