data_PCOD8234141
_publ_section_title
;
Structure prediction by ZEFSAII (Michael W. Deem and Ramdas Pophale) SiO2 
 PCOD8234141
Probable space group: P B C M
;
_chemical_formula_sum "Si O2"
_cell_formula_units_Z 48
_cell_length_a 12.445163
_cell_length_b 23.350757
_cell_length_c 8.649368
_cell_angle_alpha 90.000000
_cell_angle_beta 90.000000
_cell_angle_gamma 90.000000
_cell_volume 2513.540740
_symmetry_space_group_name_H-M "P B C M"
_symmetry_group_IT_number 57
_symmetry_cell_setting 'orthorhombic'
loop_
_space_group_symop_operation_xyz
x,y,z
-x,-y,1/2+z
x,1/2-y,-z
-x,1/2+y,1/2-z
-x,-y,-z
x,y,1/2-z
-x,1/2+y,z
x,1/2-y,1/2+z
loop_
_atom_site_type_symbol
_atom_site_label
_atom_site_fract_x
_atom_site_fract_y
_atom_site_fract_z
Si Si1 0.804471 0.872490 0.430685
Si Si2 0.385550 0.189104 0.430617
Si Si3 0.881825 0.501861 0.931861
Si Si4 0.811418 0.388269 0.432426
Si Si5 0.366306 0.689075 0.069283
Si Si6 0.997243 0.188504 0.432186
O O1 0.818498 0.860962 0.250000
O O2 0.683433 0.859722 0.485118
O O3 0.883242 0.829587 0.520361
O O4 0.828355 0.937814 0.473647
O O5 0.352155 0.250000 0.500000
O O6 0.360447 0.189518 0.250000
O O7 0.509670 0.175595 0.464958
O O8 0.887452 0.491103 0.750000
O O9 0.808459 0.453668 0.010946
O O10 0.000000 0.500000 0.000000
O O11 0.822515 0.385586 0.250000
O O12 0.700872 0.359857 0.485605
O O13 0.914496 0.358000 0.505135
O O14 0.339757 0.689652 0.250000
O O15 0.332080 0.750000 0.000000
O O16 0.966915 0.250000 0.500000
O O17 0.987496 0.191713 0.250000
#
# Coordination Sequence:
#
# PCOD8234141 Si02
#       6
#     8   8   8   8   8   8
#     4  11  23  39  60  87 119 153 197 243 293 352
#     4  10  21  38  62  89 120 157 197 242 295 353
#     4  11  23  40  62  86 117 158 200 245 294 353
#     4  12  24  39  60  87 119 154 198 244 295 354
#     4  10  21  39  62  89 120 156 198 243 296 354
#     4  12  24  38  58  84 119 154 192 241 296 354
#
# _framework density 19.096567
#
# number of rings (size 3 to 8) (size 9 to 14) (size 15 to 20)
#    0.000    1.000    1.667    6.000    0.000    4.000 
#    0.000    0.833    0.000    0.000    0.000    0.000 
#    0.000    0.000    0.000    0.000    0.000    0.000 
#
# Total GULP energy -595572.631391 kJ/mol
# GULP energy per Si atom -12407.763154 kJ/mol
# Density = 1.905310 g / cm^3
# Si number density = 19.096567 Si / 1000 Ang^3
#
#
#
# Elastic Constant Matrix: (Units=GPa)
#
#
# Indices 1 2 3 4 5 6 
#
# 1 95.2715 56.8338 43.2847 0.0000 0.0000 0.0000
# 2 56.8338 119.5144 60.3795 0.0000 0.0000 0.0000
# 3 43.2847 60.3795 136.5043 0.0000 0.0000 0.0000
# 4 0.0000 0.0000 0.0000 35.7745 0.0000 0.0000
# 5 0.0000 0.0000 0.0000 0.0000 36.2649 0.0000
# 6 0.0000 0.0000 0.0000 0.0000 0.0000 35.8941
#
#
#
# Elastic Compliance Matrix: (Units=1/GPa)
#
#
# Indices 1 2 3 4 5 6 
#
# 1 0.015096 -0.006130 -0.002075 0.000000 0.000000 0.000000
# 2 -0.006130 0.013265 -0.003923 0.000000 0.000000 0.000000
# 3 -0.002075 -0.003923 0.009719 0.000000 0.000000 0.000000
# 4 0.000000 0.000000 0.000000 0.027953 0.000000 0.000000
# 5 0.000000 0.000000 0.000000 0.000000 0.027575 0.000000
# 6 0.000000 0.000000 0.000000 0.000000 0.000000 0.027860
#
#
# Mechanical properties :
#
#
# Convention : Reuss Voigt Hill
#
# Bulk Modulus (GPa) = 72.34871 74.69847 73.52359
# Shear Modulus (GPa) = 33.25952 34.30619 33.78285
#
# Velocity S-wave (km/s) = 4.17783 4.24306 4.21058
# Velocity P-wave (km/s) = 7.82562 7.95021 7.88816
#
# Compressibility (1/GPa) = 0.01382195
#
# Stress axis : x y z
#
# Youngs Moduli (GPa) = 66.24158 75.38898 102.88874
#
# Poissons Ratio (x) = 0.46217 0.21352
# Poissons Ratio (y) = 0.40609 0.40367
# Poissons Ratio (z) = 0.13747 0.29578
#
# Static dielectric constant tensor:
#      x y z
#    x 3.491280 0.000000 0.000000 
#    y 0.000000 -0.452880 0.000000 
#    z 0.000000 0.000000 3.701790 
# 
# 
# High freq. dielectric constant tensor:
#      x y z
#    x 1.743300 0.000000 0.000000 
#    y 0.000000 1.745320 0.000000 
#    z 0.000000 0.000000 1.764240 
# 
# From -- ./inp_files/3165.got.cif
#   From: 2010.03.12/outbox.cif.g09.slc.cpg/sg57_2_cif.got.tgz:3165.got - 2010.04.16 15:48:40.
