data_PCOD8234353
_publ_section_title
;
Structure prediction by ZEFSAII (Michael W. Deem and Ramdas Pophale) SiO2 
 PCOD8234353
Probable space group: P B C M
;
_chemical_formula_sum "Si O2"
_cell_formula_units_Z 48
_cell_length_a 8.741735
_cell_length_b 15.199807
_cell_length_c 17.345038
_cell_angle_alpha 90.000000
_cell_angle_beta 90.000000
_cell_angle_gamma 90.000000
_cell_volume 2304.681768
_symmetry_space_group_name_H-M "P B C M"
_symmetry_group_IT_number 57
_symmetry_cell_setting 'orthorhombic'
loop_
_space_group_symop_operation_xyz
x,y,z
-x,-y,1/2+z
x,1/2-y,-z
-x,1/2+y,1/2-z
-x,-y,-z
x,y,1/2-z
-x,1/2+y,z
x,1/2-y,1/2+z
loop_
_atom_site_type_symbol
_atom_site_label
_atom_site_fract_x
_atom_site_fract_y
_atom_site_fract_z
Si Si1 0.420959 0.869479 0.341115
Si Si2 0.622796 0.465887 0.840445
Si Si3 0.096565 0.282922 0.914755
Si Si4 0.587316 0.801454 0.660119
Si Si5 0.083056 0.625941 0.839510
Si Si6 0.943353 0.033727 0.416998
O O1 0.405718 0.861239 0.250000
O O2 0.520938 0.789369 0.373441
O O3 0.251159 0.864731 0.378112
O O4 0.502841 0.959383 0.364126
O O5 0.673501 0.473408 0.750000
O O6 0.538814 0.374726 0.856913
O O7 0.763229 0.475249 0.899608
O O8 0.254668 0.320692 0.882303
O O9 0.033987 0.198995 0.869254
O O10 0.978986 0.363404 0.908133
O O11 0.124228 0.250000 0.000000
O O12 0.625093 0.795630 0.750000
O O13 0.096152 0.641449 0.750000
O O14 0.026284 0.527023 0.854211
O O15 0.000000 0.000000 0.500000
#
# Coordination Sequence:
#
# PCOD8234353 Si02
#       6
#     8   8   8   8   8   8
#     4   9  19  37  63  95 125 157 211 272 320 379
#     4  10  21  40  66  95 126 167 222 276 327 389
#     4  12  25  43  63  95 139 177 218 271 337 399
#     4  10  21  40  65  94 124 164 221 274 323 389
#     4  11  23  43  72  99 127 173 225 272 327 395
#     4  12  25  43  64  94 138 175 212 271 330 397
#
# _framework density 20.827171
#
# number of rings (size 3 to 8) (size 9 to 14) (size 15 to 20)
#    0.000    1.333    1.667    4.000    0.000    6.667 
#    3.000    1.667    0.000    0.000    0.000    0.000 
#    0.000    0.000    0.000    0.000    0.000    0.000 
#
# Total GULP energy -595224.960660 kJ/mol
# GULP energy per Si atom -12400.520014 kJ/mol
# Density = 2.077977 g / cm^3
# Si number density = 20.827171 Si / 1000 Ang^3
#
#
#
# Elastic Constant Matrix: (Units=GPa)
#
#
# Indices 1 2 3 4 5 6 
#
# 1 128.4654 21.9478 47.6829 0.0000 0.0000 0.0000
# 2 21.9478 109.8091 28.7469 0.0000 0.0000 0.0000
# 3 47.6829 28.7469 71.0560 0.0000 0.0000 0.0000
# 4 0.0000 0.0000 0.0000 23.3630 0.0000 0.0000
# 5 0.0000 0.0000 0.0000 0.0000 26.3075 0.0000
# 6 0.0000 0.0000 0.0000 0.0000 0.0000 34.5937
#
#
#
# Elastic Compliance Matrix: (Units=1/GPa)
#
#
# Indices 1 2 3 4 5 6 
#
# 1 0.010374 -0.000281 -0.006848 0.000000 0.000000 0.000000
# 2 -0.000281 0.010193 -0.003935 0.000000 0.000000 0.000000
# 3 -0.006848 -0.003935 0.020261 0.000000 0.000000 0.000000
# 4 0.000000 0.000000 0.000000 0.042803 0.000000 0.000000
# 5 0.000000 0.000000 0.000000 0.000000 0.038012 0.000000
# 6 0.000000 0.000000 0.000000 0.000000 0.000000 0.028907
#
#
# Mechanical properties :
#
#
# Convention : Reuss Voigt Hill
#
# Bulk Modulus (GPa) = 53.47661 56.23174 54.85418
# Shear Modulus (GPa) = 27.94683 30.91636 29.43160
#
# Velocity S-wave (km/s) = 3.66709 3.85700 3.76325
# Velocity P-wave (km/s) = 6.60774 6.84786 6.72887
#
# Compressibility (1/GPa) = 0.01869976
#
# Stress axis : x y z
#
# Youngs Moduli (GPa) = 96.39536 98.10584 49.35603
#
# Poissons Ratio (x) = 0.02754 0.33799
# Poissons Ratio (y) = 0.02706 0.19424
# Poissons Ratio (z) = 0.66011 0.38608
#
# Static dielectric constant tensor:
#      x y z
#    x 3.955770 0.000000 0.000000 
#    y 0.000000 3.983140 0.000000 
#    z 0.000000 0.000000 4.013140 
# 
# 
# High freq. dielectric constant tensor:
#      x y z
#    x 1.829590 0.000000 0.000000 
#    y 0.000000 1.834520 0.000000 
#    z 0.000000 0.000000 1.793510 
# 
# From -- ./inp_files/20931.got.cif
#   From: 2010.03.12/outbox.cif.g09.slc.cpg/sg57_11_cif.got.tgz:20931.got - 2010.04.16 15:48:40.
