data_PCOD8234657
_publ_section_title
;
Structure prediction by ZEFSAII (Michael W. Deem and Ramdas Pophale) SiO2 
 PCOD8234657
Probable space group: P B C M
;
_chemical_formula_sum "Si O2"
_cell_formula_units_Z 40
_cell_length_a 12.046259
_cell_length_b 10.452060
_cell_length_c 14.142460
_cell_angle_alpha 90.000000
_cell_angle_beta 90.000000
_cell_angle_gamma 90.000000
_cell_volume 1780.651991
_symmetry_space_group_name_H-M "P B C M"
_symmetry_group_IT_number 57
_symmetry_cell_setting 'orthorhombic'
loop_
_space_group_symop_operation_xyz
x,y,z
-x,-y,1/2+z
x,1/2-y,-z
-x,1/2+y,1/2-z
-x,-y,-z
x,y,1/2-z
-x,1/2+y,z
x,1/2-y,1/2+z
loop_
_atom_site_type_symbol
_atom_site_label
_atom_site_fract_x
_atom_site_fract_y
_atom_site_fract_z
Si Si1 0.117340 0.433087 0.092277
Si Si2 0.875318 0.127250 0.929194
Si Si3 0.465662 0.373477 0.551794
Si Si4 0.499400 0.525071 0.250000
Si Si5 0.716685 0.345257 0.250000
Si Si6 0.257934 0.250000 0.500000
Si Si7 0.740772 0.050924 0.250000
O O1 0.185361 0.301222 0.086889
O O2 0.177405 0.529216 0.162943
O O3 0.995241 0.384793 0.122178
O O4 0.127505 0.497590 0.989637
O O5 0.783266 0.122904 0.846666
O O6 0.866089 0.250000 0.000000
O O7 0.523368 0.250000 0.500000
O O8 0.500000 0.500000 0.500000
O O9 0.496942 0.380282 0.660858
O O10 0.333167 0.363568 0.542906
O O11 0.597357 0.419060 0.250000
O O12 0.372989 0.464003 0.250000
O O13 0.695052 0.194666 0.250000
#
# Coordination Sequence:
#
# PCOD8234657 Si02
#       7
#     8   8   8   4   4   4   4
#     4  11  23  45  73 110 147 187 242 305 382 447
#     4  11  23  47  78 105 149 190 240 313 377 450
#     4  10  25  46  71 102 146 197 263 304 372 454
#     4  12  28  48  70 105 153 206 242 323 378 438
#     4  12  27  47  75 112 143 196 258 306 379 458
#     4  10  22  42  68 102 142 188 244 310 374 444
#     4  12  27  43  73 111 148 194 254 303 371 466
#
# _framework density 22.463683
#
# number of rings (size 3 to 8) (size 9 to 14) (size 15 to 20)
#    0.600    0.400    3.000    3.000    2.800    0.800 
#    0.000    1.000    2.200    0.000    0.000    0.000 
#    0.000    0.000    0.000    0.000    0.000    0.000 
#
# Total GULP energy -495531.139243 kJ/mol
# GULP energy per Si atom -12388.278481 kJ/mol
# Density = 2.241255 g / cm^3
# Si number density = 22.463683 Si / 1000 Ang^3
#
#
#
# Elastic Constant Matrix: (Units=GPa)
#
#
# Indices 1 2 3 4 5 6 
#
# 1 142.5892 28.5217 46.9796 0.0000 0.0000 0.0000
# 2 28.5217 112.1889 40.0891 0.0000 0.0000 0.0000
# 3 46.9796 40.0891 138.2589 0.0000 0.0000 0.0000
# 4 0.0000 0.0000 0.0000 35.2008 0.0000 0.0000
# 5 0.0000 0.0000 0.0000 0.0000 20.4173 0.0000
# 6 0.0000 0.0000 0.0000 0.0000 0.0000 35.4837
#
#
#
# Elastic Compliance Matrix: (Units=1/GPa)
#
#
# Indices 1 2 3 4 5 6 
#
# 1 0.008037 -0.001191 -0.002386 0.000000 0.000000 0.000000
# 2 -0.001191 0.010120 -0.002530 0.000000 0.000000 0.000000
# 3 -0.002386 -0.002530 0.008777 0.000000 0.000000 0.000000
# 4 0.000000 0.000000 0.000000 0.028408 0.000000 0.000000
# 5 0.000000 0.000000 0.000000 0.000000 0.048978 0.000000
# 6 0.000000 0.000000 0.000000 0.000000 0.000000 0.028182
#
#
# Mechanical properties :
#
#
# Convention : Reuss Voigt Hill
#
# Bulk Modulus (GPa) = 67.92613 69.35756 68.64184
# Shear Modulus (GPa) = 33.41727 36.71681 35.06704
#
# Velocity S-wave (km/s) = 3.86114 4.04728 3.95531
# Velocity P-wave (km/s) = 7.08391 7.26519 7.17512
#
# Compressibility (1/GPa) = 0.01472187
#
# Stress axis : x y z
#
# Youngs Moduli (GPa) = 124.41829 98.81163 113.93396
#
# Poissons Ratio (x) = 0.11767 0.27182
# Poissons Ratio (y) = 0.14816 0.28823
# Poissons Ratio (z) = 0.29683 0.24997
#
# Static dielectric constant tensor:
#      x y z
#    x 4.340220 0.000000 0.000000 
#    y 0.000000 3.860710 0.000000 
#    z 0.000000 0.000000 3.852680 
# 
# 
# High freq. dielectric constant tensor:
#      x y z
#    x 1.904310 0.000000 0.000000 
#    y 0.000000 1.883290 0.000000 
#    z 0.000000 0.000000 1.880750 
# 
# From -- ./inp_files/17479.got.cif
#   From: 2010.03.12/outbox.cif.g09.slc.cpg/sg57_9_cif.got.tgz:17479.got - 2010.04.16 15:48:40.
