data_PCOD8234501
_publ_section_title
;
Structure prediction by ZEFSAII (Michael W. Deem and Ramdas Pophale) SiO2 
 PCOD8234501
Probable space group: P B C M
;
_chemical_formula_sum "Si O2"
_cell_formula_units_Z 64
_cell_length_a 14.650992
_cell_length_b 25.276900
_cell_length_c 8.897373
_cell_angle_alpha 90.000000
_cell_angle_beta 90.000000
_cell_angle_gamma 90.000000
_cell_volume 3294.978910
_symmetry_space_group_name_H-M "P B C M"
_symmetry_group_IT_number 57
_symmetry_cell_setting 'orthorhombic'
loop_
_space_group_symop_operation_xyz
x,y,z
-x,-y,1/2+z
x,1/2-y,-z
-x,1/2+y,1/2-z
-x,-y,-z
x,y,1/2-z
-x,1/2+y,z
x,1/2-y,1/2+z
loop_
_atom_site_type_symbol
_atom_site_label
_atom_site_fract_x
_atom_site_fract_y
_atom_site_fract_z
Si Si1 0.486553 0.808920 0.572854
Si Si2 0.596999 0.505805 0.926803
Si Si3 0.326175 0.609991 0.425474
Si Si4 0.862847 0.386431 0.084408
Si Si5 0.842027 0.874356 0.429854
Si Si6 0.001552 0.200488 0.910718
Si Si7 0.019464 0.445536 0.926651
Si Si8 0.346818 0.115230 0.428723
O O1 0.483122 0.750000 0.500000
O O2 0.487793 0.799716 0.750000
O O3 0.402037 0.846675 0.525083
O O4 0.575521 0.842737 0.522181
O O5 0.588303 0.515425 0.750000
O O6 0.647926 0.450781 0.961433
O O7 0.500000 0.500000 0.000000
O O8 0.644882 0.556935 0.999004
O O9 0.305588 0.616440 0.250000
O O10 0.237576 0.622176 0.521737
O O11 0.859931 0.415018 0.250000
O O12 0.907298 0.329863 0.108991
O O13 0.927750 0.413527 0.962452
O O14 0.831796 0.878050 0.250000
O O15 0.914836 0.830845 0.486805
O O16 0.746975 0.860616 0.508859
O O17 0.886491 0.927957 0.492792
O O18 0.039738 0.218413 0.750000
O O19 0.970398 0.250000 0.000000
O O20 0.036002 0.447770 0.750000
O O21 0.000000 0.500000 0.000000
O O22 0.345834 0.108445 0.250000
#
# Coordination Sequence:
#
# PCOD8234501 Si02
#       8
#     8   8   8   8   8   8   8   8
#     4  10  23  43  63  87 122 160 204 255 305 362
#     4  11  22  39  63  89 122 160 203 253 308 364
#     4  10  22  41  61  87 123 161 201 251 306 363
#     4  10  22  39  58  87 120 154 199 246 292 354
#     4  10  22  40  59  87 121 154 198 247 295 355
#     4   9  20  38  60  84 116 153 197 248 298 351
#     4  11  22  38  59  84 117 158 196 238 293 350
#     4  11  23  41  62  90 125 162 206 252 305 366
#
# _framework density 19.423492
#
# number of rings (size 3 to 8) (size 9 to 14) (size 15 to 20)
#    0.000    1.750    1.250    3.375    1.750    6.500 
#    0.000    5.000    0.000    0.000    0.000    0.000 
#    0.000    0.000    0.000    0.000    0.000    0.000 
#
# Total GULP energy -793031.630013 kJ/mol
# GULP energy per Si atom -12391.119219 kJ/mol
# Density = 1.937928 g / cm^3
# Si number density = 19.423492 Si / 1000 Ang^3
#
#
#
# Elastic Constant Matrix: (Units=GPa)
#
#
# Indices 1 2 3 4 5 6 
#
# 1 146.4448 40.8539 50.3053 0.0000 0.0000 0.0000
# 2 40.8539 115.7238 48.1456 0.0000 0.0000 0.0000
# 3 50.3053 48.1456 92.5215 0.0000 0.0000 0.0000
# 4 0.0000 0.0000 0.0000 34.6864 0.0000 0.0000
# 5 0.0000 0.0000 0.0000 0.0000 35.9005 0.0000
# 6 0.0000 0.0000 0.0000 0.0000 0.0000 -97.3010
#
#
#
# Elastic Compliance Matrix: (Units=1/GPa)
#
#
# Indices 1 2 3 4 5 6 
#
# 1 0.008568 -0.001387 -0.003937 0.000000 0.000000 0.000000
# 2 -0.001387 0.011253 -0.005102 0.000000 0.000000 0.000000
# 3 -0.003937 -0.005102 0.015604 0.000000 0.000000 0.000000
# 4 0.000000 0.000000 0.000000 0.028830 0.000000 0.000000
# 5 0.000000 0.000000 0.000000 0.000000 0.027855 0.000000
# 6 0.000000 0.000000 0.000000 0.000000 0.000000 -0.010277
#
#
# Mechanical properties :
#
#
# Convention : Reuss Voigt Hill
#
# Bulk Modulus (GPa) = 68.61611 70.36663 69.49137
# Shear Modulus (GPa) = 46.49394 9.01620 27.75507
#
# Velocity S-wave (km/s) = 4.89785 2.15685 3.78424
# Velocity P-wave (km/s) = 8.20904 6.51988 7.41273
#
# Compressibility (1/GPa) = 0.01457384
#
# Stress axis : x y z
#
# Youngs Moduli (GPa) = 116.71739 88.86149 64.08741
#
# Poissons Ratio (x) = 0.12323 0.25229
# Poissons Ratio (y) = 0.16187 0.32697
# Poissons Ratio (z) = 0.45949 0.45337
#
# Static dielectric constant tensor:
#      x y z
#    x 3.661190 0.000000 0.000000 
#    y 0.000000 3.136860 0.000000 
#    z 0.000000 0.000000 3.776530 
# 
# 
# High freq. dielectric constant tensor:
#      x y z
#    x 1.764050 0.000000 0.000000 
#    y 0.000000 1.755420 0.000000 
#    z 0.000000 0.000000 1.765050 
# 
# From -- ./inp_files/5687.got.cif
#   From: 2010.03.12/outbox.cif.g09.slc.cpg/sg57_3_cif.got.tgz:5687.got - 2010.04.16 15:48:40.
