data_PCOD8234674
_publ_section_title
;
Structure prediction by ZEFSAII (Michael W. Deem and Ramdas Pophale) SiO2 
 PCOD8234674
Probable space group: P B C M
;
_chemical_formula_sum "Si O2"
_cell_formula_units_Z 64
_cell_length_a 11.500256
_cell_length_b 11.196395
_cell_length_c 24.270399
_cell_angle_alpha 90.000000
_cell_angle_beta 90.000000
_cell_angle_gamma 90.000000
_cell_volume 3125.090767
_symmetry_space_group_name_H-M "P B C M"
_symmetry_group_IT_number 57
_symmetry_cell_setting 'orthorhombic'
loop_
_space_group_symop_operation_xyz
x,y,z
-x,-y,1/2+z
x,1/2-y,-z
-x,1/2+y,1/2-z
-x,-y,-z
x,y,1/2-z
-x,1/2+y,z
x,1/2-y,1/2+z
loop_
_atom_site_type_symbol
_atom_site_label
_atom_site_fract_x
_atom_site_fract_y
_atom_site_fract_z
Si Si1 0.837161 0.062756 0.186539
Si Si2 0.310540 0.380567 0.366737
Si Si3 0.456451 0.926219 0.187242
Si Si4 0.704270 0.639950 0.311907
Si Si5 0.770735 0.303916 0.144097
Si Si6 0.080898 0.990197 0.312822
Si Si7 0.880790 0.128350 0.534185
Si Si8 0.853337 0.879221 0.029615
O O1 0.840717 0.104700 0.250000
O O2 0.779890 0.161474 0.147021
O O3 0.961310 0.029580 0.158574
O O4 0.760411 0.944409 0.181908
O O5 0.443768 0.423634 0.359532
O O6 0.314654 0.241331 0.355756
O O7 0.248659 0.400909 0.425472
O O8 0.496925 0.889686 0.250000
O O9 0.353209 0.838310 0.169178
O O10 0.411328 0.061012 0.188917
O O11 0.730661 0.686061 0.250000
O O12 0.812889 0.567170 0.336440
O O13 0.880871 0.352761 0.179836
O O14 0.789296 0.357219 0.083577
O O15 0.057612 0.017247 0.250000
O O16 0.862910 0.250000 0.500000
O O17 0.015663 0.125220 0.554721
O O18 0.847743 0.000053 0.507369
O O19 0.829301 0.750000 0.000000
#
# Coordination Sequence:
#
# PCOD8234674 Si02
#       8
#     8   8   8   8   8   8   8   8
#     4  11  23  35  58  96 130 161 208 267 319 398
#     4  12  24  40  64  92 125 171 222 260 322 386
#     4  10  23  42  63  91 128 173 216 260 316 390
#     4   9  20  38  60  87 126 167 208 256 317 393
#     4  11  22  39  65  87 125 172 214 256 331 391
#     4   9  20  35  55  88 126 160 200 255 323 392
#     4  10  22  43  66  94 131 168 215 282 343 395
#     4  10  24  42  67  98 129 165 223 285 336 389
#
# _framework density 20.479405
#
# number of rings (size 3 to 8) (size 9 to 14) (size 15 to 20)
#    0.000    1.750    0.000    4.500    8.750    1.000 
#    0.000    1.250    0.000    0.000    0.000    0.000 
#    0.000    0.000    0.000    0.000    0.000    0.000 
#
# Total GULP energy -792869.281686 kJ/mol
# GULP energy per Si atom -12388.582526 kJ/mol
# Density = 2.043279 g / cm^3
# Si number density = 20.479405 Si / 1000 Ang^3
#
#
#
# Elastic Constant Matrix: (Units=GPa)
#
#
# Indices 1 2 3 4 5 6 
#
# 1 110.8327 42.9800 50.6416 0.0000 0.0000 0.0000
# 2 42.9800 114.5630 36.4732 0.0000 0.0000 0.0000
# 3 50.6416 36.4732 81.0180 0.0000 0.0000 0.0000
# 4 0.0000 0.0000 0.0000 28.4566 0.0000 0.0000
# 5 0.0000 0.0000 0.0000 0.0000 37.4321 0.0000
# 6 0.0000 0.0000 0.0000 0.0000 0.0000 5.2098
#
#
#
# Elastic Compliance Matrix: (Units=1/GPa)
#
#
# Indices 1 2 3 4 5 6 
#
# 1 0.013328 -0.002741 -0.007097 0.000000 0.000000 0.000000
# 2 -0.002741 0.010753 -0.003128 0.000000 0.000000 0.000000
# 3 -0.007097 -0.003128 0.018187 0.000000 0.000000 0.000000
# 4 0.000000 0.000000 0.000000 0.035141 0.000000 0.000000
# 5 0.000000 0.000000 0.000000 0.000000 0.026715 0.000000
# 6 0.000000 0.000000 0.000000 0.000000 0.000000 0.191944
#
#
# Mechanical properties :
#
#
# Convention : Reuss Voigt Hill
#
# Bulk Modulus (GPa) = 61.21039 62.95591 62.08315
# Shear Modulus (GPa) = 15.26970 25.97430 20.62200
#
# Velocity S-wave (km/s) = 2.73355 3.56520 3.17671
# Velocity P-wave (km/s) = 6.31797 6.91053 6.62088
#
# Compressibility (1/GPa) = 0.01633709
#
# Stress axis : x y z
#
# Youngs Moduli (GPa) = 75.02822 92.99910 54.98386
#
# Poissons Ratio (x) = 0.25489 0.39023
# Poissons Ratio (y) = 0.20564 0.17197
# Poissons Ratio (z) = 0.53249 0.29086
#
# Static dielectric constant tensor:
#      x y z
#    x 3.937530 0.000000 0.000000 
#    y 0.000000 3.911410 0.000000 
#    z 0.000000 0.000000 3.543330 
# 
# 
# High freq. dielectric constant tensor:
#      x y z
#    x 1.796270 0.000000 0.000000 
#    y 0.000000 1.816380 0.000000 
#    z 0.000000 0.000000 1.777800 
# 
# From -- ./inp_files/27287.got.cif
#   From: 2010.03.12/outbox.cif.g09.slc.cpg/sg57_14_cif.got.tgz:27287.got - 2010.04.16 15:48:40.
