data_PCOD8234703
_publ_section_title
;
Structure prediction by ZEFSAII (Michael W. Deem and Ramdas Pophale) SiO2 
 PCOD8234703
Probable space group: P B C M
;
_chemical_formula_sum "Si O2"
_cell_formula_units_Z 64
_cell_length_a 23.608144
_cell_length_b 9.431044
_cell_length_c 14.182734
_cell_angle_alpha 90.000000
_cell_angle_beta 90.000000
_cell_angle_gamma 90.000000
_cell_volume 3157.777851
_symmetry_space_group_name_H-M "P B C M"
_symmetry_group_IT_number 57
_symmetry_cell_setting 'orthorhombic'
loop_
_space_group_symop_operation_xyz
x,y,z
-x,-y,1/2+z
x,1/2-y,-z
-x,1/2+y,1/2-z
-x,-y,-z
x,y,1/2-z
-x,1/2+y,z
x,1/2-y,1/2+z
loop_
_atom_site_type_symbol
_atom_site_label
_atom_site_fract_x
_atom_site_fract_y
_atom_site_fract_z
Si Si1 0.453728 0.125178 0.641295
Si Si2 0.355148 0.415958 0.010543
Si Si3 0.965790 0.450283 0.643753
Si Si4 0.162459 0.938038 0.360690
Si Si5 0.932535 0.607977 0.034212
Si Si6 0.838763 0.117677 0.144250
Si Si7 0.561143 0.548039 0.141132
Si Si8 0.229323 0.418938 0.496096
O O1 0.446235 0.091858 0.750000
O O2 0.399117 0.051727 0.594279
O O3 0.458161 0.291457 0.618887
O O4 0.511328 0.053700 0.604134
O O5 0.381214 0.484912 0.915489
O O6 0.292309 0.474765 0.031158
O O7 0.347561 0.250000 0.000000
O O8 0.975718 0.510591 0.750000
O O9 0.963740 0.569441 0.563663
O O10 0.906613 0.367287 0.640274
O O11 0.019574 0.353498 0.612971
O O12 0.151602 0.964168 0.250000
O O13 0.180076 0.776174 0.383464
O O14 0.108318 0.988492 0.422094
O O15 0.215576 0.030059 0.397462
O O16 0.898664 0.750000 0.000000
O O17 0.818712 0.078004 0.250000
O O18 0.814482 0.995321 0.075951
O O19 0.575000 0.523195 0.250000
O O20 0.223494 0.250000 0.500000
#
# Coordination Sequence:
#
# PCOD8234703 Si02
#       8
#     8   8   8   8   8   8   8   8
#     4   9  17  31  52  79 110 146 183 226 276 333
#     4   9  19  34  54  79 111 146 187 231 282 342
#     4  10  23  39  61  89 122 158 191 235 296 356
#     4  11  24  42  63  86 118 159 199 242 298 359
#     4  11  24  39  62  93 124 156 199 251 292 351
#     4  10  23  43  65  85 116 158 196 237 296 361
#     4   9  17  31  52  78 111 146 182 224 275 333
#     4  11  23  40  61  89 116 150 200 253 298 344
#
# _framework density 20.267416999999998
#
# number of rings (size 3 to 8) (size 9 to 14) (size 15 to 20)
#    0.000    2.000    1.250    1.500    3.500    2.500 
#    0.000    5.000    0.000    3.000    0.000    0.000 
#    0.000    0.000    0.000    0.000    0.000    0.000 
#
# Total GULP energy -792915.002938 kJ/mol
# GULP energy per Si atom -12389.296921 kJ/mol
# Density = 2.022129 g / cm^3
# Si number density = 20.267417 Si / 1000 Ang^3
#
#
#
# Elastic Constant Matrix: (Units=GPa)
#
#
# Indices 1 2 3 4 5 6 
#
# 1 102.2107 31.4759 28.4559 0.0000 0.0000 0.0000
# 2 31.4759 88.0041 44.0861 0.0000 0.0000 0.0000
# 3 28.4559 44.0861 108.3722 0.0000 0.0000 0.0000
# 4 0.0000 0.0000 0.0000 25.4582 0.0000 0.0000
# 5 0.0000 0.0000 0.0000 0.0000 10.9114 0.0000
# 6 0.0000 0.0000 0.0000 0.0000 0.0000 20.4113
#
#
#
# Elastic Compliance Matrix: (Units=1/GPa)
#
#
# Indices 1 2 3 4 5 6 
#
# 1 0.011225 -0.003188 -0.001651 0.000000 0.000000 0.000000
# 2 -0.003188 0.015177 -0.005337 0.000000 0.000000 0.000000
# 3 -0.001651 -0.005337 0.011832 0.000000 0.000000 0.000000
# 4 0.000000 0.000000 0.000000 0.039280 0.000000 0.000000
# 5 0.000000 0.000000 0.000000 0.000000 0.091647 0.000000
# 6 0.000000 0.000000 0.000000 0.000000 0.000000 0.048993
#
#
# Mechanical properties :
#
#
# Convention : Reuss Voigt Hill
#
# Bulk Modulus (GPa) = 55.91909 56.29143 56.10526
# Shear Modulus (GPa) = 20.45282 24.32746 22.39014
#
# Velocity S-wave (km/s) = 3.18015 3.46833 3.32736
# Velocity P-wave (km/s) = 6.41366 6.62372 6.51954
#
# Compressibility (1/GPa) = 0.01788298
#
# Stress axis : x y z
#
# Youngs Moduli (GPa) = 89.08726 65.88979 84.51714
#
# Poissons Ratio (x) = 0.21005 0.13950
# Poissons Ratio (y) = 0.28400 0.45106
# Poissons Ratio (z) = 0.14704 0.35165
#
# Static dielectric constant tensor:
#      x y z
#    x 3.905330 0.000000 0.000000 
#    y 0.000000 3.484210 0.000000 
#    z 0.000000 0.000000 3.976630 
# 
# 
# High freq. dielectric constant tensor:
#      x y z
#    x 1.784770 0.000000 0.000000 
#    y 0.000000 1.771180 0.000000 
#    z 0.000000 0.000000 1.805740 
# 
# From -- ./inp_files/19518.got.cif
#   From: 2010.03.12/outbox.cif.g09.slc.cpg/sg57_10_cif.got.tgz:19518.got - 2010.04.16 15:48:40.
