data_PCOD8234291
_publ_section_title
;
Structure prediction by ZEFSAII (Michael W. Deem and Ramdas Pophale) SiO2 
 PCOD8234291
Probable space group: P B C M
;
_chemical_formula_sum "Si O2"
_cell_formula_units_Z 40
_cell_length_a 18.498970
_cell_length_b 5.270496
_cell_length_c 15.993624
_cell_angle_alpha 90.000000
_cell_angle_beta 90.000000
_cell_angle_gamma 90.000000
_cell_volume 1559.358306
_symmetry_space_group_name_H-M "P B C M"
_symmetry_group_IT_number 57
_symmetry_cell_setting 'orthorhombic'
loop_
_space_group_symop_operation_xyz
x,y,z
-x,-y,1/2+z
x,1/2-y,-z
-x,1/2+y,1/2-z
-x,-y,-z
x,y,1/2-z
-x,1/2+y,z
x,1/2-y,1/2+z
loop_
_atom_site_type_symbol
_atom_site_label
_atom_site_fract_x
_atom_site_fract_y
_atom_site_fract_z
Si Si1 0.030082 0.049637 0.592437
Si Si2 0.681421 0.766516 0.250000
Si Si3 0.814689 0.417387 0.918549
Si Si4 0.346523 0.096855 0.920357
Si Si5 0.772669 0.225902 0.750000
Si Si6 0.544103 0.231164 0.347682
O O1 0.991019 0.285574 0.639143
O O2 0.116370 0.103224 0.588893
O O3 0.000000 0.000000 0.500000
O O4 0.633576 0.741380 0.335016
O O5 0.741258 0.553897 0.250000
O O6 0.714108 0.049065 0.250000
O O7 0.740038 0.572231 0.926151
O O8 0.818190 0.245651 0.835124
O O9 0.824615 0.250000 0.000000
O O10 0.385265 0.822047 0.907149
O O11 0.376263 0.250000 0.000000
O O12 0.566971 0.220251 0.250000
O O13 0.490252 0.999039 0.371228
#
# Coordination Sequence:
#
# PCOD8234291 Si02
#       6
#     8   4   8   8   4   8
#     4  10  21  39  66  92 129 182 219 275 332 400
#     4  10  22  44  60  94 144 168 219 280 335 396
#     4  11  23  42  69 102 139 181 231 280 348 408
#     4  11  24  40  70 105 136 181 228 283 340 409
#     4  10  24  40  62  96 132 178 217 286 329 396
#     4  10  23  45  70  96 135 184 223 273 345 407
#
# _framework density 25.651577
#
# number of rings (size 3 to 8) (size 9 to 14) (size 15 to 20)
#    0.000    1.600    3.000    1.200    2.800    8.800 
#    0.000    1.000    0.000    0.000    0.000    0.000 
#    0.000    0.000    0.000    0.000    0.000    0.000 
#
# Total GULP energy -495690.252811 kJ/mol
# GULP energy per Si atom -12392.256320 kJ/mol
# Density = 2.559319 g / cm^3
# Si number density = 25.651577 Si / 1000 Ang^3
#
#
#
# Elastic Constant Matrix: (Units=GPa)
#
#
# Indices 1 2 3 4 5 6 
#
# 1 113.9177 17.6821 -2.8351 0.0000 0.0000 0.0000
# 2 17.6821 92.5765 7.8014 0.0000 0.0000 0.0000
# 3 -2.8351 7.8014 139.1938 0.0000 0.0000 0.0000
# 4 0.0000 0.0000 0.0000 15.6829 0.0000 0.0000
# 5 0.0000 0.0000 0.0000 0.0000 0.2379 0.0000
# 6 0.0000 0.0000 0.0000 0.0000 0.0000 28.1307
#
#
#
# Elastic Compliance Matrix: (Units=1/GPa)
#
#
# Indices 1 2 3 4 5 6 
#
# 1 0.009058 -0.001754 0.000283 0.000000 0.000000 0.000000
# 2 -0.001754 0.011193 -0.000663 0.000000 0.000000 0.000000
# 3 0.000283 -0.000663 0.007227 0.000000 0.000000 0.000000
# 4 0.000000 0.000000 0.000000 0.063764 0.000000 0.000000
# 5 0.000000 0.000000 0.000000 0.000000 4.202719 0.000000
# 6 0.000000 0.000000 0.000000 0.000000 0.000000 0.035548
#
#
# Mechanical properties :
#
#
# Convention : Reuss Voigt Hill
#
# Bulk Modulus (GPa) = 43.08627 43.44276 43.26451
# Shear Modulus (GPa) = 1.15167 30.34629 15.74898
#
# Velocity S-wave (km/s) = 0.67078 3.44324 2.48050
# Velocity P-wave (km/s) = 4.17530 5.72541 5.01066
#
# Compressibility (1/GPa) = 0.02320925
#
# Stress axis : x y z
#
# Youngs Moduli (GPa) = 110.40539 89.34371 138.36718
#
# Poissons Ratio (x) = 0.15669 -0.03913
# Poissons Ratio (y) = 0.19363 0.09174
# Poissons Ratio (z) = -0.03122 0.05924
#
# Static dielectric constant tensor:
#      x y z
#    x 4.854110 0.000000 0.000000 
#    y 0.000000 3.422490 0.000000 
#    z 0.000000 0.000000 5.124780 
# 
# 
# High freq. dielectric constant tensor:
#      x y z
#    x 2.025850 0.000000 0.000000 
#    y 0.000000 2.022840 0.000000 
#    z 0.000000 0.000000 2.014730 
# 
# From -- ./inp_files/22785.got.cif
#   From: 2010.03.12/outbox.cif.g09.slc.cpg/sg57_12_cif.got.tgz:22785.got - 2010.04.16 15:48:40.
