data_PCOD8234527
_publ_section_title
;
Structure prediction by ZEFSAII (Michael W. Deem and Ramdas Pophale) SiO2 
 PCOD8234527
Probable space group: P B C M
;
_chemical_formula_sum "Si O2"
_cell_formula_units_Z 64
_cell_length_a 8.548779
_cell_length_b 16.622563
_cell_length_c 22.052399
_cell_angle_alpha 90.000000
_cell_angle_beta 90.000000
_cell_angle_gamma 90.000000
_cell_volume 3133.703620
_symmetry_space_group_name_H-M "P B C M"
_symmetry_group_IT_number 57
_symmetry_cell_setting 'orthorhombic'
loop_
_space_group_symop_operation_xyz
x,y,z
-x,-y,1/2+z
x,1/2-y,-z
-x,1/2+y,1/2-z
-x,-y,-z
x,y,1/2-z
-x,1/2+y,z
x,1/2-y,1/2+z
loop_
_atom_site_type_symbol
_atom_site_label
_atom_site_fract_x
_atom_site_fract_y
_atom_site_fract_z
Si Si1 0.343007 0.439099 0.880572
Si Si2 0.154296 0.189564 0.320489
Si Si3 0.792776 0.860264 0.372474
Si Si4 0.917849 0.051782 0.589298
Si Si5 0.260441 0.842816 0.995988
Si Si6 0.642115 0.004056 0.317722
Si Si7 0.380021 0.155326 0.995003
Si Si8 0.888308 0.404455 0.616235
O O1 0.286776 0.378163 0.828245
O O2 0.237582 0.519953 0.876714
O O3 0.517745 0.466113 0.866944
O O4 0.329589 0.394735 0.945705
O O5 0.117283 0.203684 0.250000
O O6 0.220772 0.269324 0.351433
O O7 0.999545 0.163740 0.356533
O O8 0.683115 0.910561 0.327126
O O9 0.726101 0.876325 0.440078
O O10 0.973812 0.889626 0.369713
O O11 0.864393 0.102758 0.531390
O O12 0.017735 0.970623 0.575787
O O13 0.243677 0.864115 0.925408
O O14 0.213579 0.750000 0.000000
O O15 0.436504 0.859534 0.018765
O O16 0.578674 0.017096 0.250000
O O17 0.801614 0.053777 0.327470
O O18 0.346943 0.250000 0.000000
#
# Coordination Sequence:
#
# PCOD8234527 Si02
#       8
#     8   8   8   8   8   8   8   8
#     4  11  23  42  65  92 126 163 215 263 316 378
#     4  11  23  42  65  90 123 168 214 259 310 375
#     4  11  24  40  64  93 128 163 206 261 322 382
#     4  10  24  37  60  93 124 162 204 257 322 375
#     4  11  22  37  57  89 129 159 199 255 320 382
#     4  11  23  42  64  90 124 167 213 259 310 373
#     4  11  23  39  63  94 127 160 206 262 322 381
#     4  10  22  39  61  90 121 162 214 255 311 374
#
# _framework density 20.423119
#
# number of rings (size 3 to 8) (size 9 to 14) (size 15 to 20)
#    0.000    1.250    2.500    3.000    7.000    1.500 
#    0.000    1.875    0.000    0.000    0.000    0.000 
#    0.000    0.000    0.000    0.000    0.000    0.000 
#
# Total GULP energy -793500.757685 kJ/mol
# GULP energy per Si atom -12398.449339 kJ/mol
# Density = 2.037664 g / cm^3
# Si number density = 20.423119 Si / 1000 Ang^3
#
#
#
# Elastic Constant Matrix: (Units=GPa)
#
#
# Indices 1 2 3 4 5 6 
#
# 1 98.9794 45.4207 34.7527 0.0000 0.0000 0.0000
# 2 45.4207 96.2573 47.3000 0.0000 0.0000 0.0000
# 3 34.7527 47.3000 102.4229 0.0000 0.0000 0.0000
# 4 0.0000 0.0000 0.0000 23.8180 0.0000 0.0000
# 5 0.0000 0.0000 0.0000 0.0000 22.6710 0.0000
# 6 0.0000 0.0000 0.0000 0.0000 0.0000 22.7148
#
#
#
# Elastic Compliance Matrix: (Units=1/GPa)
#
#
# Indices 1 2 3 4 5 6 
#
# 1 0.013228 -0.005221 -0.002077 0.000000 0.000000 0.000000
# 2 -0.005221 0.015499 -0.005386 0.000000 0.000000 0.000000
# 3 -0.002077 -0.005386 0.012956 0.000000 0.000000 0.000000
# 4 0.000000 0.000000 0.000000 0.041985 0.000000 0.000000
# 5 0.000000 0.000000 0.000000 0.000000 0.044109 0.000000
# 6 0.000000 0.000000 0.000000 0.000000 0.000000 0.044024
#
#
# Mechanical properties :
#
#
# Convention : Reuss Voigt Hill
#
# Bulk Modulus (GPa) = 61.29696 61.40070 61.34883
# Shear Modulus (GPa) = 24.67806 25.18652 24.93229
#
# Velocity S-wave (km/s) = 3.47989 3.51556 3.49777
# Velocity P-wave (km/s) = 6.79889 6.82704 6.81297
#
# Compressibility (1/GPa) = 0.01631402
#
# Stress axis : x y z
#
# Youngs Moduli (GPa) = 75.59449 64.51907 77.18661
#
# Poissons Ratio (x) = 0.33688 0.16033
# Poissons Ratio (y) = 0.39471 0.41573
# Poissons Ratio (z) = 0.15703 0.34751
#
# Static dielectric constant tensor:
#      x y z
#    x 3.710770 0.000000 0.000000 
#    y 0.000000 3.776190 0.000000 
#    z 0.000000 0.000000 3.392110 
# 
# 
# High freq. dielectric constant tensor:
#      x y z
#    x 1.805740 0.000000 0.000000 
#    y 0.000000 1.809280 0.000000 
#    z 0.000000 0.000000 1.779150 
# 
# From -- ./inp_files/24582.got.cif
#   From: 2010.03.12/outbox.cif.g09.slc.cpg/sg57_13_cif.got.tgz:24582.got - 2010.04.16 15:48:40.
