data_PCOD8234284
_publ_section_title
;
Structure prediction by ZEFSAII (Michael W. Deem and Ramdas Pophale) SiO2 
 PCOD8234284
Probable space group: P B C M
;
_chemical_formula_sum "Si O2"
_cell_formula_units_Z 40
_cell_length_a 8.929167
_cell_length_b 10.666872
_cell_length_c 19.111692
_cell_angle_alpha 90.000000
_cell_angle_beta 90.000000
_cell_angle_gamma 90.000000
_cell_volume 1820.317595
_symmetry_space_group_name_H-M "P B C M"
_symmetry_group_IT_number 57
_symmetry_cell_setting 'orthorhombic'
loop_
_space_group_symop_operation_xyz
x,y,z
-x,-y,1/2+z
x,1/2-y,-z
-x,1/2+y,1/2-z
-x,-y,-z
x,y,1/2-z
-x,1/2+y,z
x,1/2-y,1/2+z
loop_
_atom_site_type_symbol
_atom_site_label
_atom_site_fract_x
_atom_site_fract_y
_atom_site_fract_z
Si Si1 0.637722 0.854495 0.827762
Si Si2 0.784900 0.384034 0.172212
Si Si3 0.062666 0.268040 0.670550
Si Si4 0.620773 0.301844 0.571351
Si Si5 0.934442 0.380726 0.540405
O O1 0.565699 0.846362 0.750000
O O2 0.757578 0.740396 0.840673
O O3 0.508576 0.869206 0.884618
O O4 0.751104 0.970572 0.834928
O O5 0.741283 0.336333 0.250000
O O6 0.684188 0.312220 0.116548
O O7 0.961905 0.356773 0.157993
O O8 0.039730 0.318723 0.750000
O O9 0.008546 0.375091 0.616742
O O10 0.547003 0.250000 0.500000
O O11 0.754631 0.397134 0.550489
O O12 0.968109 0.250000 0.500000
O O13 0.000000 0.500000 0.500000
#
# Coordination Sequence:
#
# PCOD8234284 Si02
#       5
#     8   8   8   8   8
#     4  10  21  39  65  94 126 166 218 274 333 396
#     4   9  19  39  62  86 125 166 210 270 323 387
#     4   9  20  38  64  91 121 169 220 269 325 394
#     4  10  22  39  62  92 130 169 209 269 336 405
#     4  10  23  43  67  97 134 175 225 279 339 407
#
# _framework density 21.974188000000002
#
# number of rings (size 3 to 8) (size 9 to 14) (size 15 to 20)
#    0.000    2.400    0.000    0.600    8.400    2.400 
#    3.600    0.000    0.000    0.000    0.000    0.000 
#    0.000    0.000    0.000    0.000    0.000    0.000 
#
# Total GULP energy -495557.371871 kJ/mol
# GULP energy per Si atom -12388.934297 kJ/mol
# Density = 2.192417 g / cm^3
# Si number density = 21.974188 Si / 1000 Ang^3
#
#
#
# Elastic Constant Matrix: (Units=GPa)
#
#
# Indices 1 2 3 4 5 6 
#
# 1 146.3853 56.5624 82.4999 0.0000 0.0000 0.0000
# 2 56.5624 71.9123 40.9611 0.0000 0.0000 0.0000
# 3 82.4999 40.9611 152.0256 0.0000 0.0000 0.0000
# 4 0.0000 0.0000 0.0000 30.0369 0.0000 0.0000
# 5 0.0000 0.0000 0.0000 0.0000 47.2749 0.0000
# 6 0.0000 0.0000 0.0000 0.0000 0.0000 27.3849
#
#
#
# Elastic Compliance Matrix: (Units=1/GPa)
#
#
# Indices 1 2 3 4 5 6 
#
# 1 0.012158 -0.006857 -0.004750 0.000000 0.000000 0.000000
# 2 -0.006857 0.020294 -0.001747 0.000000 0.000000 0.000000
# 3 -0.004750 -0.001747 0.009626 0.000000 0.000000 0.000000
# 4 0.000000 0.000000 0.000000 0.033292 0.000000 0.000000
# 5 0.000000 0.000000 0.000000 0.000000 0.021153 0.000000
# 6 0.000000 0.000000 0.000000 0.000000 0.000000 0.036516
#
#
# Mechanical properties :
#
#
# Convention : Reuss Voigt Hill
#
# Bulk Modulus (GPa) = 65.06103 81.15225 73.10664
# Shear Modulus (GPa) = 30.32656 33.62600 31.97628
#
# Velocity S-wave (km/s) = 3.71900 3.91608 3.81881
# Velocity P-wave (km/s) = 6.93639 7.58014 7.26540
#
# Compressibility (1/GPa) = 0.01537018
#
# Stress axis : x y z
#
# Youngs Moduli (GPa) = 82.25067 49.27507 103.88192
#
# Poissons Ratio (x) = 0.33788 0.49346
# Poissons Ratio (y) = 0.56400 0.18147
# Poissons Ratio (z) = 0.39071 0.08608
#
# Static dielectric constant tensor:
#      x y z
#    x 4.208970 0.000000 0.000000 
#    y 0.000000 3.525390 0.000000 
#    z 0.000000 0.000000 4.467300 
# 
# 
# High freq. dielectric constant tensor:
#      x y z
#    x 1.861400 0.000000 0.000000 
#    y 0.000000 1.822780 0.000000 
#    z 0.000000 0.000000 1.894460 
# 
# From -- ./inp_files/20535.got.cif
#   From: 2010.03.12/outbox.cif.g09.slc.cpg/sg57_11_cif.got.tgz:20535.got - 2010.04.16 15:48:40.
