data_PCOD8234314
_publ_section_title
;
Structure prediction by ZEFSAII (Michael W. Deem and Ramdas Pophale) SiO2 
 PCOD8234314
Probable space group: P B C M
;
_chemical_formula_sum "Si O2"
_cell_formula_units_Z 48
_cell_length_a 15.097565
_cell_length_b 9.170044
_cell_length_c 15.973778
_cell_angle_alpha 90.000000
_cell_angle_beta 90.000000
_cell_angle_gamma 90.000000
_cell_volume 2211.495052
_symmetry_space_group_name_H-M "P B C M"
_symmetry_group_IT_number 57
_symmetry_cell_setting 'orthorhombic'
loop_
_space_group_symop_operation_xyz
x,y,z
-x,-y,1/2+z
x,1/2-y,-z
-x,1/2+y,1/2-z
-x,-y,-z
x,y,1/2-z
-x,1/2+y,z
x,1/2-y,1/2+z
loop_
_atom_site_type_symbol
_atom_site_label
_atom_site_fract_x
_atom_site_fract_y
_atom_site_fract_z
Si Si1 0.910942 0.839536 0.655682
Si Si2 0.424218 0.583169 0.900118
Si Si3 0.592566 0.411962 0.902435
Si Si4 0.217433 0.876006 0.848591
Si Si5 0.050401 0.030344 0.913358
Si Si6 0.762111 0.454306 0.346161
O O1 0.891417 0.784631 0.750000
O O2 0.825539 0.921270 0.613744
O O3 0.990331 0.957219 0.658590
O O4 0.939152 0.703166 0.598985
O O5 0.514645 0.512751 0.865927
O O6 0.428999 0.749724 0.871869
O O7 0.340357 0.502423 0.858067
O O8 0.408853 0.569551 0.998488
O O9 0.688297 0.455358 0.865669
O O10 0.194672 0.887470 0.750000
O O11 0.220752 0.708691 0.881997
O O12 0.147000 0.957693 0.907002
O O13 0.000000 0.000000 0.000000
O O14 0.789015 0.450212 0.250000
#
# Coordination Sequence:
#
# PCOD8234314 Si02
#       6
#     8   8   8   8   8   8
#     4  11  23  42  64  88 122 164 203 254 317 377
#     4   9  18  35  55  86 123 160 204 256 306 367
#     4   9  19  34  57  83 118 163 203 250 315 367
#     4  10  21  40  62  87 122 165 210 260 318 383
#     4  12  26  42  62  92 123 158 208 263 315 376
#     4   9  20  37  62  89 121 163 207 256 310 369
#
# _framework density 21.704775000000001
#
# number of rings (size 3 to 8) (size 9 to 14) (size 15 to 20)
#    0.000    2.000    0.000    3.000    2.333    3.333 
#    3.000    0.000    0.000    0.000    0.000    0.000 
#    0.000    0.000    0.000    0.000    0.000    0.000 
#
# Total GULP energy -595089.646471 kJ/mol
# GULP energy per Si atom -12397.700968 kJ/mol
# Density = 2.165537 g / cm^3
# Si number density = 21.704775 Si / 1000 Ang^3
#
#
#
# Elastic Constant Matrix: (Units=GPa)
#
#
# Indices 1 2 3 4 5 6 
#
# 1 195.7435 89.3198 41.2139 0.0000 0.0000 0.0000
# 2 89.3198 117.0848 29.6426 0.0000 0.0000 0.0000
# 3 41.2139 29.6426 53.5345 0.0000 0.0000 0.0000
# 4 0.0000 0.0000 0.0000 20.7008 0.0000 0.0000
# 5 0.0000 0.0000 0.0000 0.0000 34.4934 0.0000
# 6 0.0000 0.0000 0.0000 0.0000 0.0000 48.9977
#
#
#
# Elastic Compliance Matrix: (Units=1/GPa)
#
#
# Indices 1 2 3 4 5 6 
#
# 1 0.008327 -0.005501 -0.003365 0.000000 0.000000 0.000000
# 2 -0.005501 0.013567 -0.003277 0.000000 0.000000 0.000000
# 3 -0.003365 -0.003277 0.023085 0.000000 0.000000 0.000000
# 4 0.000000 0.000000 0.000000 0.048307 0.000000 0.000000
# 5 0.000000 0.000000 0.000000 0.000000 0.028991 0.000000
# 6 0.000000 0.000000 0.000000 0.000000 0.000000 0.020409
#
#
# Mechanical properties :
#
#
# Convention : Reuss Voigt Hill
#
# Bulk Modulus (GPa) = 48.32596 76.30172 62.31384
# Shear Modulus (GPa) = 28.75711 34.58415 31.67063
#
# Velocity S-wave (km/s) = 3.64390 3.99606 3.82403
# Velocity P-wave (km/s) = 6.32593 7.51811 6.94764
#
# Compressibility (1/GPa) = 0.02069281
#
# Stress axis : x y z
#
# Youngs Moduli (GPa) = 120.08812 73.70948 43.31849
#
# Poissons Ratio (x) = 0.40545 0.14577
# Poissons Ratio (y) = 0.66056 0.14197
# Poissons Ratio (z) = 0.40410 0.24157
#
# Static dielectric constant tensor:
#      x y z
#    x 4.205190 0.000000 0.000000 
#    y 0.000000 3.955800 0.000000 
#    z 0.000000 0.000000 3.619010 
# 
# 
# High freq. dielectric constant tensor:
#      x y z
#    x 1.868000 0.000000 0.000000 
#    y 0.000000 1.842140 0.000000 
#    z 0.000000 0.000000 1.837320 
# 
# From -- ./inp_files/18423.got.cif
#   From: 2010.03.12/outbox.cif.g09.slc.cpg/sg57_10_cif.got.tgz:18423.got - 2010.04.16 15:48:40.
