data_PCOD8234219
_publ_section_title
;
Structure prediction by ZEFSAII (Michael W. Deem and Ramdas Pophale) SiO2 
 PCOD8234219
Probable space group: P B C M
;
_chemical_formula_sum "Si O2"
_cell_formula_units_Z 48
_cell_length_a 11.327783
_cell_length_b 14.397408
_cell_length_c 14.568215
_cell_angle_alpha 90.000000
_cell_angle_beta 90.000000
_cell_angle_gamma 90.000000
_cell_volume 2375.940580
_symmetry_space_group_name_H-M "P B C M"
_symmetry_group_IT_number 57
_symmetry_cell_setting 'orthorhombic'
loop_
_space_group_symop_operation_xyz
x,y,z
-x,-y,1/2+z
x,1/2-y,-z
-x,1/2+y,1/2-z
-x,-y,-z
x,y,1/2-z
-x,1/2+y,z
x,1/2-y,1/2+z
loop_
_atom_site_type_symbol
_atom_site_label
_atom_site_fract_x
_atom_site_fract_y
_atom_site_fract_z
Si Si1 0.207202 0.645901 0.995951
Si Si2 0.011168 0.557016 0.093331
Si Si3 0.013083 0.867970 0.349165
Si Si4 0.465724 0.894148 0.497182
Si Si5 0.433523 0.255453 0.861345
Si Si6 0.162667 0.284077 0.858281
O O1 0.133391 0.629855 0.904397
O O2 0.326094 0.588806 0.989266
O O3 0.251228 0.750000 0.000000
O O4 0.127879 0.621312 0.086008
O O5 0.029723 0.474966 0.167126
O O6 0.894349 0.618717 0.109393
O O7 0.000000 0.500000 0.000000
O O8 0.040473 0.824361 0.250000
O O9 0.913843 0.803012 0.398360
O O10 0.520574 0.840073 0.408662
O O11 0.496014 0.841308 0.592800
O O12 0.500000 0.000000 0.500000
O O13 0.451691 0.252429 0.750000
O O14 0.297134 0.271829 0.890487
O O15 0.159390 0.280657 0.750000
#
# Coordination Sequence:
#
# PCOD8234219 Si02
#       6
#     8   8   8   8   8   8
#     4  11  21  41  58  90 122 161 206 251 314 370
#     4  10  22  34  60  87 120 153 195 247 307 368
#     4  10  22  38  61  92 123 158 199 251 312 375
#     4  11  26  43  66  94 127 169 223 264 319 383
#     4  10  24  45  66  91 128 173 220 267 316 382
#     4  10  21  39  61  90 123 161 206 252 309 374
#
# _framework density 20.202525000000001
#
# number of rings (size 3 to 8) (size 9 to 14) (size 15 to 20)
#    0.000    1.667    3.333    0.500    7.000    5.333 
#    0.000    1.667    0.000    0.000    0.000    0.000 
#    0.000    0.000    0.000    0.000    0.000    0.000 
#
# Total GULP energy -594657.929055 kJ/mol
# GULP energy per Si atom -12388.706855 kJ/mol
# Density = 2.015654 g / cm^3
# Si number density = 20.202525 Si / 1000 Ang^3
#
#
#
# Elastic Constant Matrix: (Units=GPa)
#
#
# Indices 1 2 3 4 5 6 
#
# 1 139.5551 28.8174 22.5091 0.0000 0.0000 0.0000
# 2 28.8174 123.7878 22.0233 0.0000 0.0000 0.0000
# 3 22.5091 22.0233 73.1130 0.0000 0.0000 0.0000
# 4 0.0000 0.0000 0.0000 23.3333 0.0000 0.0000
# 5 0.0000 0.0000 0.0000 0.0000 29.3597 0.0000
# 6 0.0000 0.0000 0.0000 0.0000 0.0000 34.4393
#
#
#
# Elastic Compliance Matrix: (Units=1/GPa)
#
#
# Indices 1 2 3 4 5 6 
#
# 1 0.007783 -0.001464 -0.001955 0.000000 0.000000 0.000000
# 2 -0.001464 0.008811 -0.002203 0.000000 0.000000 0.000000
# 3 -0.001955 -0.002203 0.014943 0.000000 0.000000 0.000000
# 4 0.000000 0.000000 0.000000 0.042857 0.000000 0.000000
# 5 0.000000 0.000000 0.000000 0.000000 0.034060 0.000000
# 6 0.000000 0.000000 0.000000 0.000000 0.000000 0.029037
#
#
# Mechanical properties :
#
#
# Convention : Reuss Voigt Hill
#
# Bulk Modulus (GPa) = 49.27989 53.68395 51.48192
# Shear Modulus (GPa) = 32.15409 34.96686 33.56047
#
# Velocity S-wave (km/s) = 3.99380 4.16482 4.08021
# Velocity P-wave (km/s) = 6.76115 7.05395 6.90910
#
# Compressibility (1/GPa) = 0.02029225
#
# Stress axis : x y z
#
# Youngs Moduli (GPa) = 128.47999 113.49220 66.92049
#
# Poissons Ratio (x) = 0.16616 0.13084
# Poissons Ratio (y) = 0.18810 0.14745
# Poissons Ratio (z) = 0.25121 0.25007
#
# Static dielectric constant tensor:
#      x y z
#    x 3.985570 0.000000 0.000000 
#    y 0.000000 7.524090 0.000000 
#    z 0.000000 0.000000 4.275590 
# 
# 
# High freq. dielectric constant tensor:
#      x y z
#    x 1.790180 0.000000 0.000000 
#    y 0.000000 1.803060 0.000000 
#    z 0.000000 0.000000 1.785150 
# 
# From -- ./inp_files/17618.got.cif
#   From: 2010.03.12/outbox.cif.g09.slc.cpg/sg57_9_cif.got.tgz:17618.got - 2010.04.16 15:48:40.
