data_PCOD8234797
_publ_section_title
;
Structure prediction by ZEFSAII (Michael W. Deem and Ramdas Pophale) SiO2 
 PCOD8234797
Probable space group: P B C M
;
_chemical_formula_sum "Si O2"
_cell_formula_units_Z 64
_cell_length_a 14.871396
_cell_length_b 11.658180
_cell_length_c 17.647162
_cell_angle_alpha 90.000000
_cell_angle_beta 90.000000
_cell_angle_gamma 90.000000
_cell_volume 3059.548678
_symmetry_space_group_name_H-M "P B C M"
_symmetry_group_IT_number 57
_symmetry_cell_setting 'orthorhombic'
loop_
_space_group_symop_operation_xyz
x,y,z
-x,-y,1/2+z
x,1/2-y,-z
-x,1/2+y,1/2-z
-x,-y,-z
x,y,1/2-z
-x,1/2+y,z
x,1/2-y,1/2+z
loop_
_atom_site_type_symbol
_atom_site_label
_atom_site_fract_x
_atom_site_fract_y
_atom_site_fract_z
Si Si1 0.731197 0.073713 0.092433
Si Si2 0.337860 0.916748 0.075008
Si Si3 0.916447 0.289870 0.584373
Si Si4 0.413800 0.722930 0.164184
Si Si5 0.092215 0.346307 0.662620
Si Si6 0.753682 0.829352 0.162415
Si Si7 0.610907 0.862344 0.663730
Si Si8 0.165871 0.594359 0.663675
O O1 0.829181 0.130278 0.089898
O O2 0.668944 0.134515 0.154795
O O3 0.746461 0.940786 0.110556
O O4 0.675153 0.085788 0.014669
O O5 0.413769 0.827686 0.103716
O O6 0.248157 0.865560 0.112126
O O7 0.357632 0.043607 0.103910
O O8 0.932379 0.250000 0.500000
O O9 0.914430 0.178282 0.638985
O O10 0.004369 0.357894 0.611009
O O11 0.410505 0.771890 0.250000
O O12 0.505890 0.655549 0.150761
O O13 0.063035 0.337429 0.750000
O O14 0.156819 0.241197 0.639207
O O15 0.146682 0.462233 0.647824
O O16 0.759663 0.866350 0.250000
O O17 0.665085 0.753936 0.147432
O O18 0.631642 0.903724 0.750000
O O19 0.191126 0.616379 0.750000
#
# Coordination Sequence:
#
# PCOD8234797 Si02
#       8
#     8   8   8   8   8   8   8   8
#     4  12  26  43  63  96 139 171 214 270 333 394
#     4  12  23  44  67  94 133 173 216 268 326 385
#     4  12  25  43  64  94 135 170 211 268 324 390
#     4  11  24  42  69  98 126 171 219 270 324 382
#     4  10  24  43  67  97 127 167 222 268 320 387
#     4  10  23  45  66  93 131 172 218 273 324 388
#     4  10  23  44  70  97 127 171 226 269 318 386
#     4  11  22  42  69  92 121 172 222 265 314 380
#
# _framework density 20.918118
#
# number of rings (size 3 to 8) (size 9 to 14) (size 15 to 20)
#    0.000    1.000    3.750    2.250    3.500    4.000 
#    2.250    0.000    0.000    0.000    0.000    0.000 
#    0.000    0.000    0.000    0.000    0.000    0.000 
#
# Total GULP energy -793818.747021 kJ/mol
# GULP energy per Si atom -12403.417922 kJ/mol
# Density = 2.087051 g / cm^3
# Si number density = 20.918118 Si / 1000 Ang^3
#
#
#
# Elastic Constant Matrix: (Units=GPa)
#
#
# Indices 1 2 3 4 5 6 
#
# 1 93.4470 10.4837 33.7694 0.0000 0.0000 0.0000
# 2 10.4837 93.2959 33.3652 0.0000 0.0000 0.0000
# 3 33.7694 33.3652 69.4113 0.0000 0.0000 0.0000
# 4 0.0000 0.0000 0.0000 25.4342 0.0000 0.0000
# 5 0.0000 0.0000 0.0000 0.0000 36.2479 0.0000
# 6 0.0000 0.0000 0.0000 0.0000 0.0000 36.5631
#
#
#
# Elastic Compliance Matrix: (Units=1/GPa)
#
#
# Indices 1 2 3 4 5 6 
#
# 1 0.013057 0.000972 -0.006819 0.000000 0.000000 0.000000
# 2 0.000972 0.013016 -0.006729 0.000000 0.000000 0.000000
# 3 -0.006819 -0.006729 0.020959 0.000000 0.000000 0.000000
# 4 0.000000 0.000000 0.000000 0.039317 0.000000 0.000000
# 5 0.000000 0.000000 0.000000 0.000000 0.027588 0.000000
# 6 0.000000 0.000000 0.000000 0.000000 0.000000 0.027350
#
#
# Mechanical properties :
#
#
# Convention : Reuss Voigt Hill
#
# Bulk Modulus (GPa) = 45.70829 45.71008 45.70919
# Shear Modulus (GPa) = 28.77980 31.55145 30.16563
#
# Velocity S-wave (km/s) = 3.71324 3.88794 3.80159
# Velocity P-wave (km/s) = 6.34687 6.48491 6.41626
#
# Compressibility (1/GPa) = 0.02187787
#
# Stress axis : x y z
#
# Youngs Moduli (GPa) = 76.59007 76.82860 47.71186
#
# Poissons Ratio (x) = -0.07464 0.32535
# Poissons Ratio (y) = -0.07441 0.32107
# Poissons Ratio (z) = 0.52228 0.51700
#
# Static dielectric constant tensor:
#      x y z
#    x 3.822530 0.000000 0.000000 
#    y 0.000000 3.712910 0.000000 
#    z 0.000000 0.000000 3.753450 
# 
# 
# High freq. dielectric constant tensor:
#      x y z
#    x 1.823930 0.000000 0.000000 
#    y 0.000000 1.827330 0.000000 
#    z 0.000000 0.000000 1.817860 
# 
# From -- ./inp_files/22638.got.cif
#   From: 2010.03.12/outbox.cif.g09.slc.cpg/sg57_12_cif.got.tgz:22638.got - 2010.04.16 15:48:40.
