data_PCOD8234459
_publ_section_title
;
Structure prediction by ZEFSAII (Michael W. Deem and Ramdas Pophale) SiO2 
 PCOD8234459
Probable space group: P B C M
;
_chemical_formula_sum "Si O2"
_cell_formula_units_Z 56
_cell_length_a 12.834917
_cell_length_b 14.349461
_cell_length_c 14.472982
_cell_angle_alpha 90.000000
_cell_angle_beta 90.000000
_cell_angle_gamma 90.000000
_cell_volume 2665.549027
_symmetry_space_group_name_H-M "P B C M"
_symmetry_group_IT_number 57
_symmetry_cell_setting 'orthorhombic'
loop_
_space_group_symop_operation_xyz
x,y,z
-x,-y,1/2+z
x,1/2-y,-z
-x,1/2+y,1/2-z
-x,-y,-z
x,y,1/2-z
-x,1/2+y,z
x,1/2-y,1/2+z
loop_
_atom_site_type_symbol
_atom_site_label
_atom_site_fract_x
_atom_site_fract_y
_atom_site_fract_z
Si Si1 0.739619 0.183586 0.582958
Si Si2 0.460195 0.394782 0.509693
Si Si3 0.067519 0.385523 0.854715
Si Si4 0.245014 0.475576 0.975782
Si Si5 0.532018 0.258322 0.145901
Si Si6 0.110062 0.026499 0.854061
Si Si7 0.976499 0.302633 0.359154
O O1 0.708302 0.250000 0.500000
O O2 0.717814 0.076259 0.558590
O O3 0.654493 0.214955 0.658704
O O4 0.857937 0.201310 0.609610
O O5 0.500000 0.500000 0.500000
O O6 0.337076 0.400519 0.531735
O O7 0.475297 0.338630 0.414097
O O8 0.515678 0.341433 0.594931
O O9 0.111030 0.381795 0.750000
O O10 0.953833 0.431478 0.855720
O O11 0.044824 0.283597 0.897165
O O12 0.149246 0.441770 0.914401
O O13 0.211147 0.483768 0.082647
O O14 0.485017 0.253396 0.250000
O O15 0.147047 0.051002 0.750000
O O16 0.032683 0.104984 0.895776
O O17 0.975624 0.300564 0.250000
#
# Coordination Sequence:
#
# PCOD8234459 Si02
#       7
#     8   8   8   8   8   8   8
#     4  12  22  40  69  97 128 169 227 275 328 400
#     4  11  24  48  67 101 138 170 230 290 338 409
#     4  10  22  39  60  97 137 169 215 264 320 397
#     4  12  24  40  70  93 130 178 219 270 339 397
#     4  11  25  46  72  99 134 176 226 287 350 402
#     4  10  22  40  59  93 135 170 217 268 317 392
#     4  10  22  37  59  92 134 174 214 261 315 390
#
# _framework density 21.008804999999999
#
# number of rings (size 3 to 8) (size 9 to 14) (size 15 to 20)
#    0.000    1.143    4.286    1.714    2.000    4.571 
#    0.000    5.000    0.000    0.000    0.000    0.000 
#    0.000    0.000    0.000    0.000    0.000    0.000 
#
# Total GULP energy -694336.731728 kJ/mol
# GULP energy per Si atom -12398.870209 kJ/mol
# Density = 2.096099 g / cm^3
# Si number density = 21.008805 Si / 1000 Ang^3
#
#
#
# Elastic Constant Matrix: (Units=GPa)
#
#
# Indices 1 2 3 4 5 6 
#
# 1 83.6030 23.4813 38.7213 0.0000 0.0000 0.0000
# 2 23.4813 110.7903 56.0671 0.0000 0.0000 0.0000
# 3 38.7213 56.0671 101.1805 0.0000 0.0000 0.0000
# 4 0.0000 0.0000 0.0000 20.4865 0.0000 0.0000
# 5 0.0000 0.0000 0.0000 0.0000 9.7282 0.0000
# 6 0.0000 0.0000 0.0000 0.0000 0.0000 -14.4831
#
#
#
# Elastic Compliance Matrix: (Units=1/GPa)
#
#
# Indices 1 2 3 4 5 6 
#
# 1 0.014549 -0.000369 -0.005363 0.000000 0.000000 0.000000
# 2 -0.000369 0.012553 -0.006815 0.000000 0.000000 0.000000
# 3 -0.005363 -0.006815 0.015712 0.000000 0.000000 0.000000
# 4 0.000000 0.000000 0.000000 0.048813 0.000000 0.000000
# 5 0.000000 0.000000 0.000000 0.000000 0.102793 0.000000
# 6 0.000000 0.000000 0.000000 0.000000 0.000000 -0.069046
#
#
# Mechanical properties :
#
#
# Convention : Reuss Voigt Hill
#
# Bulk Modulus (GPa) = 56.43470 59.12369 57.77919
# Shear Modulus (GPa) = 31.97440 14.96659 23.47050
#
# Velocity S-wave (km/s) = 3.90545 2.67197 3.34604
# Velocity P-wave (km/s) = 6.87441 6.14188 6.51844
#
# Compressibility (1/GPa) = 0.01771960
#
# Stress axis : x y z
#
# Youngs Moduli (GPa) = 68.73318 79.66218 63.64594
#
# Poissons Ratio (x) = 0.02944 0.34134
# Poissons Ratio (y) = 0.02540 0.43372
# Poissons Ratio (z) = 0.36862 0.54287
#
# Static dielectric constant tensor:
#      x y z
#    x 3.934830 0.000000 0.000000 
#    y 0.000000 4.099010 0.000000 
#    z 0.000000 0.000000 3.820210 
# 
# 
# High freq. dielectric constant tensor:
#      x y z
#    x 1.816980 0.000000 0.000000 
#    y 0.000000 1.837160 0.000000 
#    z 0.000000 0.000000 1.821790 
# 
# From -- ./inp_files/17753.got.cif
#   From: 2010.03.12/outbox.cif.g09.slc.cpg/sg57_9_cif.got.tgz:17753.got - 2010.04.16 15:48:40.
