data_PCOD8234400
_publ_section_title
;
Structure prediction by ZEFSAII (Michael W. Deem and Ramdas Pophale) SiO2 
 PCOD8234400
Probable space group: P B C M
;
_chemical_formula_sum "Si O2"
_cell_formula_units_Z 48
_cell_length_a 14.393758
_cell_length_b 9.184074
_cell_length_c 16.925943
_cell_angle_alpha 90.000000
_cell_angle_beta 90.000000
_cell_angle_gamma 90.000000
_cell_volume 2237.496914
_symmetry_space_group_name_H-M "P B C M"
_symmetry_group_IT_number 57
_symmetry_cell_setting 'orthorhombic'
loop_
_space_group_symop_operation_xyz
x,y,z
-x,-y,1/2+z
x,1/2-y,-z
-x,1/2+y,1/2-z
-x,-y,-z
x,y,1/2-z
-x,1/2+y,z
x,1/2-y,1/2+z
loop_
_atom_site_type_symbol
_atom_site_label
_atom_site_fract_x
_atom_site_fract_y
_atom_site_fract_z
Si Si1 0.515642 0.632712 0.441533
Si Si2 0.644272 0.264432 0.658432
Si Si3 0.709601 0.545614 0.097307
Si Si4 0.031765 0.043339 0.912354
Si Si5 0.205846 0.609179 0.047500
Si Si6 0.896742 0.664521 0.339822
O O1 0.475952 0.750000 0.500000
O O2 0.500000 0.500000 0.500000
O O3 0.455361 0.662649 0.362469
O O4 0.623179 0.653159 0.417430
O O5 0.661712 0.289954 0.750000
O O6 0.714235 0.358349 0.608109
O O7 0.662013 0.094009 0.639715
O O8 0.787182 0.632053 0.147457
O O9 0.758262 0.508893 0.014713
O O10 0.057017 0.213281 0.897291
O O11 0.125452 0.953874 0.897325
O O12 0.951249 0.987991 0.853401
O O13 0.000000 0.000000 0.000000
O O14 0.169082 0.750000 0.000000
O O15 0.909511 0.716889 0.250000
#
# Coordination Sequence:
#
# PCOD8234400 Si02
#       6
#     8   8   8   8   8   8
#     4  12  23  44  72 101 135 183 240 288 347 424
#     4  11  24  42  67 103 143 184 230 294 361 415
#     4  11  24  44  72  99 140 185 238 290 356 424
#     4  12  25  45  73 103 136 185 239 284 348 431
#     4  10  21  41  68 101 130 181 237 287 341 418
#     4  12  28  46  69 106 147 184 231 301 363 415
#
# _framework density 21.452545000000001
#
# number of rings (size 3 to 8) (size 9 to 14) (size 15 to 20)
#    0.000    0.667    5.000    3.000    4.667    2.667 
#    0.000    0.000    0.000    0.000    0.000    0.000 
#    0.000    0.000    0.000    0.000    0.000    0.000 
#
# Total GULP energy -594781.387680 kJ/mol
# GULP energy per Si atom -12391.278910 kJ/mol
# Density = 2.140372 g / cm^3
# Si number density = 21.452545 Si / 1000 Ang^3
#
#
#
# Elastic Constant Matrix: (Units=GPa)
#
#
# Indices 1 2 3 4 5 6 
#
# 1 111.4567 33.7743 11.4844 0.0000 0.0000 0.0000
# 2 33.7743 89.8513 25.2309 0.0000 0.0000 0.0000
# 3 11.4844 25.2309 108.0440 0.0000 0.0000 0.0000
# 4 0.0000 0.0000 0.0000 24.3431 0.0000 0.0000
# 5 0.0000 0.0000 0.0000 0.0000 20.9642 0.0000
# 6 0.0000 0.0000 0.0000 0.0000 0.0000 38.3749
#
#
#
# Elastic Compliance Matrix: (Units=1/GPa)
#
#
# Indices 1 2 3 4 5 6 
#
# 1 0.010129 -0.003751 -0.000201 0.000000 0.000000 0.000000
# 2 -0.003751 0.013300 -0.002707 0.000000 0.000000 0.000000
# 3 -0.000201 -0.002707 0.009909 0.000000 0.000000 0.000000
# 4 0.000000 0.000000 0.000000 0.041079 0.000000 0.000000
# 5 0.000000 0.000000 0.000000 0.000000 0.047700 0.000000
# 6 0.000000 0.000000 0.000000 0.000000 0.000000 0.026059
#
#
# Mechanical properties :
#
#
# Convention : Reuss Voigt Hill
#
# Bulk Modulus (GPa) = 49.94955 50.03679 49.99317
# Shear Modulus (GPa) = 29.73215 32.66059 31.19637
#
# Velocity S-wave (km/s) = 3.72687 3.90610 3.81754
# Velocity P-wave (km/s) = 6.46945 6.61200 6.54111
#
# Compressibility (1/GPa) = 0.02002020
#
# Stress axis : x y z
#
# Youngs Moduli (GPa) = 98.72161 75.18951 100.91843
#
# Poissons Ratio (x) = 0.28205 0.02025
# Poissons Ratio (y) = 0.37033 0.27319
# Poissons Ratio (z) = 0.01981 0.20354
#
# Static dielectric constant tensor:
#      x y z
#    x 4.380810 0.000000 0.000000 
#    y 0.000000 3.822710 0.000000 
#    z 0.000000 0.000000 3.897290 
# 
# 
# High freq. dielectric constant tensor:
#      x y z
#    x 1.861360 0.000000 0.000000 
#    y 0.000000 1.838060 0.000000 
#    z 0.000000 0.000000 1.832330 
# 
# From -- ./inp_files/22439.got.cif
#   From: 2010.03.12/outbox.cif.g09.slc.cpg/sg57_12_cif.got.tgz:22439.got - 2010.04.16 15:48:40.
