data_PCOD8234099
_publ_section_title
;
Structure prediction by ZEFSAII (Michael W. Deem and Ramdas Pophale) SiO2 
 PCOD8234099
Probable space group: P B C M
;
_chemical_formula_sum "Si O2"
_cell_formula_units_Z 32
_cell_length_a 20.187082
_cell_length_b 9.322314
_cell_length_c 8.554125
_cell_angle_alpha 90.000000
_cell_angle_beta 90.000000
_cell_angle_gamma 90.000000
_cell_volume 1609.803497
_symmetry_space_group_name_H-M "P B C M"
_symmetry_group_IT_number 57
_symmetry_cell_setting 'orthorhombic'
loop_
_space_group_symop_operation_xyz
x,y,z
-x,-y,1/2+z
x,1/2-y,-z
-x,1/2+y,1/2-z
-x,-y,-z
x,y,1/2-z
-x,1/2+y,z
x,1/2-y,1/2+z
loop_
_atom_site_type_symbol
_atom_site_label
_atom_site_fract_x
_atom_site_fract_y
_atom_site_fract_z
Si Si1 0.182652 0.598870 0.065797
Si Si2 0.058996 0.407522 0.067494
Si Si3 0.560027 0.908358 0.434952
Si Si4 0.325006 0.905542 0.065159
O O1 0.195818 0.613249 0.250000
O O2 0.128914 0.479082 0.024182
O O3 0.156137 0.750000 0.000000
O O4 0.250108 0.554766 0.979941
O O5 0.048419 0.398592 0.250000
O O6 0.057550 0.250000 0.000000
O O7 0.000000 0.500000 0.000000
O O8 0.553375 0.750000 0.500000
O O9 0.556607 0.905092 0.250000
O O10 0.500000 0.000000 0.500000
O O11 0.629273 0.974266 0.489434
O O12 0.334017 0.905637 0.250000
O O13 0.345240 0.750000 0.000000
#
# Coordination Sequence:
#
# PCOD8234099 Si02
#       4
#     8   8   8   8
#     4  10  21  38  60  88 119 156 198 245 296 353
#     4  11  24  40  61  87 119 156 199 246 298 354
#     4  12  25  43  64  90 122 158 200 247 297 353
#     4  11  22  39  63  91 122 160 200 244 295 352
#
# _framework density 19.878202999999999
#
# number of rings (size 3 to 8) (size 9 to 14) (size 15 to 20)
#    0.000    1.000    0.000    9.000    0.000    7.000 
#    0.000    2.500    0.000    0.000    0.000    0.000 
#    0.000    0.000    0.000    0.000    0.000    0.000 
#
# Total GULP energy -396995.499405 kJ/mol
# GULP energy per Si atom -12406.109356 kJ/mol
# Density = 1.983296 g / cm^3
# Si number density = 19.878203 Si / 1000 Ang^3
#
#
#
# Elastic Constant Matrix: (Units=GPa)
#
#
# Indices 1 2 3 4 5 6 
#
# 1 115.8890 101.8272 73.5401 0.0000 0.0000 0.0000
# 2 101.8272 189.2069 80.9887 0.0000 0.0000 0.0000
# 3 73.5401 80.9887 168.9202 0.0000 0.0000 0.0000
# 4 0.0000 0.0000 0.0000 40.6238 0.0000 0.0000
# 5 0.0000 0.0000 0.0000 0.0000 38.5426 0.0000
# 6 0.0000 0.0000 0.0000 0.0000 0.0000 132.0892
#
#
#
# Elastic Compliance Matrix: (Units=1/GPa)
#
#
# Indices 1 2 3 4 5 6 
#
# 1 0.018381 -0.008137 -0.004101 0.000000 0.000000 0.000000
# 2 -0.008137 0.010252 -0.001373 0.000000 0.000000 0.000000
# 3 -0.004101 -0.001373 0.008364 0.000000 0.000000 0.000000
# 4 0.000000 0.000000 0.000000 0.024616 0.000000 0.000000
# 5 0.000000 0.000000 0.000000 0.000000 0.025945 0.000000
# 6 0.000000 0.000000 0.000000 0.000000 0.000000 0.007571
#
#
# Mechanical properties :
#
#
# Convention : Reuss Voigt Hill
#
# Bulk Modulus (GPa) = 102.30203 109.63645 105.96924
# Shear Modulus (GPa) = 39.80637 56.76178 48.28407
#
# Velocity S-wave (km/s) = 4.47980 5.34946 4.93383
# Velocity P-wave (km/s) = 8.85067 9.66590 9.26725
#
# Compressibility (1/GPa) = 0.00977498
#
# Stress axis : x y z
#
# Youngs Moduli (GPa) = 54.40461 97.54269 119.56604
#
# Poissons Ratio (x) = 0.79368 0.49034
# Poissons Ratio (y) = 0.44268 0.16415
# Poissons Ratio (z) = 0.22311 0.13392
#
# Static dielectric constant tensor:
#      x y z
#    x 3.863050 0.000000 0.000000 
#    y 0.000000 3.855430 0.000000 
#    z 0.000000 0.000000 3.827750 
# 
# 
# High freq. dielectric constant tensor:
#      x y z
#    x 1.791300 0.000000 0.000000 
#    y 0.000000 1.782710 0.000000 
#    z 0.000000 0.000000 1.799680 
# 
# From -- ./inp_files/7545.got.cif
#   From: 2010.03.12/outbox.cif.g09.slc.cpg/sg57_4_cif.got.tgz:7545.got - 2010.04.16 15:48:40.
