data_PCOD8234850
_publ_section_title
;
Structure prediction by ZEFSAII (Michael W. Deem and Ramdas Pophale) SiO2 
 PCOD8234850
Probable space group: P B C M
;
_chemical_formula_sum "Si O2"
_cell_formula_units_Z 40
_cell_length_a 12.793774
_cell_length_b 14.951442
_cell_length_c 9.946760
_cell_angle_alpha 90.000000
_cell_angle_beta 90.000000
_cell_angle_gamma 90.000000
_cell_volume 1902.669666
_symmetry_space_group_name_H-M "P B C M"
_symmetry_group_IT_number 57
_symmetry_cell_setting 'orthorhombic'
loop_
_space_group_symop_operation_xyz
x,y,z
-x,-y,1/2+z
x,1/2-y,-z
-x,1/2+y,1/2-z
-x,-y,-z
x,y,1/2-z
-x,1/2+y,z
x,1/2-y,1/2+z
loop_
_atom_site_type_symbol
_atom_site_label
_atom_site_fract_x
_atom_site_fract_y
_atom_site_fract_z
Si Si1 0.555985 0.907456 0.250000
Si Si2 0.322608 0.148218 0.995377
Si Si3 0.101381 0.099760 0.906293
Si Si4 0.559969 0.911362 0.750000
Si Si5 0.091508 0.609928 0.405842
Si Si6 0.404012 0.751886 0.750000
Si Si7 0.741453 0.250000 0.000000
O O1 0.629966 0.912218 0.378135
O O2 0.501923 0.812188 0.250000
O O3 0.473685 0.986387 0.250000
O O4 0.361734 0.101573 0.128278
O O5 0.363299 0.250000 0.000000
O O6 0.198443 0.148529 0.976118
O O7 0.086174 0.128889 0.750000
O O8 0.118841 0.994000 0.916246
O O9 0.004051 0.132913 0.995332
O O10 0.454031 0.851589 0.750000
O O11 0.066653 0.635948 0.250000
O O12 0.189905 0.664092 0.461998
O O13 0.333550 0.728862 0.623067
#
# Coordination Sequence:
#
# PCOD8234850 Si02
#       7
#     4   8   8   4   8   4   4
#     4  12  26  48  71  98 136 180 233 282 337 403
#     4  12  24  46  68 103 138 176 226 284 339 406
#     4  10  24  44  74  96 136 175 222 276 339 403
#     4  12  28  44  73 100 136 182 233 280 341 401
#     4  10  24  47  66 102 133 174 225 277 329 409
#     4  12  26  46  66 100 134 180 228 286 330 402
#     4  12  26  42  70  94 140 174 222 276 338 396
#
# _framework density 21.023092999999999
#
# number of rings (size 3 to 8) (size 9 to 14) (size 15 to 20)
#    0.000    0.800    4.000    1.800    9.800    0.000 
#    0.000    0.000    0.000    0.000    0.000    0.000 
#    0.000    0.000    0.000    0.000    0.000    0.000 
#
# Total GULP energy -496096.182226 kJ/mol
# GULP energy per Si atom -12402.404556 kJ/mol
# Density = 2.097524 g / cm^3
# Si number density = 21.023093 Si / 1000 Ang^3
#
#
#
# Elastic Constant Matrix: (Units=GPa)
#
#
# Indices 1 2 3 4 5 6 
#
# 1 96.3437 3.4933 63.2247 0.0000 0.0000 0.0000
# 2 3.4933 39.6257 19.0017 0.0000 0.0000 0.0000
# 3 63.2247 19.0017 183.4297 0.0000 0.0000 0.0000
# 4 0.0000 0.0000 0.0000 33.2496 0.0000 0.0000
# 5 0.0000 0.0000 0.0000 0.0000 48.3584 0.0000
# 6 0.0000 0.0000 0.0000 0.0000 0.0000 32.2159
#
#
#
# Elastic Compliance Matrix: (Units=1/GPa)
#
#
# Indices 1 2 3 4 5 6 
#
# 1 0.013458 0.001092 -0.004752 0.000000 0.000000 0.000000
# 2 0.001092 0.026644 -0.003137 0.000000 0.000000 0.000000
# 3 -0.004752 -0.003137 0.007415 0.000000 0.000000 0.000000
# 4 0.000000 0.000000 0.000000 0.030076 0.000000 0.000000
# 5 0.000000 0.000000 0.000000 0.000000 0.020679 0.000000
# 6 0.000000 0.000000 0.000000 0.000000 0.000000 0.031041
#
#
# Mechanical properties :
#
#
# Convention : Reuss Voigt Hill
#
# Bulk Modulus (GPa) = 29.47745 54.53762 42.00754
# Shear Modulus (GPa) = 32.42279 38.34340 35.38310
#
# Velocity S-wave (km/s) = 3.93141 4.27531 4.10696
# Velocity P-wave (km/s) = 5.88726 7.09712 6.52031
#
# Compressibility (1/GPa) = 0.03392423
#
# Stress axis : x y z
#
# Youngs Moduli (GPa) = 74.30327 37.53200 134.87048
#
# Poissons Ratio (x) = -0.04099 0.64090
# Poissons Ratio (y) = -0.08116 0.42303
# Poissons Ratio (z) = 0.35309 0.11772
#
# Static dielectric constant tensor:
#      x y z
#    x 3.814090 0.000000 0.000000 
#    y 0.000000 3.685300 0.000000 
#    z 0.000000 0.000000 4.141240 
# 
# 
# High freq. dielectric constant tensor:
#      x y z
#    x 1.833640 0.000000 0.000000 
#    y 0.000000 1.822960 0.000000 
#    z 0.000000 0.000000 1.843800 
# 
# From -- ./inp_files/2750.got.cif
#   From: 2010.03.12/outbox.cif.g09.slc.cpg/sg57_2_cif.got.tgz:2750.got - 2010.04.16 15:48:40.
