data_PCOD8234354
_publ_section_title
;
Structure prediction by ZEFSAII (Michael W. Deem and Ramdas Pophale) SiO2 
 PCOD8234354
Probable space group: P B C M
;
_chemical_formula_sum "Si O2"
_cell_formula_units_Z 40
_cell_length_a 23.741935
_cell_length_b 8.786786
_cell_length_c 9.208995
_cell_angle_alpha 90.000000
_cell_angle_beta 90.000000
_cell_angle_gamma 90.000000
_cell_volume 1921.137274
_symmetry_space_group_name_H-M "P B C M"
_symmetry_group_IT_number 57
_symmetry_cell_setting 'orthorhombic'
loop_
_space_group_symop_operation_xyz
x,y,z
-x,-y,1/2+z
x,1/2-y,-z
-x,1/2+y,1/2-z
-x,-y,-z
x,y,1/2-z
-x,1/2+y,z
x,1/2-y,1/2+z
loop_
_atom_site_type_symbol
_atom_site_label
_atom_site_fract_x
_atom_site_fract_y
_atom_site_fract_z
Si Si1 0.550539 0.910175 0.572433
Si Si2 0.227534 0.894233 0.911565
Si Si3 0.877851 0.570397 0.519425
Si Si4 0.074733 0.572617 0.750000
Si Si5 0.044175 0.928447 0.750000
Si Si6 0.645551 0.408200 0.924100
O O1 0.541925 0.750000 0.500000
O O2 0.548640 0.909661 0.750000
O O3 0.500000 0.000000 0.500000
O O4 0.609977 0.968576 0.511562
O O5 0.231588 0.831163 0.750000
O O6 0.289472 0.950176 0.958982
O O7 0.183878 0.034589 0.917126
O O8 0.205218 0.750000 0.000000
O O9 0.883920 0.750000 0.500000
O O10 0.883543 0.468495 0.378423
O O11 0.929658 0.512099 0.613503
O O12 0.055943 0.748058 0.750000
O O13 0.022298 0.456429 0.750000
O O14 0.632585 0.405677 0.750000
O O15 0.629632 0.250000 0.000000
#
# Coordination Sequence:
#
# PCOD8234354 Si02
#       6
#     8   8   8   4   4   8
#     4  12  25  43  66  96 132 176 223 276 334 394
#     4  10  22  41  66  94 128 170 215 264 319 387
#     4  12  25  42  63  95 128 166 211 267 325 387
#     4  12  26  42  68  94 122 170 205 268 321 396
#     4  12  24  46  66  90 128 160 217 258 329 394
#     4  10  21  40  65  96 131 172 218 269 325 391
#
# _framework density 20.821000000000002
#
# number of rings (size 3 to 8) (size 9 to 14) (size 15 to 20)
#    0.000    0.800    1.000    7.200    1.400    1.600 
#    0.000    0.000    0.000    0.000    0.000    0.000 
#    0.000    0.000    0.000    0.000    0.000    0.000 
#
# Total GULP energy -495777.404053 kJ/mol
# GULP energy per Si atom -12394.435101 kJ/mol
# Density = 2.077361 g / cm^3
# Si number density = 20.821000 Si / 1000 Ang^3
#
#
#
# Elastic Constant Matrix: (Units=GPa)
#
#
# Indices 1 2 3 4 5 6 
#
# 1 104.2408 41.9264 30.9041 0.0000 0.0000 0.0000
# 2 41.9264 145.8665 35.4618 0.0000 0.0000 0.0000
# 3 30.9041 35.4618 137.8152 0.0000 0.0000 0.0000
# 4 0.0000 0.0000 0.0000 34.6850 0.0000 0.0000
# 5 0.0000 0.0000 0.0000 0.0000 36.8369 0.0000
# 6 0.0000 0.0000 0.0000 0.0000 0.0000 37.4362
#
#
#
# Elastic Compliance Matrix: (Units=1/GPa)
#
#
# Indices 1 2 3 4 5 6 
#
# 1 0.011252 -0.002796 -0.001804 0.000000 0.000000 0.000000
# 2 -0.002796 0.008008 -0.001434 0.000000 0.000000 0.000000
# 3 -0.001804 -0.001434 0.008029 0.000000 0.000000 0.000000
# 4 0.000000 0.000000 0.000000 0.028831 0.000000 0.000000
# 5 0.000000 0.000000 0.000000 0.000000 0.027147 0.000000
# 6 0.000000 0.000000 0.000000 0.000000 0.000000 0.026712
#
#
# Mechanical properties :
#
#
# Convention : Reuss Voigt Hill
#
# Bulk Modulus (GPa) = 65.68925 67.16748 66.42836
# Shear Modulus (GPa) = 39.33288 40.43363 39.88326
#
# Velocity S-wave (km/s) = 4.35109 4.41155 4.38143
# Velocity P-wave (km/s) = 7.54060 7.63404 7.58746
#
# Compressibility (1/GPa) = 0.01522319
#
# Stress axis : x y z
#
# Youngs Moduli (GPa) = 88.86963 124.88015 124.54105
#
# Poissons Ratio (x) = 0.34913 0.22466
# Poissons Ratio (y) = 0.24846 0.17854
# Poissons Ratio (z) = 0.16031 0.17902
#
# Static dielectric constant tensor:
#      x y z
#    x 3.944260 0.000000 0.000000 
#    y 0.000000 3.643570 0.000000 
#    z 0.000000 0.000000 4.971730 
# 
# 
# High freq. dielectric constant tensor:
#      x y z
#    x 1.831620 0.000000 0.000000 
#    y 0.000000 1.812970 0.000000 
#    z 0.000000 0.000000 1.835710 
# 
# From -- ./inp_files/8976.got.cif
#   From: 2010.03.12/outbox.cif.g09.slc.cpg/sg57_5_cif.got.tgz:8976.got - 2010.04.16 15:48:40.
