data_PCOD8234091
_publ_section_title
;
Structure prediction by ZEFSAII (Michael W. Deem and Ramdas Pophale) SiO2 
 PCOD8234091
Probable space group: P B C M
;
_chemical_formula_sum "Si O2"
_cell_formula_units_Z 40
_cell_length_a 24.910736
_cell_length_b 9.604463
_cell_length_c 8.560915
_cell_angle_alpha 90.000000
_cell_angle_beta 90.000000
_cell_angle_gamma 90.000000
_cell_volume 2048.235231
_symmetry_space_group_name_H-M "P B C M"
_symmetry_group_IT_number 57
_symmetry_cell_setting 'orthorhombic'
loop_
_space_group_symop_operation_xyz
x,y,z
-x,-y,1/2+z
x,1/2-y,-z
-x,1/2+y,1/2-z
-x,-y,-z
x,y,1/2-z
-x,1/2+y,z
x,1/2-y,1/2+z
loop_
_atom_site_type_symbol
_atom_site_label
_atom_site_fract_x
_atom_site_fract_y
_atom_site_fract_z
Si Si1 0.657370 0.599373 0.433195
Si Si2 0.866888 0.398909 0.931499
Si Si3 0.047227 0.094792 0.434266
Si Si4 0.546121 0.903725 0.434453
Si Si5 0.741764 0.102659 0.431511
O O1 0.669693 0.750000 0.500000
O O2 0.647597 0.608509 0.250000
O O3 0.603771 0.535771 0.511829
O O4 0.709211 0.509461 0.471223
O O5 0.882080 0.400123 0.750000
O O6 0.804301 0.425293 0.960420
O O7 0.885059 0.250000 0.000000
O O8 0.896603 0.524694 0.018078
O O9 0.043423 0.250000 0.500000
O O10 0.042350 0.103049 0.250000
O O11 0.000000 0.000000 0.500000
O O12 0.537879 0.750000 0.500000
O O13 0.543118 0.900277 0.250000
O O14 0.500000 0.000000 0.500000
O O15 0.724487 0.250000 0.500000
O O16 0.726729 0.094939 0.250000
#
# Coordination Sequence:
#
# PCOD8234091 Si02
#       5
#     8   8   8   8   8
#     4  11  22  38  59  84 115 152 192 236 287 342
#     4  10  21  39  62  88 119 154 193 237 288 341
#     4  12  25  42  63  88 119 154 195 239 288 342
#     4  11  22  39  60  85 115 149 190 236 288 343
#     4  10  21  38  60  87 118 153 193 238 286 340
#
# _framework density 19.529008000000001
#
# number of rings (size 3 to 8) (size 9 to 14) (size 15 to 20)
#    0.000    1.200    0.000    8.400    0.000    4.000 
#    0.000    4.000    0.000    0.000    0.000    0.000 
#    0.000    0.000    0.000    0.000    0.000    0.000 
#
# Total GULP energy -496205.115275 kJ/mol
# GULP energy per Si atom -12405.127882 kJ/mol
# Density = 1.948456 g / cm^3
# Si number density = 19.529008 Si / 1000 Ang^3
#
#
#
# Elastic Constant Matrix: (Units=GPa)
#
#
# Indices 1 2 3 4 5 6 
#
# 1 97.6930 74.2916 55.9154 0.0000 0.0000 0.0000
# 2 74.2916 131.4133 67.7490 0.0000 0.0000 0.0000
# 3 55.9154 67.7490 184.7782 0.0000 0.0000 0.0000
# 4 0.0000 0.0000 0.0000 40.0178 0.0000 0.0000
# 5 0.0000 0.0000 0.0000 0.0000 37.6234 0.0000
# 6 0.0000 0.0000 0.0000 0.0000 0.0000 42.8232
#
#
#
# Elastic Compliance Matrix: (Units=1/GPa)
#
#
# Indices 1 2 3 4 5 6 
#
# 1 0.018649 -0.009412 -0.002192 0.000000 0.000000 0.000000
# 2 -0.009412 0.014134 -0.002334 0.000000 0.000000 0.000000
# 3 -0.002192 -0.002334 0.006931 0.000000 0.000000 0.000000
# 4 0.000000 0.000000 0.000000 0.024989 0.000000 0.000000
# 5 0.000000 0.000000 0.000000 0.000000 0.026579 0.000000
# 6 0.000000 0.000000 0.000000 0.000000 0.000000 0.023352
#
#
# Mechanical properties :
#
#
# Convention : Reuss Voigt Hill
#
# Bulk Modulus (GPa) = 84.48439 89.97737 87.23088
# Shear Modulus (GPa) = 34.13995 38.48813 36.31404
#
# Velocity S-wave (km/s) = 4.18564 4.44421 4.31686
# Velocity P-wave (km/s) = 8.16789 8.51518 8.34334
#
# Compressibility (1/GPa) = 0.01183651
#
# Stress axis : x y z
#
# Youngs Moduli (GPa) = 53.62325 70.75173 144.27945
#
# Poissons Ratio (x) = 0.66595 0.31628
# Poissons Ratio (y) = 0.50473 0.33674
# Poissons Ratio (z) = 0.11755 0.16513
#
# Static dielectric constant tensor:
#      x y z
#    x 3.741810 0.000000 0.000000 
#    y 0.000000 3.571600 0.000000 
#    z 0.000000 0.000000 3.781660 
# 
# 
# High freq. dielectric constant tensor:
#      x y z
#    x 1.771970 0.000000 0.000000 
#    y 0.000000 1.762410 0.000000 
#    z 0.000000 0.000000 1.785590 
# 
# From -- ./inp_files/8869.got.cif
#   From: 2010.03.12/outbox.cif.g09.slc.cpg/sg57_5_cif.got.tgz:8869.got - 2010.04.16 15:48:40.
