data_PCOD8234956
_publ_section_title
;
Structure prediction by ZEFSAII (Michael W. Deem and Ramdas Pophale) SiO2 
 PCOD8234956
Probable space group: P B C M
;
_chemical_formula_sum "Si O2"
_cell_formula_units_Z 40
_cell_length_a 12.197415
_cell_length_b 8.662753
_cell_length_c 17.424880
_cell_angle_alpha 90.000000
_cell_angle_beta 90.000000
_cell_angle_gamma 90.000000
_cell_volume 1841.168465
_symmetry_space_group_name_H-M "P B C M"
_symmetry_group_IT_number 57
_symmetry_cell_setting 'orthorhombic'
loop_
_space_group_symop_operation_xyz
x,y,z
-x,-y,1/2+z
x,1/2-y,-z
-x,1/2+y,1/2-z
-x,-y,-z
x,y,1/2-z
-x,1/2+y,z
x,1/2-y,1/2+z
loop_
_atom_site_type_symbol
_atom_site_label
_atom_site_fract_x
_atom_site_fract_y
_atom_site_fract_z
Si Si1 0.296849 0.587610 0.456454
Si Si2 0.353162 0.040863 0.389882
Si Si3 0.885771 0.484431 0.337748
Si Si4 0.930037 0.175091 0.079935
Si Si5 0.547273 0.279020 0.839513
O O1 0.293687 0.750000 0.500000
O O2 0.338724 0.460694 0.517522
O O3 0.171523 0.555053 0.430440
O O4 0.376695 0.596342 0.383695
O O5 0.421685 0.192537 0.366325
O O6 0.236226 0.049003 0.348707
O O7 0.421132 0.894469 0.359528
O O8 0.921494 0.501368 0.250000
O O9 0.889599 0.305636 0.361017
O O10 0.967171 0.582687 0.389322
O O11 0.966933 0.250000 0.000000
O O12 0.561775 0.311618 0.750000
#
# Coordination Sequence:
#
# PCOD8234956 Si02
#       5
#     8   8   8   8   8
#     4   9  19  39  65  89 119 166 214 253 313 383
#     4  11  23  42  63  91 130 170 217 263 323 388
#     4  12  24  42  67  99 135 171 216 276 331 387
#     4  11  22  43  70  93 132 175 220 265 330 394
#     4  11  21  38  64  90 126 168 208 268 324 376
#
# _framework density 21.725332999999999
#
# number of rings (size 3 to 8) (size 9 to 14) (size 15 to 20)
#    0.000    1.200    6.000    3.600    0.000    0.800 
#    3.600    3.000    0.000    0.000    0.000    0.000 
#    0.000    0.000    0.000    0.000    0.000    0.000 
#
# Total GULP energy -496115.092725 kJ/mol
# GULP energy per Si atom -12402.877318 kJ/mol
# Density = 2.167589 g / cm^3
# Si number density = 21.725333 Si / 1000 Ang^3
#
#
#
# Elastic Constant Matrix: (Units=GPa)
#
#
# Indices 1 2 3 4 5 6 
#
# 1 159.6386 48.8235 59.4429 0.0000 0.0000 0.0000
# 2 48.8235 19.9289 20.4861 0.0000 0.0000 0.0000
# 3 59.4429 20.4861 124.5051 0.0000 0.0000 0.0000
# 4 0.0000 0.0000 0.0000 18.7064 0.0000 0.0000
# 5 0.0000 0.0000 0.0000 0.0000 12.6572 0.0000
# 6 0.0000 0.0000 0.0000 0.0000 0.0000 32.3052
#
#
#
# Elastic Compliance Matrix: (Units=1/GPa)
#
#
# Indices 1 2 3 4 5 6 
#
# 1 0.025511 -0.060153 -0.002282 0.000000 0.000000 0.000000
# 2 -0.060153 0.202229 -0.004556 0.000000 0.000000 0.000000
# 3 -0.002282 -0.004556 0.009871 0.000000 0.000000 0.000000
# 4 0.000000 0.000000 0.000000 0.053458 0.000000 0.000000
# 5 0.000000 0.000000 0.000000 0.000000 0.079007 0.000000
# 6 0.000000 0.000000 0.000000 0.000000 0.000000 0.030955
#
#
# Mechanical properties :
#
#
# Convention : Reuss Voigt Hill
#
# Bulk Modulus (GPa) = 9.64981 62.39752 36.02366
# Shear Modulus (GPa) = 8.77880 24.42178 16.60029
#
# Velocity S-wave (km/s) = 2.01236 3.35642 2.76723
# Velocity P-wave (km/s) = 3.13860 6.61847 5.17953
#
# Compressibility (1/GPa) = 0.10362903
#
# Stress axis : x y z
#
# Youngs Moduli (GPa) = 39.19898 4.94490 101.30651
#
# Poissons Ratio (x) = 0.29745 0.23120
# Poissons Ratio (y) = 2.35792 0.46155
# Poissons Ratio (z) = 0.08946 0.02253
#
# Static dielectric constant tensor:
#      x y z
#    x 4.142950 0.000000 0.000000 
#    y 0.000000 3.587050 0.000000 
#    z 0.000000 0.000000 4.170660 
# 
# 
# High freq. dielectric constant tensor:
#      x y z
#    x 1.869500 0.000000 0.000000 
#    y 0.000000 1.817960 0.000000 
#    z 0.000000 0.000000 1.866020 
# 
# From -- ./inp_files/21599.got.cif
#   From: 2010.03.12/outbox.cif.g09.slc.cpg/sg57_11_cif.got.tgz:21599.got - 2010.04.16 15:48:40.
