data_PCOD8234036
_publ_section_title
;
Structure prediction by ZEFSAII (Michael W. Deem and Ramdas Pophale) SiO2 
 PCOD8234036
Probable space group: P B C M
;
_chemical_formula_sum "Si O2"
_cell_formula_units_Z 56
_cell_length_a 15.302850
_cell_length_b 20.779045
_cell_length_c 8.715257
_cell_angle_alpha 90.000000
_cell_angle_beta 90.000000
_cell_angle_gamma 90.000000
_cell_volume 2771.265296
_symmetry_space_group_name_H-M "P B C M"
_symmetry_group_IT_number 57
_symmetry_cell_setting 'orthorhombic'
loop_
_space_group_symop_operation_xyz
x,y,z
-x,-y,1/2+z
x,1/2-y,-z
-x,1/2+y,1/2-z
-x,-y,-z
x,y,1/2-z
-x,1/2+y,z
x,1/2-y,1/2+z
loop_
_atom_site_type_symbol
_atom_site_label
_atom_site_fract_x
_atom_site_fract_y
_atom_site_fract_z
Si Si1 0.362582 0.187245 0.570284
Si Si2 0.959085 0.683727 0.931545
Si Si3 0.418652 0.959333 0.930914
Si Si4 0.789585 0.870033 0.577673
Si Si5 0.057519 0.942908 0.431537
Si Si6 0.550399 0.315838 0.570236
Si Si7 0.761313 0.487177 0.421916
O O1 0.314218 0.250000 0.500000
O O2 0.383356 0.190593 0.750000
O O3 0.297747 0.130078 0.527164
O O4 0.450006 0.180193 0.474034
O O5 0.953010 0.688653 0.750000
O O6 0.021125 0.625849 0.986336
O O7 0.997235 0.750000 0.000000
O O8 0.863259 0.672243 0.998471
O O9 0.432788 0.962138 0.750000
O O10 0.412057 0.884591 0.988243
O O11 0.324889 0.989050 0.973381
O O12 0.500000 0.000000 0.000000
O O13 0.773148 0.843621 0.750000
O O14 0.812375 0.944928 0.581469
O O15 0.052261 0.950485 0.250000
O O16 0.159896 0.942160 0.484636
O O17 0.000000 0.000000 0.500000
O O18 0.593487 0.250000 0.500000
O O19 0.562247 0.309266 0.750000
O O20 0.731285 0.467730 0.250000
#
# Coordination Sequence:
#
# PCOD8234036 Si02
#       7
#     8   8   8   8   8   8   8
#     4  11  21  33  51  77 110 149 193 239 295 360
#     4  11  23  38  59  87 121 158 200 248 302 360
#     4  11  24  40  61  91 125 160 203 254 306 363
#     4  11  21  35  55  81 116 153 193 242 299 360
#     4  10  21  40  64  90 118 156 201 247 298 356
#     4  10  21  38  58  82 112 152 201 249 303 361
#     4  10  22  39  61  88 118 156 199 246 303 363
#
# _framework density 20.207374999999999
#
# number of rings (size 3 to 8) (size 9 to 14) (size 15 to 20)
#    0.000    1.429    1.429    5.143    0.000    8.000 
#    0.000    0.714    0.000    3.429    0.000    0.000 
#    0.000    0.000    0.000    0.000    0.000    0.000 
#
# Total GULP energy -694024.247396 kJ/mol
# GULP energy per Si atom -12393.290132 kJ/mol
# Density = 2.016138 g / cm^3
# Si number density = 20.207375 Si / 1000 Ang^3
#
#
#
# Elastic Constant Matrix: (Units=GPa)
#
#
# Indices 1 2 3 4 5 6 
#
# 1 92.1658 42.4134 17.2757 0.0000 0.0000 0.0000
# 2 42.4134 134.4901 43.7081 0.0000 0.0000 0.0000
# 3 17.2757 43.7081 55.3773 0.0000 0.0000 0.0000
# 4 0.0000 0.0000 0.0000 30.4760 0.0000 0.0000
# 5 0.0000 0.0000 0.0000 0.0000 24.6224 0.0000
# 6 0.0000 0.0000 0.0000 0.0000 0.0000 -12.6894
#
#
#
# Elastic Compliance Matrix: (Units=1/GPa)
#
#
# Indices 1 2 3 4 5 6 
#
# 1 0.012740 -0.003667 -0.001080 0.000000 0.000000 0.000000
# 2 -0.003667 0.011056 -0.007582 0.000000 0.000000 0.000000
# 3 -0.001080 -0.007582 0.024380 0.000000 0.000000 0.000000
# 4 0.000000 0.000000 0.000000 0.032813 0.000000 0.000000
# 5 0.000000 0.000000 0.000000 0.000000 0.040613 0.000000
# 6 0.000000 0.000000 0.000000 0.000000 0.000000 -0.078806
#
#
# Mechanical properties :
#
#
# Convention : Reuss Voigt Hill
#
# Bulk Modulus (GPa) = 42.52310 54.31420 48.41865
# Shear Modulus (GPa) = 66.40681 20.39087 43.39884
#
# Velocity S-wave (km/s) = 5.73882 3.18005 4.63933
# Velocity P-wave (km/s) = 8.06232 6.35770 7.26021
#
# Compressibility (1/GPa) = 0.02351663
#
# Stress axis : x y z
#
# Youngs Moduli (GPa) = 78.49400 90.44843 41.01785
#
# Poissons Ratio (x) = 0.33163 0.04432
# Poissons Ratio (y) = 0.28780 0.31102
# Poissons Ratio (z) = 0.08481 0.68582
#
# Static dielectric constant tensor:
#      x y z
#    x 3.484820 0.000000 0.000000 
#    y 0.000000 3.729690 0.000000 
#    z 0.000000 0.000000 3.645670 
# 
# 
# High freq. dielectric constant tensor:
#      x y z
#    x 1.771990 0.000000 0.000000 
#    y 0.000000 1.800730 0.000000 
#    z 0.000000 0.000000 1.791750 
# 
# From -- ./inp_files/5109.got.cif
#   From: 2010.03.12/outbox.cif.g09.slc.cpg/sg57_3_cif.got.tgz:5109.got - 2010.04.16 15:48:40.
