data_PCOD8234796
_publ_section_title
;
Structure prediction by ZEFSAII (Michael W. Deem and Ramdas Pophale) SiO2 
 PCOD8234796
Probable space group: P B C M
;
_chemical_formula_sum "Si O2"
_cell_formula_units_Z 48
_cell_length_a 11.638675
_cell_length_b 11.857089
_cell_length_c 16.360351
_cell_angle_alpha 90.000000
_cell_angle_beta 90.000000
_cell_angle_gamma 90.000000
_cell_volume 2257.741613
_symmetry_space_group_name_H-M "P B C M"
_symmetry_group_IT_number 57
_symmetry_cell_setting 'orthorhombic'
loop_
_space_group_symop_operation_xyz
x,y,z
-x,-y,1/2+z
x,1/2-y,-z
-x,1/2+y,1/2-z
-x,-y,-z
x,y,1/2-z
-x,1/2+y,z
x,1/2-y,1/2+z
loop_
_atom_site_type_symbol
_atom_site_label
_atom_site_fract_x
_atom_site_fract_y
_atom_site_fract_z
Si Si1 0.664947 0.206087 0.342821
Si Si2 0.419623 0.122450 0.155094
Si Si3 0.264425 0.939178 0.088288
Si Si4 0.177123 0.523351 0.093464
Si Si5 0.935436 0.575988 0.156332
Si Si6 0.780262 0.767537 0.096081
O O1 0.650035 0.248383 0.250000
O O2 0.544384 0.159417 0.377587
O O3 0.707806 0.308966 0.398051
O O4 0.757824 0.106533 0.345030
O O5 0.424861 0.088581 0.250000
O O6 0.333584 0.226618 0.142407
O O7 0.378539 0.013729 0.103555
O O8 0.164235 0.982132 0.148629
O O9 0.221243 0.954809 0.997034
O O10 0.201764 0.396221 0.120740
O O11 0.041380 0.544819 0.098276
O O12 0.975688 0.581823 0.250000
O O13 0.889851 0.697337 0.127132
O O14 0.764685 0.750000 0.000000
#
# Coordination Sequence:
#
# PCOD8234796 Si02
#       6
#     8   8   8   8   8   8
#     4  11  26  43  67 101 137 177 225 277 331 395
#     4  10  23  44  69  96 131 181 226 270 332 399
#     4  11  23  46  69  97 136 178 222 278 337 399
#     4  12  26  43  68 103 133 171 227 278 332 399
#     4  11  25  44  69  97 133 181 223 274 341 401
#     4  11  23  43  70  97 133 172 221 276 336 398
#
# _framework density 21.260183999999999
#
# number of rings (size 3 to 8) (size 9 to 14) (size 15 to 20)
#    0.000    1.000    3.333    4.500    4.667    4.667 
#    0.000    0.000    0.000    0.000    0.000    0.000 
#    0.000    0.000    0.000    0.000    0.000    0.000 
#
# Total GULP energy -595512.302350 kJ/mol
# GULP energy per Si atom -12406.506299 kJ/mol
# Density = 2.121179 g / cm^3
# Si number density = 21.260184 Si / 1000 Ang^3
#
#
#
# Elastic Constant Matrix: (Units=GPa)
#
#
# Indices 1 2 3 4 5 6 
#
# 1 116.9880 66.6206 9.8800 0.0000 0.0000 0.0000
# 2 66.6206 162.6570 15.2791 0.0000 0.0000 0.0000
# 3 9.8800 15.2791 82.3217 0.0000 0.0000 0.0000
# 4 0.0000 0.0000 0.0000 25.5956 0.0000 0.0000
# 5 0.0000 0.0000 0.0000 0.0000 30.8797 0.0000
# 6 0.0000 0.0000 0.0000 0.0000 0.0000 21.8579
#
#
#
# Elastic Compliance Matrix: (Units=1/GPa)
#
#
# Indices 1 2 3 4 5 6 
#
# 1 0.011168 -0.004527 -0.000500 0.000000 0.000000 0.000000
# 2 -0.004527 0.008092 -0.000959 0.000000 0.000000 0.000000
# 3 -0.000500 -0.000959 0.012385 0.000000 0.000000 0.000000
# 4 0.000000 0.000000 0.000000 0.039069 0.000000 0.000000
# 5 0.000000 0.000000 0.000000 0.000000 0.032384 0.000000
# 6 0.000000 0.000000 0.000000 0.000000 0.000000 0.045750
#
#
# Mechanical properties :
#
#
# Convention : Reuss Voigt Hill
#
# Bulk Modulus (GPa) = 50.82869 60.61401 55.72135
# Shear Modulus (GPa) = 29.87235 33.67910 31.77573
#
# Velocity S-wave (km/s) = 3.75251 3.98444 3.87022
# Velocity P-wave (km/s) = 6.53720 7.05267 6.79982
#
# Compressibility (1/GPa) = 0.01967393
#
# Stress axis : x y z
#
# Youngs Moduli (GPa) = 89.53953 123.57540 80.74022
#
# Poissons Ratio (x) = 0.55946 0.04038
# Poissons Ratio (y) = 0.40537 0.07740
# Poissons Ratio (z) = 0.04478 0.11846
#
# Static dielectric constant tensor:
#      x y z
#    x 3.936680 0.000000 0.000000 
#    y 0.000000 4.045650 0.000000 
#    z 0.000000 0.000000 3.797280 
# 
# 
# High freq. dielectric constant tensor:
#      x y z
#    x 1.840830 0.000000 0.000000 
#    y 0.000000 1.839090 0.000000 
#    z 0.000000 0.000000 1.838770 
# 
# From -- ./inp_files/21827.got.cif
#   From: 2010.03.12/outbox.cif.g09.slc.cpg/sg57_11_cif.got.tgz:21827.got - 2010.04.16 15:48:40.
