data_PCOD8234223
_publ_section_title
;
Structure prediction by ZEFSAII (Michael W. Deem and Ramdas Pophale) SiO2 
 PCOD8234223
Probable space group: P B C M
;
_chemical_formula_sum "Si O2"
_cell_formula_units_Z 48
_cell_length_a 11.749342
_cell_length_b 25.949518
_cell_length_c 8.747908
_cell_angle_alpha 90.000000
_cell_angle_beta 90.000000
_cell_angle_gamma 90.000000
_cell_volume 2667.147586
_symmetry_space_group_name_H-M "P B C M"
_symmetry_group_IT_number 57
_symmetry_cell_setting 'orthorhombic'
loop_
_space_group_symop_operation_xyz
x,y,z
-x,-y,1/2+z
x,1/2-y,-z
-x,1/2+y,1/2-z
-x,-y,-z
x,y,1/2-z
-x,1/2+y,z
x,1/2-y,1/2+z
loop_
_atom_site_type_symbol
_atom_site_label
_atom_site_fract_x
_atom_site_fract_y
_atom_site_fract_z
Si Si1 0.327478 0.806161 0.569029
Si Si2 0.270935 0.426910 0.423742
Si Si3 0.663547 0.040692 0.421679
Si Si4 0.966677 0.555009 0.069957
Si Si5 0.474006 0.118379 0.424824
Si Si6 0.833716 0.112857 0.571203
O O1 0.333360 0.750000 0.500000
O O2 0.315487 0.803835 0.750000
O O3 0.443024 0.835737 0.519926
O O4 0.217872 0.835535 0.502629
O O5 0.232628 0.416678 0.250000
O O6 0.340946 0.479777 0.441116
O O7 0.161351 0.428823 0.530702
O O8 0.357933 0.382089 0.476816
O O9 0.705079 0.056132 0.250000
O O10 0.538763 0.064027 0.448911
O O11 0.752094 0.064063 0.542249
O O12 0.982430 0.550655 0.250000
O O13 0.000000 0.500000 0.000000
O O14 0.044941 0.600582 0.004122
O O15 0.438451 0.126494 0.250000
O O16 0.849838 0.121652 0.750000
#
# Coordination Sequence:
#
# PCOD8234223 Si02
#       6
#     8   8   8   8   8   8
#     4  10  21  39  62  86 111 140 179 230 282 332
#     4  11  21  32  50  76 109 149 188 223 266 322
#     4   9  18  32  49  72 108 147 183 224 265 315
#     4  12  23  36  53  76 110 151 191 229 271 325
#     4   9  19  34  51  76 109 143 179 223 274 324
#     4  11  21  34  55  82 110 145 186 228 276 327
#
# _framework density 17.996753999999999
#
# number of rings (size 3 to 8) (size 9 to 14) (size 15 to 20)
#    0.000    1.667    1.667    5.500    0.000    4.000 
#    0.000    0.000    0.000    1.000    0.000    4.667 
#    0.000    0.000    0.000    0.000    0.000    0.000 
#
# Total GULP energy -595236.563873 kJ/mol
# GULP energy per Si atom -12400.761747 kJ/mol
# Density = 1.795579 g / cm^3
# Si number density = 17.996754 Si / 1000 Ang^3
#
#
#
# Elastic Constant Matrix: (Units=GPa)
#
#
# Indices 1 2 3 4 5 6 
#
# 1 110.3691 53.2035 52.3504 0.0000 0.0000 0.0000
# 2 53.2035 94.0269 46.8195 0.0000 0.0000 0.0000
# 3 52.3504 46.8195 120.3065 0.0000 0.0000 0.0000
# 4 0.0000 0.0000 0.0000 26.7075 0.0000 0.0000
# 5 0.0000 0.0000 0.0000 0.0000 32.6733 0.0000
# 6 0.0000 0.0000 0.0000 0.0000 0.0000 16.8074
#
#
#
# Elastic Compliance Matrix: (Units=1/GPa)
#
#
# Indices 1 2 3 4 5 6 
#
# 1 0.013629 -0.005903 -0.003634 0.000000 0.000000 0.000000
# 2 -0.005903 0.015748 -0.003560 0.000000 0.000000 0.000000
# 3 -0.003634 -0.003560 0.011279 0.000000 0.000000 0.000000
# 4 0.000000 0.000000 0.000000 0.037443 0.000000 0.000000
# 5 0.000000 0.000000 0.000000 0.000000 0.030606 0.000000
# 6 0.000000 0.000000 0.000000 0.000000 0.000000 0.059497
#
#
# Mechanical properties :
#
#
# Convention : Reuss Voigt Hill
#
# Bulk Modulus (GPa) = 69.14051 69.93882 69.53967
# Shear Modulus (GPa) = 25.09841 26.72625 25.91233
#
# Velocity S-wave (km/s) = 3.73850 3.85783 3.79863
# Velocity P-wave (km/s) = 7.55889 7.66747 7.61337
#
# Compressibility (1/GPa) = 0.01446330
#
# Stress axis : x y z
#
# Youngs Moduli (GPa) = 73.37102 63.50068 88.66276
#
# Poissons Ratio (x) = 0.37482 0.32216
# Poissons Ratio (y) = 0.43308 0.31565
# Poissons Ratio (z) = 0.26660 0.22607
#
# Static dielectric constant tensor:
#      x y z
#    x 3.301890 0.000000 0.000000 
#    y 0.000000 3.094240 0.000000 
#    z 0.000000 0.000000 3.394910 
# 
# 
# High freq. dielectric constant tensor:
#      x y z
#    x 1.696030 0.000000 0.000000 
#    y 0.000000 1.663040 0.000000 
#    z 0.000000 0.000000 1.708750 
# 
# From -- ./inp_files/3261.got.cif
#   From: 2010.03.12/outbox.cif.g09.slc.cpg/sg57_2_cif.got.tgz:3261.got - 2010.04.16 15:48:40.
