data_PCOD8234089
_publ_section_title
;
Structure prediction by ZEFSAII (Michael W. Deem and Ramdas Pophale) SiO2 
 PCOD8234089
Probable space group: P B C M
;
_chemical_formula_sum "Si O2"
_cell_formula_units_Z 48
_cell_length_a 17.441582
_cell_length_b 15.672771
_cell_length_c 8.422422
_cell_angle_alpha 90.000000
_cell_angle_beta 90.000000
_cell_angle_gamma 90.000000
_cell_volume 2302.335764
_symmetry_space_group_name_H-M "P B C M"
_symmetry_group_IT_number 57
_symmetry_cell_setting 'orthorhombic'
loop_
_space_group_symop_operation_xyz
x,y,z
-x,-y,1/2+z
x,1/2-y,-z
-x,1/2+y,1/2-z
-x,-y,-z
x,y,1/2-z
-x,1/2+y,z
x,1/2-y,1/2+z
loop_
_atom_site_type_symbol
_atom_site_label
_atom_site_fract_x
_atom_site_fract_y
_atom_site_fract_z
Si Si1 0.811623 0.153717 0.562137
Si Si2 0.085573 0.502214 0.438455
Si Si3 0.501468 0.592680 0.935876
Si Si4 0.817339 0.847031 0.938004
Si Si5 0.338644 0.342327 0.061850
Si Si6 0.343832 0.841108 0.935920
O O1 0.830518 0.250000 0.500000
O O2 0.802843 0.159425 0.750000
O O3 0.876926 0.086863 0.514854
O O4 0.732919 0.109624 0.489830
O O5 0.089886 0.510540 0.250000
O O6 0.120893 0.411997 0.492157
O O7 0.000000 0.500000 0.500000
O O8 0.509866 0.594637 0.750000
O O9 0.578803 0.632136 0.011160
O O10 0.500000 0.500000 0.000000
O O11 0.423714 0.638012 0.982322
O O12 0.822645 0.845125 0.750000
O O13 0.831351 0.750000 0.000000
O O14 0.735454 0.890364 0.991313
O O15 0.338961 0.350738 0.250000
O O16 0.321272 0.250000 0.000000
O O17 0.357240 0.848467 0.750000
O O18 0.320369 0.750000 0.000000
#
# Coordination Sequence:
#
# PCOD8234089 Si02
#       6
#     8   8   8   8   8   8
#     4  11  23  43  69  99 132 172 217 265 323 384
#     4  12  26  46  70 100 134 169 212 262 321 387
#     4  11  24  38  55  84 122 163 211 261 316 371
#     4  11  23  42  68  98 131 172 216 265 322 382
#     4  10  21  38  60  86 118 160 208 259 313 371
#     4  11  22  39  62  88 121 163 210 260 314 372
#
# _framework density 20.848393000000002
#
# number of rings (size 3 to 8) (size 9 to 14) (size 15 to 20)
#    0.000    1.000    0.000    9.500    2.333    4.667 
#    0.000    3.333    0.000    0.000    0.000    0.000 
#    0.000    0.000    0.000    0.000    0.000    0.000 
#
# Total GULP energy -594719.190349 kJ/mol
# GULP energy per Si atom -12389.983132 kJ/mol
# Density = 2.080094 g / cm^3
# Si number density = 20.848393 Si / 1000 Ang^3
#
#
#
# Elastic Constant Matrix: (Units=GPa)
#
#
# Indices 1 2 3 4 5 6 
#
# 1 176.0909 54.4888 22.0606 0.0000 0.0000 0.0000
# 2 54.4888 90.7815 20.5914 0.0000 0.0000 0.0000
# 3 22.0606 20.5914 105.9964 0.0000 0.0000 0.0000
# 4 0.0000 0.0000 0.0000 36.1850 0.0000 0.0000
# 5 0.0000 0.0000 0.0000 0.0000 38.4181 0.0000
# 6 0.0000 0.0000 0.0000 0.0000 0.0000 28.7095
#
#
#
# Elastic Compliance Matrix: (Units=1/GPa)
#
#
# Indices 1 2 3 4 5 6 
#
# 1 0.007020 -0.004061 -0.000672 0.000000 0.000000 0.000000
# 2 -0.004061 0.013872 -0.001850 0.000000 0.000000 0.000000
# 3 -0.000672 -0.001850 0.009934 0.000000 0.000000 0.000000
# 4 0.000000 0.000000 0.000000 0.027636 0.000000 0.000000
# 5 0.000000 0.000000 0.000000 0.000000 0.026029 0.000000
# 6 0.000000 0.000000 0.000000 0.000000 0.000000 0.034832
#
#
# Mechanical properties :
#
#
# Convention : Reuss Voigt Hill
#
# Bulk Modulus (GPa) = 56.62465 63.01672 59.82068
# Shear Modulus (GPa) = 36.13378 39.04438 37.58908
#
# Velocity S-wave (km/s) = 4.16765 4.33225 4.25075
# Velocity P-wave (km/s) = 7.09776 7.43750 7.26961
#
# Compressibility (1/GPa) = 0.01766015
#
# Stress axis : x y z
#
# Youngs Moduli (GPa) = 142.45679 72.08529 100.66937
#
# Poissons Ratio (x) = 0.29273 0.06766
# Poissons Ratio (y) = 0.57850 0.18621
# Poissons Ratio (z) = 0.09574 0.13334
#
# Static dielectric constant tensor:
#      x y z
#    x 3.895740 0.000000 0.000000 
#    y 0.000000 3.865040 0.000000 
#    z 0.000000 0.000000 3.908590 
# 
# 
# High freq. dielectric constant tensor:
#      x y z
#    x 1.839880 0.000000 0.000000 
#    y 0.000000 1.813030 0.000000 
#    z 0.000000 0.000000 1.831830 
# 
# From -- ./inp_files/6495.got.cif
#   From: 2010.03.12/outbox.cif.g09.slc.cpg/sg57_4_cif.got.tgz:6495.got - 2010.04.16 15:48:40.
