data_PCOD8234226
_publ_section_title
;
Structure prediction by ZEFSAII (Michael W. Deem and Ramdas Pophale) SiO2 
 PCOD8234226
Probable space group: P B C M
;
_chemical_formula_sum "Si O2"
_cell_formula_units_Z 48
_cell_length_a 14.989630
_cell_length_b 19.019810
_cell_length_c 8.694845
_cell_angle_alpha 90.000000
_cell_angle_beta 90.000000
_cell_angle_gamma 90.000000
_cell_volume 2478.899567
_symmetry_space_group_name_H-M "P B C M"
_symmetry_group_IT_number 57
_symmetry_cell_setting 'orthorhombic'
loop_
_space_group_symop_operation_xyz
x,y,z
-x,-y,1/2+z
x,1/2-y,-z
-x,1/2+y,1/2-z
-x,-y,-z
x,y,1/2-z
-x,1/2+y,z
x,1/2-y,1/2+z
loop_
_atom_site_type_symbol
_atom_site_label
_atom_site_fract_x
_atom_site_fract_y
_atom_site_fract_z
Si Si1 0.622593 0.324103 0.930739
Si Si2 0.277066 0.092042 0.072530
Si Si3 0.041765 0.568705 0.571743
Si Si4 0.241518 0.570751 0.572126
Si Si5 0.433258 0.324583 0.068502
Si Si6 0.887198 0.826702 0.069908
O O1 0.610146 0.315755 0.750000
O O2 0.654462 0.250000 0.000000
O O3 0.695513 0.382426 0.966887
O O4 0.528754 0.347749 0.003084
O O5 0.290618 0.112106 0.250000
O O6 0.268770 0.009463 0.048042
O O7 0.362138 0.116593 0.976113
O O8 0.188583 0.128930 0.012441
O O9 0.048948 0.551882 0.750000
O O10 0.141209 0.582756 0.509054
O O11 0.000000 0.500000 0.500000
O O12 0.981893 0.636660 0.536567
O O13 0.251073 0.593405 0.750000
O O14 0.440043 0.317623 0.250000
O O15 0.402018 0.250000 0.000000
O O16 0.865545 0.822768 0.250000
O O17 0.891905 0.750000 0.000000
#
# Coordination Sequence:
#
# PCOD8234226 Si02
#       6
#     8   8   8   8   8   8
#     4  11  23  41  64  89 119 156 200 248 299 356
#     4  11  22  38  61  88 122 159 198 245 299 357
#     4  10  21  39  62  87 118 157 200 246 298 355
#     4  10  22  40  62  89 121 158 199 246 300 356
#     4  11  22  39  62  87 120 158 200 247 299 357
#     4  11  23  38  59  88 122 157 202 249 298 356
#
# _framework density 19.363430999999999
#
# number of rings (size 3 to 8) (size 9 to 14) (size 15 to 20)
#    0.000    1.333    1.667    5.500    0.000    4.000 
#    0.000    1.667    0.000    0.000    0.000    0.000 
#    0.000    0.000    0.000    0.000    0.000    0.000 
#
# Total GULP energy -595448.663228 kJ/mol
# GULP energy per Si atom -12405.180484 kJ/mol
# Density = 1.931936 g / cm^3
# Si number density = 19.363431 Si / 1000 Ang^3
#
#
#
# Elastic Constant Matrix: (Units=GPa)
#
#
# Indices 1 2 3 4 5 6 
#
# 1 135.7307 55.1720 57.2481 0.0000 0.0000 0.0000
# 2 55.1720 81.3183 51.5080 0.0000 0.0000 0.0000
# 3 57.2481 51.5080 130.5365 0.0000 0.0000 0.0000
# 4 0.0000 0.0000 0.0000 32.2929 0.0000 0.0000
# 5 0.0000 0.0000 0.0000 0.0000 14.0097 0.0000
# 6 0.0000 0.0000 0.0000 0.0000 0.0000 41.9872
#
#
#
# Elastic Compliance Matrix: (Units=1/GPa)
#
#
# Indices 1 2 3 4 5 6 
#
# 1 0.010727 -0.005731 -0.002443 0.000000 0.000000 0.000000
# 2 -0.005731 0.019456 -0.005164 0.000000 0.000000 0.000000
# 3 -0.002443 -0.005164 0.010770 0.000000 0.000000 0.000000
# 4 0.000000 0.000000 0.000000 0.030967 0.000000 0.000000
# 5 0.000000 0.000000 0.000000 0.000000 0.071379 0.000000
# 6 0.000000 0.000000 0.000000 0.000000 0.000000 0.023817
#
#
# Mechanical properties :
#
#
# Convention : Reuss Voigt Hill
#
# Bulk Modulus (GPa) = 70.03924 75.04906 72.54415
# Shear Modulus (GPa) = 25.18239 29.90179 27.54209
#
# Velocity S-wave (km/s) = 3.61017 3.93395 3.77553
# Velocity P-wave (km/s) = 7.32306 7.71212 7.52011
#
# Compressibility (1/GPa) = 0.01427771
#
# Stress axis : x y z
#
# Youngs Moduli (GPa) = 93.21848 51.39718 92.85097
#
# Poissons Ratio (x) = 0.29453 0.22688
# Poissons Ratio (y) = 0.53419 0.47948
# Poissons Ratio (z) = 0.22777 0.26542
#
# Static dielectric constant tensor:
#      x y z
#    x 3.775450 0.000000 0.000000 
#    y 0.000000 3.556540 0.000000 
#    z 0.000000 0.000000 3.749650 
# 
# 
# High freq. dielectric constant tensor:
#      x y z
#    x 1.767550 0.000000 0.000000 
#    y 0.000000 1.756150 0.000000 
#    z 0.000000 0.000000 1.764250 
# 
# From -- ./inp_files/4688.got.cif
#   From: 2010.03.12/outbox.cif.g09.slc.cpg/sg57_3_cif.got.tgz:4688.got - 2010.04.16 15:48:40.
