data_PCOD8234059
_publ_section_title
;
Structure prediction by ZEFSAII (Michael W. Deem and Ramdas Pophale) SiO2 
 PCOD8234059
Probable space group: P B C M
;
_chemical_formula_sum "Si O2"
_cell_formula_units_Z 64
_cell_length_a 24.315548
_cell_length_b 14.776966
_cell_length_c 8.544206
_cell_angle_alpha 90.000000
_cell_angle_beta 90.000000
_cell_angle_gamma 90.000000
_cell_volume 3070.018881
_symmetry_space_group_name_H-M "P B C M"
_symmetry_group_IT_number 57
_symmetry_cell_setting 'orthorhombic'
loop_
_space_group_symop_operation_xyz
x,y,z
-x,-y,1/2+z
x,1/2-y,-z
-x,1/2+y,1/2-z
-x,-y,-z
x,y,1/2-z
-x,1/2+y,z
x,1/2-y,1/2+z
loop_
_atom_site_type_symbol
_atom_site_label
_atom_site_fract_x
_atom_site_fract_y
_atom_site_fract_z
Si Si1 0.617805 0.338533 0.934099
Si Si2 0.238258 0.040494 0.563659
Si Si3 0.874311 0.971779 0.565782
Si Si4 0.653304 0.649057 0.935761
Si Si5 0.033988 0.345314 0.065211
Si Si6 0.560334 0.514275 0.935438
Si Si7 0.085357 0.848006 0.564453
Si Si8 0.258206 0.659891 0.066121
O O1 0.613519 0.340444 0.750000
O O2 0.591578 0.428004 0.004450
O O3 0.679669 0.336161 0.994750
O O4 0.586296 0.250000 0.000000
O O5 0.234504 0.048021 0.750000
O O6 0.292784 0.093646 0.504403
O O7 0.182754 0.078370 0.483454
O O8 0.237070 0.936372 0.504799
O O9 0.883668 0.962842 0.750000
O O10 0.874820 0.076742 0.511775
O O11 0.922859 0.922858 0.472908
O O12 0.654553 0.651277 0.750000
O O13 0.596183 0.601228 0.993102
O O14 0.655135 0.750000 0.000000
O O15 0.023673 0.338567 0.250000
O O16 0.056562 0.250000 0.000000
O O17 0.977182 0.370426 0.980776
O O18 0.557593 0.515615 0.750000
O O19 0.500000 0.500000 0.000000
O O20 0.102998 0.750000 0.500000
O O21 0.093122 0.849835 0.750000
O O22 0.253165 0.662795 0.250000
O O23 0.227111 0.750000 0.000000
#
# Coordination Sequence:
#
# PCOD8234059 Si02
#       8
#     8   8   8   8   8   8   8   8
#     4   9  17  32  54  80 109 142 179 222 277 338
#     4  10  21  40  61  82 114 158 200 246 303 360
#     4  12  25  40  59  89 125 162 207 257 306 365
#     4  10  22  42  65  86 116 157 202 247 298 354
#     4  11  22  40  64  91 122 160 205 256 312 369
#     4  10  21  38  59  85 118 154 191 237 292 350
#     4  11  22  40  64  92 125 164 206 253 310 370
#     4   9  17  32  56  81 107 141 181 226 282 346
#
# _framework density 20.846778
#
# number of rings (size 3 to 8) (size 9 to 14) (size 15 to 20)
#    0.000    1.750    1.250    4.500    0.000    3.500 
#    0.000    5.000    0.000    0.000    0.000    0.000 
#    0.000    0.000    0.000    0.000    0.000    0.000 
#
# Total GULP energy -793228.966959 kJ/mol
# GULP energy per Si atom -12394.202609 kJ/mol
# Density = 2.079933 g / cm^3
# Si number density = 20.846778 Si / 1000 Ang^3
#
#
#
# Elastic Constant Matrix: (Units=GPa)
#
#
# Indices 1 2 3 4 5 6 
#
# 1 118.6846 49.6183 20.4070 0.0000 0.0000 0.0000
# 2 49.6183 119.5008 12.9602 0.0000 0.0000 0.0000
# 3 20.4070 12.9602 49.9255 0.0000 0.0000 0.0000
# 4 0.0000 0.0000 0.0000 37.1053 0.0000 0.0000
# 5 0.0000 0.0000 0.0000 0.0000 28.7695 0.0000
# 6 0.0000 0.0000 0.0000 0.0000 0.0000 11.1984
#
#
#
# Elastic Compliance Matrix: (Units=1/GPa)
#
#
# Indices 1 2 3 4 5 6 
#
# 1 0.010703 -0.004085 -0.003315 0.000000 0.000000 0.000000
# 2 -0.004085 0.010169 -0.000970 0.000000 0.000000 0.000000
# 3 -0.003315 -0.000970 0.021637 0.000000 0.000000 0.000000
# 4 0.000000 0.000000 0.000000 0.026950 0.000000 0.000000
# 5 0.000000 0.000000 0.000000 0.000000 0.034759 0.000000
# 6 0.000000 0.000000 0.000000 0.000000 0.000000 0.089298
#
#
# Mechanical properties :
#
#
# Convention : Reuss Voigt Hill
#
# Bulk Modulus (GPa) = 38.80464 50.45355 44.62909
# Shear Modulus (GPa) = 22.84711 29.08966 25.96839
#
# Velocity S-wave (km/s) = 3.31411 3.73956 3.53325
# Velocity P-wave (km/s) = 5.77053 6.54984 6.17250
#
# Compressibility (1/GPa) = 0.02577012
#
# Stress axis : x y z
#
# Youngs Moduli (GPa) = 93.42916 98.33442 46.21803
#
# Poissons Ratio (x) = 0.40166 0.15320
# Poissons Ratio (y) = 0.38163 0.04484
# Poissons Ratio (z) = 0.30968 0.09541
#
# Static dielectric constant tensor:
#      x y z
#    x 3.911170 0.000000 0.000000 
#    y 0.000000 3.371560 0.000000 
#    z 0.000000 0.000000 3.541360 
# 
# 
# High freq. dielectric constant tensor:
#      x y z
#    x 1.817230 0.000000 0.000000 
#    y 0.000000 1.826430 0.000000 
#    z 0.000000 0.000000 1.803650 
# 
# From -- ./inp_files/9287.got.cif
#   From: 2010.03.12/outbox.cif.g09.slc.cpg/sg57_5_cif.got.tgz:9287.got - 2010.04.16 15:48:40.
