data_PCOD8234688
_publ_section_title
;
Structure prediction by ZEFSAII (Michael W. Deem and Ramdas Pophale) SiO2 
 PCOD8234688
Probable space group: P B C M
;
_chemical_formula_sum "Si O2"
_cell_formula_units_Z 32
_cell_length_a 11.352635
_cell_length_b 13.541704
_cell_length_c 9.254216
_cell_angle_alpha 90.000000
_cell_angle_beta 90.000000
_cell_angle_gamma 90.000000
_cell_volume 1422.687853
_symmetry_space_group_name_H-M "P B C M"
_symmetry_group_IT_number 57
_symmetry_cell_setting 'orthorhombic'
loop_
_space_group_symop_operation_xyz
x,y,z
-x,-y,1/2+z
x,1/2-y,-z
-x,1/2+y,1/2-z
-x,-y,-z
x,y,1/2-z
-x,1/2+y,z
x,1/2-y,1/2+z
loop_
_atom_site_type_symbol
_atom_site_label
_atom_site_fract_x
_atom_site_fract_y
_atom_site_fract_z
Si Si1 0.132844 0.250000 0.000000
Si Si2 0.298754 0.991087 0.250000
Si Si3 0.533663 0.832639 0.750000
Si Si4 0.806017 0.041120 0.250000
Si Si5 0.664448 0.139508 0.023156
Si Si6 0.286283 0.166855 0.750000
Si Si7 0.939618 0.896249 0.750000
O O1 0.216509 0.310789 0.104449
O O2 0.060589 0.173184 0.104266
O O3 0.346762 0.926744 0.381995
O O4 0.352144 0.100025 0.250000
O O5 0.161172 0.019099 0.250000
O O6 0.459397 0.857561 0.607718
O O7 0.584434 0.719431 0.750000
O O8 0.776035 0.100921 0.108316
O O9 0.947144 0.030622 0.250000
O O10 0.712592 0.950721 0.250000
O O11 0.704536 0.250000 0.000000
#
# Coordination Sequence:
#
# PCOD8234688 Si02
#       7
#     4   4   4   4   8   4   4
#     4  10  22  44  70 106 142 188 226 298 356 418
#     4  12  23  47  75 107 140 186 241 293 357 430
#     4  11  25  45  71 103 141 187 240 296 362 424
#     4  11  27  47  68 106 144 188 240 298 362 425
#     4  11  27  46  66 101 145 191 235 294 358 426
#     4  11  24  44  72 105 143 177 240 297 354 423
#     4  11  25  45  74 109 144 188 239 294 359 430
#
# _framework density 22.492636000000001
#
# number of rings (size 3 to 8) (size 9 to 14) (size 15 to 20)
#    0.000    1.000    2.500    3.750    3.500    8.000 
#    4.500    0.000    0.000    0.000    0.000    0.000 
#    0.000    0.000    0.000    0.000    0.000    0.000 
#
# Total GULP energy -396437.170116 kJ/mol
# GULP energy per Si atom -12388.661566 kJ/mol
# Density = 2.244144 g / cm^3
# Si number density = 22.492636 Si / 1000 Ang^3
#
#
#
# Elastic Constant Matrix: (Units=GPa)
#
#
# Indices 1 2 3 4 5 6 
#
# 1 147.6294 56.1011 46.0509 0.0000 0.0000 0.0000
# 2 56.1011 137.3365 48.0786 0.0000 0.0000 0.0000
# 3 46.0509 48.0786 159.0224 0.0000 0.0000 0.0000
# 4 0.0000 0.0000 0.0000 26.5653 0.0000 0.0000
# 5 0.0000 0.0000 0.0000 0.0000 20.2308 0.0000
# 6 0.0000 0.0000 0.0000 0.0000 0.0000 43.1565
#
#
#
# Elastic Compliance Matrix: (Units=1/GPa)
#
#
# Indices 1 2 3 4 5 6 
#
# 1 0.008347 -0.002867 -0.001550 0.000000 0.000000 0.000000
# 2 -0.002867 0.009128 -0.001930 0.000000 0.000000 0.000000
# 3 -0.001550 -0.001930 0.007321 0.000000 0.000000 0.000000
# 4 0.000000 0.000000 0.000000 0.037643 0.000000 0.000000
# 5 0.000000 0.000000 0.000000 0.000000 0.049430 0.000000
# 6 0.000000 0.000000 0.000000 0.000000 0.000000 0.023171
#
#
# Mechanical properties :
#
#
# Convention : Reuss Voigt Hill
#
# Bulk Modulus (GPa) = 82.63091 82.71658 82.67375
# Shear Modulus (GPa) = 32.94521 37.57437 35.25979
#
# Velocity S-wave (km/s) = 3.83131 4.09163 3.96361
# Velocity P-wave (km/s) = 7.50923 7.69264 7.60149
#
# Compressibility (1/GPa) = 0.01210201
#
# Stress axis : x y z
#
# Youngs Moduli (GPa) = 119.80675 109.55348 136.59787
#
# Poissons Ratio (x) = 0.31407 0.21178
# Poissons Ratio (y) = 0.34347 0.26357
# Poissons Ratio (z) = 0.18574 0.21139
#
# Static dielectric constant tensor:
#      x y z
#    x 3.817230 0.000000 0.000000 
#    y 0.000000 4.248210 0.000000 
#    z 0.000000 0.000000 5.382500 
# 
# 
# High freq. dielectric constant tensor:
#      x y z
#    x 1.876450 0.000000 0.000000 
#    y 0.000000 1.897290 0.000000 
#    z 0.000000 0.000000 1.908590 
# 
# From -- ./inp_files/2475.got.cif
#   From: 2010.03.12/outbox.cif.g09.slc.cpg/sg57_2_cif.got.tgz:2475.got - 2010.04.16 15:48:40.
