data_PCOD8234139
_publ_section_title
;
Structure prediction by ZEFSAII (Michael W. Deem and Ramdas Pophale) SiO2 
 PCOD8234139
Probable space group: P B C M
;
_chemical_formula_sum "Si O2"
_cell_formula_units_Z 48
_cell_length_a 9.519985
_cell_length_b 30.259221
_cell_length_c 9.005170
_cell_angle_alpha 90.000000
_cell_angle_beta 90.000000
_cell_angle_gamma 90.000000
_cell_volume 2594.095278
_symmetry_space_group_name_H-M "P B C M"
_symmetry_group_IT_number 57
_symmetry_cell_setting 'orthorhombic'
loop_
_space_group_symop_operation_xyz
x,y,z
-x,-y,1/2+z
x,1/2-y,-z
-x,1/2+y,1/2-z
-x,-y,-z
x,y,1/2-z
-x,1/2+y,z
x,1/2-y,1/2+z
loop_
_atom_site_type_symbol
_atom_site_label
_atom_site_fract_x
_atom_site_fract_y
_atom_site_fract_z
Si Si1 0.911714 0.854412 0.579653
Si Si2 0.304911 0.429874 0.580655
Si Si3 0.793667 0.107424 0.424916
Si Si4 0.858746 0.483967 0.076301
Si Si5 0.515929 0.127794 0.577131
Si Si6 0.701875 0.704452 0.577386
O O1 0.895542 0.840153 0.750000
O O2 0.831943 0.900230 0.547250
O O3 0.849306 0.814778 0.481764
O O4 0.073416 0.861864 0.536082
O O5 0.354723 0.423176 0.750000
O O6 0.263819 0.480278 0.548624
O O7 0.432599 0.416124 0.473813
O O8 0.784244 0.098581 0.250000
O O9 0.803120 0.060966 0.507322
O O10 0.658091 0.133335 0.484049
O O11 0.889346 0.477844 0.250000
O O12 0.000000 0.500000 0.000000
O O13 0.551378 0.123349 0.750000
O O14 0.422858 0.170555 0.540604
O O15 0.662304 0.750000 0.500000
O O16 0.718890 0.713048 0.750000
#
# Coordination Sequence:
#
# PCOD8234139 Si02
#       6
#     8   8   8   8   8   8
#     4   9  18  35  57  81 110 142 183 226 272 327
#     4   9  18  35  55  77 107 148 192 232 274 325
#     4  11  22  37  56  82 114 152 189 229 283 332
#     4  11  21  34  54  81 113 150 195 240 281 326
#     4  10  22  38  56  83 113 147 188 231 280 334
#     4  10  21  38  62  88 111 139 180 224 276 337
#
# _framework density 18.50356
#
# number of rings (size 3 to 8) (size 9 to 14) (size 15 to 20)
#    0.000    2.000    1.667    2.000    0.000    5.333 
#    0.000    0.833    0.000    2.000    0.000    0.000 
#    0.000    0.000    0.000    0.000    0.000    0.000 
#
# Total GULP energy -595391.426211 kJ/mol
# GULP energy per Si atom -12403.988046 kJ/mol
# Density = 1.846145 g / cm^3
# Si number density = 18.503560 Si / 1000 Ang^3
#
#
#
# Elastic Constant Matrix: (Units=GPa)
#
#
# Indices 1 2 3 4 5 6 
#
# 1 121.2575 40.9316 57.9226 0.0000 0.0000 0.0000
# 2 40.9316 94.7270 55.9649 0.0000 0.0000 0.0000
# 3 57.9226 55.9649 103.4458 0.0000 0.0000 0.0000
# 4 0.0000 0.0000 0.0000 33.6792 0.0000 0.0000
# 5 0.0000 0.0000 0.0000 0.0000 35.2855 0.0000
# 6 0.0000 0.0000 0.0000 0.0000 0.0000 16.6032
#
#
#
# Elastic Compliance Matrix: (Units=1/GPa)
#
#
# Indices 1 2 3 4 5 6 
#
# 1 0.011442 -0.001703 -0.005485 0.000000 0.000000 0.000000
# 2 -0.001703 0.015770 -0.007578 0.000000 0.000000 0.000000
# 3 -0.005485 -0.007578 0.016838 0.000000 0.000000 0.000000
# 4 0.000000 0.000000 0.000000 0.029692 0.000000 0.000000
# 5 0.000000 0.000000 0.000000 0.000000 0.028340 0.000000
# 6 0.000000 0.000000 0.000000 0.000000 0.000000 0.060229
#
#
# Mechanical properties :
#
#
# Convention : Reuss Voigt Hill
#
# Bulk Modulus (GPa) = 68.88536 69.89651 69.39093
# Shear Modulus (GPa) = 25.42167 28.08766 26.75467
#
# Velocity S-wave (km/s) = 3.71061 3.90033 3.80665
# Velocity P-wave (km/s) = 7.46104 7.62496 7.54345
#
# Compressibility (1/GPa) = 0.01451687
#
# Stress axis : x y z
#
# Youngs Moduli (GPa) = 87.39634 63.41306 59.39021
#
# Poissons Ratio (x) = 0.10802 0.32577
# Poissons Ratio (y) = 0.14888 0.45004
# Poissons Ratio (z) = 0.47939 0.48052
#
# Static dielectric constant tensor:
#      x y z
#    x 3.468420 0.000000 0.000000 
#    y 0.000000 3.328660 0.000000 
#    z 0.000000 0.000000 3.500680 
# 
# 
# High freq. dielectric constant tensor:
#      x y z
#    x 1.717020 0.000000 0.000000 
#    y 0.000000 1.704810 0.000000 
#    z 0.000000 0.000000 1.728530 
# 
# From -- ./inp_files/2043.got.cif
#   From: 2010.03.12/outbox.cif.g09.slc.cpg/sg57_2_cif.got.tgz:2043.got - 2010.04.16 15:48:40.
