data_PCOD8234695
_publ_section_title
;
Structure prediction by ZEFSAII (Michael W. Deem and Ramdas Pophale) SiO2 
 PCOD8234695
Probable space group: P B C M
;
_chemical_formula_sum "Si O2"
_cell_formula_units_Z 48
_cell_length_a 10.904290
_cell_length_b 10.258234
_cell_length_c 20.415187
_cell_angle_alpha 90.000000
_cell_angle_beta 90.000000
_cell_angle_gamma 90.000000
_cell_volume 2283.617471
_symmetry_space_group_name_H-M "P B C M"
_symmetry_group_IT_number 57
_symmetry_cell_setting 'orthorhombic'
loop_
_space_group_symop_operation_xyz
x,y,z
-x,-y,1/2+z
x,1/2-y,-z
-x,1/2+y,1/2-z
-x,-y,-z
x,y,1/2-z
-x,1/2+y,z
x,1/2-y,1/2+z
loop_
_atom_site_type_symbol
_atom_site_label
_atom_site_fract_x
_atom_site_fract_y
_atom_site_fract_z
Si Si1 0.731437 0.743776 0.175492
Si Si2 0.228762 0.970401 0.364356
Si Si3 0.113522 0.599633 0.500488
Si Si4 0.262873 0.521886 0.125565
Si Si5 0.923932 0.139223 0.750000
Si Si6 0.882993 0.417562 0.750000
Si Si7 0.476932 0.059460 0.324658
O O1 0.768348 0.779087 0.250000
O O2 0.811959 0.621583 0.148890
O O3 0.756337 0.866071 0.128949
O O4 0.586974 0.702720 0.173430
O O5 0.197334 0.926519 0.436879
O O6 0.156077 0.880390 0.314484
O O7 0.374733 0.955783 0.350765
O O8 0.067114 0.750000 0.500000
O O9 0.202444 0.575577 0.439666
O O10 0.000000 0.500000 0.500000
O O11 0.201471 0.592386 0.186595
O O12 0.407125 0.555746 0.127286
O O13 0.969540 0.289252 0.750000
O O14 0.041895 0.049731 0.750000
O O15 0.515248 0.022734 0.250000
#
# Coordination Sequence:
#
# PCOD8234695 Si02
#       7
#     8   8   8   8   4   4   8
#     4   9  19  39  72 105 137 180 220 291 346 423
#     4  10  22  45  71  99 137 186 224 284 358 410
#     4  12  30  50  71  99 142 192 241 294 344 419
#     4  12  24  43  69 107 140 180 239 289 348 420
#     4  12  24  43  68  96 133 182 236 293 347 408
#     4  12  28  37  68  98 131 182 236 299 343 406
#     4   9  19  41  70 110 140 181 215 292 351 424
#
# _framework density 21.019282
#
# number of rings (size 3 to 8) (size 9 to 14) (size 15 to 20)
#    1.000    0.333    3.333    2.000    4.667    3.333 
#    0.000    0.000    0.000    0.000    0.000    0.000 
#    0.000    0.000    0.000    0.000    0.000    0.000 
#
# Total GULP energy -594977.731531 kJ/mol
# GULP energy per Si atom -12395.369407 kJ/mol
# Density = 2.097144 g / cm^3
# Si number density = 21.019282 Si / 1000 Ang^3
#
#
#
# Elastic Constant Matrix: (Units=GPa)
#
#
# Indices 1 2 3 4 5 6 
#
# 1 102.9646 21.7648 46.4386 0.0000 0.0000 0.0000
# 2 21.7648 130.8895 24.6942 0.0000 0.0000 0.0000
# 3 46.4386 24.6942 152.0765 0.0000 0.0000 0.0000
# 4 0.0000 0.0000 0.0000 51.0916 0.0000 0.0000
# 5 0.0000 0.0000 0.0000 0.0000 25.6213 0.0000
# 6 0.0000 0.0000 0.0000 0.0000 0.0000 29.8288
#
#
#
# Elastic Compliance Matrix: (Units=1/GPa)
#
#
# Indices 1 2 3 4 5 6 
#
# 1 0.011469 -0.001286 -0.003294 0.000000 0.000000 0.000000
# 2 -0.001286 0.008026 -0.000911 0.000000 0.000000 0.000000
# 3 -0.003294 -0.000911 0.007729 0.000000 0.000000 0.000000
# 4 0.000000 0.000000 0.000000 0.019573 0.000000 0.000000
# 5 0.000000 0.000000 0.000000 0.000000 0.039030 0.000000
# 6 0.000000 0.000000 0.000000 0.000000 0.000000 0.033525
#
#
# Mechanical properties :
#
#
# Convention : Reuss Voigt Hill
#
# Bulk Modulus (GPa) = 61.55972 63.52509 62.54241
# Shear Modulus (GPa) = 36.83348 40.84388 38.83868
#
# Velocity S-wave (km/s) = 4.19067 4.41291 4.30323
# Velocity P-wave (km/s) = 7.26405 7.50020 7.38307
#
# Compressibility (1/GPa) = 0.01624439
#
# Stress axis : x y z
#
# Youngs Moduli (GPa) = 87.18939 124.60084 129.37931
#
# Poissons Ratio (x) = 0.16021 0.42611
# Poissons Ratio (y) = 0.11211 0.11781
# Poissons Ratio (z) = 0.28716 0.11346
#
# Static dielectric constant tensor:
#      x y z
#    x 3.676940 0.000000 0.000000 
#    y 0.000000 3.890970 0.000000 
#    z 0.000000 0.000000 3.554570 
# 
# 
# High freq. dielectric constant tensor:
#      x y z
#    x 1.821010 0.000000 0.000000 
#    y 0.000000 1.831670 0.000000 
#    z 0.000000 0.000000 1.810290 
# 
# From -- ./inp_files/21862.got.cif
#   From: 2010.03.12/outbox.cif.g09.slc.cpg/sg57_11_cif.got.tgz:21862.got - 2010.04.16 15:48:40.
