data_PCOD8234942
_publ_section_title
;
Structure prediction by ZEFSAII (Michael W. Deem and Ramdas Pophale) SiO2 
 PCOD8234942
Probable space group: P B C M
;
_chemical_formula_sum "Si O2"
_cell_formula_units_Z 48
_cell_length_a 10.891680
_cell_length_b 12.497502
_cell_length_c 18.356713
_cell_angle_alpha 90.000000
_cell_angle_beta 90.000000
_cell_angle_gamma 90.000000
_cell_volume 2498.693609
_symmetry_space_group_name_H-M "P B C M"
_symmetry_group_IT_number 57
_symmetry_cell_setting 'orthorhombic'
loop_
_space_group_symop_operation_xyz
x,y,z
-x,-y,1/2+z
x,1/2-y,-z
-x,1/2+y,1/2-z
-x,-y,-z
x,y,1/2-z
-x,1/2+y,z
x,1/2-y,1/2+z
loop_
_atom_site_type_symbol
_atom_site_label
_atom_site_fract_x
_atom_site_fract_y
_atom_site_fract_z
Si Si1 0.755224 0.469009 0.077352
Si Si2 0.288398 0.567411 0.089489
Si Si3 0.114959 0.756733 0.413893
Si Si4 0.488144 0.996748 0.332813
Si Si5 0.291618 0.361302 0.167749
Si Si6 0.848047 0.701895 0.420594
O O1 0.839479 0.374113 0.109618
O O2 0.642860 0.485246 0.131223
O O3 0.838728 0.574287 0.075077
O O4 0.704347 0.439318 0.997774
O O5 0.208792 0.668029 0.116339
O O6 0.426874 0.580991 0.121733
O O7 0.227201 0.459154 0.122895
O O8 0.107083 0.750000 0.500000
O O9 0.978209 0.734025 0.384069
O O10 0.472230 0.038093 0.250000
O O11 0.560679 0.882183 0.333825
O O12 0.241557 0.361580 0.250000
O O13 0.260044 0.248581 0.130340
O O14 0.830534 0.750000 0.500000
#
# Coordination Sequence:
#
# PCOD8234942 Si02
#       6
#     8   8   8   8   8   8
#     4  11  21  35  59  93 114 145 201 244 280 344
#     4   9  18  38  61  84 115 153 192 233 289 345
#     4   9  22  35  59  90 118 150 190 242 287 336
#     4   9  20  38  59  83 117 153 191 240 292 343
#     4   9  20  38  59  83 115 155 191 228 289 348
#     4  11  21  36  61  86 117 155 190 239 291 341
#
# _framework density 19.210038999999998
#
# number of rings (size 3 to 8) (size 9 to 14) (size 15 to 20)
#    1.000    1.333    1.667    0.500    2.333    4.000 
#    0.000    9.167    0.000    0.000    0.000    0.000 
#    0.000    0.000    0.000    0.000    0.000    0.000 
#
# Total GULP energy -594891.560459 kJ/mol
# GULP energy per Si atom -12393.574176 kJ/mol
# Density = 1.916632 g / cm^3
# Si number density = 19.210039 Si / 1000 Ang^3
#
#
#
# Elastic Constant Matrix: (Units=GPa)
#
#
# Indices 1 2 3 4 5 6 
#
# 1 110.6044 41.2721 38.7834 0.0000 0.0000 0.0000
# 2 41.2721 118.3168 23.4031 0.0000 0.0000 0.0000
# 3 38.7834 23.4031 84.8755 0.0000 0.0000 0.0000
# 4 0.0000 0.0000 0.0000 18.6599 0.0000 0.0000
# 5 0.0000 0.0000 0.0000 0.0000 10.5161 0.0000
# 6 0.0000 0.0000 0.0000 0.0000 0.0000 24.0778
#
#
#
# Elastic Compliance Matrix: (Units=1/GPa)
#
#
# Indices 1 2 3 4 5 6 
#
# 1 0.011831 -0.003234 -0.004514 0.000000 0.000000 0.000000
# 2 -0.003234 0.009823 -0.001231 0.000000 0.000000 0.000000
# 3 -0.004514 -0.001231 0.014184 0.000000 0.000000 0.000000
# 4 0.000000 0.000000 0.000000 0.053591 0.000000 0.000000
# 5 0.000000 0.000000 0.000000 0.000000 0.095092 0.000000
# 6 0.000000 0.000000 0.000000 0.000000 0.000000 0.041532
#
#
# Mechanical properties :
#
#
# Convention : Reuss Voigt Hill
#
# Bulk Modulus (GPa) = 55.92825 57.85709 56.89267
# Shear Modulus (GPa) = 20.00222 24.67331 22.33777
#
# Velocity S-wave (km/s) = 3.23032 3.58774 3.41371
# Velocity P-wave (km/s) = 6.56434 6.88084 6.72446
#
# Compressibility (1/GPa) = 0.01788005
#
# Stress axis : x y z
#
# Youngs Moduli (GPa) = 84.52397 101.79703 70.50107
#
# Poissons Ratio (x) = 0.32921 0.31827
# Poissons Ratio (y) = 0.27335 0.08678
# Poissons Ratio (z) = 0.38157 0.12530
#
# Static dielectric constant tensor:
#      x y z
#    x 3.429650 0.000000 0.000000 
#    y 0.000000 3.503990 0.000000 
#    z 0.000000 0.000000 3.314280 
# 
# 
# High freq. dielectric constant tensor:
#      x y z
#    x 1.737400 0.000000 0.000000 
#    y 0.000000 1.740530 0.000000 
#    z 0.000000 0.000000 1.733340 
# 
# From -- ./inp_files/24946.got.cif
#   From: 2010.03.12/outbox.cif.g09.slc.cpg/sg57_13_cif.got.tgz:24946.got - 2010.04.16 15:48:40.
