data_PCOD8234010
_publ_section_title
;
Structure prediction by ZEFSAII (Michael W. Deem and Ramdas Pophale) SiO2 
 PCOD8234010
Probable space group: P B C M
;
_chemical_formula_sum "Si O2"
_cell_formula_units_Z 64
_cell_length_a 23.776529
_cell_length_b 15.397669
_cell_length_c 8.648403
_cell_angle_alpha 90.000000
_cell_angle_beta 90.000000
_cell_angle_gamma 90.000000
_cell_volume 3166.207352
_symmetry_space_group_name_H-M "P B C M"
_symmetry_group_IT_number 57
_symmetry_cell_setting 'orthorhombic'
loop_
_space_group_symop_operation_xyz
x,y,z
-x,-y,1/2+z
x,1/2-y,-z
-x,1/2+y,1/2-z
-x,-y,-z
x,y,1/2-z
-x,1/2+y,z
x,1/2-y,1/2+z
loop_
_atom_site_type_symbol
_atom_site_label
_atom_site_fract_x
_atom_site_fract_y
_atom_site_fract_z
Si Si1 0.371909 0.158224 0.070780
Si Si2 0.252772 0.418782 0.927061
Si Si3 0.866831 0.657019 0.431427
Si Si4 0.370407 0.659913 0.931683
Si Si5 0.742613 0.102621 0.069448
Si Si6 0.438259 0.999730 0.567756
Si Si7 0.938178 0.997544 0.433314
Si Si8 0.865452 0.159095 0.432495
O O1 0.388792 0.154696 0.250000
O O2 0.305534 0.144051 0.046991
O O3 0.389233 0.250000 0.000000
O O4 0.406494 0.086376 0.980176
O O5 0.250244 0.452279 0.750000
O O6 0.197572 0.364982 0.972139
O O7 0.258494 0.499972 0.040446
O O8 0.882271 0.750000 0.500000
O O9 0.878042 0.657168 0.250000
O O10 0.907492 0.588249 0.509864
O O11 0.379691 0.658162 0.750000
O O12 0.393719 0.750000 0.000000
O O13 0.304613 0.650860 0.970320
O O14 0.404583 0.582330 0.006326
O O15 0.731509 0.119493 0.250000
O O16 0.801866 0.141137 0.012653
O O17 0.441656 0.994020 0.750000
O O18 0.500000 0.000000 0.500000
O O19 0.940250 0.997104 0.250000
O O20 0.904827 0.081957 0.495912
O O21 0.000000 0.000000 0.500000
O O22 0.887276 0.250000 0.500000
O O23 0.868819 0.163052 0.250000
#
# Coordination Sequence:
#
# PCOD8234010 Si02
#       8
#     8   8   8   8   8   8   8   8
#     4  11  23  41  65  97 132 170 212 260 312 375
#     4  10  21  37  62  94 130 168 208 254 313 376
#     4  11  23  40  64  95 127 168 210 258 316 375
#     4  12  25  43  66  97 132 169 212 261 315 379
#     4  11  21  37  63  95 129 168 206 254 316 377
#     4  12  26  46  69  95 126 168 215 267 320 375
#     4  11  24  44  64  89 122 163 212 267 317 374
#     4  10  23  40  62  92 125 161 204 253 310 372
#
# _framework density 20.213457999999999
#
# number of rings (size 3 to 8) (size 9 to 14) (size 15 to 20)
#    0.000    1.000    2.500    4.500    0.000    5.000 
#    0.000    3.750    0.000    0.000    0.000    0.000 
#    0.000    0.000    0.000    0.000    0.000    0.000 
#
# Total GULP energy -794032.701362 kJ/mol
# GULP energy per Si atom -12406.760959 kJ/mol
# Density = 2.016745 g / cm^3
# Si number density = 20.213458 Si / 1000 Ang^3
#
#
#
# Elastic Constant Matrix: (Units=GPa)
#
#
# Indices 1 2 3 4 5 6 
#
# 1 141.4572 65.3320 52.4188 0.0000 0.0000 0.0000
# 2 65.3320 175.6512 56.3983 0.0000 0.0000 0.0000
# 3 52.4188 56.3983 121.0667 0.0000 0.0000 0.0000
# 4 0.0000 0.0000 0.0000 40.3404 0.0000 0.0000
# 5 0.0000 0.0000 0.0000 0.0000 -27.0850 0.0000
# 6 0.0000 0.0000 0.0000 0.0000 0.0000 -19.1567
#
#
#
# Elastic Compliance Matrix: (Units=1/GPa)
#
#
# Indices 1 2 3 4 5 6 
#
# 1 0.009298 -0.002546 -0.002839 0.000000 0.000000 0.000000
# 2 -0.002546 0.007392 -0.002341 0.000000 0.000000 0.000000
# 3 -0.002839 -0.002341 0.010580 0.000000 0.000000 0.000000
# 4 0.000000 0.000000 0.000000 0.024789 0.000000 0.000000
# 5 0.000000 0.000000 0.000000 0.000000 -0.036921 0.000000
# 6 0.000000 0.000000 0.000000 0.000000 0.000000 -0.052201
#
#
# Mechanical properties :
#
#
# Convention : Reuss Voigt Hill
#
# Bulk Modulus (GPa) = 84.63294 87.38594 86.00944
# Shear Modulus (GPa) = -282.93659 16.42149 -133.25755
#
# Velocity S-wave (km/s) = -11.84391 2.85336 -8.12824
# Velocity P-wave (km/s) = 12.04480 7.36077 6.74152
#
# Compressibility (1/GPa) = 0.01181573
#
# Stress axis : x y z
#
# Youngs Moduli (GPa) = 107.55568 135.28393 94.52012
#
# Poissons Ratio (x) = 0.34450 0.26837
# Poissons Ratio (y) = 0.27389 0.22126
# Poissons Ratio (z) = 0.30538 0.31669
#
# Static dielectric constant tensor:
#      x y z
#    x 3.781620 0.000000 0.000000 
#    y 0.000000 3.864320 0.000000 
#    z 0.000000 0.000000 3.723650 
# 
# 
# High freq. dielectric constant tensor:
#      x y z
#    x 1.792180 0.000000 0.000000 
#    y 0.000000 1.804070 0.000000 
#    z 0.000000 0.000000 1.798680 
# 
# From -- ./inp_files/9384.got.cif
#   From: 2010.03.12/outbox.cif.g09.slc.cpg/sg57_5_cif.got.tgz:9384.got - 2010.04.16 15:48:40.
