data_PCOD8234144
_publ_section_title
;
Structure prediction by ZEFSAII (Michael W. Deem and Ramdas Pophale) SiO2 
 PCOD8234144
Probable space group: P B C M
;
_chemical_formula_sum "Si O2"
_cell_formula_units_Z 48
_cell_length_a 29.994154
_cell_length_b 9.155811
_cell_length_c 8.659756
_cell_angle_alpha 90.000000
_cell_angle_beta 90.000000
_cell_angle_gamma 90.000000
_cell_volume 2378.149165
_symmetry_space_group_name_H-M "P B C M"
_symmetry_group_IT_number 57
_symmetry_cell_setting 'orthorhombic'
loop_
_space_group_symop_operation_xyz
x,y,z
-x,-y,1/2+z
x,1/2-y,-z
-x,1/2+y,1/2-z
-x,-y,-z
x,y,1/2-z
-x,1/2+y,z
x,1/2-y,1/2+z
loop_
_atom_site_type_symbol
_atom_site_label
_atom_site_fract_x
_atom_site_fract_y
_atom_site_fract_z
Si Si1 0.458930 0.588661 0.933056
Si Si2 0.291868 0.904745 0.570922
Si Si3 0.884380 0.595997 0.068504
Si Si4 0.218475 0.403344 0.930166
Si Si5 0.621404 0.589291 0.930905
Si Si6 0.959700 0.091334 0.432870
O O1 0.462652 0.595969 0.750000
O O2 0.459758 0.750000 0.000000
O O3 0.500000 0.500000 0.000000
O O4 0.413546 0.511044 0.980974
O O5 0.305696 0.750000 0.500000
O O6 0.283849 0.880785 0.750000
O O7 0.246163 0.962583 0.498128
O O8 0.330247 0.022013 0.537379
O O9 0.893681 0.595280 0.250000
O O10 0.832877 0.566836 0.028563
O O11 0.900208 0.750000 0.000000
O O12 0.912184 0.470290 0.986238
O O13 0.226903 0.394140 0.750000
O O14 0.234836 0.250000 0.000000
O O15 0.609708 0.593918 0.750000
O O16 0.619930 0.750000 0.000000
O O17 0.965085 0.250000 0.500000
O O18 0.962318 0.093846 0.250000
O O19 0.000000 0.000000 0.500000
#
# Coordination Sequence:
#
# PCOD8234144 Si02
#       6
#     8   8   8   8   8   8
#     4  12  25  43  66  93 126 163 203 250 301 358
#     4  11  24  40  61  88 122 160 202 250 302 357
#     4  10  21  39  62  90 121 157 198 244 296 353
#     4  10  21  38  62  89 121 158 200 246 296 354
#     4  11  24  42  64  92 123 160 203 250 302 359
#     4  12  25  42  63  88 119 156 197 244 295 353
#
# _framework density 20.183762999999999
#
# number of rings (size 3 to 8) (size 9 to 14) (size 15 to 20)
#    0.000    1.000    0.000    7.000    0.000    8.000 
#    0.000    0.000    0.000    0.000    0.000    0.000 
#    0.000    0.000    0.000    0.000    0.000    0.000 
#
# Total GULP energy -595547.814971 kJ/mol
# GULP energy per Si atom -12407.246145 kJ/mol
# Density = 2.013782 g / cm^3
# Si number density = 20.183763 Si / 1000 Ang^3
#
#
#
# Elastic Constant Matrix: (Units=GPa)
#
#
# Indices 1 2 3 4 5 6 
#
# 1 102.0432 64.8509 67.3389 0.0000 0.0000 0.0000
# 2 64.8509 168.8077 76.6466 0.0000 0.0000 0.0000
# 3 67.3389 76.6466 162.5411 0.0000 0.0000 0.0000
# 4 0.0000 0.0000 0.0000 43.9652 0.0000 0.0000
# 5 0.0000 0.0000 0.0000 0.0000 32.7805 0.0000
# 6 0.0000 0.0000 0.0000 0.0000 0.0000 49.7004
#
#
#
# Elastic Compliance Matrix: (Units=1/GPa)
#
#
# Indices 1 2 3 4 5 6 
#
# 1 0.015177 -0.003786 -0.004502 0.000000 0.000000 0.000000
# 2 -0.003786 0.008482 -0.002431 0.000000 0.000000 0.000000
# 3 -0.004502 -0.002431 0.009164 0.000000 0.000000 0.000000
# 4 0.000000 0.000000 0.000000 0.022745 0.000000 0.000000
# 5 0.000000 0.000000 0.000000 0.000000 0.030506 0.000000
# 6 0.000000 0.000000 0.000000 0.000000 0.000000 0.020121
#
#
# Mechanical properties :
#
#
# Convention : Reuss Voigt Hill
#
# Bulk Modulus (GPa) = 87.84408 94.56277 91.20343
# Shear Modulus (GPa) = 38.04315 40.25959 39.15137
#
# Velocity S-wave (km/s) = 4.34618 4.47100 4.40903
# Velocity P-wave (km/s) = 8.29472 8.57938 8.43825
#
# Compressibility (1/GPa) = 0.01138381
#
# Stress axis : x y z
#
# Youngs Moduli (GPa) = 65.88842 117.89096 109.12291
#
# Poissons Ratio (x) = 0.44638 0.49130
# Poissons Ratio (y) = 0.24948 0.26530
# Poissons Ratio (z) = 0.29665 0.28662
#
# Static dielectric constant tensor:
#      x y z
#    x 3.865800 0.000000 0.000000 
#    y 0.000000 3.752320 0.000000 
#    z 0.000000 0.000000 3.865920 
# 
# 
# High freq. dielectric constant tensor:
#      x y z
#    x 1.802190 0.000000 0.000000 
#    y 0.000000 1.800220 0.000000 
#    z 0.000000 0.000000 1.809680 
# 
# From -- ./inp_files/9948.got.cif
#   From: 2010.03.12/outbox.cif.g09.slc.cpg/sg57_5_cif.got.tgz:9948.got - 2010.04.16 15:48:40.
