data_PCOD8234516
_publ_section_title
;
Structure prediction by ZEFSAII (Michael W. Deem and Ramdas Pophale) SiO2 
 PCOD8234516
Probable space group: P B C M
;
_chemical_formula_sum "Si O2"
_cell_formula_units_Z 56
_cell_length_a 15.142677
_cell_length_b 20.724247
_cell_length_c 8.984833
_cell_angle_alpha 90.000000
_cell_angle_beta 90.000000
_cell_angle_gamma 90.000000
_cell_volume 2819.625489
_symmetry_space_group_name_H-M "P B C M"
_symmetry_group_IT_number 57
_symmetry_cell_setting 'orthorhombic'
loop_
_space_group_symop_operation_xyz
x,y,z
-x,-y,1/2+z
x,1/2-y,-z
-x,1/2+y,1/2-z
-x,-y,-z
x,y,1/2-z
-x,1/2+y,z
x,1/2-y,1/2+z
loop_
_atom_site_type_symbol
_atom_site_label
_atom_site_fract_x
_atom_site_fract_y
_atom_site_fract_z
Si Si1 0.721345 0.511336 0.425036
Si Si2 0.048153 0.315237 0.574571
Si Si3 0.147880 0.691632 0.084536
Si Si4 0.541695 0.186748 0.576393
Si Si5 0.686562 0.115314 0.080389
Si Si6 0.919493 0.540413 0.426283
Si Si7 0.559375 0.944860 0.423327
O O1 0.713557 0.521462 0.250000
O O2 0.673562 0.445269 0.473468
O O3 0.823967 0.512355 0.474904
O O4 0.658342 0.562721 0.507665
O O5 0.090018 0.250000 0.500000
O O6 0.058732 0.306545 0.750000
O O7 0.088535 0.384144 0.524217
O O8 0.947773 0.323379 0.516289
O O9 0.133175 0.716376 0.250000
O O10 0.209073 0.629312 0.077599
O O11 0.195331 0.750000 0.000000
O O12 0.498197 0.250000 0.500000
O O13 0.559227 0.199354 0.750000
O O14 0.633538 0.174770 0.489724
O O15 0.480458 0.125400 0.548561
O O16 0.655541 0.101315 0.250000
O O17 0.935275 0.535780 0.250000
O O18 0.000000 0.500000 0.500000
O O19 0.565634 0.961910 0.250000
O O20 0.500000 0.000000 0.500000
#
# Coordination Sequence:
#
# PCOD8234516 Si02
#       7
#     8   8   8   8   8   8   8
#     4  11  23  38  59  88 119 156 202 251 307 368
#     4   9  18  35  55  77 109 150 197 246 300 357
#     4   9  18  30  47  73 105 144 187 233 289 356
#     4  11  24  40  60  88 121 157 200 250 306 366
#     4  11  21  34  55  82 115 155 196 244 304 367
#     4  10  22  39  60  88 123 160 203 257 310 364
#     4  11  23  41  65  90 119 158 203 248 298 360
#
# _framework density 19.860793999999999
#
# number of rings (size 3 to 8) (size 9 to 14) (size 15 to 20)
#    0.000    1.714    1.429    3.000    0.000    6.857 
#    0.000    3.571    0.000    3.429    0.000    0.000 
#    0.000    0.000    0.000    0.000    0.000    0.000 
#
# Total GULP energy -693952.977680 kJ/mol
# GULP energy per Si atom -12392.017459 kJ/mol
# Density = 1.981559 g / cm^3
# Si number density = 19.860794 Si / 1000 Ang^3
#
#
#
# Elastic Constant Matrix: (Units=GPa)
#
#
# Indices 1 2 3 4 5 6 
#
# 1 99.2287 36.0367 49.3600 0.0000 0.0000 0.0000
# 2 36.0367 126.8990 53.7877 0.0000 0.0000 0.0000
# 3 49.3600 53.7877 98.1233 0.0000 0.0000 0.0000
# 4 0.0000 0.0000 0.0000 35.0079 0.0000 0.0000
# 5 0.0000 0.0000 0.0000 0.0000 29.1196 0.0000
# 6 0.0000 0.0000 0.0000 0.0000 0.0000 26.6972
#
#
#
# Elastic Compliance Matrix: (Units=1/GPa)
#
#
# Indices 1 2 3 4 5 6 
#
# 1 0.013592 -0.001253 -0.006151 0.000000 0.000000 0.000000
# 2 -0.001253 0.010381 -0.005060 0.000000 0.000000 0.000000
# 3 -0.006151 -0.005060 0.016059 0.000000 0.000000 0.000000
# 4 0.000000 0.000000 0.000000 0.028565 0.000000 0.000000
# 5 0.000000 0.000000 0.000000 0.000000 0.034341 0.000000
# 6 0.000000 0.000000 0.000000 0.000000 0.000000 0.037457
#
#
# Mechanical properties :
#
#
# Convention : Reuss Voigt Hill
#
# Bulk Modulus (GPa) = 66.20415 66.95776 66.58095
# Shear Modulus (GPa) = 29.34994 30.50270 29.92632
#
# Velocity S-wave (km/s) = 3.84836 3.92321 3.88597
# Velocity P-wave (km/s) = 7.29061 7.36945 7.33014
#
# Compressibility (1/GPa) = 0.01510479
#
# Stress axis : x y z
#
# Youngs Moduli (GPa) = 73.57094 96.33077 62.26994
#
# Poissons Ratio (x) = 0.12069 0.38300
# Poissons Ratio (y) = 0.09218 0.31510
# Poissons Ratio (z) = 0.45251 0.48745
#
# Static dielectric constant tensor:
#      x y z
#    x 3.696310 0.000000 0.000000 
#    y 0.000000 3.760080 0.000000 
#    z 0.000000 0.000000 3.613190 
# 
# 
# High freq. dielectric constant tensor:
#      x y z
#    x 1.763400 0.000000 0.000000 
#    y 0.000000 1.776290 0.000000 
#    z 0.000000 0.000000 1.776170 
# 
# From -- ./inp_files/5271.got.cif
#   From: 2010.03.12/outbox.cif.g09.slc.cpg/sg57_3_cif.got.tgz:5271.got - 2010.04.16 15:48:40.
