data_PCOD8234920
_publ_section_title
;
Structure prediction by ZEFSAII (Michael W. Deem and Ramdas Pophale) SiO2 
 PCOD8234920
Probable space group: P B C M
;
_chemical_formula_sum "Si O2"
_cell_formula_units_Z 48
_cell_length_a 16.251498
_cell_length_b 18.341802
_cell_length_c 8.799505
_cell_angle_alpha 90.000000
_cell_angle_beta 90.000000
_cell_angle_gamma 90.000000
_cell_volume 2622.971925
_symmetry_space_group_name_H-M "P B C M"
_symmetry_group_IT_number 57
_symmetry_cell_setting 'orthorhombic'
loop_
_space_group_symop_operation_xyz
x,y,z
-x,-y,1/2+z
x,1/2-y,-z
-x,1/2+y,1/2-z
-x,-y,-z
x,y,1/2-z
-x,1/2+y,z
x,1/2-y,1/2+z
loop_
_atom_site_type_symbol
_atom_site_label
_atom_site_fract_x
_atom_site_fract_y
_atom_site_fract_z
Si Si1 0.654591 0.827109 0.070953
Si Si2 0.665823 0.101168 0.575474
Si Si3 0.166365 0.673515 0.570471
Si Si4 0.916794 0.471641 0.429229
Si Si5 0.516927 0.172681 0.070697
Si Si6 0.752239 0.549679 0.075612
O O1 0.644280 0.818422 0.250000
O O2 0.680301 0.750000 0.000000
O O3 0.568899 0.854848 0.999311
O O4 0.725511 0.884736 0.032973
O O5 0.643232 0.118238 0.750000
O O6 0.740925 0.152694 0.521314
O O7 0.587571 0.114951 0.469095
O O8 0.689930 0.017291 0.555438
O O9 0.138908 0.750000 0.500000
O O10 0.161728 0.679297 0.750000
O O11 0.104264 0.610194 0.512718
O O12 0.925658 0.470339 0.250000
O O13 0.843275 0.525894 0.476284
O O14 0.000000 0.500000 0.500000
O O15 0.506960 0.180100 0.250000
O O16 0.542462 0.250000 0.000000
O O17 0.752078 0.576142 0.250000
#
# Coordination Sequence:
#
# PCOD8234920 Si02
#       6
#     8   8   8   8   8   8
#     4  11  22  37  56  76 101 135 177 220 261 307
#     4   9  18  33  52  75 105 138 172 212 256 304
#     4   9  18  32  51  77 107 138 170 207 253 303
#     4   9  19  36  57  80 107 137 170 210 257 308
#     4  11  21  33  50  73 104 140 178 217 258 304
#     4   9  19  37  57  77 104 136 170 212 262 310
#
# _framework density 18.299852000000001
#
# number of rings (size 3 to 8) (size 9 to 14) (size 15 to 20)
#    0.000    2.333    0.000    6.500    0.000    4.667 
#    0.000    4.167    0.000    2.000    0.000    0.000 
#    0.000    0.000    0.000    0.000    0.000    0.000 
#
# Total GULP energy -595244.065267 kJ/mol
# GULP energy per Si atom -12400.918026 kJ/mol
# Density = 1.825820 g / cm^3
# Si number density = 18.299852 Si / 1000 Ang^3
#
#
#
# Elastic Constant Matrix: (Units=GPa)
#
#
# Indices 1 2 3 4 5 6 
#
# 1 120.1435 75.9607 50.7474 0.0000 0.0000 0.0000
# 2 75.9607 110.3457 48.7921 0.0000 0.0000 0.0000
# 3 50.7474 48.7921 101.6109 0.0000 0.0000 0.0000
# 4 0.0000 0.0000 0.0000 31.5420 0.0000 0.0000
# 5 0.0000 0.0000 0.0000 0.0000 30.7533 0.0000
# 6 0.0000 0.0000 0.0000 0.0000 0.0000 25.7626
#
#
#
# Elastic Compliance Matrix: (Units=1/GPa)
#
#
# Indices 1 2 3 4 5 6 
#
# 1 0.015583 -0.009250 -0.003341 0.000000 0.000000 0.000000
# 2 -0.009250 0.016996 -0.003542 0.000000 0.000000 0.000000
# 3 -0.003341 -0.003542 0.013211 0.000000 0.000000 0.000000
# 4 0.000000 0.000000 0.000000 0.031704 0.000000 0.000000
# 5 0.000000 0.000000 0.000000 0.000000 0.032517 0.000000
# 6 0.000000 0.000000 0.000000 0.000000 0.000000 0.038816
#
#
# Mechanical properties :
#
#
# Convention : Reuss Voigt Hill
#
# Bulk Modulus (GPa) = 73.93821 75.90007 74.91914
# Shear Modulus (GPa) = 26.93995 28.05158 27.49577
#
# Velocity S-wave (km/s) = 3.84101 3.91946 3.88043
# Velocity P-wave (km/s) = 7.75645 7.87710 7.81701
#
# Compressibility (1/GPa) = 0.01352481
#
# Stress axis : x y z
#
# Youngs Moduli (GPa) = 64.17406 58.83815 75.69676
#
# Poissons Ratio (x) = 0.54423 0.25289
# Poissons Ratio (y) = 0.59359 0.26809
# Poissons Ratio (z) = 0.21440 0.20838
#
# Static dielectric constant tensor:
#      x y z
#    x 2.165180 0.000000 0.000000 
#    y 0.000000 3.059770 0.000000 
#    z 0.000000 0.000000 3.247230 
# 
# 
# High freq. dielectric constant tensor:
#      x y z
#    x 1.699480 0.000000 0.000000 
#    y 0.000000 1.708480 0.000000 
#    z 0.000000 0.000000 1.706400 
# 
# From -- ./inp_files/4676.got.cif
#   From: 2010.03.12/outbox.cif.g09.slc.cpg/sg57_3_cif.got.tgz:4676.got - 2010.04.16 15:48:40.
