data_PCOD8234065
_publ_section_title
;
Structure prediction by ZEFSAII (Michael W. Deem and Ramdas Pophale) SiO2 
 PCOD8234065
Probable space group: P B C M
;
_chemical_formula_sum "Si O2"
_cell_formula_units_Z 64
_cell_length_a 21.641137
_cell_length_b 17.895896
_cell_length_c 8.782032
_cell_angle_alpha 90.000000
_cell_angle_beta 90.000000
_cell_angle_gamma 90.000000
_cell_volume 3401.171544
_symmetry_space_group_name_H-M "P B C M"
_symmetry_group_IT_number 57
_symmetry_cell_setting 'orthorhombic'
loop_
_space_group_symop_operation_xyz
x,y,z
-x,-y,1/2+z
x,1/2-y,-z
-x,1/2+y,1/2-z
-x,-y,-z
x,y,1/2-z
-x,1/2+y,z
x,1/2-y,1/2+z
loop_
_atom_site_type_symbol
_atom_site_label
_atom_site_fract_x
_atom_site_fract_y
_atom_site_fract_z
Si Si1 0.190195 0.962815 0.075794
Si Si2 0.615103 0.081226 0.070299
Si Si3 0.507027 0.669073 0.428629
Si Si4 0.937139 0.974684 0.573586
Si Si5 0.245698 0.102694 0.929114
Si Si6 0.129239 0.326397 0.569757
Si Si7 0.724805 0.328210 0.426557
Si Si8 0.372311 0.081076 0.069471
O O1 0.199224 0.991144 0.250000
O O2 0.214202 0.879070 0.054660
O O3 0.117559 0.966572 0.033421
O O4 0.229702 0.016834 0.967945
O O5 0.620259 0.066883 0.250000
O O6 0.550308 0.117716 0.022685
O O7 0.667975 0.137657 0.017970
O O8 0.621391 0.003940 0.982706
O O9 0.500375 0.750000 0.500000
O O10 0.508619 0.680308 0.250000
O O11 0.568598 0.627845 0.486613
O O12 0.950419 0.971610 0.750000
O O13 0.916144 0.892855 0.515437
O O14 0.000000 0.000000 0.500000
O O15 0.244025 0.115226 0.750000
O O16 0.197870 0.159127 0.007096
O O17 0.313594 0.120748 0.992427
O O18 0.102749 0.250000 0.500000
O O19 0.132382 0.320834 0.750000
O O20 0.743086 0.250000 0.500000
O O21 0.706389 0.319155 0.250000
O O22 0.364618 0.082060 0.250000
#
# Coordination Sequence:
#
# PCOD8234065 Si02
#       8
#     8   8   8   8   8   8   8   8
#     4   9  19  37  57  79 113 151 188 231 282 334
#     4  11  22  38  59  85 110 141 191 239 284 346
#     4  10  24  41  57  78 109 146 187 235 288 344
#     4   9  19  36  59  86 116 153 194 236 279 333
#     4  11  21  34  57  86 113 146 187 233 284 340
#     4  10  21  38  59  86 120 155 194 239 288 340
#     4  11  22  36  57  83 114 150 186 234 290 340
#     4  11  22  38  58  82 112 149 188 234 288 343
#
# _framework density 18.817045
#
# number of rings (size 3 to 8) (size 9 to 14) (size 15 to 20)
#    0.000    1.750    1.250    4.125    0.000    6.500 
#    0.000    1.875    0.000    3.000    0.000    0.000 
#    0.000    0.000    0.000    0.000    0.000    0.000 
#
# Total GULP energy -793779.435124 kJ/mol
# GULP energy per Si atom -12402.803674 kJ/mol
# Density = 1.877422 g / cm^3
# Si number density = 18.817045 Si / 1000 Ang^3
#
#
#
# Elastic Constant Matrix: (Units=GPa)
#
#
# Indices 1 2 3 4 5 6 
#
# 1 145.8014 43.8588 40.3233 0.0000 0.0000 0.0000
# 2 43.8588 79.7860 30.6317 0.0000 0.0000 0.0000
# 3 40.3233 30.6317 69.3081 0.0000 0.0000 0.0000
# 4 0.0000 0.0000 0.0000 33.3605 0.0000 0.0000
# 5 0.0000 0.0000 0.0000 0.0000 31.7629 0.0000
# 6 0.0000 0.0000 0.0000 0.0000 0.0000 12.9504
#
#
#
# Elastic Compliance Matrix: (Units=1/GPa)
#
#
# Indices 1 2 3 4 5 6 
#
# 1 0.008920 -0.003506 -0.003640 0.000000 0.000000 0.000000
# 2 -0.003506 0.016473 -0.005241 0.000000 0.000000 0.000000
# 3 -0.003640 -0.005241 0.018862 0.000000 0.000000 0.000000
# 4 0.000000 0.000000 0.000000 0.029976 0.000000 0.000000
# 5 0.000000 0.000000 0.000000 0.000000 0.031483 0.000000
# 6 0.000000 0.000000 0.000000 0.000000 0.000000 0.077218
#
#
# Mechanical properties :
#
#
# Convention : Reuss Voigt Hill
#
# Bulk Modulus (GPa) = 51.33017 58.28035 54.80526
# Shear Modulus (GPa) = 23.34278 27.62019 25.48148
#
# Velocity S-wave (km/s) = 3.52591 3.83538 3.68390
# Velocity P-wave (km/s) = 6.62675 7.11708 6.87629
#
# Compressibility (1/GPa) = 0.01948172
#
# Stress axis : x y z
#
# Youngs Moduli (GPa) = 112.10795 60.70649 53.01561
#
# Poissons Ratio (x) = 0.21283 0.19299
# Poissons Ratio (y) = 0.39303 0.27784
# Poissons Ratio (z) = 0.40809 0.31814
#
# Static dielectric constant tensor:
#      x y z
#    x 3.662810 0.000000 0.000000 
#    y 0.000000 4.138370 0.000000 
#    z 0.000000 0.000000 3.497250 
# 
# 
# High freq. dielectric constant tensor:
#      x y z
#    x 1.732050 0.000000 0.000000 
#    y 0.000000 1.729920 0.000000 
#    z 0.000000 0.000000 1.737340 
# 
# From -- ./inp_files/8511.got.cif
#   From: 2010.03.12/outbox.cif.g09.slc.cpg/sg57_5_cif.got.tgz:8511.got - 2010.04.16 15:48:40.
