data_PCOD8234437
_publ_section_title
;
Structure prediction by ZEFSAII (Michael W. Deem and Ramdas Pophale) SiO2 
 PCOD8234437
Probable space group: P B C M
;
_chemical_formula_sum "Si O2"
_cell_formula_units_Z 56
_cell_length_a 6.292343
_cell_length_b 13.864005
_cell_length_c 28.034514
_cell_angle_alpha 90.000000
_cell_angle_beta 90.000000
_cell_angle_gamma 90.000000
_cell_volume 2445.648995
_symmetry_space_group_name_H-M "P B C M"
_symmetry_group_IT_number 57
_symmetry_cell_setting 'orthorhombic'
loop_
_space_group_symop_operation_xyz
x,y,z
-x,-y,1/2+z
x,1/2-y,-z
-x,1/2+y,1/2-z
-x,-y,-z
x,y,1/2-z
-x,1/2+y,z
x,1/2-y,1/2+z
loop_
_atom_site_type_symbol
_atom_site_label
_atom_site_fract_x
_atom_site_fract_y
_atom_site_fract_z
Si Si1 0.304065 0.140216 0.110317
Si Si2 0.989965 0.486025 0.931384
Si Si3 0.447970 0.679883 0.589623
Si Si4 0.611938 0.394678 0.697014
Si Si5 0.785108 0.924610 0.155379
Si Si6 0.925099 0.246194 0.652531
Si Si7 0.173366 0.859042 0.007602
O O1 0.234630 0.054049 0.074478
O O2 0.447532 0.215536 0.081399
O O3 0.424374 0.108261 0.158384
O O4 0.076438 0.183904 0.123514
O O5 0.993025 0.584193 0.962107
O O6 0.915757 0.504174 0.878134
O O7 0.821778 0.411928 0.956150
O O8 0.592196 0.614343 0.623144
O O9 0.221025 0.689715 0.615160
O O10 0.397907 0.637649 0.536736
O O11 0.517976 0.377750 0.750000
O O12 0.707024 0.503563 0.696893
O O13 0.784866 0.309185 0.689158
O O14 0.926553 0.837060 0.177417
O O15 0.095250 0.750000 0.000000
#
# Coordination Sequence:
#
# PCOD8234437 Si02
#       7
#     8   8   8   8   8   8   8
#     4  10  22  44  71  91 138 186 224 274 352 409
#     4  11  23  42  69  94 134 183 228 273 340 405
#     4  10  22  42  67  98 134 182 224 279 339 401
#     4  11  25  42  70 107 133 171 235 287 335 418
#     4  11  23  41  73  98 138 185 223 277 352 410
#     4  10  21  44  69  95 137 183 217 273 349 407
#     4  11  24  41  62  98 138 169 232 281 317 399
#
# _framework density 22.897808000000001
#
# number of rings (size 3 to 8) (size 9 to 14) (size 15 to 20)
#    0.000    1.429    2.857    1.714    4.000    1.714 
#    5.143    5.714    0.000    0.000    0.000    0.000 
#    0.000    0.000    0.000    0.000    0.000    0.000 
#
# Total GULP energy -694004.540512 kJ/mol
# GULP energy per Si atom -12392.938223 kJ/mol
# Density = 2.284569 g / cm^3
# Si number density = 22.897808 Si / 1000 Ang^3
#
#
#
# Elastic Constant Matrix: (Units=GPa)
#
#
# Indices 1 2 3 4 5 6 
#
# 1 99.6333 43.3010 28.7651 0.0000 0.0000 0.0000
# 2 43.3010 134.0157 42.0154 0.0000 0.0000 0.0000
# 3 28.7651 42.0154 88.1891 0.0000 0.0000 0.0000
# 4 0.0000 0.0000 0.0000 26.6767 0.0000 0.0000
# 5 0.0000 0.0000 0.0000 0.0000 20.7627 0.0000
# 6 0.0000 0.0000 0.0000 0.0000 0.0000 37.1141
#
#
#
# Elastic Compliance Matrix: (Units=1/GPa)
#
#
# Indices 1 2 3 4 5 6 
#
# 1 0.012111 -0.003144 -0.002452 0.000000 0.000000 0.000000
# 2 -0.003144 0.009588 -0.003543 0.000000 0.000000 0.000000
# 3 -0.002452 -0.003543 0.013827 0.000000 0.000000 0.000000
# 4 0.000000 0.000000 0.000000 0.037486 0.000000 0.000000
# 5 0.000000 0.000000 0.000000 0.000000 0.048163 0.000000
# 6 0.000000 0.000000 0.000000 0.000000 0.000000 0.026944
#
#
# Mechanical properties :
#
#
# Convention : Reuss Voigt Hill
#
# Bulk Modulus (GPa) = 57.97728 61.11123 59.54426
# Shear Modulus (GPa) = 29.04479 30.76113 29.90296
#
# Velocity S-wave (km/s) = 3.56540 3.66923 3.61769
# Velocity P-wave (km/s) = 6.50572 6.68563 6.59629
#
# Compressibility (1/GPa) = 0.01724813
#
# Stress axis : x y z
#
# Youngs Moduli (GPa) = 82.56685 104.29275 72.32274
#
# Poissons Ratio (x) = 0.32794 0.17736
# Poissons Ratio (y) = 0.25962 0.25620
# Poissons Ratio (z) = 0.20249 0.36946
#
# Static dielectric constant tensor:
#      x y z
#    x 4.073170 0.000000 0.000000 
#    y 0.000000 4.479400 0.000000 
#    z 0.000000 0.000000 3.776900 
# 
# 
# High freq. dielectric constant tensor:
#      x y z
#    x 1.895980 0.000000 0.000000 
#    y 0.000000 1.929860 0.000000 
#    z 0.000000 0.000000 1.872130 
# 
# From -- ./inp_files/29180.got.cif
#   From: 2010.03.12/outbox.cif.g09.slc.cpg/sg57_15_cif.got.tgz:29180.got - 2010.04.16 15:48:40.
