data_PCOD8234994
_publ_section_title
;
Structure prediction by ZEFSAII (Michael W. Deem and Ramdas Pophale) SiO2 
 PCOD8234994
Probable space group: P B C M
;
_chemical_formula_sum "Si O2"
_cell_formula_units_Z 48
_cell_length_a 30.724377
_cell_length_b 9.017425
_cell_length_c 8.491253
_cell_angle_alpha 90.000000
_cell_angle_beta 90.000000
_cell_angle_gamma 90.000000
_cell_volume 2352.542107
_symmetry_space_group_name_H-M "P B C M"
_symmetry_group_IT_number 57
_symmetry_cell_setting 'orthorhombic'
loop_
_space_group_symop_operation_xyz
x,y,z
-x,-y,1/2+z
x,1/2-y,-z
-x,1/2+y,1/2-z
-x,-y,-z
x,y,1/2-z
-x,1/2+y,z
x,1/2-y,1/2+z
loop_
_atom_site_type_symbol
_atom_site_label
_atom_site_fract_x
_atom_site_fract_y
_atom_site_fract_z
Si Si1 0.372717 0.586921 0.936337
Si Si2 0.292147 0.412233 0.435526
Si Si3 0.459216 0.086685 0.434233
Si Si4 0.211987 0.912086 0.435713
Si Si5 0.959299 0.912872 0.936044
Si Si6 0.131835 0.086103 0.935800
O O1 0.363864 0.586504 0.750000
O O2 0.415018 0.494143 0.983974
O O3 0.380766 0.750000 0.000000
O O4 0.332013 0.519231 0.027126
O O5 0.303263 0.250000 0.500000
O O6 0.283629 0.406752 0.250000
O O7 0.249586 0.472733 0.521592
O O8 0.457942 0.250000 0.500000
O O9 0.464425 0.094463 0.250000
O O10 0.500000 0.000000 0.500000
O O11 0.224195 0.750000 0.500000
O O12 0.206091 0.904798 0.250000
O O13 0.167737 0.968069 0.513746
O O14 0.958980 0.915499 0.750000
O O15 0.964458 0.750000 0.000000
O O16 0.913712 0.978246 0.998776
O O17 0.000000 0.000000 0.000000
O O18 0.129338 0.097720 0.750000
O O19 0.142681 0.250000 0.000000
#
# Coordination Sequence:
#
# PCOD8234994 Si02
#       6
#     8   8   8   8   8   8
#     4  11  24  42  64  93 126 164 205 253 306 363
#     4  12  25  43  66  93 124 162 204 251 302 361
#     4  11  24  41  64  92 126 164 208 256 309 366
#     4  12  25  43  64  91 124 160 201 250 303 360
#     4  11  22  39  61  89 121 159 202 250 303 360
#     4  11  22  40  63  90 121 159 202 248 300 360
#
# _framework density 20.403459999999999
#
# number of rings (size 3 to 8) (size 9 to 14) (size 15 to 20)
#    0.000    0.667    0.000   10.000    0.000    6.000 
#    0.000    3.333    0.000    0.000    0.000    0.000 
#    0.000    0.000    0.000    0.000    0.000    0.000 
#
# Total GULP energy -595511.665182 kJ/mol
# GULP energy per Si atom -12406.493025 kJ/mol
# Density = 2.035702 g / cm^3
# Si number density = 20.403460 Si / 1000 Ang^3
#
#
#
# Elastic Constant Matrix: (Units=GPa)
#
#
# Indices 1 2 3 4 5 6 
#
# 1 144.4964 53.7476 50.3557 0.0000 0.0000 0.0000
# 2 53.7476 116.0781 33.0748 0.0000 0.0000 0.0000
# 3 50.3557 33.0748 142.4155 0.0000 0.0000 0.0000
# 4 0.0000 0.0000 0.0000 39.7509 0.0000 0.0000
# 5 0.0000 0.0000 0.0000 0.0000 35.9073 0.0000
# 6 0.0000 0.0000 0.0000 0.0000 0.0000 31.1188
#
#
#
# Elastic Compliance Matrix: (Units=1/GPa)
#
#
# Indices 1 2 3 4 5 6 
#
# 1 0.009060 -0.003515 -0.002387 0.000000 0.000000 0.000000
# 2 -0.003515 0.010589 -0.001216 0.000000 0.000000 0.000000
# 3 -0.002387 -0.001216 0.008148 0.000000 0.000000 0.000000
# 4 0.000000 0.000000 0.000000 0.025157 0.000000 0.000000
# 5 0.000000 0.000000 0.000000 0.000000 0.027850 0.000000
# 6 0.000000 0.000000 0.000000 0.000000 0.000000 0.032135
#
#
# Mechanical properties :
#
#
# Convention : Reuss Voigt Hill
#
# Bulk Modulus (GPa) = 73.74435 75.26070 74.50253
# Shear Modulus (GPa) = 37.96651 39.07618 38.52135
#
# Velocity S-wave (km/s) = 4.31836 4.38102 4.34980
# Velocity P-wave (km/s) = 7.81575 7.90932 7.86267
#
# Compressibility (1/GPa) = 0.01356036
#
# Stress axis : x y z
#
# Youngs Moduli (GPa) = 110.37695 94.43808 122.72565
#
# Poissons Ratio (x) = 0.33193 0.29296
# Poissons Ratio (y) = 0.38795 0.14929
# Poissons Ratio (z) = 0.26348 0.11488
#
# Static dielectric constant tensor:
#      x y z
#    x 4.264660 0.000000 0.000000 
#    y 0.000000 3.800440 0.000000 
#    z 0.000000 0.000000 3.969360 
# 
# 
# High freq. dielectric constant tensor:
#      x y z
#    x 1.818400 0.000000 0.000000 
#    y 0.000000 1.806590 0.000000 
#    z 0.000000 0.000000 1.821810 
# 
# From -- ./inp_files/9933.got.cif
#   From: 2010.03.12/outbox.cif.g09.slc.cpg/sg57_5_cif.got.tgz:9933.got - 2010.04.16 15:48:40.
