data_PCOD8234993
_publ_section_title
;
Structure prediction by ZEFSAII (Michael W. Deem and Ramdas Pophale) SiO2 
 PCOD8234993
Probable space group: P B C M
;
_chemical_formula_sum "Si O2"
_cell_formula_units_Z 40
_cell_length_a 25.632291
_cell_length_b 9.086099
_cell_length_c 8.522351
_cell_angle_alpha 90.000000
_cell_angle_beta 90.000000
_cell_angle_gamma 90.000000
_cell_volume 1984.834529
_symmetry_space_group_name_H-M "P B C M"
_symmetry_group_IT_number 57
_symmetry_cell_setting 'orthorhombic'
loop_
_space_group_symop_operation_xyz
x,y,z
-x,-y,1/2+z
x,1/2-y,-z
-x,1/2+y,1/2-z
-x,-y,-z
x,y,1/2-z
-x,1/2+y,z
x,1/2-y,1/2+z
loop_
_atom_site_type_symbol
_atom_site_label
_atom_site_fract_x
_atom_site_fract_y
_atom_site_fract_z
Si Si1 0.842455 0.912171 0.935373
Si Si2 0.252713 0.910976 0.564897
Si Si3 0.651611 0.911763 0.935456
Si Si4 0.951793 0.588664 0.564360
Si Si5 0.451600 0.912185 0.433547
O O1 0.845878 0.900387 0.750000
O O2 0.829017 0.750000 0.000000
O O3 0.896969 0.975013 0.001986
O O4 0.799384 0.029284 0.984873
O O5 0.265978 0.750000 0.500000
O O6 0.244777 0.904337 0.750000
O O7 0.299329 0.020085 0.523597
O O8 0.662105 0.909319 0.750000
O O9 0.601345 0.006458 0.981335
O O10 0.641738 0.750000 0.000000
O O11 0.958818 0.750000 0.500000
O O12 0.951541 0.586745 0.750000
O O13 0.000000 0.500000 0.500000
O O14 0.449907 0.750000 0.500000
O O15 0.458499 0.902562 0.250000
O O16 0.500000 0.000000 0.500000
#
# Coordination Sequence:
#
# PCOD8234993 Si02
#       5
#     8   8   8   8   8
#     4  11  22  40  63  89 120 158 200 246 298 357
#     4  12  25  42  63  90 122 158 199 249 302 359
#     4  11  24  42  64  92 123 161 203 249 300 358
#     4  11  22  39  61  89 121 158 201 248 300 357
#     4  11  24  41  64  92 126 163 205 252 304 359
#
# _framework density 20.152812000000001
#
# number of rings (size 3 to 8) (size 9 to 14) (size 15 to 20)
#    0.000    0.800    0.000    9.600    0.000    7.200 
#    0.000    4.000    0.000    0.000    0.000    0.000 
#    0.000    0.000    0.000    0.000    0.000    0.000 
#
# Total GULP energy -496234.450215 kJ/mol
# GULP energy per Si atom -12405.861255 kJ/mol
# Density = 2.010694 g / cm^3
# Si number density = 20.152812 Si / 1000 Ang^3
#
#
#
# Elastic Constant Matrix: (Units=GPa)
#
#
# Indices 1 2 3 4 5 6 
#
# 1 155.4558 70.0668 65.9690 0.0000 0.0000 0.0000
# 2 70.0668 128.7506 46.6335 0.0000 0.0000 0.0000
# 3 65.9690 46.6335 159.3415 0.0000 0.0000 0.0000
# 4 0.0000 0.0000 0.0000 39.7100 0.0000 0.0000
# 5 0.0000 0.0000 0.0000 0.0000 36.9354 0.0000
# 6 0.0000 0.0000 0.0000 0.0000 0.0000 32.6648
#
#
#
# Elastic Compliance Matrix: (Units=1/GPa)
#
#
# Indices 1 2 3 4 5 6 
#
# 1 0.009455 -0.004170 -0.002694 0.000000 0.000000 0.000000
# 2 -0.004170 0.010527 -0.001354 0.000000 0.000000 0.000000
# 3 -0.002694 -0.001354 0.007788 0.000000 0.000000 0.000000
# 4 0.000000 0.000000 0.000000 0.025183 0.000000 0.000000
# 5 0.000000 0.000000 0.000000 0.000000 0.027074 0.000000
# 6 0.000000 0.000000 0.000000 0.000000 0.000000 0.030614
#
#
# Mechanical properties :
#
#
# Convention : Reuss Voigt Hill
#
# Bulk Modulus (GPa) = 88.23974 89.87629 89.05802
# Shear Modulus (GPa) = 38.21006 39.25394 38.73200
#
# Velocity S-wave (km/s) = 4.35905 4.41819 4.38872
# Velocity P-wave (km/s) = 8.31958 8.40960 8.36472
#
# Compressibility (1/GPa) = 0.01133276
#
# Stress axis : x y z
#
# Youngs Moduli (GPa) = 105.75881 94.99573 128.40762
#
# Poissons Ratio (x) = 0.39612 0.34597
# Poissons Ratio (y) = 0.44100 0.17392
# Poissons Ratio (z) = 0.28495 0.12867
#
# Static dielectric constant tensor:
#      x y z
#    x 4.171460 0.000000 0.000000 
#    y 0.000000 5.415960 0.000000 
#    z 0.000000 0.000000 3.926580 
# 
# 
# High freq. dielectric constant tensor:
#      x y z
#    x 1.808250 0.000000 0.000000 
#    y 0.000000 1.794810 0.000000 
#    z 0.000000 0.000000 1.811520 
# 
# From -- ./inp_files/8887.got.cif
#   From: 2010.03.12/outbox.cif.g09.slc.cpg/sg57_5_cif.got.tgz:8887.got - 2010.04.16 15:48:40.
