data_PCOD8234234
_publ_section_title
;
Structure prediction by ZEFSAII (Michael W. Deem and Ramdas Pophale) SiO2 
 PCOD8234234
Probable space group: P B C M
;
_chemical_formula_sum "Si O2"
_cell_formula_units_Z 48
_cell_length_a 14.984426
_cell_length_b 5.125330
_cell_length_c 28.792352
_cell_angle_alpha 90.000000
_cell_angle_beta 90.000000
_cell_angle_gamma 90.000000
_cell_volume 2211.256322
_symmetry_space_group_name_H-M "P B C M"
_symmetry_group_IT_number 57
_symmetry_cell_setting 'orthorhombic'
loop_
_space_group_symop_operation_xyz
x,y,z
-x,-y,1/2+z
x,1/2-y,-z
-x,1/2+y,1/2-z
-x,-y,-z
x,y,1/2-z
-x,1/2+y,z
x,1/2-y,1/2+z
loop_
_atom_site_type_symbol
_atom_site_label
_atom_site_fract_x
_atom_site_fract_y
_atom_site_fract_z
Si Si1 0.053584 0.243658 0.945442
Si Si2 0.203740 0.446133 0.380336
Si Si3 0.600421 0.498752 0.479048
Si Si4 0.317125 0.944180 0.117013
Si Si5 0.058079 0.026016 0.696175
Si Si6 0.443221 0.617371 0.697776
O O1 0.146465 0.173871 0.922033
O O2 0.018828 0.526943 0.929503
O O3 0.069974 0.250000 0.000000
O O4 0.245768 0.721439 0.397113
O O5 0.147068 0.498898 0.333965
O O6 0.276582 0.224275 0.369929
O O7 0.650932 0.750000 0.500000
O O8 0.500000 0.500000 0.500000
O O9 0.608384 0.488499 0.423374
O O10 0.651574 0.250000 0.500000
O O11 0.363265 0.829135 0.162686
O O12 0.086542 0.012990 0.750000
O O13 0.009783 0.295294 0.683516
O O14 0.405753 0.646799 0.750000
O O15 0.479978 0.328438 0.688740
#
# Coordination Sequence:
#
# PCOD8234234 Si02
#       6
#     8   8   8   8   8   8
#     4  10  21  39  63  85 115 167 211 247 298 365
#     4  12  24  39  60  96 131 162 199 272 317 364
#     4  10  23  41  63  88 115 162 208 255 312 384
#     4  12  26  39  64  95 128 163 206 263 328 375
#     4  10  21  39  64  92 127 175 219 252 302 382
#     4  10  23  43  68  90 119 162 210 259 304 380
#
# _framework density 21.707117
#
# number of rings (size 3 to 8) (size 9 to 14) (size 15 to 20)
#    0.000    1.333    0.000    5.000    4.667    3.333 
#    0.000    0.000    0.000    0.000    0.000    0.000 
#    0.000    0.000    0.000    0.000    0.000    0.000 
#
# Total GULP energy -595210.327958 kJ/mol
# GULP energy per Si atom -12400.215166 kJ/mol
# Density = 2.165771 g / cm^3
# Si number density = 21.707117 Si / 1000 Ang^3
#
#
#
# Elastic Constant Matrix: (Units=GPa)
#
#
# Indices 1 2 3 4 5 6 
#
# 1 77.6595 16.9470 58.2403 0.0000 0.0000 0.0000
# 2 16.9470 132.4999 40.4441 0.0000 0.0000 0.0000
# 3 58.2403 40.4441 111.4779 0.0000 0.0000 0.0000
# 4 0.0000 0.0000 0.0000 29.9543 0.0000 0.0000
# 5 0.0000 0.0000 0.0000 0.0000 32.4880 0.0000
# 6 0.0000 0.0000 0.0000 0.0000 0.0000 21.2668
#
#
#
# Elastic Compliance Matrix: (Units=1/GPa)
#
#
# Indices 1 2 3 4 5 6 
#
# 1 0.021239 0.000754 -0.011369 0.000000 0.000000 0.000000
# 2 0.000754 0.008514 -0.003483 0.000000 0.000000 0.000000
# 3 -0.011369 -0.003483 0.016174 0.000000 0.000000 0.000000
# 4 0.000000 0.000000 0.000000 0.033384 0.000000 0.000000
# 5 0.000000 0.000000 0.000000 0.000000 0.030781 0.000000
# 6 0.000000 0.000000 0.000000 0.000000 0.000000 0.047022
#
#
# Mechanical properties :
#
#
# Convention : Reuss Voigt Hill
#
# Bulk Modulus (GPa) = 56.40214 61.43335 58.91775
# Shear Modulus (GPa) = 26.14806 30.47554 28.31180
#
# Velocity S-wave (km/s) = 3.47448 3.75099 3.61538
# Velocity P-wave (km/s) = 6.49120 6.86457 6.68049
#
# Compressibility (1/GPa) = 0.01772982
#
# Stress axis : x y z
#
# Youngs Moduli (GPa) = 47.08405 117.45644 61.82880
#
# Poissons Ratio (x) = -0.08855 0.70296
# Poissons Ratio (y) = -0.03550 0.21533
# Poissons Ratio (z) = 0.53532 0.40906
#
# Static dielectric constant tensor:
#      x y z
#    x 3.568520 0.000000 0.000000 
#    y 0.000000 24.464290 0.000000 
#    z 0.000000 0.000000 3.962630 
# 
# 
# High freq. dielectric constant tensor:
#      x y z
#    x 1.827310 0.000000 0.000000 
#    y 0.000000 1.883830 0.000000 
#    z 0.000000 0.000000 1.861830 
# 
# From -- ./inp_files/28750.got.cif
#   From: 2010.03.12/outbox.cif.g09.slc.cpg/sg57_15_cif.got.tgz:28750.got - 2010.04.16 15:48:40.
