data_PCOD8234665
_publ_section_title
;
Structure prediction by ZEFSAII (Michael W. Deem and Ramdas Pophale) SiO2 
 PCOD8234665
Probable space group: P B C M
;
_chemical_formula_sum "Si O2"
_cell_formula_units_Z 32
_cell_length_a 14.495372
_cell_length_b 10.333142
_cell_length_c 9.619993
_cell_angle_alpha 90.000000
_cell_angle_beta 90.000000
_cell_angle_gamma 90.000000
_cell_volume 1440.908884
_symmetry_space_group_name_H-M "P B C M"
_symmetry_group_IT_number 57
_symmetry_cell_setting 'orthorhombic'
loop_
_space_group_symop_operation_xyz
x,y,z
-x,-y,1/2+z
x,1/2-y,-z
-x,1/2+y,1/2-z
-x,-y,-z
x,y,1/2-z
-x,1/2+y,z
x,1/2-y,1/2+z
loop_
_atom_site_type_symbol
_atom_site_label
_atom_site_fract_x
_atom_site_fract_y
_atom_site_fract_z
Si Si1 0.804569 0.055809 0.750000
Si Si2 0.743993 0.543443 0.966113
Si Si3 0.890293 0.750000 0.000000
Si Si4 0.459361 0.121575 0.915390
Si Si5 0.186628 0.638878 0.250000
Si Si6 0.977317 0.886703 0.750000
O O1 0.809293 0.208311 0.750000
O O2 0.745389 0.995663 0.626136
O O3 0.911672 0.012632 0.750000
O O4 0.650681 0.613322 0.921337
O O5 0.758741 0.410588 0.883918
O O6 0.826117 0.641828 0.929538
O O7 0.958864 0.695828 0.113862
O O8 0.489643 0.125459 0.750000
O O9 0.492040 0.250000 0.000000
O O10 0.500000 0.000000 0.000000
O O11 0.084348 0.577480 0.250000
#
# Coordination Sequence:
#
# PCOD8234665 Si02
#       6
#     4   8   4   8   4   4
#     4  10  26  40  63 102 138 191 235 304 353 439
#     4  11  24  45  73  99 142 189 239 294 370 439
#     4  10  22  42  70  98 130 186 240 292 348 434
#     4  12  28  51  82 116 151 195 250 314 383 461
#     4  12  25  42  64 101 144 190 242 303 365 432
#     4  10  25  38  65  97 140 183 245 297 362 417
#
# _framework density 22.208205
#
# number of rings (size 3 to 8) (size 9 to 14) (size 15 to 20)
#    0.000    1.000    2.500    2.250   10.500    4.000 
#    0.000    0.000    0.000    0.000    0.000    0.000 
#    0.000    0.000    0.000    0.000    0.000    0.000 
#
# Total GULP energy -396788.389310 kJ/mol
# GULP energy per Si atom -12399.637166 kJ/mol
# Density = 2.215766 g / cm^3
# Si number density = 22.208205 Si / 1000 Ang^3
#
#
#
# Elastic Constant Matrix: (Units=GPa)
#
#
# Indices 1 2 3 4 5 6 
#
# 1 47.4372 6.2316 24.4691 0.0000 0.0000 0.0000
# 2 6.2316 142.8396 54.0284 0.0000 0.0000 0.0000
# 3 24.4691 54.0284 159.0262 0.0000 0.0000 0.0000
# 4 0.0000 0.0000 0.0000 45.6737 0.0000 0.0000
# 5 0.0000 0.0000 0.0000 0.0000 5.4009 0.0000
# 6 0.0000 0.0000 0.0000 0.0000 0.0000 23.6040
#
#
#
# Elastic Compliance Matrix: (Units=1/GPa)
#
#
# Indices 1 2 3 4 5 6 
#
# 1 0.022916 0.000383 -0.003656 0.000000 0.000000 0.000000
# 2 0.000383 0.008040 -0.002790 0.000000 0.000000 0.000000
# 3 -0.003656 -0.002790 0.007799 0.000000 0.000000 0.000000
# 4 0.000000 0.000000 0.000000 0.021894 0.000000 0.000000
# 5 0.000000 0.000000 0.000000 0.000000 0.185156 0.000000
# 6 0.000000 0.000000 0.000000 0.000000 0.000000 0.042366
#
#
# Mechanical properties :
#
#
# Convention : Reuss Voigt Hill
#
# Bulk Modulus (GPa) = 37.55485 57.64015 47.59750
# Shear Modulus (GPa) = 16.17217 32.57398 24.37308
#
# Velocity S-wave (km/s) = 2.70146 3.83398 3.31642
# Velocity P-wave (km/s) = 5.16503 6.75352 6.01197
#
# Compressibility (1/GPa) = 0.02662772
#
# Stress axis : x y z
#
# Youngs Moduli (GPa) = 43.63742 124.38451 128.22372
#
# Poissons Ratio (x) = -0.04766 0.46882
# Poissons Ratio (y) = -0.01672 0.35779
# Poissons Ratio (z) = 0.15955 0.34708
#
# Static dielectric constant tensor:
#      x y z
#    x 3.890570 0.000000 0.000000 
#    y 0.000000 4.092660 0.000000 
#    z 0.000000 0.000000 4.158520 
# 
# 
# High freq. dielectric constant tensor:
#      x y z
#    x 1.864020 0.000000 0.000000 
#    y 0.000000 1.885770 0.000000 
#    z 0.000000 0.000000 1.893750 
# 
# From -- ./inp_files/4082.got.cif
#   From: 2010.03.12/outbox.cif.g09.slc.cpg/sg57_3_cif.got.tgz:4082.got - 2010.04.16 15:48:40.
