data_PCOD8234001
_publ_section_title
;
Structure prediction by ZEFSAII (Michael W. Deem and Ramdas Pophale) SiO2 
 PCOD8234001
Probable space group: P B C M
;
_chemical_formula_sum "Si O2"
_cell_formula_units_Z 40
_cell_length_a 8.138877
_cell_length_b 9.652872
_cell_length_c 24.567478
_cell_angle_alpha 90.000000
_cell_angle_beta 90.000000
_cell_angle_gamma 90.000000
_cell_volume 1930.107989
_symmetry_space_group_name_H-M "P B C M"
_symmetry_group_IT_number 57
_symmetry_cell_setting 'orthorhombic'
loop_
_space_group_symop_operation_xyz
x,y,z
-x,-y,1/2+z
x,1/2-y,-z
-x,1/2+y,1/2-z
-x,-y,-z
x,y,1/2-z
-x,1/2+y,z
x,1/2-y,1/2+z
loop_
_atom_site_type_symbol
_atom_site_label
_atom_site_fract_x
_atom_site_fract_y
_atom_site_fract_z
Si Si1 0.650481 0.768840 0.870072
Si Si2 0.563689 0.122661 0.462983
Si Si3 0.800663 0.018722 0.126256
Si Si4 0.337692 0.744127 0.810885
Si Si5 0.129610 0.482302 0.813288
O O1 0.595297 0.840198 0.926242
O O2 0.781249 0.646337 0.877033
O O3 0.489435 0.692337 0.846852
O O4 0.719794 0.881387 0.827707
O O5 0.618536 0.250000 0.500000
O O6 0.730075 0.083073 0.429919
O O7 0.500000 0.000000 0.500000
O O8 0.704038 0.096744 0.174565
O O9 0.991054 0.046734 0.141003
O O10 0.400022 0.739599 0.750000
O O11 0.184175 0.641795 0.820175
O O12 0.074017 0.455983 0.750000
#
# Coordination Sequence:
#
# PCOD8234001 Si02
#       5
#     8   8   8   8   8
#     4  11  23  40  66  93 126 170 223 268 323 395
#     4  11  23  45  71  95 125 170 223 280 328 382
#     4  11  23  39  62  93 128 169 211 266 334 390
#     4  10  21  37  61  91 126 172 218 263 319 391
#     4  11  24  41  63  97 138 173 213 270 332 395
#
# _framework density 20.724229000000001
#
# number of rings (size 3 to 8) (size 9 to 14) (size 15 to 20)
#    0.000    1.200    2.000    4.800    2.800    6.400 
#    0.000    2.000    0.000    0.000    0.000    0.000 
#    0.000    0.000    0.000    0.000    0.000    0.000 
#
# Total GULP energy -495779.460713 kJ/mol
# GULP energy per Si atom -12394.486518 kJ/mol
# Density = 2.067706 g / cm^3
# Si number density = 20.724229 Si / 1000 Ang^3
#
#
#
# Elastic Constant Matrix: (Units=GPa)
#
#
# Indices 1 2 3 4 5 6 
#
# 1 93.9945 26.0985 53.0833 0.0000 0.0000 0.0000
# 2 26.0985 120.1376 60.0676 0.0000 0.0000 0.0000
# 3 53.0833 60.0676 128.4121 0.0000 0.0000 0.0000
# 4 0.0000 0.0000 0.0000 35.6225 0.0000 0.0000
# 5 0.0000 0.0000 0.0000 0.0000 40.7607 0.0000
# 6 0.0000 0.0000 0.0000 0.0000 0.0000 30.9916
#
#
#
# Elastic Compliance Matrix: (Units=1/GPa)
#
#
# Indices 1 2 3 4 5 6 
#
# 1 0.013882 -0.000191 -0.005649 0.000000 0.000000 0.000000
# 2 -0.000191 0.010868 -0.005004 0.000000 0.000000 0.000000
# 3 -0.005649 -0.005004 0.012464 0.000000 0.000000 0.000000
# 4 0.000000 0.000000 0.000000 0.028072 0.000000 0.000000
# 5 0.000000 0.000000 0.000000 0.000000 0.024533 0.000000
# 6 0.000000 0.000000 0.000000 0.000000 0.000000 0.032267
#
#
# Mechanical properties :
#
#
# Convention : Reuss Voigt Hill
#
# Bulk Modulus (GPa) = 64.41774 69.00479 66.71127
# Shear Modulus (GPa) = 33.56817 35.02795 34.29806
#
# Velocity S-wave (km/s) = 4.02898 4.11566 4.07255
# Velocity P-wave (km/s) = 7.26598 7.48023 7.37388
#
# Compressibility (1/GPa) = 0.01552367
#
# Stress axis : x y z
#
# Youngs Moduli (GPa) = 72.03337 92.01739 80.23293
#
# Poissons Ratio (x) = 0.01759 0.45326
# Poissons Ratio (y) = 0.01377 0.40152
# Poissons Ratio (z) = 0.40694 0.46050
#
# Static dielectric constant tensor:
#      x y z
#    x 3.726540 0.000000 0.000000 
#    y 0.000000 3.824870 0.000000 
#    z 0.000000 0.000000 3.804300 
# 
# 
# High freq. dielectric constant tensor:
#      x y z
#    x 1.799570 0.000000 0.000000 
#    y 0.000000 1.827300 0.000000 
#    z 0.000000 0.000000 1.808310 
# 
# From -- ./inp_files/26495.got.cif
#   From: 2010.03.12/outbox.cif.g09.slc.cpg/sg57_14_cif.got.tgz:26495.got - 2010.04.16 15:48:40.
