data_PCOD8234965
_publ_section_title
;
Structure prediction by ZEFSAII (Michael W. Deem and Ramdas Pophale) SiO2 
 PCOD8234965
Probable space group: P B C M
;
_chemical_formula_sum "Si O2"
_cell_formula_units_Z 48
_cell_length_a 7.825628
_cell_length_b 11.281448
_cell_length_c 22.819877
_cell_angle_alpha 90.000000
_cell_angle_beta 90.000000
_cell_angle_gamma 90.000000
_cell_volume 2014.639499
_symmetry_space_group_name_H-M "P B C M"
_symmetry_group_IT_number 57
_symmetry_cell_setting 'orthorhombic'
loop_
_space_group_symop_operation_xyz
x,y,z
-x,-y,1/2+z
x,1/2-y,-z
-x,1/2+y,1/2-z
-x,-y,-z
x,y,1/2-z
-x,1/2+y,z
x,1/2-y,1/2+z
loop_
_atom_site_type_symbol
_atom_site_label
_atom_site_fract_x
_atom_site_fract_y
_atom_site_fract_z
Si Si1 0.941058 0.789577 0.250000
Si Si2 0.176346 0.943076 0.750000
Si Si3 0.396670 0.896464 0.860164
Si Si4 0.612881 0.898906 0.446907
Si Si5 0.737357 0.287551 0.060605
Si Si6 0.240060 0.283292 0.867470
Si Si7 0.146737 0.026301 0.046549
O O1 0.954508 0.938898 0.250000
O O2 0.843116 0.756411 0.307985
O O3 0.099207 0.692878 0.250000
O O4 0.306225 0.955144 0.804530
O O5 0.253687 0.809647 0.888590
O O6 0.573517 0.829122 0.846939
O O7 0.450050 0.992948 0.907610
O O8 0.458141 0.810526 0.458063
O O9 0.757519 0.827702 0.411461
O O10 0.682506 0.943287 0.509468
O O11 0.826112 0.406489 0.084068
O O12 0.832395 0.250000 0.000000
O O13 0.118437 0.376132 0.902955
O O14 0.000000 0.000000 0.000000
#
# Coordination Sequence:
#
# PCOD8234965 Si02
#       7
#     4   4   8   8   8   8   8
#     4  12  29  50  74 102 148 196 237 310 368 446
#     4  12  29  52  74 108 146 196 249 306 380 440
#     4  11  23  46  76 101 135 187 248 301 349 436
#     4  11  21  43  69  97 139 182 236 295 350 423
#     4  11  22  39  69 101 136 178 235 290 348 425
#     4  11  25  46  72 104 137 189 246 299 367 432
#     4  12  26  40  66 107 149 188 229 294 369 444
#
# _framework density 23.825603999999998
#
# number of rings (size 3 to 8) (size 9 to 14) (size 15 to 20)
#    0.000    0.667    5.000    3.500    2.333    4.000 
#    0.000    0.000    0.000    0.000    0.000    0.000 
#    0.000    0.000    0.000    0.000    0.000    0.000 
#
# Total GULP energy -594652.999936 kJ/mol
# GULP energy per Si atom -12388.604165 kJ/mol
# Density = 2.377138 g / cm^3
# Si number density = 23.825604 Si / 1000 Ang^3
#
#
#
# Elastic Constant Matrix: (Units=GPa)
#
#
# Indices 1 2 3 4 5 6 
#
# 1 40.5064 6.2975 5.9288 0.0000 0.0000 0.0000
# 2 6.2975 112.3923 46.9122 0.0000 0.0000 0.0000
# 3 5.9288 46.9122 110.2722 0.0000 0.0000 0.0000
# 4 0.0000 0.0000 0.0000 25.7942 0.0000 0.0000
# 5 0.0000 0.0000 0.0000 0.0000 32.6944 0.0000
# 6 0.0000 0.0000 0.0000 0.0000 0.0000 14.8727
#
#
#
# Elastic Compliance Matrix: (Units=1/GPa)
#
#
# Indices 1 2 3 4 5 6 
#
# 1 0.024979 -0.001020 -0.000909 0.000000 0.000000 0.000000
# 2 -0.001020 0.010860 -0.004565 0.000000 0.000000 0.000000
# 3 -0.000909 -0.004565 0.011060 0.000000 0.000000 0.000000
# 4 0.000000 0.000000 0.000000 0.038768 0.000000 0.000000
# 5 0.000000 0.000000 0.000000 0.000000 0.030586 0.000000
# 6 0.000000 0.000000 0.000000 0.000000 0.000000 0.067237
#
#
# Mechanical properties :
#
#
# Convention : Reuss Voigt Hill
#
# Bulk Modulus (GPa) = 29.49001 42.38309 35.93655
# Shear Modulus (GPa) = 24.06359 28.27442 26.16901
#
# Velocity S-wave (km/s) = 3.18148 3.44862 3.31774
# Velocity P-wave (km/s) = 5.08921 5.80386 5.45825
#
# Compressibility (1/GPa) = 0.03390979
#
# Stress axis : x y z
#
# Youngs Moduli (GPa) = 40.03346 92.08015 90.41992
#
# Poissons Ratio (x) = 0.09394 0.08219
# Poissons Ratio (y) = 0.04084 0.41279
# Poissons Ratio (z) = 0.03639 0.42037
#
# Static dielectric constant tensor:
#      x y z
#    x 4.058420 0.000000 0.000000 
#    y 0.000000 4.898360 0.000000 
#    z 0.000000 0.000000 4.233180 
# 
# 
# High freq. dielectric constant tensor:
#      x y z
#    x 1.926810 0.000000 0.000000 
#    y 0.000000 1.968250 0.000000 
#    z 0.000000 0.000000 1.942090 
# 
# From -- ./inp_files/26733.got.cif
#   From: 2010.03.12/outbox.cif.g09.slc.cpg/sg57_14_cif.got.tgz:26733.got - 2010.04.16 15:48:40.
