data_PCOD8234422
_publ_section_title
;
Structure prediction by ZEFSAII (Michael W. Deem and Ramdas Pophale) SiO2 
 PCOD8234422
Probable space group: P B C M
;
_chemical_formula_sum "Si O2"
_cell_formula_units_Z 48
_cell_length_a 7.886068
_cell_length_b 33.767658
_cell_length_c 8.644474
_cell_angle_alpha 90.000000
_cell_angle_beta 90.000000
_cell_angle_gamma 90.000000
_cell_volume 2301.971967
_symmetry_space_group_name_H-M "P B C M"
_symmetry_group_IT_number 57
_symmetry_cell_setting 'orthorhombic'
loop_
_space_group_symop_operation_xyz
x,y,z
-x,-y,1/2+z
x,1/2-y,-z
-x,1/2+y,1/2-z
-x,-y,-z
x,y,1/2-z
-x,1/2+y,z
x,1/2-y,1/2+z
loop_
_atom_site_type_symbol
_atom_site_label
_atom_site_fract_x
_atom_site_fract_y
_atom_site_fract_z
Si Si1 0.815631 0.842056 0.568110
Si Si2 0.506197 0.793103 0.066983
Si Si3 0.832619 0.336884 0.434248
Si Si4 0.814074 0.000067 0.934213
Si Si5 0.298104 0.080445 0.928193
Si Si6 0.685174 0.082614 0.927647
O O1 0.800102 0.837628 0.750000
O O2 0.656600 0.821060 0.490096
O O3 0.818930 0.888243 0.518319
O O4 0.992143 0.822253 0.511356
O O5 0.515247 0.792008 0.250000
O O6 0.322209 0.808822 0.011796
O O7 0.536753 0.750000 0.000000
O O8 0.850716 0.336080 0.250000
O O9 0.794043 0.381297 0.497993
O O10 0.812677 0.998010 0.750000
O O11 0.727033 0.040004 0.002373
O O12 0.712887 0.962933 0.999979
O O13 0.000000 0.000000 0.000000
O O14 0.239883 0.079246 0.750000
O O15 0.490389 0.094568 0.947264
O O16 0.735180 0.078699 0.750000
#
# Coordination Sequence:
#
# PCOD8234422 Si02
#       6
#     8   8   8   8   8   8
#     4  12  25  41  65  99 134 171 216 266 320 384
#     4  11  24  45  72  99 131 169 210 262 321 384
#     4  10  21  42  69  95 127 173 219 263 322 386
#     4  11  22  36  55  86 122 163 213 267 322 381
#     4  11  21  39  62  86 121 168 216 267 323 378
#     4   9  19  37  61  86 118 163 213 262 318 377
#
# _framework density 20.851686999999998
#
# number of rings (size 3 to 8) (size 9 to 14) (size 15 to 20)
#    0.000    1.333    1.667    4.500    0.000    3.333 
#    0.000    5.000    0.000    0.000    0.000    0.000 
#    0.000    0.000    0.000    0.000    0.000    0.000 
#
# Total GULP energy -595256.066196 kJ/mol
# GULP energy per Si atom -12401.168046 kJ/mol
# Density = 2.080423 g / cm^3
# Si number density = 20.851687 Si / 1000 Ang^3
#
#
#
# Elastic Constant Matrix: (Units=GPa)
#
#
# Indices 1 2 3 4 5 6 
#
# 1 108.8531 29.2106 39.1408 0.0000 0.0000 0.0000
# 2 29.2106 103.4122 27.2291 0.0000 0.0000 0.0000
# 3 39.1408 27.2291 78.7145 0.0000 0.0000 0.0000
# 4 0.0000 0.0000 0.0000 29.7326 0.0000 0.0000
# 5 0.0000 0.0000 0.0000 0.0000 28.7143 0.0000
# 6 0.0000 0.0000 0.0000 0.0000 0.0000 23.9010
#
#
#
# Elastic Compliance Matrix: (Units=1/GPa)
#
#
# Indices 1 2 3 4 5 6 
#
# 1 0.011524 -0.001921 -0.005066 0.000000 0.000000 0.000000
# 2 -0.001921 0.010959 -0.002836 0.000000 0.000000 0.000000
# 3 -0.005066 -0.002836 0.016204 0.000000 0.000000 0.000000
# 4 0.000000 0.000000 0.000000 0.033633 0.000000 0.000000
# 5 0.000000 0.000000 0.000000 0.000000 0.034826 0.000000
# 6 0.000000 0.000000 0.000000 0.000000 0.000000 0.041839
#
#
# Mechanical properties :
#
#
# Convention : Reuss Voigt Hill
#
# Bulk Modulus (GPa) = 52.51578 53.57119 53.04348
# Shear Modulus (GPa) = 28.57505 29.49619 29.03562
#
# Velocity S-wave (km/s) = 3.70590 3.76516 3.73565
# Velocity P-wave (km/s) = 6.59937 6.68201 6.64082
#
# Compressibility (1/GPa) = 0.01904190
#
# Stress axis : x y z
#
# Youngs Moduli (GPa) = 86.77760 91.24581 61.71339
#
# Poissons Ratio (x) = 0.17531 0.31261
# Poissons Ratio (y) = 0.16672 0.17500
# Poissons Ratio (z) = 0.43958 0.25875
#
# Static dielectric constant tensor:
#      x y z
#    x 3.916500 0.000000 0.000000 
#    y 0.000000 4.141080 0.000000 
#    z 0.000000 0.000000 3.812020 
# 
# 
# High freq. dielectric constant tensor:
#      x y z
#    x 1.831100 0.000000 0.000000 
#    y 0.000000 1.823110 0.000000 
#    z 0.000000 0.000000 1.799800 
# 
# From -- ./inp_files/2116.got.cif
#   From: 2010.03.12/outbox.cif.g09.slc.cpg/sg57_2_cif.got.tgz:2116.got - 2010.04.16 15:48:40.
