data_PCOD8234393
_publ_section_title
;
Structure prediction by ZEFSAII (Michael W. Deem and Ramdas Pophale) SiO2 
 PCOD8234393
Probable space group: P B C M
;
_chemical_formula_sum "Si O2"
_cell_formula_units_Z 48
_cell_length_a 15.897568
_cell_length_b 9.823494
_cell_length_c 14.903543
_cell_angle_alpha 90.000000
_cell_angle_beta 90.000000
_cell_angle_gamma 90.000000
_cell_volume 2327.481301
_symmetry_space_group_name_H-M "P B C M"
_symmetry_group_IT_number 57
_symmetry_cell_setting 'orthorhombic'
loop_
_space_group_symop_operation_xyz
x,y,z
-x,-y,1/2+z
x,1/2-y,-z
-x,1/2+y,1/2-z
-x,-y,-z
x,y,1/2-z
-x,1/2+y,z
x,1/2-y,1/2+z
loop_
_atom_site_type_symbol
_atom_site_label
_atom_site_fract_x
_atom_site_fract_y
_atom_site_fract_z
Si Si1 0.809160 0.601863 0.347629
Si Si2 0.233713 0.907013 0.994538
Si Si3 0.033547 0.239645 0.896841
Si Si4 0.900158 0.046150 0.352252
Si Si5 0.595539 0.958093 0.498766
Si Si6 0.357291 0.259579 0.854490
O O1 0.790440 0.536266 0.250000
O O2 0.804044 0.481358 0.418758
O O3 0.898948 0.673248 0.342482
O O4 0.743178 0.724723 0.365529
O O5 0.185249 0.971170 0.909394
O O6 0.334959 0.922958 0.988922
O O7 0.211351 0.750000 0.000000
O O8 0.943926 0.309852 0.877137
O O9 0.035540 0.080521 0.868723
O O10 0.057262 0.250000 0.000000
O O11 0.871049 0.048478 0.250000
O O12 0.610519 0.867546 0.410876
O O13 0.604996 0.891682 0.596737
O O14 0.500000 0.000000 0.500000
O O15 0.385844 0.250051 0.750000
#
# Coordination Sequence:
#
# PCOD8234393 Si02
#       6
#     8   8   8   8   8   8
#     4  10  21  41  66  91 123 169 222 267 319 381
#     4  11  25  42  63  94 132 170 210 268 332 394
#     4  12  24  42  66  93 128 174 223 276 318 376
#     4  12  26  43  64  96 134 177 225 271 326 385
#     4  10  22  39  67  93 123 164 209 262 331 400
#     4   9  20  39  64  91 122 161 211 265 315 386
#
# _framework density 20.623151
#
# number of rings (size 3 to 8) (size 9 to 14) (size 15 to 20)
#    0.000    1.333    1.667    3.500    7.000    3.333 
#    0.000    0.000    0.000    0.000    0.000    0.000 
#    0.000    0.000    0.000    0.000    0.000    0.000 
#
# Total GULP energy -595025.176008 kJ/mol
# GULP energy per Si atom -12396.357834 kJ/mol
# Density = 2.057621 g / cm^3
# Si number density = 20.623151 Si / 1000 Ang^3
#
#
#
# Elastic Constant Matrix: (Units=GPa)
#
#
# Indices 1 2 3 4 5 6 
#
# 1 106.3692 27.6106 38.1217 0.0000 0.0000 0.0000
# 2 27.6106 102.1057 46.7200 0.0000 0.0000 0.0000
# 3 38.1217 46.7200 170.7843 0.0000 0.0000 0.0000
# 4 0.0000 0.0000 0.0000 11.6260 0.0000 0.0000
# 5 0.0000 0.0000 0.0000 0.0000 20.8049 0.0000
# 6 0.0000 0.0000 0.0000 0.0000 0.0000 16.5409
#
#
#
# Elastic Compliance Matrix: (Units=1/GPa)
#
#
# Indices 1 2 3 4 5 6 
#
# 1 0.010576 -0.002034 -0.001804 0.000000 0.000000 0.000000
# 2 -0.002034 0.011586 -0.002715 0.000000 0.000000 0.000000
# 3 -0.001804 -0.002715 0.007001 0.000000 0.000000 0.000000
# 4 0.000000 0.000000 0.000000 0.086014 0.000000 0.000000
# 5 0.000000 0.000000 0.000000 0.000000 0.048066 0.000000
# 6 0.000000 0.000000 0.000000 0.000000 0.000000 0.060456
#
#
# Mechanical properties :
#
#
# Convention : Reuss Voigt Hill
#
# Bulk Modulus (GPa) = 62.28515 67.12929 64.70722
# Shear Modulus (GPa) = 20.64764 27.58151 24.11457
#
# Velocity S-wave (km/s) = 3.16759 3.66102 3.42321
# Velocity P-wave (km/s) = 6.60646 7.10577 6.86065
#
# Compressibility (1/GPa) = 0.01605519
#
# Stress axis : x y z
#
# Youngs Moduli (GPa) = 94.55488 86.30814 142.83847
#
# Poissons Ratio (x) = 0.17558 0.25771
# Poissons Ratio (y) = 0.19235 0.38788
# Poissons Ratio (z) = 0.17059 0.23437
#
# Static dielectric constant tensor:
#      x y z
#    x 3.817520 0.000000 0.000000 
#    y 0.000000 3.670380 0.000000 
#    z 0.000000 0.000000 3.998100 
# 
# 
# High freq. dielectric constant tensor:
#      x y z
#    x 1.799820 0.000000 0.000000 
#    y 0.000000 1.797360 0.000000 
#    z 0.000000 0.000000 1.822930 
# 
# From -- ./inp_files/18946.got.cif
#   From: 2010.03.12/outbox.cif.g09.slc.cpg/sg57_10_cif.got.tgz:18946.got - 2010.04.16 15:48:40.
