data_PCOD8234565
_publ_section_title
;
Structure prediction by ZEFSAII (Michael W. Deem and Ramdas Pophale) SiO2 
 PCOD8234565
Probable space group: P B C M
;
_chemical_formula_sum "Si O2"
_cell_formula_units_Z 56
_cell_length_a 9.390480
_cell_length_b 21.598316
_cell_length_c 14.368785
_cell_angle_alpha 90.000000
_cell_angle_beta 90.000000
_cell_angle_gamma 90.000000
_cell_volume 2914.256203
_symmetry_space_group_name_H-M "P B C M"
_symmetry_group_IT_number 57
_symmetry_cell_setting 'orthorhombic'
loop_
_space_group_symop_operation_xyz
x,y,z
-x,-y,1/2+z
x,1/2-y,-z
-x,1/2+y,1/2-z
-x,-y,-z
x,y,1/2-z
-x,1/2+y,z
x,1/2-y,1/2+z
loop_
_atom_site_type_symbol
_atom_site_label
_atom_site_fract_x
_atom_site_fract_y
_atom_site_fract_z
Si Si1 0.006867 0.679527 0.357369
Si Si2 0.668691 0.492331 0.000000
Si Si3 0.006867 0.679527 0.642631
Si Si4 0.490286 0.678974 1.000000
Si Si5 0.794016 0.627909 0.500000
Si Si6 0.699374 0.110777 0.141281
Si Si7 0.300626 0.610777 0.858719
O O1 0.966872 0.676703 0.250000
O O2 0.010229 0.750000 0.393968
O O3 0.159840 0.650231 0.377037
O O4 0.886745 0.640536 0.408882
O O5 0.747342 0.557145 0.000000
O O6 0.716931 0.456030 0.093060
O O7 0.500000 0.500000 0.000000
O O8 0.716931 0.456030 0.906940
O O9 0.966872 0.676703 0.750000
O O10 0.159840 0.650231 0.622963
O O11 0.886745 0.640536 0.591118
O O12 0.659833 0.673449 1.000000
O O13 0.431060 0.646611 0.093127
O O14 0.444882 0.750000 0.000000
O O15 0.431060 0.646611 0.906873
O O16 0.665807 0.102017 0.250000
O O17 0.334193 0.602017 0.750000
#
# Coordination Sequence:
#
# PCOD8234565 Si02
#       7
#     8   8   8   8   8   8   8
#     4  10  22  40  62  91 123 155 196 248 306 363
#     4  11  23  43  58  88 124 162 204 250 297 351
#     4  10  22  40  62  91 123 155 196 248 306 363
#     4  11  22  37  60  92 122 155 202 248 300 361
#     4  12  23  39  60  86 125 162 194 244 308 355
#     4  10  22  41  65  88 117 162 206 248 296 353
#     4  10  22  41  65  88 117 162 206 248 296 353
#
# _framework density 19.215881
#
# number of rings (size 3 to 8) (size 9 to 14) (size 15 to 20)
#    0.000    1.429    2.857    3.857    0.000    6.857 
#    0.000    2.857    0.000    0.000    0.000    0.000 
#    0.000    0.000    0.000    0.000    0.000    0.000 
#
# Total GULP energy -694620.713247 kJ/mol
# GULP energy per Si atom -12403.941308 kJ/mol
# Density = 1.917215 g / cm^3
# Si number density = 19.215881 Si / 1000 Ang^3
#
#
#
# Elastic Constant Matrix: (Units=GPa)
#
#
# Indices 1 2 3 4 5 6 
#
# 1 84.8803 15.9195 53.8908 0.0000 0.0000 0.0000
# 2 15.9195 127.3712 52.7991 0.0000 0.0000 0.0000
# 3 53.8908 52.7991 144.1969 0.0000 0.0000 0.0000
# 4 0.0000 0.0000 0.0000 24.8375 0.0000 0.0000
# 5 0.0000 0.0000 0.0000 0.0000 0.0756 0.0000
# 6 0.0000 0.0000 0.0000 0.0000 0.0000 38.9554
#
#
#
# Elastic Compliance Matrix: (Units=1/GPa)
#
#
# Indices 1 2 3 4 5 6 
#
# 1 0.015479 0.000546 -0.005985 0.000000 0.000000 0.000000
# 2 0.000546 0.009275 -0.003600 0.000000 0.000000 0.000000
# 3 -0.005985 -0.003600 0.010490 0.000000 0.000000 0.000000
# 4 0.000000 0.000000 0.000000 0.040262 0.000000 0.000000
# 5 0.000000 0.000000 0.000000 0.000000 13.221448 0.000000
# 6 0.000000 0.000000 0.000000 0.000000 0.000000 0.025670
#
#
# Mechanical properties :
#
#
# Convention : Reuss Voigt Hill
#
# Bulk Modulus (GPa) = 58.25473 66.85190 62.55331
# Shear Modulus (GPa) = 0.37463 28.36298 14.36880
#
# Velocity S-wave (km/s) = 0.44202 3.84607 2.73748
# Velocity P-wave (km/s) = 5.53554 7.38840 6.52804
#
# Compressibility (1/GPa) = 0.01716599
#
# Stress axis : x y z
#
# Youngs Moduli (GPa) = 64.60505 107.81367 95.32868
#
# Poissons Ratio (x) = -0.05890 0.57053
# Poissons Ratio (y) = -0.03529 0.34322
# Poissons Ratio (z) = 0.38665 0.38817
#
# Static dielectric constant tensor:
#      x y z
#    x 3.509220 0.000000 0.000000 
#    y 0.000000 4.226470 0.000000 
#    z 0.000000 0.000000 3.726580 
# 
# 
# High freq. dielectric constant tensor:
#      x y z
#    x 1.753200 0.000000 0.000000 
#    y 0.000000 1.759010 0.000000 
#    z 0.000000 0.000000 1.755970 
# 
# From -- ./inp_files/16750.got.cif
#   From: 2010.03.12/outbox.cif.g09.slc.cpg/sg57_9_cif.got.tgz:16750.got - 2010.04.16 15:48:40.
