data_PCOD8234316
_publ_section_title
;
Structure prediction by ZEFSAII (Michael W. Deem and Ramdas Pophale) SiO2 
 PCOD8234316
Probable space group: P B C M
;
_chemical_formula_sum "Si O2"
_cell_formula_units_Z 48
_cell_length_a 8.660063
_cell_length_b 15.852866
_cell_length_c 17.428539
_cell_angle_alpha 90.000000
_cell_angle_beta 90.000000
_cell_angle_gamma 90.000000
_cell_volume 2392.708667
_symmetry_space_group_name_H-M "P B C M"
_symmetry_group_IT_number 57
_symmetry_cell_setting 'orthorhombic'
loop_
_space_group_symop_operation_xyz
x,y,z
-x,-y,1/2+z
x,1/2-y,-z
-x,1/2+y,1/2-z
-x,-y,-z
x,y,1/2-z
-x,1/2+y,z
x,1/2-y,1/2+z
loop_
_atom_site_type_symbol
_atom_site_label
_atom_site_fract_x
_atom_site_fract_y
_atom_site_fract_z
Si Si1 0.914016 0.568382 0.952809
Si Si2 0.821677 0.697556 0.433819
Si Si3 0.043139 0.817890 0.339537
Si Si4 0.553135 0.863963 0.839387
Si Si5 0.399427 0.814519 0.339175
Si Si6 0.563211 0.973831 0.418280
O O1 0.004634 0.590383 0.874609
O O2 0.741662 0.546895 0.927594
O O3 0.934649 0.644972 0.012062
O O4 0.000000 0.500000 0.000000
O O5 0.726557 0.750000 0.500000
O O6 0.924673 0.750395 0.374706
O O7 0.712061 0.634571 0.386759
O O8 0.010651 0.820279 0.250000
O O9 0.220593 0.799240 0.358794
O O10 0.589984 0.869834 0.750000
O O11 0.475742 0.774669 0.860470
O O12 0.452569 0.945672 0.861887
O O13 0.423300 0.836969 0.250000
O O14 0.473137 0.891383 0.387099
O O15 0.500000 0.000000 0.500000
#
# Coordination Sequence:
#
# PCOD8234316 Si02
#       6
#     8   8   8   8   8   8
#     4  11  24  42  61  94 129 168 213 265 335 395
#     4  10  21  40  62  92 125 167 217 262 326 390
#     4  10  22  41  65  91 127 173 216 268 328 384
#     4  11  24  41  67  97 126 171 219 266 326 393
#     4  10  23  43  64  94 131 169 219 274 326 387
#     4  12  24  41  66  94 131 169 217 271 329 391
#
# _framework density 20.060946999999999
#
# number of rings (size 3 to 8) (size 9 to 14) (size 15 to 20)
#    0.000    1.333    1.667    4.000    2.333    2.667 
#    3.000    0.833    0.000    0.000    0.000    0.000 
#    0.000    0.000    0.000    0.000    0.000    0.000 
#
# Total GULP energy -594816.557905 kJ/mol
# GULP energy per Si atom -12392.011623 kJ/mol
# Density = 2.001529 g / cm^3
# Si number density = 20.060947 Si / 1000 Ang^3
#
#
#
# Elastic Constant Matrix: (Units=GPa)
#
#
# Indices 1 2 3 4 5 6 
#
# 1 74.5856 15.7078 45.9626 0.0000 0.0000 0.0000
# 2 15.7078 109.8826 50.1437 0.0000 0.0000 0.0000
# 3 45.9626 50.1437 121.7386 0.0000 0.0000 0.0000
# 4 0.0000 0.0000 0.0000 44.6761 0.0000 0.0000
# 5 0.0000 0.0000 0.0000 0.0000 32.0004 0.0000
# 6 0.0000 0.0000 0.0000 0.0000 0.0000 21.8720
#
#
#
# Elastic Compliance Matrix: (Units=1/GPa)
#
#
# Indices 1 2 3 4 5 6 
#
# 1 0.017508 0.000633 -0.006871 0.000000 0.000000 0.000000
# 2 0.000633 0.011230 -0.004864 0.000000 0.000000 0.000000
# 3 -0.006871 -0.004864 0.012812 0.000000 0.000000 0.000000
# 4 0.000000 0.000000 0.000000 0.022383 0.000000 0.000000
# 5 0.000000 0.000000 0.000000 0.000000 0.031250 0.000000
# 6 0.000000 0.000000 0.000000 0.000000 0.000000 0.045720
#
#
# Mechanical properties :
#
#
# Convention : Reuss Voigt Hill
#
# Bulk Modulus (GPa) = 51.69293 58.87054 55.28174
# Shear Modulus (GPa) = 29.48851 32.66921 31.07886
#
# Velocity S-wave (km/s) = 3.83815 4.03984 3.94029
# Velocity P-wave (km/s) = 6.74283 7.15332 6.95110
#
# Compressibility (1/GPa) = 0.01934501
#
# Stress axis : x y z
#
# Youngs Moduli (GPa) = 57.11581 89.04697 78.05132
#
# Poissons Ratio (x) = -0.05633 0.53628
# Poissons Ratio (y) = -0.03613 0.37968
# Poissons Ratio (z) = 0.39243 0.43316
#
# Static dielectric constant tensor:
#      x y z
#    x 3.711650 0.000000 0.000000 
#    y 0.000000 3.314190 0.000000 
#    z 0.000000 0.000000 3.888410 
# 
# 
# High freq. dielectric constant tensor:
#      x y z
#    x 1.781150 0.000000 0.000000 
#    y 0.000000 1.793580 0.000000 
#    z 0.000000 0.000000 1.803200 
# 
# From -- ./inp_files/20959.got.cif
#   From: 2010.03.12/outbox.cif.g09.slc.cpg/sg57_11_cif.got.tgz:20959.got - 2010.04.16 15:48:40.
