data_PCOD8234302
_publ_section_title
;
Structure prediction by ZEFSAII (Michael W. Deem and Ramdas Pophale) SiO2 
 PCOD8234302
Probable space group: P B C M
;
_chemical_formula_sum "Si O2"
_cell_formula_units_Z 32
_cell_length_a 19.758277
_cell_length_b 5.035306
_cell_length_c 14.350855
_cell_angle_alpha 90.000000
_cell_angle_beta 90.000000
_cell_angle_gamma 90.000000
_cell_volume 1427.751793
_symmetry_space_group_name_H-M "P B C M"
_symmetry_group_IT_number 57
_symmetry_cell_setting 'orthorhombic'
loop_
_space_group_symop_operation_xyz
x,y,z
-x,-y,1/2+z
x,1/2-y,-z
-x,1/2+y,1/2-z
-x,-y,-z
x,y,1/2-z
-x,1/2+y,z
x,1/2-y,1/2+z
loop_
_atom_site_type_symbol
_atom_site_label
_atom_site_fract_x
_atom_site_fract_y
_atom_site_fract_z
Si Si1 0.450336 0.750000 0.500000
Si Si2 0.156154 0.633224 0.250000
Si Si3 0.748611 0.624808 0.250000
Si Si4 0.634928 0.622333 0.100308
Si Si5 0.957978 0.239642 0.108612
Si Si6 0.456586 0.370178 0.250000
O O1 0.500000 0.500000 0.500000
O O2 0.399832 0.670551 0.586227
O O3 0.204338 0.380798 0.250000
O O4 0.110327 0.648788 0.341835
O O5 0.203442 0.880517 0.250000
O O6 0.704103 0.601101 0.156846
O O7 0.584949 0.818219 0.155922
O O8 0.649625 0.750000 0.000000
O O9 0.983364 0.531248 0.137925
O O10 0.941879 0.250000 0.000000
O O11 0.478579 0.675726 0.250000
#
# Coordination Sequence:
#
# PCOD8234302 Si02
#       6
#     4   4   4   8   8   4
#     4  12  24  40  72  98 118 160 218 280 352 416
#     4  12  24  44  68  98 136 192 234 270 334 410
#     4  11  30  45  66  95 142 187 236 278 326 407
#     4  11  27  46  69  94 135 176 220 278 346 404
#     4  10  21  39  69 105 141 174 223 291 344 386
#     4  11  26  41  64  99 130 153 206 276 338 417
#
# _framework density 22.412858
#
# number of rings (size 3 to 8) (size 9 to 14) (size 15 to 20)
#    0.000    1.000    1.250    3.750    7.000    4.000 
#    0.000    0.000    0.000    0.000    0.000    0.000 
#    0.000    0.000    0.000    0.000    0.000    0.000 
#
# Total GULP energy -396568.340011 kJ/mol
# GULP energy per Si atom -12392.760625 kJ/mol
# Density = 2.236185 g / cm^3
# Si number density = 22.412858 Si / 1000 Ang^3
#
#
#
# Elastic Constant Matrix: (Units=GPa)
#
#
# Indices 1 2 3 4 5 6 
#
# 1 167.3635 72.4749 77.9740 0.0000 0.0000 0.0000
# 2 72.4749 150.9788 45.4913 0.0000 0.0000 0.0000
# 3 77.9740 45.4913 153.9726 0.0000 0.0000 0.0000
# 4 0.0000 0.0000 0.0000 29.9610 0.0000 0.0000
# 5 0.0000 0.0000 0.0000 0.0000 33.8849 0.0000
# 6 0.0000 0.0000 0.0000 0.0000 0.0000 51.9039
#
#
#
# Elastic Compliance Matrix: (Units=1/GPa)
#
#
# Indices 1 2 3 4 5 6 
#
# 1 0.009082 -0.003265 -0.003635 0.000000 0.000000 0.000000
# 2 -0.003265 0.008444 -0.000842 0.000000 0.000000 0.000000
# 3 -0.003635 -0.000842 0.008584 0.000000 0.000000 0.000000
# 4 0.000000 0.000000 0.000000 0.033377 0.000000 0.000000
# 5 0.000000 0.000000 0.000000 0.000000 0.029512 0.000000
# 6 0.000000 0.000000 0.000000 0.000000 0.000000 0.019266
#
#
# Mechanical properties :
#
#
# Convention : Reuss Voigt Hill
#
# Bulk Modulus (GPa) = 94.08781 96.02172 95.05476
# Shear Modulus (GPa) = 39.28046 41.57494 40.42770
#
# Velocity S-wave (km/s) = 4.19093 4.31160 4.25169
# Velocity P-wave (km/s) = 8.09253 8.22932 8.16121
#
# Compressibility (1/GPa) = 0.01062837
#
# Stress axis : x y z
#
# Youngs Moduli (GPa) = 110.10629 118.42564 116.49517
#
# Poissons Ratio (x) = 0.38660 0.42344
# Poissons Ratio (y) = 0.35944 0.09804
# Poissons Ratio (z) = 0.40022 0.09967
#
# Static dielectric constant tensor:
#      x y z
#    x 4.125600 0.000000 0.000000 
#    y 0.000000 3.981850 0.000000 
#    z 0.000000 0.000000 4.599440 
# 
# 
# High freq. dielectric constant tensor:
#      x y z
#    x 1.875940 0.000000 0.000000 
#    y 0.000000 1.902180 0.000000 
#    z 0.000000 0.000000 1.900220 
# 
# From -- ./inp_files/18840.got.cif
#   From: 2010.03.12/outbox.cif.g09.slc.cpg/sg57_10_cif.got.tgz:18840.got - 2010.04.16 15:48:40.
