data_PCOD8234921
_publ_section_title
;
Structure prediction by ZEFSAII (Michael W. Deem and Ramdas Pophale) SiO2 
 PCOD8234921
Probable space group: P B C M
;
_chemical_formula_sum "Si O2"
_cell_formula_units_Z 48
_cell_length_a 14.199803
_cell_length_b 21.152382
_cell_length_c 8.755918
_cell_angle_alpha 90.000000
_cell_angle_beta 90.000000
_cell_angle_gamma 90.000000
_cell_volume 2629.924531
_symmetry_space_group_name_H-M "P B C M"
_symmetry_group_IT_number 57
_symmetry_cell_setting 'orthorhombic'
loop_
_space_group_symop_operation_xyz
x,y,z
-x,-y,1/2+z
x,1/2-y,-z
-x,1/2+y,1/2-z
-x,-y,-z
x,y,1/2-z
-x,1/2+y,z
x,1/2-y,1/2+z
loop_
_atom_site_type_symbol
_atom_site_label
_atom_site_fract_x
_atom_site_fract_y
_atom_site_fract_z
Si Si1 0.153067 0.103212 0.081657
Si Si2 0.220651 0.539434 0.580085
Si Si3 0.041980 0.561486 0.424378
Si Si4 0.490591 0.318168 0.932082
Si Si5 0.567900 0.054215 0.567368
Si Si6 0.291592 0.187018 0.573143
O O1 0.180813 0.129891 0.250000
O O2 0.040636 0.114094 0.055804
O O3 0.179272 0.030227 0.075393
O O4 0.210543 0.135498 0.946026
O O5 0.227553 0.566770 0.750000
O O6 0.143210 0.583094 0.493225
O O7 0.325706 0.539825 0.510271
O O8 0.060645 0.545321 0.250000
O O9 0.000000 0.500000 0.500000
O O10 0.502432 0.317298 0.750000
O O11 0.523277 0.250000 0.000000
O O12 0.548501 0.375769 0.003893
O O13 0.383091 0.332022 0.976853
O O14 0.557301 0.052842 0.750000
O O15 0.500000 0.000000 0.500000
O O16 0.248673 0.250000 0.500000
O O17 0.318929 0.195053 0.750000
#
# Coordination Sequence:
#
# PCOD8234921 Si02
#       6
#     8   8   8   8   8   8
#     4   9  17  31  49  73 103 133 164 204 251 300
#     4   9  19  33  50  73 104 135 166 207 254 301
#     4   9  17  29  48  71  98 130 164 200 244 299
#     4  11  22  38  57  77 105 142 181 222 265 319
#     4  11  22  36  55  82 112 143 178 222 271 317
#     4  11  21  33  51  74  99 131 168 209 255 308
#
# _framework density 18.251474000000002
#
# number of rings (size 3 to 8) (size 9 to 14) (size 15 to 20)
#    0.000    2.000    0.000    7.000    0.000    6.000 
#    0.000    0.000    0.000    1.000    0.000    7.000 
#    0.000    0.000    0.000    0.000    0.000    0.000 
#
# Total GULP energy -594766.115001 kJ/mol
# GULP energy per Si atom -12390.960729 kJ/mol
# Density = 1.820993 g / cm^3
# Si number density = 18.251474 Si / 1000 Ang^3
#
#
#
# Elastic Constant Matrix: (Units=GPa)
#
#
# Indices 1 2 3 4 5 6 
#
# 1 140.4336 45.0495 48.1710 0.0000 0.0000 0.0000
# 2 45.0495 60.1813 32.1628 0.0000 0.0000 0.0000
# 3 48.1710 32.1628 104.2078 0.0000 0.0000 0.0000
# 4 0.0000 0.0000 0.0000 26.8761 0.0000 0.0000
# 5 0.0000 0.0000 0.0000 0.0000 32.3909 0.0000
# 6 0.0000 0.0000 0.0000 0.0000 0.0000 20.1892
#
#
#
# Elastic Compliance Matrix: (Units=1/GPa)
#
#
# Indices 1 2 3 4 5 6 
#
# 1 0.009996 -0.006003 -0.002768 0.000000 0.000000 0.000000
# 2 -0.006003 0.023504 -0.004479 0.000000 0.000000 0.000000
# 3 -0.002768 -0.004479 0.012258 0.000000 0.000000 0.000000
# 4 0.000000 0.000000 0.000000 0.037208 0.000000 0.000000
# 5 0.000000 0.000000 0.000000 0.000000 0.030873 0.000000
# 6 0.000000 0.000000 0.000000 0.000000 0.000000 0.049531
#
#
# Mechanical properties :
#
#
# Convention : Reuss Voigt Hill
#
# Bulk Modulus (GPa) = 51.92811 61.73213 56.83012
# Shear Modulus (GPa) = 25.47242 27.85387 26.66315
#
# Velocity S-wave (km/s) = 3.73987 3.91079 3.82629
# Velocity P-wave (km/s) = 6.86747 7.36810 7.12218
#
# Compressibility (1/GPa) = 0.01925739
#
# Stress axis : x y z
#
# Youngs Moduli (GPa) = 100.03947 42.54552 81.57835
#
# Poissons Ratio (x) = 0.25542 0.22580
# Poissons Ratio (y) = 0.60058 0.36541
# Poissons Ratio (z) = 0.27689 0.19057
#
# Static dielectric constant tensor:
#      x y z
#    x 3.774840 0.000000 0.000000 
#    y 0.000000 3.240360 0.000000 
#    z 0.000000 0.000000 3.581150 
# 
# 
# High freq. dielectric constant tensor:
#      x y z
#    x 1.714950 0.000000 0.000000 
#    y 0.000000 1.670820 0.000000 
#    z 0.000000 0.000000 1.719550 
# 
# From -- ./inp_files/4930.got.cif
#   From: 2010.03.12/outbox.cif.g09.slc.cpg/sg57_3_cif.got.tgz:4930.got - 2010.04.16 15:48:40.
