data_PCOD8234297
_publ_section_title
;
Structure prediction by ZEFSAII (Michael W. Deem and Ramdas Pophale) SiO2 
 PCOD8234297
Probable space group: P B C M
;
_chemical_formula_sum "Si O2"
_cell_formula_units_Z 56
_cell_length_a 21.103434
_cell_length_b 14.784953
_cell_length_c 8.765486
_cell_angle_alpha 90.000000
_cell_angle_beta 90.000000
_cell_angle_gamma 90.000000
_cell_volume 2734.948036
_symmetry_space_group_name_H-M "P B C M"
_symmetry_group_IT_number 57
_symmetry_cell_setting 'orthorhombic'
loop_
_space_group_symop_operation_xyz
x,y,z
-x,-y,1/2+z
x,1/2-y,-z
-x,1/2+y,1/2-z
-x,-y,-z
x,y,1/2-z
-x,1/2+y,z
x,1/2-y,1/2+z
loop_
_atom_site_type_symbol
_atom_site_label
_atom_site_fract_x
_atom_site_fract_y
_atom_site_fract_z
Si Si1 0.691361 0.659830 0.927315
Si Si2 0.446849 0.394191 0.074969
Si Si3 0.571074 0.096996 0.429500
Si Si4 0.983078 0.351216 0.070178
Si Si5 0.093550 0.009662 0.570535
Si Si6 0.773703 0.991431 0.569428
Si Si7 0.293067 0.657013 0.431632
O O1 0.709635 0.650684 0.750000
O O2 0.615603 0.665262 0.950227
O O3 0.721028 0.750000 0.000000
O O4 0.718838 0.576549 0.019502
O O5 0.466372 0.399801 0.250000
O O6 0.431622 0.494128 0.010841
O O7 0.507629 0.351575 0.987717
O O8 0.573537 0.102334 0.250000
O O9 0.635546 0.140192 0.494813
O O10 0.972121 0.341436 0.250000
O O11 0.047059 0.406675 0.032230
O O12 0.985088 0.250000 0.000000
O O13 0.927113 0.413038 0.000634
O O14 0.100407 0.995365 0.750000
O O15 0.159352 0.040828 0.496830
O O16 0.777026 0.997516 0.750000
O O17 0.756924 0.086937 0.497163
O O18 0.268552 0.750000 0.500000
O O19 0.290547 0.655098 0.250000
#
# Coordination Sequence:
#
# PCOD8234297 Si02
#       7
#     8   8   8   8   8   8   8
#     4  11  23  41  61  86 119 157 203 253 308 366
#     4   9  18  34  56  81 111 149 192 245 306 367
#     4   9  18  34  56  81 111 149 191 245 307 367
#     4  10  21  39  66  99 132 165 203 246 293 346
#     4  10  22  41  65  93 128 168 205 248 297 348
#     4  12  25  42  64  90 122 163 207 252 303 360
#     4  11  23  41  61  86 119 156 202 253 308 368
#
# _framework density 20.475709999999999
#
# number of rings (size 3 to 8) (size 9 to 14) (size 15 to 20)
#    0.000    1.714    1.429    3.000    0.000    5.714 
#    0.000    7.143    0.000    0.000    0.000    0.000 
#    0.000    0.000    0.000    0.000    0.000    0.000 
#
# Total GULP energy -694394.537059 kJ/mol
# GULP energy per Si atom -12399.902447 kJ/mol
# Density = 2.042911 g / cm^3
# Si number density = 20.475710 Si / 1000 Ang^3
#
#
#
# Elastic Constant Matrix: (Units=GPa)
#
#
# Indices 1 2 3 4 5 6 
#
# 1 71.1522 5.3306 33.3986 0.0000 0.0000 0.0000
# 2 5.3306 102.7453 35.5396 0.0000 0.0000 0.0000
# 3 33.3986 35.5396 94.9806 0.0000 0.0000 0.0000
# 4 0.0000 0.0000 0.0000 33.8043 0.0000 0.0000
# 5 0.0000 0.0000 0.0000 0.0000 36.3466 0.0000
# 6 0.0000 0.0000 0.0000 0.0000 0.0000 10.4353
#
#
#
# Elastic Compliance Matrix: (Units=1/GPa)
#
#
# Indices 1 2 3 4 5 6 
#
# 1 0.016997 0.001362 -0.006486 0.000000 0.000000 0.000000
# 2 0.001362 0.011289 -0.004703 0.000000 0.000000 0.000000
# 3 -0.006486 -0.004703 0.014569 0.000000 0.000000 0.000000
# 4 0.000000 0.000000 0.000000 0.029582 0.000000 0.000000
# 5 0.000000 0.000000 0.000000 0.000000 0.027513 0.000000
# 6 0.000000 0.000000 0.000000 0.000000 0.000000 0.095828
#
#
# Mechanical properties :
#
#
# Convention : Reuss Voigt Hill
#
# Bulk Modulus (GPa) = 43.10336 46.37952 44.74144
# Shear Modulus (GPa) = 22.40479 29.09119 25.74799
#
# Velocity S-wave (km/s) = 3.31148 3.77339 3.54996
# Velocity P-wave (km/s) = 5.97644 6.45638 6.22104
#
# Compressibility (1/GPa) = 0.02320005
#
# Stress axis : x y z
#
# Youngs Moduli (GPa) = 58.83386 88.58272 68.63885
#
# Poissons Ratio (x) = -0.12063 0.44521
# Poissons Ratio (y) = -0.08012 0.32280
# Poissons Ratio (z) = 0.38161 0.41660
#
# Static dielectric constant tensor:
#      x y z
#    x 3.779970 0.000000 0.000000 
#    y 0.000000 3.672010 0.000000 
#    z 0.000000 0.000000 3.697520 
# 
# 
# High freq. dielectric constant tensor:
#      x y z
#    x 1.800970 0.000000 0.000000 
#    y 0.000000 1.799520 0.000000 
#    z 0.000000 0.000000 1.804420 
# 
# From -- ./inp_files/8060.got.cif
#   From: 2010.03.12/outbox.cif.g09.slc.cpg/sg57_5_cif.got.tgz:8060.got - 2010.04.16 15:48:40.
