data_PCOD8234279
_publ_section_title
;
Structure prediction by ZEFSAII (Michael W. Deem and Ramdas Pophale) SiO2 
 PCOD8234279
Probable space group: P B C M
;
_chemical_formula_sum "Si O2"
_cell_formula_units_Z 40
_cell_length_a 6.164637
_cell_length_b 14.316727
_cell_length_c 20.494074
_cell_angle_alpha 90.000000
_cell_angle_beta 90.000000
_cell_angle_gamma 90.000000
_cell_volume 1808.754199
_symmetry_space_group_name_H-M "P B C M"
_symmetry_group_IT_number 57
_symmetry_cell_setting 'orthorhombic'
loop_
_space_group_symop_operation_xyz
x,y,z
-x,-y,1/2+z
x,1/2-y,-z
-x,1/2+y,1/2-z
-x,-y,-z
x,y,1/2-z
-x,1/2+y,z
x,1/2-y,1/2+z
loop_
_atom_site_type_symbol
_atom_site_label
_atom_site_fract_x
_atom_site_fract_y
_atom_site_fract_z
Si Si1 0.407328 0.730084 0.179756
Si Si2 0.689447 0.714403 0.566367
Si Si3 0.647980 0.509588 0.563275
Si Si4 0.970833 0.364793 0.613262
Si Si5 0.346804 0.041024 0.178141
O O1 0.400833 0.783350 0.250000
O O2 0.504853 0.792783 0.122034
O O3 0.569155 0.644832 0.186541
O O4 0.165450 0.694844 0.165185
O O5 0.573097 0.750000 0.500000
O O6 0.777676 0.608151 0.559041
O O7 0.882044 0.788932 0.576371
O O8 0.500000 0.500000 0.500000
O O9 0.499412 0.514430 0.628230
O O10 0.811422 0.421391 0.564323
O O11 0.104557 0.446766 0.649588
O O12 0.340563 0.991872 0.250000
#
# Coordination Sequence:
#
# PCOD8234279 Si02
#       5
#     8   8   8   8   8
#     4   9  19  38  62  88 122 160 200 251 305 360
#     4  11  24  40  61  90 123 163 208 255 309 369
#     4  11  24  42  62  90 128 165 205 258 315 371
#     4  10  21  39  65  92 122 162 209 255 307 370
#     4   9  19  37  61  89 122 160 202 251 307 364
#
# _framework density 22.114667000000001
#
# number of rings (size 3 to 8) (size 9 to 14) (size 15 to 20)
#    0.000    2.000    0.000    4.200    0.000    9.600 
#    0.000    0.000    0.000    0.000    0.000    0.000 
#    0.000    0.000    0.000    0.000    0.000    0.000 
#
# Total GULP energy -495629.062607 kJ/mol
# GULP energy per Si atom -12390.726565 kJ/mol
# Density = 2.206433 g / cm^3
# Si number density = 22.114667 Si / 1000 Ang^3
#
#
#
# Elastic Constant Matrix: (Units=GPa)
#
#
# Indices 1 2 3 4 5 6 
#
# 1 103.0659 37.4008 43.4187 0.0000 0.0000 0.0000
# 2 37.4008 116.6947 49.6290 0.0000 0.0000 0.0000
# 3 43.4187 49.6290 163.5807 0.0000 0.0000 0.0000
# 4 0.0000 0.0000 0.0000 18.3283 0.0000 0.0000
# 5 0.0000 0.0000 0.0000 0.0000 5.8098 0.0000
# 6 0.0000 0.0000 0.0000 0.0000 0.0000 27.3292
#
#
#
# Elastic Compliance Matrix: (Units=1/GPa)
#
#
# Indices 1 2 3 4 5 6 
#
# 1 0.011660 -0.002779 -0.002252 0.000000 0.000000 0.000000
# 2 -0.002779 0.010501 -0.002448 0.000000 0.000000 0.000000
# 3 -0.002252 -0.002448 0.007454 0.000000 0.000000 0.000000
# 4 0.000000 0.000000 0.000000 0.054560 0.000000 0.000000
# 5 0.000000 0.000000 0.000000 0.000000 0.172123 0.000000
# 6 0.000000 0.000000 0.000000 0.000000 0.000000 0.036591
#
#
# Mechanical properties :
#
#
# Convention : Reuss Voigt Hill
#
# Bulk Modulus (GPa) = 68.23060 71.58204 69.90632
# Shear Modulus (GPa) = 15.98810 27.15298 21.57054
#
# Velocity S-wave (km/s) = 2.69172 3.50784 3.12652
# Velocity P-wave (km/s) = 6.37028 6.98895 6.68678
#
# Compressibility (1/GPa) = 0.01465618
#
# Stress axis : x y z
#
# Youngs Moduli (GPa) = 85.76604 95.22538 134.16321
#
# Poissons Ratio (x) = 0.26467 0.30207
# Poissons Ratio (y) = 0.23838 0.32847
# Poissons Ratio (z) = 0.19311 0.23314
#
# Static dielectric constant tensor:
#      x y z
#    x 3.926620 0.000000 0.000000 
#    y 0.000000 3.785390 0.000000 
#    z 0.000000 0.000000 4.609110 
# 
# 
# High freq. dielectric constant tensor:
#      x y z
#    x 1.856920 0.000000 0.000000 
#    y 0.000000 1.855890 0.000000 
#    z 0.000000 0.000000 1.885850 
# 
# From -- ./inp_files/26101.got.cif
#   From: 2010.03.12/outbox.cif.g09.slc.cpg/sg57_14_cif.got.tgz:26101.got - 2010.04.16 15:48:40.
