data_PCOD8234409
_publ_section_title
;
Structure prediction by ZEFSAII (Michael W. Deem and Ramdas Pophale) SiO2 
 PCOD8234409
Probable space group: P B C M
;
_chemical_formula_sum "Si O2"
_cell_formula_units_Z 60
_cell_length_a 18.887998
_cell_length_b 16.666470
_cell_length_c 9.233937
_cell_angle_alpha 90.000000
_cell_angle_beta 90.000000
_cell_angle_gamma 90.000000
_cell_volume 2906.808759
_symmetry_space_group_name_H-M "P B C M"
_symmetry_group_IT_number 57
_symmetry_cell_setting 'orthorhombic'
loop_
_space_group_symop_operation_xyz
x,y,z
-x,-y,1/2+z
x,1/2-y,-z
-x,1/2+y,1/2-z
-x,-y,-z
x,y,1/2-z
-x,1/2+y,z
x,1/2-y,1/2+z
loop_
_atom_site_type_symbol
_atom_site_label
_atom_site_fract_x
_atom_site_fract_y
_atom_site_fract_z
Si Si1 0.027234 0.578598 0.418987
Si Si2 0.889685 0.671802 0.415053
Si Si3 0.165056 0.886797 0.410160
Si Si4 0.379711 0.871168 0.912582
Si Si5 0.467049 0.171074 0.076138
Si Si6 0.768859 0.551904 0.082508
Si Si7 0.262300 0.750000 0.500000
Si Si8 0.633029 0.550021 0.576898
O O1 0.035278 0.557765 0.250000
O O2 0.100860 0.614374 0.476954
O O3 0.000000 0.500000 0.500000
O O4 0.970643 0.648678 0.445798
O O5 0.866785 0.750000 0.500000
O O6 0.877381 0.693725 0.250000
O O7 0.840556 0.597543 0.460741
O O8 0.133110 0.901572 0.250000
O O9 0.210200 0.804503 0.403728
O O10 0.218143 0.958347 0.451481
O O11 0.398450 0.892720 0.750000
O O12 0.450965 0.832137 0.976748
O O13 0.313220 0.810581 0.913392
O O14 0.365579 0.958144 0.982674
O O15 0.456642 0.174482 0.250000
O O16 0.434019 0.250000 0.000000
O O17 0.430048 0.093565 0.007420
O O18 0.747919 0.565833 0.250000
O O19 0.707393 0.586249 0.978916
O O20 0.625864 0.560487 0.750000
#
# Coordination Sequence:
#
# PCOD8234409 Si02
#       8
#     8   8   8   8   8   8   4   8
#     4  11  23  42  67  94 129 171 217 269 324 389
#     4  10  23  42  63  90 123 162 214 267 317 375
#     4  11  24  41  64  95 133 174 215 263 325 388
#     4  10  22  40  63  94 131 169 215 265 321 391
#     4  11  23  42  66  95 128 168 217 270 325 388
#     4  10  21  42  64  88 123 166 211 263 319 381
#     4  12  22  42  66 100 134 172 218 268 328 394
#     4  11  23  41  64  95 131 169 213 265 324 392
#
# _framework density 20.641193999999999
#
# number of rings (size 3 to 8) (size 9 to 14) (size 15 to 20)
#    0.000    1.333    3.333    2.000    0.933    3.733 
#    0.000    3.333    0.000    0.000    0.000    0.000 
#    0.000    0.000    0.000    0.000    0.000    0.000 
#
# Total GULP energy -743817.970349 kJ/mol
# GULP energy per Si atom -12396.966172 kJ/mol
# Density = 2.059421 g / cm^3
# Si number density = 20.641194 Si / 1000 Ang^3
#
#
#
# Elastic Constant Matrix: (Units=GPa)
#
#
# Indices 1 2 3 4 5 6 
#
# 1 122.7169 48.4076 53.7113 0.0000 0.0000 0.0000
# 2 48.4076 127.8321 45.9462 0.0000 0.0000 0.0000
# 3 53.7113 45.9462 99.1399 0.0000 0.0000 0.0000
# 4 0.0000 0.0000 0.0000 31.6000 0.0000 0.0000
# 5 0.0000 0.0000 0.0000 0.0000 31.7778 0.0000
# 6 0.0000 0.0000 0.0000 0.0000 0.0000 32.5685
#
#
#
# Elastic Compliance Matrix: (Units=1/GPa)
#
#
# Indices 1 2 3 4 5 6 
#
# 1 0.011309 -0.002496 -0.004970 0.000000 0.000000 0.000000
# 2 -0.002496 0.009937 -0.003253 0.000000 0.000000 0.000000
# 3 -0.004970 -0.003253 0.014287 0.000000 0.000000 0.000000
# 4 0.000000 0.000000 0.000000 0.031646 0.000000 0.000000
# 5 0.000000 0.000000 0.000000 0.000000 0.031468 0.000000
# 6 0.000000 0.000000 0.000000 0.000000 0.000000 0.030704
#
#
# Mechanical properties :
#
#
# Convention : Reuss Voigt Hill
#
# Bulk Modulus (GPa) = 70.94864 71.75766 71.35315
# Shear Modulus (GPa) = 32.15685 32.63087 32.39386
#
# Velocity S-wave (km/s) = 3.95130 3.98032 3.96584
# Velocity P-wave (km/s) = 7.43398 7.48089 7.45747
#
# Compressibility (1/GPa) = 0.01409470
#
# Stress axis : x y z
#
# Youngs Moduli (GPa) = 88.42731 100.63180 69.99377
#
# Poissons Ratio (x) = 0.25118 0.34787
# Poissons Ratio (y) = 0.22072 0.22770
# Poissons Ratio (z) = 0.43948 0.32736
#
# Static dielectric constant tensor:
#      x y z
#    x 3.775280 0.000000 0.000000 
#    y 0.000000 3.714260 0.000000 
#    z 0.000000 0.000000 3.562070 
# 
# 
# High freq. dielectric constant tensor:
#      x y z
#    x 1.814960 0.000000 0.000000 
#    y 0.000000 1.812840 0.000000 
#    z 0.000000 0.000000 1.797930 
# 
# From -- ./inp_files/6933.got.cif
#   From: 2010.03.12/outbox.cif.g09.slc.cpg/sg57_4_cif.got.tgz:6933.got - 2010.04.16 15:48:40.
