data_PCOD8234322
_publ_section_title
;
Structure prediction by ZEFSAII (Michael W. Deem and Ramdas Pophale) SiO2 
 PCOD8234322
Probable space group: P B C M
;
_chemical_formula_sum "Si O2"
_cell_formula_units_Z 36
_cell_length_a 21.741102
_cell_length_b 5.062131
_cell_length_c 14.711090
_cell_angle_alpha 90.000000
_cell_angle_beta 90.000000
_cell_angle_gamma 90.000000
_cell_volume 1619.048229
_symmetry_space_group_name_H-M "P B C M"
_symmetry_group_IT_number 57
_symmetry_cell_setting 'orthorhombic'
loop_
_space_group_symop_operation_xyz
x,y,z
-x,-y,1/2+z
x,1/2-y,-z
-x,1/2+y,1/2-z
-x,-y,-z
x,y,1/2-z
-x,1/2+y,z
x,1/2-y,1/2+z
loop_
_atom_site_type_symbol
_atom_site_label
_atom_site_fract_x
_atom_site_fract_y
_atom_site_fract_z
Si Si1 0.286504 0.723170 0.106519
Si Si2 0.642922 0.727697 0.108696
Si Si3 0.035304 0.405275 0.142558
Si Si4 0.163598 0.502527 0.059421
Si Si5 0.540679 0.875303 0.750000
O O1 0.333732 0.508653 0.146242
O O2 0.217192 0.617781 0.126126
O O3 0.305891 0.011724 0.142501
O O4 0.292771 0.750000 0.000000
O O5 0.579144 0.662978 0.157430
O O6 0.632988 0.750000 0.000000
O O7 0.029939 0.408992 0.250000
O O8 0.106816 0.400560 0.117899
O O9 0.997729 0.649563 0.100628
O O10 0.188358 0.250000 0.000000
O O11 0.140856 0.750000 0.000000
O O12 0.484508 0.671701 0.750000
#
# Coordination Sequence:
#
# PCOD8234322 Si02
#       5
#     8   8   8   8   4
#     4   9  18  36  61  85 117 151 189 241 301 355
#     4  10  21  40  63  87 121 164 194 239 303 351
#     4  10  22  39  54  75 117 162 198 243 300 362
#     4  11  21  35  60  89 115 146 197 257 301 350
#     4  12  26  42  62  94 128 156 204 252 278 344
#
# _framework density 22.235285000000001
#
# number of rings (size 3 to 8) (size 9 to 14) (size 15 to 20)
#    0.000    1.778    0.000    6.000    0.000    3.556 
#    4.000    0.000    0.000    0.000    2.889    0.000 
#    0.000    0.000    0.000    0.000    0.000    0.000 
#
# Total GULP energy -446134.865328 kJ/mol
# GULP energy per Si atom -12392.635148 kJ/mol
# Density = 2.218468 g / cm^3
# Si number density = 22.235285 Si / 1000 Ang^3
#
#
#
# Elastic Constant Matrix: (Units=GPa)
#
#
# Indices 1 2 3 4 5 6 
#
# 1 130.2457 34.6209 24.9952 0.0000 0.0000 0.0000
# 2 34.6209 129.8806 22.5554 0.0000 0.0000 0.0000
# 3 24.9952 22.5554 43.4032 0.0000 0.0000 0.0000
# 4 0.0000 0.0000 0.0000 11.3003 0.0000 0.0000
# 5 0.0000 0.0000 0.0000 0.0000 6.8073 0.0000
# 6 0.0000 0.0000 0.0000 0.0000 0.0000 50.9237
#
#
#
# Elastic Compliance Matrix: (Units=1/GPa)
#
#
# Indices 1 2 3 4 5 6 
#
# 1 0.008937 -0.001636 -0.004297 0.000000 0.000000 0.000000
# 2 -0.001636 0.008763 -0.003611 0.000000 0.000000 0.000000
# 3 -0.004297 -0.003611 0.027391 0.000000 0.000000 0.000000
# 4 0.000000 0.000000 0.000000 0.088493 0.000000 0.000000
# 5 0.000000 0.000000 0.000000 0.000000 0.146902 0.000000
# 6 0.000000 0.000000 0.000000 0.000000 0.000000 0.019637
#
#
# Mechanical properties :
#
#
# Convention : Reuss Voigt Hill
#
# Bulk Modulus (GPa) = 38.45796 51.98585 45.22190
# Shear Modulus (GPa) = 15.24955 28.56345 21.90650
#
# Velocity S-wave (km/s) = 2.62167 3.58802 3.14222
# Velocity P-wave (km/s) = 5.14759 6.37149 5.79196
#
# Compressibility (1/GPa) = 0.02600242
#
# Stress axis : x y z
#
# Youngs Moduli (GPa) = 111.89121 114.12014 36.50851
#
# Poissons Ratio (x) = 0.18672 0.15686
# Poissons Ratio (y) = 0.18307 0.13185
# Poissons Ratio (z) = 0.48075 0.41214
#
# Static dielectric constant tensor:
#      x y z
#    x 4.014760 0.000000 0.000000 
#    y 0.000000 4.784140 0.000000 
#    z 0.000000 0.000000 3.713470 
# 
# 
# High freq. dielectric constant tensor:
#      x y z
#    x 1.873660 0.000000 0.000000 
#    y 0.000000 1.903260 0.000000 
#    z 0.000000 0.000000 1.846290 
# 
# From -- ./inp_files/19213.got.cif
#   From: 2010.03.12/outbox.cif.g09.slc.cpg/sg57_10_cif.got.tgz:19213.got - 2010.04.16 15:48:40.
