data_PCOD8234122
_publ_section_title
;
Structure prediction by ZEFSAII (Michael W. Deem and Ramdas Pophale) SiO2 
 PCOD8234122
Probable space group: P B C M
;
_chemical_formula_sum "Si O2"
_cell_formula_units_Z 48
_cell_length_a 10.069013
_cell_length_b 13.884927
_cell_length_c 17.585727
_cell_angle_alpha 90.000000
_cell_angle_beta 90.000000
_cell_angle_gamma 90.000000
_cell_volume 2458.616712
_symmetry_space_group_name_H-M "P B C M"
_symmetry_group_IT_number 57
_symmetry_cell_setting 'orthorhombic'
loop_
_space_group_symop_operation_xyz
x,y,z
-x,-y,1/2+z
x,1/2-y,-z
-x,1/2+y,1/2-z
-x,-y,-z
x,y,1/2-z
-x,1/2+y,z
x,1/2-y,1/2+z
loop_
_atom_site_type_symbol
_atom_site_label
_atom_site_fract_x
_atom_site_fract_y
_atom_site_fract_z
Si Si1 0.843617 0.529960 0.160740
Si Si2 0.387093 0.583720 0.579694
Si Si3 0.524448 0.236504 0.338091
Si Si4 0.125605 0.056426 0.660341
Si Si5 0.631057 0.449929 0.906711
Si Si6 0.774520 0.760429 0.839643
O O1 0.813184 0.520051 0.250000
O O2 0.725137 0.483019 0.114752
O O3 0.852151 0.642457 0.135988
O O4 0.978501 0.476493 0.138107
O O5 0.382744 0.688808 0.616986
O O6 0.363145 0.595350 0.490347
O O7 0.530663 0.539085 0.597486
O O8 0.526077 0.265343 0.250000
O O9 0.584909 0.130801 0.347491
O O10 0.375237 0.238596 0.372647
O O11 0.151739 0.047077 0.750000
O O12 0.145456 0.166507 0.631544
O O13 0.224577 0.986297 0.616633
O O14 0.762759 0.756826 0.750000
#
# Coordination Sequence:
#
# PCOD8234122 Si02
#       6
#     8   8   8   8   8   8
#     4  10  21  38  61  88 121 159 204 251 296 352
#     4  11  23  38  58  87 122 155 196 246 300 358
#     4  11  21  36  63  88 116 156 203 251 296 349
#     4  10  21  38  61  88 121 159 204 251 296 352
#     4  11  23  38  58  87 122 155 196 246 300 358
#     4   9  18  34  57  86 116 152 197 247 298 349
#
# _framework density 19.523173
#
# number of rings (size 3 to 8) (size 9 to 14) (size 15 to 20)
#    0.000    1.667    3.333    1.500    0.000    3.333 
#    0.000    4.167    0.000    0.000    0.000    0.000 
#    0.000    0.000    0.000    0.000    0.000    0.000 
#
# Total GULP energy -595369.053393 kJ/mol
# GULP energy per Si atom -12403.521946 kJ/mol
# Density = 1.947874 g / cm^3
# Si number density = 19.523173 Si / 1000 Ang^3
#
#
#
# Elastic Constant Matrix: (Units=GPa)
#
#
# Indices 1 2 3 4 5 6 
#
# 1 88.6185 31.8987 29.6400 0.0000 0.0000 0.0000
# 2 31.8987 110.3577 17.0697 0.0000 0.0000 0.0000
# 3 29.6400 17.0697 46.8961 0.0000 0.0000 0.0000
# 4 0.0000 0.0000 0.0000 15.0945 0.0000 0.0000
# 5 0.0000 0.0000 0.0000 0.0000 23.6058 0.0000
# 6 0.0000 0.0000 0.0000 0.0000 0.0000 35.1718
#
#
#
# Elastic Compliance Matrix: (Units=1/GPa)
#
#
# Indices 1 2 3 4 5 6 
#
# 1 0.015243 -0.003090 -0.008509 0.000000 0.000000 0.000000
# 2 -0.003090 0.010228 -0.001770 0.000000 0.000000 0.000000
# 3 -0.008509 -0.001770 0.027346 0.000000 0.000000 0.000000
# 4 0.000000 0.000000 0.000000 0.066249 0.000000 0.000000
# 5 0.000000 0.000000 0.000000 0.000000 0.042362 0.000000
# 6 0.000000 0.000000 0.000000 0.000000 0.000000 0.028432
#
#
# Mechanical properties :
#
#
# Convention : Reuss Voigt Hill
#
# Bulk Modulus (GPa) = 38.34523 44.78766 41.56645
# Shear Modulus (GPa) = 22.19346 25.92537 24.05941
#
# Velocity S-wave (km/s) = 3.37527 3.64803 3.51429
# Velocity P-wave (km/s) = 5.90537 6.38238 6.14850
#
# Compressibility (1/GPa) = 0.02607886
#
# Stress axis : x y z
#
# Youngs Moduli (GPa) = 65.60600 97.76790 36.56815
#
# Poissons Ratio (x) = 0.30207 0.31117
# Poissons Ratio (y) = 0.20270 0.06473
# Poissons Ratio (z) = 0.55826 0.17307
#
# Static dielectric constant tensor:
#      x y z
#    x 3.466220 0.000000 0.000000 
#    y 0.000000 3.795300 0.000000 
#    z 0.000000 0.000000 3.360200 
# 
# 
# High freq. dielectric constant tensor:
#      x y z
#    x 1.753720 0.000000 0.000000 
#    y 0.000000 1.774250 0.000000 
#    z 0.000000 0.000000 1.743480 
# 
# From -- ./inp_files/20906.got.cif
#   From: 2010.03.12/outbox.cif.g09.slc.cpg/sg57_11_cif.got.tgz:20906.got - 2010.04.16 15:48:40.
