data_PCOD8234470
_publ_section_title
;
Structure prediction by ZEFSAII (Michael W. Deem and Ramdas Pophale) SiO2 
 PCOD8234470
Probable space group: P B C M
;
_chemical_formula_sum "Si O2"
_cell_formula_units_Z 48
_cell_length_a 9.227738
_cell_length_b 31.147322
_cell_length_c 8.864727
_cell_angle_alpha 90.000000
_cell_angle_beta 90.000000
_cell_angle_gamma 90.000000
_cell_volume 2547.893867
_symmetry_space_group_name_H-M "P B C M"
_symmetry_group_IT_number 57
_symmetry_cell_setting 'orthorhombic'
loop_
_space_group_symop_operation_xyz
x,y,z
-x,-y,1/2+z
x,1/2-y,-z
-x,1/2+y,1/2-z
-x,-y,-z
x,y,1/2-z
-x,1/2+y,z
x,1/2-y,1/2+z
loop_
_atom_site_type_symbol
_atom_site_label
_atom_site_fract_x
_atom_site_fract_y
_atom_site_fract_z
Si Si1 0.895104 0.616814 0.429599
Si Si2 0.912435 0.462106 0.573792
Si Si3 0.424733 0.292076 0.581173
Si Si4 0.412783 0.118412 0.570169
Si Si5 0.918304 0.709626 0.085518
Si Si6 0.420058 0.540533 0.429750
O O1 0.863334 0.618618 0.250000
O O2 0.746603 0.605286 0.513512
O O3 0.954114 0.663205 0.487536
O O4 0.016611 0.582851 0.475634
O O5 0.926083 0.468476 0.750000
O O6 0.747008 0.463105 0.521773
O O7 0.000000 0.500000 0.500000
O O8 0.492510 0.250000 0.500000
O O9 0.490127 0.296349 0.750000
O O10 0.461881 0.334590 0.485915
O O11 0.253724 0.285846 0.592624
O O12 0.416738 0.116962 0.750000
O O13 0.523086 0.084286 0.501389
O O14 0.988433 0.711525 0.250000
O O15 0.988484 0.750000 0.000000
O O16 0.500000 0.500000 0.500000
O O17 0.441221 0.541239 0.250000
#
# Coordination Sequence:
#
# PCOD8234470 Si02
#       6
#     8   8   8   8   8   8
#     4   9  18  34  53  75 104 138 173 215 262 310
#     4  10  22  38  57  78 102 133 171 213 263 318
#     4   9  16  28  47  74 107 142 178 221 265 308
#     4  11  21  33  52  80 110 143 180 219 262 313
#     4   8  14  24  42  68  99 131 164 202 248 294
#     4  11  23  39  57  79 105 137 175 218 267 321
#
# _framework density 18.839091
#
# number of rings (size 3 to 8) (size 9 to 14) (size 15 to 20)
#    0.000    2.333    0.000    4.500    0.000    8.667 
#    0.000    0.000    0.000    1.000    0.000    2.333 
#    0.000    0.000    0.000    0.000    0.000    0.000 
#
# Total GULP energy -595051.788445 kJ/mol
# GULP energy per Si atom -12396.912259 kJ/mol
# Density = 1.879621 g / cm^3
# Si number density = 18.839091 Si / 1000 Ang^3
#
#
#
# Elastic Constant Matrix: (Units=GPa)
#
#
# Indices 1 2 3 4 5 6 
#
# 1 98.9279 81.6437 48.5487 0.0000 0.0000 0.0000
# 2 81.6437 178.0214 63.9246 0.0000 0.0000 0.0000
# 3 48.5487 63.9246 101.0299 0.0000 0.0000 0.0000
# 4 0.0000 0.0000 0.0000 38.5198 0.0000 0.0000
# 5 0.0000 0.0000 0.0000 0.0000 19.9973 0.0000
# 6 0.0000 0.0000 0.0000 0.0000 0.0000 24.8898
#
#
#
# Elastic Compliance Matrix: (Units=1/GPa)
#
#
# Indices 1 2 3 4 5 6 
#
# 1 0.017622 -0.006523 -0.004341 0.000000 0.000000 0.000000
# 2 -0.006523 0.009683 -0.002992 0.000000 0.000000 0.000000
# 3 -0.004341 -0.002992 0.013877 0.000000 0.000000 0.000000
# 4 0.000000 0.000000 0.000000 0.025961 0.000000 0.000000
# 5 0.000000 0.000000 0.000000 0.000000 0.050007 0.000000
# 6 0.000000 0.000000 0.000000 0.000000 0.000000 0.040177
#
#
# Mechanical properties :
#
#
# Convention : Reuss Voigt Hill
#
# Bulk Modulus (GPa) = 74.23701 85.13480 79.68591
# Shear Modulus (GPa) = 26.38113 28.93887 27.66000
#
# Velocity S-wave (km/s) = 3.74617 3.92357 3.83590
# Velocity P-wave (km/s) = 7.62910 8.11261 7.87457
#
# Compressibility (1/GPa) = 0.01347037
#
# Stress axis : x y z
#
# Youngs Moduli (GPa) = 56.74746 103.26943 72.06005
#
# Poissons Ratio (x) = 0.67363 0.31279
# Poissons Ratio (y) = 0.37017 0.21563
# Poissons Ratio (z) = 0.24632 0.30902
#
# Static dielectric constant tensor:
#      x y z
#    x 3.191200 0.000000 0.000000 
#    y 0.000000 3.819850 0.000000 
#    z 0.000000 0.000000 3.586570 
# 
# 
# High freq. dielectric constant tensor:
#      x y z
#    x 1.687990 0.000000 0.000000 
#    y 0.000000 1.756480 0.000000 
#    z 0.000000 0.000000 1.733960 
# 
# From -- ./inp_files/2036.got.cif
#   From: 2010.03.12/outbox.cif.g09.slc.cpg/sg57_2_cif.got.tgz:2036.got - 2010.04.16 15:48:40.
