data_PCOD8234208
_publ_section_title
;
Structure prediction by ZEFSAII (Michael W. Deem and Ramdas Pophale) SiO2 
 PCOD8234208
Probable space group: P B C M
;
_chemical_formula_sum "Si O2"
_cell_formula_units_Z 48
_cell_length_a 14.921893
_cell_length_b 9.215188
_cell_length_c 16.868983
_cell_angle_alpha 90.000000
_cell_angle_beta 90.000000
_cell_angle_gamma 90.000000
_cell_volume 2319.620946
_symmetry_space_group_name_H-M "P B C M"
_symmetry_group_IT_number 57
_symmetry_cell_setting 'orthorhombic'
loop_
_space_group_symop_operation_xyz
x,y,z
-x,-y,1/2+z
x,1/2-y,-z
-x,1/2+y,1/2-z
-x,-y,-z
x,y,1/2-z
-x,1/2+y,z
x,1/2-y,1/2+z
loop_
_atom_site_type_symbol
_atom_site_label
_atom_site_fract_x
_atom_site_fract_y
_atom_site_fract_z
Si Si1 0.428819 0.542550 0.160721
Si Si2 0.052692 0.038437 0.079934
Si Si3 0.743252 0.546794 0.070956
Si Si4 0.596543 0.364131 0.345147
Si Si5 0.264547 0.127132 0.607214
Si Si6 0.927138 0.662426 0.840013
O O1 0.457966 0.572639 0.250000
O O2 0.414516 0.700200 0.121438
O O3 0.511504 0.455149 0.121913
O O4 0.339166 0.446202 0.161681
O O5 0.155311 0.988688 0.073694
O O6 0.051656 0.209738 0.097784
O O7 0.006069 0.955040 0.152626
O O8 0.000000 0.000000 0.000000
O O9 0.685004 0.425877 0.114058
O O10 0.729958 0.699011 0.116387
O O11 0.714912 0.569734 0.980482
O O12 0.607296 0.368494 0.250000
O O13 0.165559 0.082243 0.636310
O O14 0.922658 0.720173 0.750000
#
# Coordination Sequence:
#
# PCOD8234208 Si02
#       6
#     8   8   8   8   8   8
#     4  10  21  39  62  89 125 164 203 259 317 368
#     4  11  22  42  63  87 127 169 208 256 320 381
#     4  10  22  39  62  87 118 164 206 253 311 374
#     4  10  22  39  61  91 123 161 209 255 311 374
#     4  10  21  39  61  88 120 159 208 252 311 377
#     4  11  23  39  63  94 123 161 213 264 313 374
#
# _framework density 20.693037
#
# number of rings (size 3 to 8) (size 9 to 14) (size 15 to 20)
#    0.000    1.667    1.667    2.500    0.000    8.000 
#    3.000    1.667    0.000    0.000    0.000    0.000 
#    0.000    0.000    0.000    0.000    0.000    0.000 
#
# Total GULP energy -595263.527166 kJ/mol
# GULP energy per Si atom -12401.323483 kJ/mol
# Density = 2.064594 g / cm^3
# Si number density = 20.693037 Si / 1000 Ang^3
#
#
#
# Elastic Constant Matrix: (Units=GPa)
#
#
# Indices 1 2 3 4 5 6 
#
# 1 162.2826 82.8195 29.9921 0.0000 0.0000 0.0000
# 2 82.8195 106.5030 29.3626 0.0000 0.0000 0.0000
# 3 29.9921 29.3626 67.2335 0.0000 0.0000 0.0000
# 4 0.0000 0.0000 0.0000 29.4105 0.0000 0.0000
# 5 0.0000 0.0000 0.0000 0.0000 36.7436 0.0000
# 6 0.0000 0.0000 0.0000 0.0000 0.0000 41.1907
#
#
#
# Elastic Compliance Matrix: (Units=1/GPa)
#
#
# Indices 1 2 3 4 5 6 
#
# 1 0.010308 -0.007672 -0.001248 0.000000 0.000000 0.000000
# 2 -0.007672 0.016384 -0.003733 0.000000 0.000000 0.000000
# 3 -0.001248 -0.003733 0.017061 0.000000 0.000000 0.000000
# 4 0.000000 0.000000 0.000000 0.034001 0.000000 0.000000
# 5 0.000000 0.000000 0.000000 0.000000 0.027216 0.000000
# 6 0.000000 0.000000 0.000000 0.000000 0.000000 0.024277
#
#
# Mechanical properties :
#
#
# Convention : Reuss Voigt Hill
#
# Bulk Modulus (GPa) = 54.20820 68.92972 61.56896
# Shear Modulus (GPa) = 31.11357 34.39197 32.75277
#
# Velocity S-wave (km/s) = 3.88181 4.08119 3.98275
# Velocity P-wave (km/s) = 6.80767 7.45594 7.13917
#
# Compressibility (1/GPa) = 0.01844739
#
# Stress axis : x y z
#
# Youngs Moduli (GPa) = 97.01342 61.03403 58.61470
#
# Poissons Ratio (x) = 0.46823 0.07314
# Poissons Ratio (y) = 0.74425 0.21882
# Poissons Ratio (z) = 0.12105 0.22785
#
# Static dielectric constant tensor:
#      x y z
#    x 3.827540 0.000000 0.000000 
#    y 0.000000 3.761610 0.000000 
#    z 0.000000 0.000000 3.533610 
# 
# 
# High freq. dielectric constant tensor:
#      x y z
#    x 1.819710 0.000000 0.000000 
#    y 0.000000 1.807300 0.000000 
#    z 0.000000 0.000000 1.800290 
# 
# From -- ./inp_files/22475.got.cif
#   From: 2010.03.12/outbox.cif.g09.slc.cpg/sg57_12_cif.got.tgz:22475.got - 2010.04.16 15:48:40.
