data_PCOD8234907
_publ_section_title
;
Structure prediction by ZEFSAII (Michael W. Deem and Ramdas Pophale) SiO2 
 PCOD8234907
Probable space group: P B C M
;
_chemical_formula_sum "Si O2"
_cell_formula_units_Z 40
_cell_length_a 10.034528
_cell_length_b 8.498613
_cell_length_c 21.763044
_cell_angle_alpha 90.000000
_cell_angle_beta 90.000000
_cell_angle_gamma 90.000000
_cell_volume 1855.943037
_symmetry_space_group_name_H-M "P B C M"
_symmetry_group_IT_number 57
_symmetry_cell_setting 'orthorhombic'
loop_
_space_group_symop_operation_xyz
x,y,z
-x,-y,1/2+z
x,1/2-y,-z
-x,1/2+y,1/2-z
-x,-y,-z
x,y,1/2-z
-x,1/2+y,z
x,1/2-y,1/2+z
loop_
_atom_site_type_symbol
_atom_site_label
_atom_site_fract_x
_atom_site_fract_y
_atom_site_fract_z
Si Si1 0.138364 0.853276 0.321382
Si Si2 0.698900 0.637933 0.750000
Si Si3 0.867002 0.716101 0.148097
Si Si4 0.474825 0.066682 0.250000
Si Si5 0.370176 0.189255 0.432660
Si Si6 0.406023 0.883883 0.128724
O O1 0.134361 0.799218 0.250000
O O2 0.016595 0.777830 0.359591
O O3 0.132769 0.042340 0.323582
O O4 0.268469 0.788877 0.358413
O O5 0.791167 0.661552 0.808294
O O6 0.565614 0.749990 0.750000
O O7 0.635978 0.461179 0.750000
O O8 0.784323 0.723464 0.084308
O O9 0.414709 0.989989 0.189332
O O10 0.402764 0.250000 0.500000
O O11 0.471272 0.267945 0.383074
O O12 0.393993 0.001629 0.429566
#
# Coordination Sequence:
#
# PCOD8234907 Si02
#       6
#     8   4   8   4   8   8
#     4  11  20  37  58  89 123 150 189 249 315 371
#     4  12  20  37  59  91 135 153 189 256 312 366
#     4  11  22  39  58  87 124 159 195 246 304 360
#     4  12  18  37  61  95 121 145 193 254 320 354
#     4  11  24  42  61  84 121 168 210 245 288 357
#     4  11  21  38  62  89 120 150 197 257 306 359
#
# _framework density 21.552387
#
# number of rings (size 3 to 8) (size 9 to 14) (size 15 to 20)
#    0.000    0.800    9.000    0.600    0.000    1.600 
#    3.600    5.000    0.000    0.000    0.000    0.000 
#    0.000    0.000    0.000    0.000    0.000    0.000 
#
# Total GULP energy -495815.592248 kJ/mol
# GULP energy per Si atom -12395.389806 kJ/mol
# Density = 2.150333 g / cm^3
# Si number density = 21.552387 Si / 1000 Ang^3
#
#
#
# Elastic Constant Matrix: (Units=GPa)
#
#
# Indices 1 2 3 4 5 6 
#
# 1 127.0496 33.3739 33.1116 0.0000 0.0000 0.0000
# 2 33.3739 31.6857 11.5373 0.0000 0.0000 0.0000
# 3 33.1116 11.5373 58.8926 0.0000 0.0000 0.0000
# 4 0.0000 0.0000 0.0000 23.3332 0.0000 0.0000
# 5 0.0000 0.0000 0.0000 0.0000 23.9712 0.0000
# 6 0.0000 0.0000 0.0000 0.0000 0.0000 39.2149
#
#
#
# Elastic Compliance Matrix: (Units=1/GPa)
#
#
# Indices 1 2 3 4 5 6 
#
# 1 0.011924 -0.010895 -0.004570 0.000000 0.000000 0.000000
# 2 -0.010895 0.043940 -0.002482 0.000000 0.000000 0.000000
# 3 -0.004570 -0.002482 0.020036 0.000000 0.000000 0.000000
# 4 0.000000 0.000000 0.000000 0.042857 0.000000 0.000000
# 5 0.000000 0.000000 0.000000 0.000000 0.041717 0.000000
# 6 0.000000 0.000000 0.000000 0.000000 0.000000 0.025500
#
#
# Mechanical properties :
#
#
# Convention : Reuss Voigt Hill
#
# Bulk Modulus (GPa) = 24.99704 41.51929 33.25817
# Shear Modulus (GPa) = 21.25825 26.61089 23.93457
#
# Velocity S-wave (km/s) = 3.14403 3.51765 3.33608
# Velocity P-wave (km/s) = 4.98030 5.98370 5.50491
#
# Compressibility (1/GPa) = 0.04000474
#
# Stress axis : x y z
#
# Youngs Moduli (GPa) = 83.86522 22.75851 49.91130
#
# Poissons Ratio (x) = 0.24796 0.22808
# Poissons Ratio (y) = 0.91374 0.12389
# Poissons Ratio (z) = 0.38323 0.05649
#
# Static dielectric constant tensor:
#      x y z
#    x 4.355160 0.000000 0.000000 
#    y 0.000000 3.743170 0.000000 
#    z 0.000000 0.000000 3.540860 
# 
# 
# High freq. dielectric constant tensor:
#      x y z
#    x 1.861490 0.000000 0.000000 
#    y 0.000000 1.836140 0.000000 
#    z 0.000000 0.000000 1.815160 
# 
# From -- ./inp_files/24872.got.cif
#   From: 2010.03.12/outbox.cif.g09.slc.cpg/sg57_13_cif.got.tgz:24872.got - 2010.04.16 15:48:40.
