data_PCOD8234791
_publ_section_title
;
Structure prediction by ZEFSAII (Michael W. Deem and Ramdas Pophale) SiO2 
 PCOD8234791
Probable space group: P B C M
;
_chemical_formula_sum "Si O2"
_cell_formula_units_Z 48
_cell_length_a 10.438205
_cell_length_b 13.195616
_cell_length_c 14.096989
_cell_angle_alpha 90.000000
_cell_angle_beta 90.000000
_cell_angle_gamma 90.000000
_cell_volume 1941.698752
_symmetry_space_group_name_H-M "P B C M"
_symmetry_group_IT_number 57
_symmetry_cell_setting 'orthorhombic'
loop_
_space_group_symop_operation_xyz
x,y,z
-x,-y,1/2+z
x,1/2-y,-z
-x,1/2+y,1/2-z
-x,-y,-z
x,y,1/2-z
-x,1/2+y,z
x,1/2-y,1/2+z
loop_
_atom_site_type_symbol
_atom_site_label
_atom_site_fract_x
_atom_site_fract_y
_atom_site_fract_z
Si Si1 0.196366 0.275806 0.359784
Si Si2 0.921918 0.206375 0.101072
Si Si3 0.913920 0.519210 0.638027
Si Si4 0.427144 0.900178 0.474108
Si Si5 0.815998 0.406147 0.354524
Si Si6 0.472805 0.230082 0.138950
O O1 0.220287 0.291196 0.250000
O O2 0.324491 0.218595 0.396426
O O3 0.074835 0.204031 0.379847
O O4 0.174405 0.389207 0.404460
O O5 0.849163 0.287262 0.167524
O O6 0.865242 0.093192 0.111749
O O7 0.887387 0.250000 0.000000
O O8 0.917044 0.531786 0.750000
O O9 0.059014 0.537591 0.602158
O O10 0.284975 0.925400 0.438260
O O11 0.432126 0.834210 0.571332
O O12 0.492498 0.846780 0.382654
O O13 0.500000 0.000000 0.500000
O O14 0.774585 0.449778 0.250000
O O15 0.494775 0.203459 0.250000
#
# Coordination Sequence:
#
# PCOD8234791 Si02
#       6
#     8   8   8   8   8   8
#     4   9  20  40  63  93 130 174 229 286 345 420
#     4  11  23  34  64 101 140 177 221 283 360 423
#     4   9  19  39  67  97 130 178 231 281 352 432
#     4  11  26  44  71 101 138 181 243 291 345 415
#     4  10  23  44  68 100 141 182 232 293 354 423
#     4  10  24  46  70  97 137 185 235 293 353 414
#
# _framework density 24.720621000000001
#
# number of rings (size 3 to 8) (size 9 to 14) (size 15 to 20)
#    0.000    2.000    0.000    3.000    7.000    5.333 
#    0.000    0.000    0.000    0.000    0.000    0.000 
#    0.000    0.000    0.000    0.000    0.000    0.000 
#
# Total GULP energy -594702.476465 kJ/mol
# GULP energy per Si atom -12389.634926 kJ/mol
# Density = 2.466436 g / cm^3
# Si number density = 24.720621 Si / 1000 Ang^3
#
#
#
# Elastic Constant Matrix: (Units=GPa)
#
#
# Indices 1 2 3 4 5 6 
#
# 1 48.7695 3.2514 47.4152 0.0000 0.0000 0.0000
# 2 3.2514 101.2496 17.7583 0.0000 0.0000 0.0000
# 3 47.4152 17.7583 80.5431 0.0000 0.0000 0.0000
# 4 0.0000 0.0000 0.0000 30.2807 0.0000 0.0000
# 5 0.0000 0.0000 0.0000 0.0000 3.0236 0.0000
# 6 0.0000 0.0000 0.0000 0.0000 0.0000 21.7306
#
#
#
# Elastic Compliance Matrix: (Units=1/GPa)
#
#
# Indices 1 2 3 4 5 6 
#
# 1 0.049204 0.003641 -0.029769 0.000000 0.000000 0.000000
# 2 0.003641 0.010543 -0.004468 0.000000 0.000000 0.000000
# 3 -0.029769 -0.004468 0.030926 0.000000 0.000000 0.000000
# 4 0.000000 0.000000 0.000000 0.033024 0.000000 0.000000
# 5 0.000000 0.000000 0.000000 0.000000 0.330734 0.000000
# 6 0.000000 0.000000 0.000000 0.000000 0.000000 0.046018
#
#
# Mechanical properties :
#
#
# Convention : Reuss Voigt Hill
#
# Bulk Modulus (GPa) = 33.91990 40.82355 37.37172
# Shear Modulus (GPa) = 8.74938 21.81612 15.28275
#
# Velocity S-wave (km/s) = 1.88334 2.97392 2.48910
# Velocity P-wave (km/s) = 4.29888 5.32373 4.83852
#
# Compressibility (1/GPa) = 0.02948122
#
# Stress axis : x y z
#
# Youngs Moduli (GPa) = 20.32347 94.84679 32.33563
#
# Poissons Ratio (x) = -0.34535 0.96260
# Poissons Ratio (y) = -0.07400 0.14448
# Poissons Ratio (z) = 0.60501 0.42379
#
# Static dielectric constant tensor:
#      x y z
#    x 4.657640 0.000000 0.000000 
#    y 0.000000 4.433580 0.000000 
#    z 0.000000 0.000000 4.419180 
# 
# 
# High freq. dielectric constant tensor:
#      x y z
#    x 1.972430 0.000000 0.000000 
#    y 0.000000 1.972490 0.000000 
#    z 0.000000 0.000000 1.990810 
# 
# From -- ./inp_files/17609.got.cif
#   From: 2010.03.12/outbox.cif.g09.slc.cpg/sg57_9_cif.got.tgz:17609.got - 2010.04.16 15:48:40.
