data_PCOD8234638
_publ_section_title
;
Structure prediction by ZEFSAII (Michael W. Deem and Ramdas Pophale) SiO2 
 PCOD8234638
Probable space group: P B C M
;
_chemical_formula_sum "Si O2"
_cell_formula_units_Z 16
_cell_length_a 8.891546
_cell_length_b 8.208093
_cell_length_c 8.009458
_cell_angle_alpha 90.000000
_cell_angle_beta 90.000000
_cell_angle_gamma 90.000000
_cell_volume 584.551362
_symmetry_space_group_name_H-M "P B C M"
_symmetry_group_IT_number 57
_symmetry_cell_setting 'orthorhombic'
loop_
_space_group_symop_operation_xyz
x,y,z
-x,-y,1/2+z
x,1/2-y,-z
-x,1/2+y,1/2-z
-x,-y,-z
x,y,1/2-z
-x,1/2+y,z
x,1/2-y,1/2+z
loop_
_atom_site_type_symbol
_atom_site_label
_atom_site_fract_x
_atom_site_fract_y
_atom_site_fract_z
Si Si1 0.677524 0.903314 0.250000
Si Si2 0.338633 0.789452 0.250000
Si Si3 0.164680 0.460516 0.935236
O O1 0.683878 0.098518 0.250000
O O2 0.514901 0.825396 0.250000
O O3 0.760119 0.847861 0.421242
O O4 0.261912 0.873063 0.086542
O O5 0.160903 0.372452 0.750000
O O6 0.000000 0.500000 0.000000
#
# Coordination Sequence:
#
# PCOD8234638 Si02
#       3
#     4   4   8
#     4  12  21  48  64 104 138 176 227 274 342 402
#     4  10  25  40  74  94 140 180 217 282 336 402
#     4  10  22  41  68  93 131 178 225 279 334 392
#
# _framework density 27.371420000000001
#
# number of rings (size 3 to 8) (size 9 to 14) (size 15 to 20)
#    1.500    0.000    2.500    3.000    0.000    0.000 
#    0.000   15.000    0.000    0.000    0.000    0.000 
#    0.000    0.000    0.000    0.000    0.000    0.000 
#
# Total GULP energy -198245.651665 kJ/mol
# GULP energy per Si atom -12390.353229 kJ/mol
# Density = 2.730912 g / cm^3
# Si number density = 27.371420 Si / 1000 Ang^3
#
#
#
# Elastic Constant Matrix: (Units=GPa)
#
#
# Indices 1 2 3 4 5 6 
#
# 1 229.5941 4.2695 110.0779 0.0000 0.0000 0.0000
# 2 4.2695 83.7910 74.4658 0.0000 0.0000 0.0000
# 3 110.0779 74.4658 261.4997 0.0000 0.0000 0.0000
# 4 0.0000 0.0000 0.0000 54.7926 0.0000 0.0000
# 5 0.0000 0.0000 0.0000 0.0000 62.1348 0.0000
# 6 0.0000 0.0000 0.0000 0.0000 0.0000 -60.9232
#
#
#
# Elastic Compliance Matrix: (Units=1/GPa)
#
#
# Indices 1 2 3 4 5 6 
#
# 1 0.005829 0.002522 -0.003172 0.000000 0.000000 0.000000
# 2 0.002522 0.017069 -0.005922 0.000000 0.000000 0.000000
# 3 -0.003172 -0.005922 0.006846 0.000000 0.000000 0.000000
# 4 0.000000 0.000000 0.000000 0.018251 0.000000 0.000000
# 5 0.000000 0.000000 0.000000 0.000000 0.016094 0.000000
# 6 0.000000 0.000000 0.000000 0.000000 0.000000 -0.016414
#
#
# Mechanical properties :
#
#
# Convention : Reuss Voigt Hill
#
# Bulk Modulus (GPa) = 60.24207 105.83458 83.03832
# Shear Modulus (GPa) = 75.35443 36.93894 56.14669
#
# Velocity S-wave (km/s) = 5.25263 3.67760 4.53403
# Velocity P-wave (km/s) = 7.67096 7.53545 7.60351
#
# Compressibility (1/GPa) = 0.01659970
#
# Stress axis : x y z
#
# Youngs Moduli (GPa) = 171.54265 58.58511 146.07388
#
# Poissons Ratio (x) = -0.14775 0.46336
# Poissons Ratio (y) = -0.43263 0.86510
# Poissons Ratio (z) = 0.54415 0.34696
#
# Static dielectric constant tensor:
#      x y z
#    x 5.082610 0.000000 0.000000 
#    y 0.000000 5.083620 0.000000 
#    z 0.000000 0.000000 5.714170 
# 
# 
# High freq. dielectric constant tensor:
#      x y z
#    x 2.088750 0.000000 0.000000 
#    y 0.000000 2.132900 0.000000 
#    z 0.000000 0.000000 2.150890 
# 
# From -- ./inp_files/867.got.cif
#   From: 2010.03.12/outbox.cif.g09.slc.cpg/sg57_1_cif.got.tgz:867.got - 2010.04.16 15:48:40.
