data_PCOD8234404
_publ_section_title
;
Structure prediction by ZEFSAII (Michael W. Deem and Ramdas Pophale) SiO2 
 PCOD8234404
Probable space group: P B C M
;
_chemical_formula_sum "Si O2"
_cell_formula_units_Z 56
_cell_length_a 8.632437
_cell_length_b 21.554657
_cell_length_c 12.824594
_cell_angle_alpha 90.000000
_cell_angle_beta 90.000000
_cell_angle_gamma 90.000000
_cell_volume 2386.262185
_symmetry_space_group_name_H-M "P B C M"
_symmetry_group_IT_number 57
_symmetry_cell_setting 'orthorhombic'
loop_
_space_group_symop_operation_xyz
x,y,z
-x,-y,1/2+z
x,1/2-y,-z
-x,1/2+y,1/2-z
-x,-y,-z
x,y,1/2-z
-x,1/2+y,z
x,1/2-y,1/2+z
loop_
_atom_site_type_symbol
_atom_site_label
_atom_site_fract_x
_atom_site_fract_y
_atom_site_fract_z
Si Si1 0.415314 0.160249 0.565940
Si Si2 0.892451 0.277226 0.871755
Si Si3 0.065896 0.344153 0.125293
Si Si4 0.539838 0.284252 0.634539
Si Si5 0.379938 0.551565 0.530333
Si Si6 0.130297 0.586743 0.126395
Si Si7 0.926333 0.026774 0.871611
O O1 0.236518 0.145428 0.581836
O O2 0.461415 0.216876 0.639721
O O3 0.440099 0.173855 0.443212
O O4 0.525138 0.102695 0.596237
O O5 0.905391 0.265195 0.750000
O O6 0.714008 0.275140 0.907108
O O7 0.954269 0.346857 0.899203
O O8 0.986002 0.218820 0.923579
O O9 0.069933 0.340666 0.250000
O O10 0.970991 0.404537 0.086616
O O11 0.535933 0.314068 0.750000
O O12 0.500000 0.500000 0.500000
O O13 0.298455 0.582436 0.428503
O O14 0.254122 0.518189 0.604005
O O15 0.158586 0.582001 0.250000
O O16 0.027966 0.529864 0.079441
O O17 0.957606 0.022152 0.750000
#
# Coordination Sequence:
#
# PCOD8234404 Si02
#       7
#     8   8   8   8   8   8   8
#     4  11  23  39  63  99 134 172 215 267 340 394
#     4   9  18  38  68  93 122 171 219 272 329 381
#     4  10  21  41  68  98 131 173 226 275 324 392
#     4  10  21  42  65  92 132 169 216 272 328 395
#     4  12  25  42  66  97 137 174 221 273 336 401
#     4  10  21  42  68  95 130 174 226 280 333 391
#     4  10  23  44  68  94 129 179 230 274 326 394
#
# _framework density 23.467663000000002
#
# number of rings (size 3 to 8) (size 9 to 14) (size 15 to 20)
#    0.000    1.714    1.429    2.571    0.000    2.857 
#   10.286    0.000    0.000    0.000    0.000    1.000 
#    0.000    0.000    0.000    0.000    0.000    0.000 
#
# Total GULP energy -694395.977880 kJ/mol
# GULP energy per Si atom -12399.928176 kJ/mol
# Density = 2.341425 g / cm^3
# Si number density = 23.467663 Si / 1000 Ang^3
#
#
#
# Elastic Constant Matrix: (Units=GPa)
#
#
# Indices 1 2 3 4 5 6 
#
# 1 153.6197 77.1088 7.9541 0.0000 0.0000 0.0000
# 2 77.1088 155.5321 39.3664 0.0000 0.0000 0.0000
# 3 7.9541 39.3664 47.7418 0.0000 0.0000 0.0000
# 4 0.0000 0.0000 0.0000 32.0702 0.0000 0.0000
# 5 0.0000 0.0000 0.0000 0.0000 33.3562 0.0000
# 6 0.0000 0.0000 0.0000 0.0000 0.0000 50.9705
#
#
#
# Elastic Compliance Matrix: (Units=1/GPa)
#
#
# Indices 1 2 3 4 5 6 
#
# 1 0.008940 -0.005125 0.002736 0.000000 0.000000 0.000000
# 2 -0.005125 0.011063 -0.008269 0.000000 0.000000 0.000000
# 3 0.002736 -0.008269 0.027308 0.000000 0.000000 0.000000
# 4 0.000000 0.000000 0.000000 0.031182 0.000000 0.000000
# 5 0.000000 0.000000 0.000000 0.000000 0.029979 0.000000
# 6 0.000000 0.000000 0.000000 0.000000 0.000000 0.019619
#
#
# Mechanical properties :
#
#
# Convention : Reuss Voigt Hill
#
# Bulk Modulus (GPa) = 38.46541 67.30580 52.88561
# Shear Modulus (GPa) = 31.63117 38.77701 35.20409
#
# Velocity S-wave (km/s) = 3.67531 4.06933 3.87733
# Velocity P-wave (km/s) = 5.86830 7.12894 6.52911
#
# Compressibility (1/GPa) = 0.02599738
#
# Stress axis : x y z
#
# Youngs Moduli (GPa) = 111.85219 90.38967 36.61923
#
# Poissons Ratio (x) = 0.46325 -0.10020
# Poissons Ratio (y) = 0.57324 0.30279
# Poissons Ratio (z) = -0.30607 0.74739
#
# Static dielectric constant tensor:
#      x y z
#    x 4.047360 0.000000 0.000000 
#    y 0.000000 -5.571880 0.000000 
#    z 0.000000 0.000000 4.446700 
# 
# 
# High freq. dielectric constant tensor:
#      x y z
#    x 1.914600 0.000000 0.000000 
#    y 0.000000 1.943720 0.000000 
#    z 0.000000 0.000000 1.949700 
# 
# From -- ./inp_files/16694.got.cif
#   From: 2010.03.12/outbox.cif.g09.slc.cpg/sg57_9_cif.got.tgz:16694.got - 2010.04.16 15:48:40.
