data_PCOD8234011
_publ_section_title
;
Structure prediction by ZEFSAII (Michael W. Deem and Ramdas Pophale) SiO2 
 PCOD8234011
Probable space group: P B C M
;
_chemical_formula_sum "Si O2"
_cell_formula_units_Z 56
_cell_length_a 14.565372
_cell_length_b 9.765084
_cell_length_c 18.793663
_cell_angle_alpha 90.000000
_cell_angle_beta 90.000000
_cell_angle_gamma 90.000000
_cell_volume 2673.061799
_symmetry_space_group_name_H-M "P B C M"
_symmetry_group_IT_number 57
_symmetry_cell_setting 'orthorhombic'
loop_
_space_group_symop_operation_xyz
x,y,z
-x,-y,1/2+z
x,1/2-y,-z
-x,1/2+y,1/2-z
-x,-y,-z
x,y,1/2-z
-x,1/2+y,z
x,1/2-y,1/2+z
loop_
_atom_site_type_symbol
_atom_site_label
_atom_site_fract_x
_atom_site_fract_y
_atom_site_fract_z
Si Si1 0.280856 0.135598 0.943525
Si Si2 0.593479 0.448661 0.332812
Si Si3 0.097281 0.992236 0.092814
Si Si4 0.081881 0.194984 0.599125
Si Si5 0.036087 0.241250 0.250000
Si Si6 0.580519 0.734067 0.668658
Si Si7 0.280887 0.893673 0.036023
Si Si8 0.902487 0.463000 0.250000
O O1 0.171913 0.121699 0.930521
O O2 0.332114 0.173123 0.871458
O O3 0.303703 0.250000 0.000000
O O4 0.322062 0.998128 0.977947
O O5 0.624757 0.428376 0.250000
O O6 0.564301 0.605478 0.346995
O O7 0.509805 0.349520 0.352826
O O8 0.674601 0.405785 0.385968
O O9 0.173180 0.928285 0.041871
O O10 0.144518 0.990143 0.173104
O O11 0.006920 0.898953 0.084209
O O12 0.073009 0.148673 0.067977
O O13 0.095132 0.209471 0.683310
O O14 0.935838 0.307626 0.250000
O O15 0.015721 0.078195 0.250000
O O16 0.604746 0.708865 0.750000
O O17 0.297932 0.750000 0.000000
#
# Coordination Sequence:
#
# PCOD8234011 Si02
#       8
#     8   8   8   8   4   8   8   4
#     4  12  24  44  62  96 134 170 220 261 327 389
#     4  10  23  46  74 101 130 169 215 265 328 393
#     4  10  21  39  61  91 125 172 219 267 324 378
#     4  10  21  37  63  88 128 171 218 271 316 386
#     4   8  16  32  54  86 111 154 210 259 318 361
#     4  10  23  44  74 102 130 170 214 266 327 392
#     4  12  28  44  62  98 134 177 220 270 327 388
#     4   8  16  32  58  82 113 152 210 263 310 373
#
# _framework density 20.949759
#
# number of rings (size 3 to 8) (size 9 to 14) (size 15 to 20)
#    0.000    1.714    2.857    0.000    6.000    2.286 
#    0.000    0.000    0.000    0.000    0.000    0.000 
#    0.000    0.000    0.000    0.000    0.000    0.000 
#
# Total GULP energy -693892.134826 kJ/mol
# GULP energy per Si atom -12390.930979 kJ/mol
# Density = 2.090208 g / cm^3
# Si number density = 20.949759 Si / 1000 Ang^3
#
#
#
# Elastic Constant Matrix: (Units=GPa)
#
#
# Indices 1 2 3 4 5 6 
#
# 1 98.9873 60.7698 56.6333 0.0000 0.0000 0.0000
# 2 60.7698 140.9887 44.4116 0.0000 0.0000 0.0000
# 3 56.6333 44.4116 61.7769 0.0000 0.0000 0.0000
# 4 0.0000 0.0000 0.0000 31.4444 0.0000 0.0000
# 5 0.0000 0.0000 0.0000 0.0000 37.4587 0.0000
# 6 0.0000 0.0000 0.0000 0.0000 0.0000 39.2995
#
#
#
# Elastic Compliance Matrix: (Units=1/GPa)
#
#
# Indices 1 2 3 4 5 6 
#
# 1 0.023052 -0.004239 -0.018085 0.000000 0.000000 0.000000
# 2 -0.004239 0.009949 -0.003266 0.000000 0.000000 0.000000
# 3 -0.018085 -0.003266 0.035114 0.000000 0.000000 0.000000
# 4 0.000000 0.000000 0.000000 0.031802 0.000000 0.000000
# 5 0.000000 0.000000 0.000000 0.000000 0.026696 0.000000
# 6 0.000000 0.000000 0.000000 0.000000 0.000000 0.025446
#
#
# Mechanical properties :
#
#
# Convention : Reuss Voigt Hill
#
# Bulk Modulus (GPa) = 59.05012 69.48694 64.26853
# Shear Modulus (GPa) = 23.93683 30.96974 27.45329
#
# Velocity S-wave (km/s) = 3.38388 3.84902 3.62392
# Velocity P-wave (km/s) = 6.59661 7.27967 6.94654
#
# Compressibility (1/GPa) = 0.01693477
#
# Stress axis : x y z
#
# Youngs Moduli (GPa) = 43.38103 100.51532 28.47842
#
# Poissons Ratio (x) = 0.42609 0.51503
# Poissons Ratio (y) = 0.18390 0.09301
# Poissons Ratio (z) = 0.78454 0.32829
#
# Static dielectric constant tensor:
#      x y z
#    x 3.436910 0.000000 0.000000 
#    y 0.000000 4.016060 0.000000 
#    z 0.000000 0.000000 4.033550 
# 
# 
# High freq. dielectric constant tensor:
#      x y z
#    x 1.789780 0.000000 0.000000 
#    y 0.000000 1.831610 0.000000 
#    z 0.000000 0.000000 1.843200 
# 
# From -- ./inp_files/25446.got.cif
#   From: 2010.03.12/outbox.cif.g09.slc.cpg/sg57_13_cif.got.tgz:25446.got - 2010.04.16 15:48:40.
