data_PCOD8234626
_publ_section_title
;
Structure prediction by ZEFSAII (Michael W. Deem and Ramdas Pophale) SiO2 
 PCOD8234626
Probable space group: P B C M
;
_chemical_formula_sum "Si O2"
_cell_formula_units_Z 32
_cell_length_a 18.014172
_cell_length_b 5.115046
_cell_length_c 15.468075
_cell_angle_alpha 90.000000
_cell_angle_beta 90.000000
_cell_angle_gamma 90.000000
_cell_volume 1425.279760
_symmetry_space_group_name_H-M "P B C M"
_symmetry_group_IT_number 57
_symmetry_cell_setting 'orthorhombic'
loop_
_space_group_symop_operation_xyz
x,y,z
-x,-y,1/2+z
x,1/2-y,-z
-x,1/2+y,1/2-z
-x,-y,-z
x,y,1/2-z
-x,1/2+y,z
x,1/2-y,1/2+z
loop_
_atom_site_type_symbol
_atom_site_label
_atom_site_fract_x
_atom_site_fract_y
_atom_site_fract_z
Si Si1 0.551885 0.750000 0.000000
Si Si2 0.644853 0.398561 0.591881
Si Si3 0.805248 0.497916 0.557484
Si Si4 0.957417 0.945155 0.147682
Si Si5 0.551327 0.277766 0.250000
O O1 0.606045 0.687051 0.918145
O O2 0.500000 0.500000 0.000000
O O3 0.636641 0.250000 0.500000
O O4 0.731683 0.434928 0.614066
O O5 0.603706 0.236413 0.665987
O O6 0.787815 0.750000 0.500000
O O7 0.871736 0.558910 0.622154
O O8 0.827578 0.250000 0.500000
O O9 0.961728 0.947012 0.250000
O O10 0.001282 0.192492 0.108888
O O11 0.510831 0.554590 0.250000
#
# Coordination Sequence:
#
# PCOD8234626 Si02
#       5
#     4   8   8   8   4
#     4  12  22  38  70  88 122 176 212 268 332 384
#     4  11  26  47  69 100 137 179 222 281 343 400
#     4  11  24  41  67  97 130 172 218 266 330 391
#     4  10  22  41  65  96 132 174 214 262 325 387
#     4  12  30  44  68 104 130 174 236 278 336 410
#
# _framework density 22.451730999999999
#
# number of rings (size 3 to 8) (size 9 to 14) (size 15 to 20)
#    0.000    1.000    2.500    3.000    5.250    3.000 
#    0.000    0.000    2.750    0.000    0.000    0.000 
#    0.000    0.000    0.000    0.000    0.000    0.000 
#
# Total GULP energy -396626.775706 kJ/mol
# GULP energy per Si atom -12394.586741 kJ/mol
# Density = 2.240063 g / cm^3
# Si number density = 22.451731 Si / 1000 Ang^3
#
#
#
# Elastic Constant Matrix: (Units=GPa)
#
#
# Indices 1 2 3 4 5 6 
#
# 1 184.8180 40.4761 32.9958 0.0000 0.0000 0.0000
# 2 40.4761 125.6191 16.5555 0.0000 0.0000 0.0000
# 3 32.9958 16.5555 65.2267 0.0000 0.0000 0.0000
# 4 0.0000 0.0000 0.0000 20.1209 0.0000 0.0000
# 5 0.0000 0.0000 0.0000 0.0000 91.1227 0.0000
# 6 0.0000 0.0000 0.0000 0.0000 0.0000 35.6421
#
#
#
# Elastic Compliance Matrix: (Units=1/GPa)
#
#
# Indices 1 2 3 4 5 6 
#
# 1 0.006264 -0.001656 -0.002748 0.000000 0.000000 0.000000
# 2 -0.001656 0.008674 -0.001364 0.000000 0.000000 0.000000
# 3 -0.002748 -0.001364 0.017068 0.000000 0.000000 0.000000
# 4 0.000000 0.000000 0.000000 0.049700 0.000000 0.000000
# 5 0.000000 0.000000 0.000000 0.000000 0.010974 0.000000
# 6 0.000000 0.000000 0.000000 0.000000 0.000000 0.028057
#
#
# Mechanical properties :
#
#
# Convention : Reuss Voigt Hill
#
# Bulk Modulus (GPa) = 48.85450 61.74650 55.30050
# Shear Modulus (GPa) = 35.94642 48.41955 42.18298
#
# Velocity S-wave (km/s) = 4.00566 4.64897 4.33925
# Velocity P-wave (km/s) = 6.57273 7.50858 7.05619
#
# Compressibility (1/GPa) = 0.02046894
#
# Stress axis : x y z
#
# Youngs Moduli (GPa) = 159.63942 115.28777 58.59044
#
# Poissons Ratio (x) = 0.19094 0.16103
# Poissons Ratio (y) = 0.26439 0.07990
# Poissons Ratio (z) = 0.43876 0.15723
#
# Static dielectric constant tensor:
#      x y z
#    x 4.465570 0.000000 0.000000 
#    y 0.000000 4.264010 0.000000 
#    z 0.000000 0.000000 3.822820 
# 
# 
# High freq. dielectric constant tensor:
#      x y z
#    x 1.911030 0.000000 0.000000 
#    y 0.000000 1.902470 0.000000 
#    z 0.000000 0.000000 1.856780 
# 
# From -- ./inp_files/18798.got.cif
#   From: 2010.03.12/outbox.cif.g09.slc.cpg/sg57_10_cif.got.tgz:18798.got - 2010.04.16 15:48:40.
