data_PCOD8234398
_publ_section_title
;
Structure prediction by ZEFSAII (Michael W. Deem and Ramdas Pophale) SiO2 
 PCOD8234398
Probable space group: P B C M
;
_chemical_formula_sum "Si O2"
_cell_formula_units_Z 56
_cell_length_a 9.276802
_cell_length_b 20.278712
_cell_length_c 13.126219
_cell_angle_alpha 90.000000
_cell_angle_beta 90.000000
_cell_angle_gamma 90.000000
_cell_volume 2469.325268
_symmetry_space_group_name_H-M "P B C M"
_symmetry_group_IT_number 57
_symmetry_cell_setting 'orthorhombic'
loop_
_space_group_symop_operation_xyz
x,y,z
-x,-y,1/2+z
x,1/2-y,-z
-x,1/2+y,1/2-z
-x,-y,-z
x,y,1/2-z
-x,1/2+y,z
x,1/2-y,1/2+z
loop_
_atom_site_type_symbol
_atom_site_label
_atom_site_fract_x
_atom_site_fract_y
_atom_site_fract_z
Si Si1 0.291113 0.160692 0.553097
Si Si2 0.772995 0.280819 0.870774
Si Si3 0.975071 0.337175 0.128063
Si Si4 0.442742 0.279881 0.634311
Si Si5 0.338984 0.486199 0.474263
Si Si6 0.143491 0.579105 0.131137
Si Si7 0.893545 0.014624 0.870413
O O1 0.124380 0.179069 0.571419
O O2 0.390053 0.204152 0.628256
O O3 0.337722 0.175910 0.436218
O O4 0.317962 0.084520 0.579069
O O5 0.775229 0.280511 0.750000
O O6 0.606897 0.282407 0.906811
O O7 0.855157 0.346331 0.912883
O O8 0.854673 0.215490 0.911083
O O9 0.997781 0.332297 0.250000
O O10 0.923194 0.410095 0.096517
O O11 0.430431 0.305813 0.750000
O O12 0.500000 0.500000 0.500000
O O13 0.292194 0.542438 0.394771
O O14 0.254061 0.490650 0.580508
O O15 0.123219 0.582977 0.250000
O O16 0.016858 0.533895 0.084133
O O17 0.880438 0.008150 0.750000
#
# Coordination Sequence:
#
# PCOD8234398 Si02
#       7
#     8   8   8   8   8   8   8
#     4  11  24  41  65  97 134 176 216 273 345 390
#     4   9  20  41  71  96 127 176 225 274 329 389
#     4  10  21  42  70 101 132 174 231 283 332 395
#     4  10  23  44  65  95 136 172 221 276 329 402
#     4  12  26  41  64  97 135 173 219 272 336 412
#     4  10  21  41  67  95 131 175 220 274 332 391
#     4  10  23  44  68  94 130 174 225 281 332 396
#
# _framework density 22.678260000000002
#
# number of rings (size 3 to 8) (size 9 to 14) (size 15 to 20)
#    0.000    1.714    1.429    1.714    2.000    4.000 
#    0.000    1.429    0.000    0.000    0.000    1.000 
#    0.000    0.000    0.000    0.000    0.000    0.000 
#
# Total GULP energy -694496.394276 kJ/mol
# GULP energy per Si atom -12401.721326 kJ/mol
# Density = 2.262664 g / cm^3
# Si number density = 22.678260 Si / 1000 Ang^3
#
#
#
# Elastic Constant Matrix: (Units=GPa)
#
#
# Indices 1 2 3 4 5 6 
#
# 1 168.5556 61.8577 17.7908 0.0000 0.0000 0.0000
# 2 61.8577 169.9879 25.5663 0.0000 0.0000 0.0000
# 3 17.7908 25.5663 41.9952 0.0000 0.0000 0.0000
# 4 0.0000 0.0000 0.0000 36.8341 0.0000 0.0000
# 5 0.0000 0.0000 0.0000 0.0000 33.3776 0.0000
# 6 0.0000 0.0000 0.0000 0.0000 0.0000 33.7756
#
#
#
# Elastic Compliance Matrix: (Units=1/GPa)
#
#
# Indices 1 2 3 4 5 6 
#
# 1 0.006937 -0.002292 -0.001543 0.000000 0.000000 0.000000
# 2 -0.002292 0.007233 -0.003432 0.000000 0.000000 0.000000
# 3 -0.001543 -0.003432 0.026556 0.000000 0.000000 0.000000
# 4 0.000000 0.000000 0.000000 0.027149 0.000000 0.000000
# 5 0.000000 0.000000 0.000000 0.000000 0.029960 0.000000
# 6 0.000000 0.000000 0.000000 0.000000 0.000000 0.029607
#
#
# Mechanical properties :
#
#
# Convention : Reuss Voigt Hill
#
# Bulk Modulus (GPa) = 38.18258 65.66313 51.92285
# Shear Modulus (GPa) = 33.17685 39.15238 36.16461
#
# Velocity S-wave (km/s) = 3.82898 4.15954 3.99768
# Velocity P-wave (km/s) = 6.03501 7.21707 6.65235
#
# Compressibility (1/GPa) = 0.02618996
#
# Stress axis : x y z
#
# Youngs Moduli (GPa) = 144.15767 138.25303 37.65673
#
# Poissons Ratio (x) = 0.31690 0.05811
# Poissons Ratio (y) = 0.33043 0.12925
# Poissons Ratio (z) = 0.22247 0.47454
#
# Static dielectric constant tensor:
#      x y z
#    x 4.074890 0.000000 0.000000 
#    y 0.000000 4.486530 0.000000 
#    z 0.000000 0.000000 3.981170 
# 
# 
# High freq. dielectric constant tensor:
#      x y z
#    x 1.891770 0.000000 0.000000 
#    y 0.000000 1.907490 0.000000 
#    z 0.000000 0.000000 1.910190 
# 
# From -- ./inp_files/16693.got.cif
#   From: 2010.03.12/outbox.cif.g09.slc.cpg/sg57_9_cif.got.tgz:16693.got - 2010.04.16 15:48:40.
