data_PCOD8234265
_publ_section_title
;
Structure prediction by ZEFSAII (Michael W. Deem and Ramdas Pophale) SiO2 
 PCOD8234265
Probable space group: P B C M
;
_chemical_formula_sum "Si O2"
_cell_formula_units_Z 48
_cell_length_a 18.732033
_cell_length_b 14.871667
_cell_length_c 8.883805
_cell_angle_alpha 90.000000
_cell_angle_beta 90.000000
_cell_angle_gamma 90.000000
_cell_volume 2474.819810
_symmetry_space_group_name_H-M "P B C M"
_symmetry_group_IT_number 57
_symmetry_cell_setting 'orthorhombic'
loop_
_space_group_symop_operation_xyz
x,y,z
-x,-y,1/2+z
x,1/2-y,-z
-x,1/2+y,1/2-z
-x,-y,-z
x,y,1/2-z
-x,1/2+y,z
x,1/2-y,1/2+z
loop_
_atom_site_type_symbol
_atom_site_label
_atom_site_fract_x
_atom_site_fract_y
_atom_site_fract_z
Si Si1 0.651703 0.662558 0.076188
Si Si2 0.008536 0.150177 0.427883
Si Si3 0.251804 0.506768 0.923736
Si Si4 0.897520 0.996768 0.073761
Si Si5 0.490923 0.404275 0.427652
Si Si6 0.643650 0.338788 0.426039
O O1 0.633232 0.677535 0.250000
O O2 0.711749 0.588728 0.053531
O O3 0.686001 0.750000 0.000000
O O4 0.577960 0.643776 0.992348
O O5 0.002407 0.250000 0.500000
O O6 0.016682 0.163333 0.250000
O O7 0.940363 0.087898 0.470066
O O8 0.076128 0.093443 0.488619
O O9 0.230275 0.522869 0.750000
O O10 0.309496 0.578059 0.983520
O O11 0.183348 0.514921 0.028295
O O12 0.904301 0.977600 0.250000
O O13 0.500000 0.500000 0.500000
O O14 0.483882 0.415129 0.250000
O O15 0.561234 0.348766 0.473400
O O16 0.675967 0.250000 0.500000
O O17 0.651612 0.330531 0.250000
#
# Coordination Sequence:
#
# PCOD8234265 Si02
#       6
#     8   8   8   8   8   8
#     4  11  23  40  59  84 115 152 199 247 299 356
#     4  10  21  39  64  92 122 156 193 236 284 339
#     4  10  22  41  59  80 120 160 193 239 294 349
#     4  10  22  39  61  91 122 154 196 238 286 344
#     4  11  21  37  60  84 113 151 196 248 302 354
#     4  10  22  39  57  82 113 151 195 241 294 349
#
# _framework density 19.395351999999999
#
# number of rings (size 3 to 8) (size 9 to 14) (size 15 to 20)
#    0.000    1.667    1.667    2.500    0.000    8.000 
#    0.000    5.000    0.000    0.000    0.000    0.000 
#    0.000    0.000    0.000    0.000    0.000    0.000 
#
# Total GULP energy -595230.688608 kJ/mol
# GULP energy per Si atom -12400.639346 kJ/mol
# Density = 1.935121 g / cm^3
# Si number density = 19.395352 Si / 1000 Ang^3
#
#
#
# Elastic Constant Matrix: (Units=GPa)
#
#
# Indices 1 2 3 4 5 6 
#
# 1 84.4140 17.2765 45.2761 0.0000 0.0000 0.0000
# 2 17.2765 128.5347 55.3243 0.0000 0.0000 0.0000
# 3 45.2761 55.3243 80.1490 0.0000 0.0000 0.0000
# 4 0.0000 0.0000 0.0000 39.6617 0.0000 0.0000
# 5 0.0000 0.0000 0.0000 0.0000 31.6896 0.0000
# 6 0.0000 0.0000 0.0000 0.0000 0.0000 0.9834
#
#
#
# Elastic Compliance Matrix: (Units=1/GPa)
#
#
# Indices 1 2 3 4 5 6 
#
# 1 0.017644 0.002729 -0.011851 0.000000 0.000000 0.000000
# 2 0.002729 0.011491 -0.009474 0.000000 0.000000 0.000000
# 3 -0.011851 -0.009474 0.025711 0.000000 0.000000 0.000000
# 4 0.000000 0.000000 0.000000 0.025213 0.000000 0.000000
# 5 0.000000 0.000000 0.000000 0.000000 0.031556 0.000000
# 6 0.000000 0.000000 0.000000 0.000000 0.000000 1.016891
#
#
# Mechanical properties :
#
#
# Convention : Reuss Voigt Hill
#
# Bulk Modulus (GPa) = 56.64091 58.76129 57.70110
# Shear Modulus (GPa) = 4.26773 26.14831 15.20802
#
# Velocity S-wave (km/s) = 1.48498 3.67573 2.80323
# Velocity P-wave (km/s) = 5.67512 6.95536 6.34760
#
# Compressibility (1/GPa) = 0.01765508
#
# Stress axis : x y z
#
# Youngs Moduli (GPa) = 56.67549 87.02627 38.89399
#
# Poissons Ratio (x) = -0.23754 0.46095
# Poissons Ratio (y) = -0.15470 0.36847
# Poissons Ratio (z) = 0.67168 0.82445
#
# Static dielectric constant tensor:
#      x y z
#    x 3.083180 0.000000 0.000000 
#    y 0.000000 4.801880 0.000000 
#    z 0.000000 0.000000 3.547350 
# 
# 
# High freq. dielectric constant tensor:
#      x y z
#    x 1.751500 0.000000 0.000000 
#    y 0.000000 1.768690 0.000000 
#    z 0.000000 0.000000 1.761600 
# 
# From -- ./inp_files/6467.got.cif
#   From: 2010.03.12/outbox.cif.g09.slc.cpg/sg57_4_cif.got.tgz:6467.got - 2010.04.16 15:48:40.
