data_PCOD8234250
_publ_section_title
;
Structure prediction by ZEFSAII (Michael W. Deem and Ramdas Pophale) SiO2 
 PCOD8234250
Probable space group: P B C M
;
_chemical_formula_sum "Si O2"
_cell_formula_units_Z 48
_cell_length_a 28.648380
_cell_length_b 8.907856
_cell_length_c 9.368402
_cell_angle_alpha 90.000000
_cell_angle_beta 90.000000
_cell_angle_gamma 90.000000
_cell_volume 2390.775379
_symmetry_space_group_name_H-M "P B C M"
_symmetry_group_IT_number 57
_symmetry_cell_setting 'orthorhombic'
loop_
_space_group_symop_operation_xyz
x,y,z
-x,-y,1/2+z
x,1/2-y,-z
-x,1/2+y,1/2-z
-x,-y,-z
x,y,1/2-z
-x,1/2+y,z
x,1/2-y,1/2+z
loop_
_atom_site_type_symbol
_atom_site_label
_atom_site_fract_x
_atom_site_fract_y
_atom_site_fract_z
Si Si1 0.598153 0.070876 0.020829
Si Si2 0.962086 0.403740 0.417865
Si Si3 0.698801 0.102072 0.087307
Si Si4 0.769775 0.901903 0.580948
Si Si5 0.536271 0.578415 0.750000
Si Si6 0.875590 0.892492 0.910988
Si Si7 0.561637 0.931719 0.750000
O O1 0.595623 0.973535 0.878640
O O2 0.591296 0.250000 0.000000
O O3 0.647913 0.024648 0.091552
O O4 0.556361 0.006159 0.113852
O O5 0.960643 0.250000 0.500000
O O6 0.975046 0.385836 0.250000
O O7 0.910807 0.472226 0.437337
O O8 0.000000 0.500000 0.500000
O O9 0.716696 0.126144 0.250000
O O10 0.688529 0.250000 0.000000
O O11 0.737971 0.023248 0.993885
O O12 0.757633 0.750000 0.500000
O O13 0.759109 0.888558 0.750000
O O14 0.823484 0.947495 0.550845
O O15 0.546112 0.757344 0.750000
O O16 0.481180 0.548976 0.750000
O O17 0.877215 0.834871 0.750000
O O18 0.892200 0.750000 0.000000
#
# Coordination Sequence:
#
# PCOD8234250 Si02
#       7
#     8   8   8   8   4   8   4
#     4  11  24  43  66  91 126 165 208 254 313 374
#     4  11  23  39  59  87 122 161 208 257 314 373
#     4  11  24  42  65  91 124 162 206 255 314 375
#     4  10  21  39  63  92 127 165 208 256 310 366
#     4  12  24  46  62  98 126 164 208 254 309 374
#     4   9  20  38  60  87 121 162 206 256 310 368
#     4  12  26  40  70  92 128 164 206 258 309 368
#
# _framework density 20.077169000000001
#
# number of rings (size 3 to 8) (size 9 to 14) (size 15 to 20)
#    0.000    1.333    0.833    4.500    4.667    5.333 
#    0.000    1.667    0.000    0.000    0.000    0.000 
#    0.000    0.000    0.000    0.000    0.000    0.000 
#
# Total GULP energy -595031.069772 kJ/mol
# GULP energy per Si atom -12396.480620 kJ/mol
# Density = 2.003147 g / cm^3
# Si number density = 20.077169 Si / 1000 Ang^3
#
#
#
# Elastic Constant Matrix: (Units=GPa)
#
#
# Indices 1 2 3 4 5 6 
#
# 1 81.2986 38.3330 44.2063 0.0000 0.0000 0.0000
# 2 38.3330 112.6323 51.5129 0.0000 0.0000 0.0000
# 3 44.2063 51.5129 153.8538 0.0000 0.0000 0.0000
# 4 0.0000 0.0000 0.0000 42.0757 0.0000 0.0000
# 5 0.0000 0.0000 0.0000 0.0000 34.7564 0.0000
# 6 0.0000 0.0000 0.0000 0.0000 0.0000 35.9365
#
#
#
# Elastic Compliance Matrix: (Units=1/GPa)
#
#
# Indices 1 2 3 4 5 6 
#
# 1 0.015926 -0.003929 -0.003260 0.000000 0.000000 0.000000
# 2 -0.003929 0.011453 -0.002706 0.000000 0.000000 0.000000
# 3 -0.003260 -0.002706 0.008342 0.000000 0.000000 0.000000
# 4 0.000000 0.000000 0.000000 0.023767 0.000000 0.000000
# 5 0.000000 0.000000 0.000000 0.000000 0.028772 0.000000
# 6 0.000000 0.000000 0.000000 0.000000 0.000000 0.027827
#
#
# Mechanical properties :
#
#
# Convention : Reuss Voigt Hill
#
# Bulk Modulus (GPa) = 62.77093 68.43213 65.60153
# Shear Modulus (GPa) = 35.41397 36.80254 36.10826
#
# Velocity S-wave (km/s) = 4.20443 4.28606 4.24544
# Velocity P-wave (km/s) = 7.40961 7.65848 7.53507
#
# Compressibility (1/GPa) = 0.01593094
#
# Stress axis : x y z
#
# Youngs Moduli (GPa) = 62.79144 87.31229 119.86920
#
# Poissons Ratio (x) = 0.34305 0.39082
# Poissons Ratio (y) = 0.24671 0.32434
# Poissons Ratio (z) = 0.20473 0.23625
#
# Static dielectric constant tensor:
#      x y z
#    x 4.075360 0.000000 0.000000 
#    y 0.000000 3.454800 0.000000 
#    z 0.000000 0.000000 3.796550 
# 
# 
# High freq. dielectric constant tensor:
#      x y z
#    x 1.796160 0.000000 0.000000 
#    y 0.000000 1.777000 0.000000 
#    z 0.000000 0.000000 1.804700 
# 
# From -- ./inp_files/10153.got.cif
#   From: 2010.03.12/outbox.cif.g09.slc.cpg/sg57_6_cif.got.tgz:10153.got - 2010.04.16 15:48:40.
