data_PCOD8234356
_publ_section_title
;
Structure prediction by ZEFSAII (Michael W. Deem and Ramdas Pophale) SiO2 
 PCOD8234356
Probable space group: P B C M
;
_chemical_formula_sum "Si O2"
_cell_formula_units_Z 48
_cell_length_a 11.516871
_cell_length_b 12.029627
_cell_length_c 16.344508
_cell_angle_alpha 90.000000
_cell_angle_beta 90.000000
_cell_angle_gamma 90.000000
_cell_volume 2264.427997
_symmetry_space_group_name_H-M "P B C M"
_symmetry_group_IT_number 57
_symmetry_cell_setting 'orthorhombic'
loop_
_space_group_symop_operation_xyz
x,y,z
-x,-y,1/2+z
x,1/2-y,-z
-x,1/2+y,1/2-z
-x,-y,-z
x,y,1/2-z
-x,1/2+y,z
x,1/2-y,1/2+z
loop_
_atom_site_type_symbol
_atom_site_label
_atom_site_fract_x
_atom_site_fract_y
_atom_site_fract_z
Si Si1 0.431311 0.270808 0.088676
Si Si2 0.899640 0.861672 0.405141
Si Si3 0.694612 0.977518 0.343152
Si Si4 0.330349 0.778160 0.843263
Si Si5 0.801374 0.636425 0.413488
Si Si6 0.148795 0.902809 0.345835
O O1 0.381334 0.394405 0.101277
O O2 0.534770 0.254883 0.152665
O O3 0.330041 0.179629 0.095656
O O4 0.488372 0.250000 0.000000
O O5 0.829222 0.939728 0.342550
O O6 0.885890 0.732654 0.378780
O O7 0.841215 0.885335 0.493473
O O8 0.034789 0.889638 0.401523
O O9 0.647467 0.976034 0.250000
O O10 0.687183 0.100238 0.383684
O O11 0.293167 0.789540 0.750000
O O12 0.245172 0.683764 0.880576
O O13 0.806002 0.527361 0.358443
O O14 0.121628 0.884391 0.250000
#
# Coordination Sequence:
#
# PCOD8234356 Si02
#       6
#     8   8   8   8   8   8
#     4  11  22  43  65  91 124 168 214 266 315 381
#     4  10  21  43  66  92 128 164 210 265 323 383
#     4  10  21  40  66  91 123 169 211 261 323 377
#     4  10  25  42  60  95 133 166 213 264 316 378
#     4  10  22  43  66  92 127 164 214 268 320 378
#     4  11  25  41  64  97 130 168 215 263 316 384
#
# _framework density 21.197406999999998
#
# number of rings (size 3 to 8) (size 9 to 14) (size 15 to 20)
#    0.000    1.667    3.333    1.500    4.667    6.000 
#    3.000    0.000    0.000    0.000    0.000    0.000 
#    0.000    0.000    0.000    0.000    0.000    0.000 
#
# Total GULP energy -595028.794109 kJ/mol
# GULP energy per Si atom -12396.433211 kJ/mol
# Density = 2.114916 g / cm^3
# Si number density = 21.197407 Si / 1000 Ang^3
#
#
#
# Elastic Constant Matrix: (Units=GPa)
#
#
# Indices 1 2 3 4 5 6 
#
# 1 131.5982 68.5371 20.6406 0.0000 0.0000 0.0000
# 2 68.5371 167.9505 23.6236 0.0000 0.0000 0.0000
# 3 20.6406 23.6236 40.3493 0.0000 0.0000 0.0000
# 4 0.0000 0.0000 0.0000 27.3415 0.0000 0.0000
# 5 0.0000 0.0000 0.0000 0.0000 26.1359 0.0000
# 6 0.0000 0.0000 0.0000 0.0000 0.0000 21.1792
#
#
#
# Elastic Compliance Matrix: (Units=1/GPa)
#
#
# Indices 1 2 3 4 5 6 
#
# 1 0.009964 -0.003650 -0.002960 0.000000 0.000000 0.000000
# 2 -0.003650 0.007825 -0.002715 0.000000 0.000000 0.000000
# 3 -0.002960 -0.002715 0.027887 0.000000 0.000000 0.000000
# 4 0.000000 0.000000 0.000000 0.036574 0.000000 0.000000
# 5 0.000000 0.000000 0.000000 0.000000 0.038262 0.000000
# 6 0.000000 0.000000 0.000000 0.000000 0.000000 0.047216
#
#
# Mechanical properties :
#
#
# Convention : Reuss Voigt Hill
#
# Bulk Modulus (GPa) = 36.99936 62.83340 49.91638
# Shear Modulus (GPa) = 25.59028 30.07110 27.83069
#
# Velocity S-wave (km/s) = 3.47830 3.77055 3.62737
# Velocity P-wave (km/s) = 5.79862 6.97584 6.41430
#
# Compressibility (1/GPa) = 0.02702749
#
# Stress axis : x y z
#
# Youngs Moduli (GPa) = 100.36158 127.79013 35.85880
#
# Poissons Ratio (x) = 0.46640 0.10615
# Poissons Ratio (y) = 0.36629 0.09734
# Poissons Ratio (z) = 0.29709 0.34689
#
# Static dielectric constant tensor:
#      x y z
#    x 3.715040 0.000000 0.000000 
#    y 0.000000 4.103400 0.000000 
#    z 0.000000 0.000000 3.610000 
# 
# 
# High freq. dielectric constant tensor:
#      x y z
#    x 1.829380 0.000000 0.000000 
#    y 0.000000 1.842610 0.000000 
#    z 0.000000 0.000000 1.814200 
# 
# From -- ./inp_files/21806.got.cif
#   From: 2010.03.12/outbox.cif.g09.slc.cpg/sg57_11_cif.got.tgz:21806.got - 2010.04.16 15:48:40.
