data_PCOD8234116
_publ_section_title
;
Structure prediction by ZEFSAII (Michael W. Deem and Ramdas Pophale) SiO2 
 PCOD8234116
Probable space group: P B C M
;
_chemical_formula_sum "Si O2"
_cell_formula_units_Z 32
_cell_length_a 9.528590
_cell_length_b 10.276448
_cell_length_c 15.626287
_cell_angle_alpha 90.000000
_cell_angle_beta 90.000000
_cell_angle_gamma 90.000000
_cell_volume 1530.126955
_symmetry_space_group_name_H-M "P B C M"
_symmetry_group_IT_number 57
_symmetry_cell_setting 'orthorhombic'
loop_
_space_group_symop_operation_xyz
x,y,z
-x,-y,1/2+z
x,1/2-y,-z
-x,1/2+y,1/2-z
-x,-y,-z
x,y,1/2-z
-x,1/2+y,z
x,1/2-y,1/2+z
loop_
_atom_site_type_symbol
_atom_site_label
_atom_site_fract_x
_atom_site_fract_y
_atom_site_fract_z
Si Si1 0.136334 0.954040 0.152577
Si Si2 0.436912 0.986696 0.406184
Si Si3 0.377101 0.238660 0.897515
Si Si4 0.062435 0.231123 0.400185
O O1 0.185625 0.974546 0.250000
O O2 0.273935 0.941337 0.092109
O O3 0.049090 0.820868 0.148080
O O4 0.042774 0.078357 0.122828
O O5 0.532666 0.879796 0.358173
O O6 0.500000 0.000000 0.500000
O O7 0.441443 0.127027 0.359288
O O8 0.216263 0.222190 0.869538
O O9 0.385738 0.250000 0.000000
O O10 0.039243 0.250000 0.500000
#
# Coordination Sequence:
#
# PCOD8234116 Si02
#       4
#     8   8   8   8
#     4  11  23  39  59  90 125 155 193 250 304 347
#     4   9  18  34  55  79 110 151 195 236 283 348
#     4   8  16  31  53  80 106 140 190 237 275 326
#     4  10  21  38  61  87 118 160 202 239 288 359
#
# _framework density 20.913297
#
# number of rings (size 3 to 8) (size 9 to 14) (size 15 to 20)
#    0.000    2.500    0.000    3.000    0.000    5.000 
#    0.000    6.250    0.000    0.000    0.000    0.000 
#    0.000    0.000    0.000    0.000    0.000    0.000 
#
# Total GULP energy -396573.847924 kJ/mol
# GULP energy per Si atom -12392.932748 kJ/mol
# Density = 2.086570 g / cm^3
# Si number density = 20.913297 Si / 1000 Ang^3
#
#
#
# Elastic Constant Matrix: (Units=GPa)
#
#
# Indices 1 2 3 4 5 6 
#
# 1 111.8024 71.6481 23.0055 0.0000 0.0000 0.0000
# 2 71.6481 110.1221 8.6485 0.0000 0.0000 0.0000
# 3 23.0055 8.6485 64.7027 0.0000 0.0000 0.0000
# 4 0.0000 0.0000 0.0000 16.4235 0.0000 0.0000
# 5 0.0000 0.0000 0.0000 0.0000 5.7340 0.0000
# 6 0.0000 0.0000 0.0000 0.0000 0.0000 50.1251
#
#
#
# Elastic Compliance Matrix: (Units=1/GPa)
#
#
# Indices 1 2 3 4 5 6 
#
# 1 0.016537 -0.010407 -0.004489 0.000000 0.000000 0.000000
# 2 -0.010407 0.015726 0.001598 0.000000 0.000000 0.000000
# 3 -0.004489 0.001598 0.016838 0.000000 0.000000 0.000000
# 4 0.000000 0.000000 0.000000 0.060888 0.000000 0.000000
# 5 0.000000 0.000000 0.000000 0.000000 0.174398 0.000000
# 6 0.000000 0.000000 0.000000 0.000000 0.000000 0.019950
#
#
# Mechanical properties :
#
#
# Convention : Reuss Voigt Hill
#
# Bulk Modulus (GPa) = 44.43257 54.80349 49.61803
# Shear Modulus (GPa) = 14.77389 26.67820 20.72605
#
# Velocity S-wave (km/s) = 2.66077 3.57551 3.15150
# Velocity P-wave (km/s) = 5.54363 6.58086 6.08438
#
# Compressibility (1/GPa) = 0.02250601
#
# Stress axis : x y z
#
# Youngs Moduli (GPa) = 60.46916 63.58740 59.39037
#
# Poissons Ratio (x) = 0.66176 0.26660
# Poissons Ratio (y) = 0.62931 -0.09492
# Poissons Ratio (z) = 0.27144 -0.10163
#
# Static dielectric constant tensor:
#      x y z
#    x 3.816170 0.000000 0.000000 
#    y 0.000000 4.515110 0.000000 
#    z 0.000000 0.000000 3.709540 
# 
# 
# High freq. dielectric constant tensor:
#      x y z
#    x 1.811000 0.000000 0.000000 
#    y 0.000000 1.836170 0.000000 
#    z 0.000000 0.000000 1.785140 
# 
# From -- ./inp_files/15511.got.cif
#   From: 2010.03.12/outbox.cif.g09.slc.cpg/sg57_8_cif.got.tgz:15511.got - 2010.04.16 15:48:40.
