data_PCOD8234735
_publ_section_title
;
Structure prediction by ZEFSAII (Michael W. Deem and Ramdas Pophale) SiO2 
 PCOD8234735
Probable space group: P B C M
;
_chemical_formula_sum "Si O2"
_cell_formula_units_Z 48
_cell_length_a 7.888509
_cell_length_b 11.585700
_cell_length_c 24.877854
_cell_angle_alpha 90.000000
_cell_angle_beta 90.000000
_cell_angle_gamma 90.000000
_cell_volume 2273.684069
_symmetry_space_group_name_H-M "P B C M"
_symmetry_group_IT_number 57
_symmetry_cell_setting 'orthorhombic'
loop_
_space_group_symop_operation_xyz
x,y,z
-x,-y,1/2+z
x,1/2-y,-z
-x,1/2+y,1/2-z
-x,-y,-z
x,y,1/2-z
-x,1/2+y,z
x,1/2-y,1/2+z
loop_
_atom_site_type_symbol
_atom_site_label
_atom_site_fract_x
_atom_site_fract_y
_atom_site_fract_z
Si Si1 0.260485 0.102940 0.581140
Si Si2 0.834006 0.955001 0.529167
Si Si3 0.636629 0.377044 0.100799
Si Si4 0.403662 0.066225 0.311851
Si Si5 0.749873 0.136210 0.363658
Si Si6 0.887542 0.691932 0.365124
O O1 0.254421 0.120856 0.516961
O O2 0.440994 0.154021 0.596000
O O3 0.121085 0.173370 0.616472
O O4 0.240232 0.967697 0.593934
O O5 0.875823 0.877419 0.579672
O O6 0.711599 0.058482 0.548715
O O7 0.000000 0.000000 0.500000
O O8 0.654131 0.455001 0.154312
O O9 0.728012 0.255007 0.104540
O O10 0.392766 0.031296 0.250000
O O11 0.595831 0.110892 0.322788
O O12 0.268888 0.167119 0.325099
O O13 0.935318 0.155663 0.335802
#
# Coordination Sequence:
#
# PCOD8234735 Si02
#       6
#     8   8   8   8   8   8
#     4  11  22  41  62  97 134 178 216 261 327 392
#     4  11  21  39  62  95 135 183 219 264 326 388
#     4  10  23  41  64  95 132 171 222 275 319 396
#     4  10  24  46  68  92 122 166 218 277 337 382
#     4  11  23  42  68  92 130 169 216 272 322 387
#     4  11  23  42  67  95 134 169 223 271 319 399
#
# _framework density 21.111111999999999
#
# number of rings (size 3 to 8) (size 9 to 14) (size 15 to 20)
#    0.000    1.333    3.333    2.000    2.333    2.000 
#    3.000    0.000    0.000    0.000    0.000    0.000 
#    0.000    0.000    0.000    0.000    0.000    0.000 
#
# Total GULP energy -594905.217322 kJ/mol
# GULP energy per Si atom -12393.858694 kJ/mol
# Density = 2.106306 g / cm^3
# Si number density = 21.111112 Si / 1000 Ang^3
#
#
#
# Elastic Constant Matrix: (Units=GPa)
#
#
# Indices 1 2 3 4 5 6 
#
# 1 134.5300 37.9158 38.6246 0.0000 0.0000 0.0000
# 2 37.9158 94.7381 11.4703 0.0000 0.0000 0.0000
# 3 38.6246 11.4703 93.5906 0.0000 0.0000 0.0000
# 4 0.0000 0.0000 0.0000 15.1115 0.0000 0.0000
# 5 0.0000 0.0000 0.0000 0.0000 21.5368 0.0000
# 6 0.0000 0.0000 0.0000 0.0000 0.0000 30.8457
#
#
#
# Elastic Compliance Matrix: (Units=1/GPa)
#
#
# Indices 1 2 3 4 5 6 
#
# 1 0.009364 -0.003329 -0.003456 0.000000 0.000000 0.000000
# 2 -0.003329 0.011898 -0.000084 0.000000 0.000000 0.000000
# 3 -0.003456 -0.000084 0.012122 0.000000 0.000000 0.000000
# 4 0.000000 0.000000 0.000000 0.066175 0.000000 0.000000
# 5 0.000000 0.000000 0.000000 0.000000 0.046432 0.000000
# 6 0.000000 0.000000 0.000000 0.000000 0.000000 0.032419
#
#
# Mechanical properties :
#
#
# Convention : Reuss Voigt Hill
#
# Bulk Modulus (GPa) = 50.90653 55.43112 53.16882
# Shear Modulus (GPa) = 25.16388 29.15535 27.15962
#
# Velocity S-wave (km/s) = 3.45624 3.72027 3.59068
# Velocity P-wave (km/s) = 6.33194 6.69087 6.51388
#
# Compressibility (1/GPa) = 0.01964385
#
# Stress axis : x y z
#
# Youngs Moduli (GPa) = 106.79267 84.04785 82.49715
#
# Poissons Ratio (x) = 0.27981 0.28515
# Poissons Ratio (y) = 0.35553 0.00695
# Poissons Ratio (z) = 0.36912 0.00708
#
# Static dielectric constant tensor:
#      x y z
#    x 4.332510 0.000000 0.000000 
#    y 0.000000 3.855320 0.000000 
#    z 0.000000 0.000000 -9.211300 
# 
# 
# High freq. dielectric constant tensor:
#      x y z
#    x 1.848900 0.000000 0.000000 
#    y 0.000000 1.831810 0.000000 
#    z 0.000000 0.000000 1.796350 
# 
# From -- ./inp_files/26718.got.cif
#   From: 2010.03.12/outbox.cif.g09.slc.cpg/sg57_14_cif.got.tgz:26718.got - 2010.04.16 15:48:40.
