data_PCOD8234856
_publ_section_title
;
Structure prediction by ZEFSAII (Michael W. Deem and Ramdas Pophale) SiO2 
 PCOD8234856
Probable space group: P B C M
;
_chemical_formula_sum "Si O2"
_cell_formula_units_Z 24
_cell_length_a 4.968903
_cell_length_b 14.139542
_cell_length_c 13.143050
_cell_angle_alpha 90.000000
_cell_angle_beta 90.000000
_cell_angle_gamma 90.000000
_cell_volume 923.404573
_symmetry_space_group_name_H-M "P B C M"
_symmetry_group_IT_number 57
_symmetry_cell_setting 'orthorhombic'
loop_
_space_group_symop_operation_xyz
x,y,z
-x,-y,1/2+z
x,1/2-y,-z
-x,1/2+y,1/2-z
-x,-y,-z
x,y,1/2-z
-x,1/2+y,z
x,1/2-y,1/2+z
loop_
_atom_site_type_symbol
_atom_site_label
_atom_site_fract_x
_atom_site_fract_y
_atom_site_fract_z
Si Si1 0.903582 0.595304 0.632423
Si Si2 0.765073 0.806597 0.635008
Si Si3 0.727594 0.094396 0.048681
O O1 0.980889 0.579888 0.750000
O O2 0.755621 0.694843 0.614911
O O3 0.707106 0.512591 0.591514
O O4 0.182665 0.592581 0.569305
O O5 0.679611 0.830195 0.750000
O O6 0.563345 0.857963 0.557722
O O7 0.063353 0.844932 0.615245
#
# Coordination Sequence:
#
# PCOD8234856 Si02
#       3
#     8   8   8
#     4  10  24  45  73 107 142 186 236 288 351 418
#     4  11  24  44  71 103 141 184 232 287 349 418
#     4  11  25  46  72 103 143 184 232 292 349 414
#
# _framework density 25.990776
#
# number of rings (size 3 to 8) (size 9 to 14) (size 15 to 20)
#    0.000    1.333    0.000    4.000    0.000   13.333 
#    0.000   11.667    0.000   10.000    0.000    0.000 
#    0.000    0.000    0.000    0.000    0.000    0.000 
#
# Total GULP energy -297784.420618 kJ/mol
# GULP energy per Si atom -12407.684192 kJ/mol
# Density = 2.593162 g / cm^3
# Si number density = 25.990776 Si / 1000 Ang^3
#
#
#
# Elastic Constant Matrix: (Units=GPa)
#
#
# Indices 1 2 3 4 5 6 
#
# 1 56.8734 9.2566 12.5772 0.0000 0.0000 0.0000
# 2 9.2566 136.9572 83.4494 0.0000 0.0000 0.0000
# 3 12.5772 83.4494 142.9493 0.0000 0.0000 0.0000
# 4 0.0000 0.0000 0.0000 44.5824 0.0000 0.0000
# 5 0.0000 0.0000 0.0000 0.0000 28.2104 0.0000
# 6 0.0000 0.0000 0.0000 0.0000 0.0000 36.6240
#
#
#
# Elastic Compliance Matrix: (Units=1/GPa)
#
#
# Indices 1 2 3 4 5 6 
#
# 1 0.017945 -0.000389 -0.001352 0.000000 0.000000 0.000000
# 2 -0.000389 0.011341 -0.006586 0.000000 0.000000 0.000000
# 3 -0.001352 -0.006586 0.010959 0.000000 0.000000 0.000000
# 4 0.000000 0.000000 0.000000 0.022430 0.000000 0.000000
# 5 0.000000 0.000000 0.000000 0.000000 0.035448 0.000000
# 6 0.000000 0.000000 0.000000 0.000000 0.000000 0.027305
#
#
# Mechanical properties :
#
#
# Convention : Reuss Voigt Hill
#
# Bulk Modulus (GPa) = 42.38899 60.81625 51.60262
# Shear Modulus (GPa) = 33.34532 37.31648 35.33090
#
# Velocity S-wave (km/s) = 3.58574 3.79325 3.69095
# Velocity P-wave (km/s) = 5.78688 6.52955 6.16940
#
# Compressibility (1/GPa) = 0.02359103
#
# Stress axis : x y z
#
# Youngs Moduli (GPa) = 55.72530 88.17640 91.24729
#
# Poissons Ratio (x) = 0.03433 0.12333
# Poissons Ratio (y) = 0.02169 0.60097
# Poissons Ratio (z) = 0.07532 0.58075
#
# Static dielectric constant tensor:
#      x y z
#    x 4.100000 0.000000 0.000000 
#    y 0.000000 5.083590 0.000000 
#    z 0.000000 0.000000 5.037790 
# 
# 
# High freq. dielectric constant tensor:
#      x y z
#    x 2.021950 0.000000 0.000000 
#    y 0.000000 2.066820 0.000000 
#    z 0.000000 0.000000 2.063420 
# 
# From -- ./inp_files/14565.got.cif
#   From: 2010.03.12/outbox.cif.g09.slc.cpg/sg57_8_cif.got.tgz:14565.got - 2010.04.16 15:48:40.
