data_PCOD8234451
_publ_section_title
;
Structure prediction by ZEFSAII (Michael W. Deem and Ramdas Pophale) SiO2 
 PCOD8234451
Probable space group: P B C M
;
_chemical_formula_sum "Si O2"
_cell_formula_units_Z 48
_cell_length_a 31.435293
_cell_length_b 9.118227
_cell_length_c 8.928926
_cell_angle_alpha 90.000000
_cell_angle_beta 90.000000
_cell_angle_gamma 90.000000
_cell_volume 2559.335002
_symmetry_space_group_name_H-M "P B C M"
_symmetry_group_IT_number 57
_symmetry_cell_setting 'orthorhombic'
loop_
_space_group_symop_operation_xyz
x,y,z
-x,-y,1/2+z
x,1/2-y,-z
-x,1/2+y,1/2-z
-x,-y,-z
x,y,1/2-z
-x,1/2+y,z
x,1/2-y,1/2+z
loop_
_atom_site_type_symbol
_atom_site_label
_atom_site_fract_x
_atom_site_fract_y
_atom_site_fract_z
Si Si1 0.881973 0.407376 0.925496
Si Si2 0.619982 0.595294 0.575457
Si Si3 0.537247 0.091973 0.426192
Si Si4 0.962396 0.591767 0.571407
Si Si5 0.209777 0.595845 0.076243
Si Si6 0.698332 0.091237 0.426770
O O1 0.885952 0.379998 0.750000
O O2 0.917930 0.519296 0.979364
O O3 0.835419 0.480509 0.967314
O O4 0.888912 0.250000 0.000000
O O5 0.611572 0.750000 0.500000
O O6 0.624388 0.625160 0.750000
O O7 0.581331 0.487929 0.538366
O O8 0.662913 0.520396 0.510852
O O9 0.539037 0.250000 0.500000
O O10 0.528745 0.107525 0.250000
O O11 0.500000 0.000000 0.500000
O O12 0.963922 0.750000 0.500000
O O13 0.967561 0.599999 0.750000
O O14 0.000000 0.500000 0.500000
O O15 0.210047 0.627601 0.250000
O O16 0.254910 0.519170 0.033208
O O17 0.209567 0.750000 0.000000
O O18 0.692422 0.250000 0.500000
O O19 0.692399 0.112887 0.250000
#
# Coordination Sequence:
#
# PCOD8234451 Si02
#       6
#     8   8   8   8   8   8
#     4   9  18  32  52  77 103 133 168 208 254 304
#     4  10  22  37  53  76 106 140 176 215 259 307
#     4  11  23  39  59  83 110 140 176 217 263 313
#     4  11  23  38  55  76 103 135 172 213 259 309
#     4   8  14  27  48  73 101 131 165 206 251 300
#     4   9  17  31  52  77 103 133 171 213 256 303
#
# _framework density 18.754873
#
# number of rings (size 3 to 8) (size 9 to 14) (size 15 to 20)
#    0.000    2.333    0.000    2.500    0.000    6.000 
#    0.000    0.833    0.000    0.000    0.000    0.000 
#    0.000    0.000    0.000    0.000    0.000    0.000 
#
# Total GULP energy -594756.767493 kJ/mol
# GULP energy per Si atom -12390.765989 kJ/mol
# Density = 1.871219 g / cm^3
# Si number density = 18.754873 Si / 1000 Ang^3
#
#
#
# Elastic Constant Matrix: (Units=GPa)
#
#
# Indices 1 2 3 4 5 6 
#
# 1 193.7651 85.3300 62.0452 0.0000 0.0000 0.0000
# 2 85.3300 133.2758 50.4279 0.0000 0.0000 0.0000
# 3 62.0452 50.4279 52.8964 0.0000 0.0000 0.0000
# 4 0.0000 0.0000 0.0000 31.0398 0.0000 0.0000
# 5 0.0000 0.0000 0.0000 0.0000 25.1135 0.0000
# 6 0.0000 0.0000 0.0000 0.0000 0.0000 29.5726
#
#
#
# Elastic Compliance Matrix: (Units=1/GPa)
#
#
# Indices 1 2 3 4 5 6 
#
# 1 0.008854 -0.002721 -0.007792 0.000000 0.000000 0.000000
# 2 -0.002721 0.012573 -0.008795 0.000000 0.000000 0.000000
# 3 -0.007792 -0.008795 0.036429 0.000000 0.000000 0.000000
# 4 0.000000 0.000000 0.000000 0.032217 0.000000 0.000000
# 5 0.000000 0.000000 0.000000 0.000000 0.039819 0.000000
# 6 0.000000 0.000000 0.000000 0.000000 0.000000 0.033815
#
#
# Mechanical properties :
#
#
# Convention : Reuss Voigt Hill
#
# Bulk Modulus (GPa) = 51.97223 86.17149 69.07186
# Shear Modulus (GPa) = 23.95384 29.28746 26.62065
#
# Velocity S-wave (km/s) = 3.57768 3.95599 3.77158
# Velocity P-wave (km/s) = 6.69611 8.18000 7.47497
#
# Compressibility (1/GPa) = 0.01924104
#
# Stress axis : x y z
#
# Youngs Moduli (GPa) = 112.94423 79.53615 27.45085
#
# Poissons Ratio (x) = 0.21639 0.21389
# Poissons Ratio (y) = 0.30728 0.24143
# Poissons Ratio (z) = 0.88002 0.69952
#
# Static dielectric constant tensor:
#      x y z
#    x 4.428650 0.000000 0.000000 
#    y 0.000000 3.200100 0.000000 
#    z 0.000000 0.000000 3.471040 
# 
# 
# High freq. dielectric constant tensor:
#      x y z
#    x 1.762290 0.000000 0.000000 
#    y 0.000000 1.702430 0.000000 
#    z 0.000000 0.000000 1.728100 
# 
# From -- ./inp_files/9925.got.cif
#   From: 2010.03.12/outbox.cif.g09.slc.cpg/sg57_5_cif.got.tgz:9925.got - 2010.04.16 15:48:40.
