data_PCOD8234142
_publ_section_title
;
Structure prediction by ZEFSAII (Michael W. Deem and Ramdas Pophale) SiO2 
 PCOD8234142
Probable space group: P B C M
;
_chemical_formula_sum "Si O2"
_cell_formula_units_Z 40
_cell_length_a 24.866609
_cell_length_b 9.235704
_cell_length_c 8.713354
_cell_angle_alpha 90.000000
_cell_angle_beta 90.000000
_cell_angle_gamma 90.000000
_cell_volume 2001.114458
_symmetry_space_group_name_H-M "P B C M"
_symmetry_group_IT_number 57
_symmetry_cell_setting 'orthorhombic'
loop_
_space_group_symop_operation_xyz
x,y,z
-x,-y,1/2+z
x,1/2-y,-z
-x,1/2+y,1/2-z
-x,-y,-z
x,y,1/2-z
-x,1/2+y,z
x,1/2-y,1/2+z
loop_
_atom_site_type_symbol
_atom_site_label
_atom_site_fract_x
_atom_site_fract_y
_atom_site_fract_z
Si Si1 0.636859 0.097732 0.070475
Si Si2 0.848993 0.595026 0.429925
Si Si3 0.451867 0.407696 0.932272
Si Si4 0.047991 0.591471 0.569502
Si Si5 0.238162 0.598321 0.071627
O O1 0.623108 0.097407 0.250000
O O2 0.699405 0.069854 0.038377
O O3 0.618226 0.250000 0.000000
O O4 0.605205 0.971429 0.984740
O O5 0.862743 0.750000 0.500000
O O6 0.842571 0.613463 0.250000
O O7 0.896414 0.485616 0.474585
O O8 0.793452 0.534409 0.496935
O O9 0.455347 0.403712 0.750000
O O10 0.457747 0.250000 0.000000
O O11 0.500000 0.500000 0.000000
O O12 0.048371 0.750000 0.500000
O O13 0.039649 0.602567 0.750000
O O14 0.000000 0.500000 0.500000
O O15 0.225020 0.605286 0.250000
O O16 0.219108 0.750000 0.000000
#
# Coordination Sequence:
#
# PCOD8234142 Si02
#       5
#     8   8   8   8   8
#     4  10  21  39  62  90 121 156 197 242 293 350
#     4  11  24  40  60  87 120 157 199 245 295 349
#     4  12  25  42  63  88 119 156 197 243 294 350
#     4  11  24  41  63  90 120 156 196 243 295 352
#     4  10  21  38  62  89 120 157 198 243 293 349
#
# _framework density 19.988862000000001
#
# number of rings (size 3 to 8) (size 9 to 14) (size 15 to 20)
#    0.000    1.200    0.000    6.000    0.000    9.600 
#    0.000    0.000    0.000    0.000    0.000    0.000 
#    0.000    0.000    0.000    0.000    0.000    0.000 
#
# Total GULP energy -496296.835361 kJ/mol
# GULP energy per Si atom -12407.420884 kJ/mol
# Density = 1.994337 g / cm^3
# Si number density = 19.988862 Si / 1000 Ang^3
#
#
#
# Elastic Constant Matrix: (Units=GPa)
#
#
# Indices 1 2 3 4 5 6 
#
# 1 102.4449 76.5655 70.7665 0.0000 0.0000 0.0000
# 2 76.5655 182.7230 84.6983 0.0000 0.0000 0.0000
# 3 70.7665 84.6983 143.2435 0.0000 0.0000 0.0000
# 4 0.0000 0.0000 0.0000 44.3765 0.0000 0.0000
# 5 0.0000 0.0000 0.0000 0.0000 34.0975 0.0000
# 6 0.0000 0.0000 0.0000 0.0000 0.0000 41.7375
#
#
#
# Elastic Compliance Matrix: (Units=1/GPa)
#
#
# Indices 1 2 3 4 5 6 
#
# 1 0.017125 -0.004483 -0.005810 0.000000 0.000000 0.000000
# 2 -0.004483 0.008713 -0.002937 0.000000 0.000000 0.000000
# 3 -0.005810 -0.002937 0.011588 0.000000 0.000000 0.000000
# 4 0.000000 0.000000 0.000000 0.022534 0.000000 0.000000
# 5 0.000000 0.000000 0.000000 0.000000 0.029328 0.000000
# 6 0.000000 0.000000 0.000000 0.000000 0.000000 0.023959
#
#
# Mechanical properties :
#
#
# Convention : Reuss Voigt Hill
#
# Bulk Modulus (GPa) = 91.18670 99.16356 95.17513
# Shear Modulus (GPa) = 34.87706 37.13439 36.00572
#
# Velocity S-wave (km/s) = 4.18164 4.31484 4.24876
# Velocity P-wave (km/s) = 8.30859 8.63371 8.47271
#
# Compressibility (1/GPa) = 0.01096651
#
# Stress axis : x y z
#
# Youngs Moduli (GPa) = 58.39489 114.77656 86.29758
#
# Poissons Ratio (x) = 0.51452 0.50135
# Poissons Ratio (y) = 0.26177 0.25346
# Poissons Ratio (z) = 0.33925 0.33710
#
# Static dielectric constant tensor:
#      x y z
#    x 3.820720 0.000000 0.000000 
#    y 0.000000 3.662650 0.000000 
#    z 0.000000 0.000000 3.890960 
# 
# 
# High freq. dielectric constant tensor:
#      x y z
#    x 1.792870 0.000000 0.000000 
#    y 0.000000 1.790030 0.000000 
#    z 0.000000 0.000000 1.800200 
# 
# From -- ./inp_files/8859.got.cif
#   From: 2010.03.12/outbox.cif.g09.slc.cpg/sg57_5_cif.got.tgz:8859.got - 2010.04.16 15:48:40.
