data_PCOD8234805
_publ_section_title
;
Structure prediction by ZEFSAII (Michael W. Deem and Ramdas Pophale) SiO2 
 PCOD8234805
Probable space group: P B C M
;
_chemical_formula_sum "Si O2"
_cell_formula_units_Z 44
_cell_length_a 5.507563
_cell_length_b 14.418573
_cell_length_c 25.380515
_cell_angle_alpha 90.000000
_cell_angle_beta 90.000000
_cell_angle_gamma 90.000000
_cell_volume 2015.497132
_symmetry_space_group_name_H-M "P B C M"
_symmetry_group_IT_number 57
_symmetry_cell_setting 'orthorhombic'
loop_
_space_group_symop_operation_xyz
x,y,z
-x,-y,1/2+z
x,1/2-y,-z
-x,1/2+y,1/2-z
-x,-y,-z
x,y,1/2-z
-x,1/2+y,z
x,1/2-y,1/2+z
loop_
_atom_site_type_symbol
_atom_site_label
_atom_site_fract_x
_atom_site_fract_y
_atom_site_fract_z
Si Si1 0.770376 0.928880 0.750000
Si Si2 0.926143 0.251226 0.750000
Si Si3 0.746590 0.230902 0.361985
Si Si4 0.426263 0.963691 0.840205
Si Si5 0.489585 0.618422 0.579453
Si Si6 0.152890 0.068080 0.750000
Si Si7 0.995834 0.681325 0.548311
O O1 0.623550 0.912643 0.803617
O O2 0.873219 0.033569 0.750000
O O3 0.990867 0.857457 0.750000
O O4 0.767587 0.235066 0.698134
O O5 0.152043 0.179568 0.750000
O O6 0.515507 0.287479 0.385067
O O7 0.981933 0.260751 0.396824
O O8 0.724074 0.119723 0.366763
O O9 0.540831 0.025332 0.886291
O O10 0.270254 0.031115 0.803439
O O11 0.247088 0.620455 0.541726
O O12 0.750141 0.618496 0.549584
O O13 0.970736 0.750000 0.500000
#
# Coordination Sequence:
#
# PCOD8234805 Si02
#       7
#     4   4   8   8   8   4   8
#     4  11  24  37  60  92 146 176 221 274 318 413
#     4  12  21  40  65  96 133 180 214 266 348 392
#     4  10  24  40  65  97 135 176 216 281 327 409
#     4  11  23  40  58 100 130 176 229 269 335 392
#     4  10  24  41  70  96 128 178 214 282 331 396
#     4  11  23  37  59  86 137 178 219 270 314 415
#     4  10  23  47  70  98 132 179 225 281 341 393
#
# _framework density 21.830842000000001
#
# number of rings (size 3 to 8) (size 9 to 14) (size 15 to 20)
#    1.091    0.364    1.818    3.273    7.636    0.727 
#    0.000    1.818    0.000    0.000    0.000    0.000 
#    0.000    0.000    0.000    0.000    0.000    0.000 
#
# Total GULP energy -545228.114620 kJ/mol
# GULP energy per Si atom -12391.548060 kJ/mol
# Density = 2.178115 g / cm^3
# Si number density = 21.830842 Si / 1000 Ang^3
#
#
#
# Elastic Constant Matrix: (Units=GPa)
#
#
# Indices 1 2 3 4 5 6 
#
# 1 112.6061 -2.4454 4.5842 0.0000 0.0000 0.0000
# 2 -2.4454 64.8886 -4.5282 0.0000 0.0000 0.0000
# 3 4.5842 -4.5282 51.3777 0.0000 0.0000 0.0000
# 4 0.0000 0.0000 0.0000 13.6184 0.0000 0.0000
# 5 0.0000 0.0000 0.0000 0.0000 12.3455 0.0000
# 6 0.0000 0.0000 0.0000 0.0000 0.0000 28.7308
#
#
#
# Elastic Compliance Matrix: (Units=1/GPa)
#
#
# Indices 1 2 3 4 5 6 
#
# 1 0.008918 0.000282 -0.000771 0.000000 0.000000 0.000000
# 2 0.000282 0.015515 0.001342 0.000000 0.000000 0.000000
# 3 -0.000771 0.001342 0.019651 0.000000 0.000000 0.000000
# 4 0.000000 0.000000 0.000000 0.073430 0.000000 0.000000
# 5 0.000000 0.000000 0.000000 0.000000 0.081001 0.000000
# 6 0.000000 0.000000 0.000000 0.000000 0.000000 0.034806
#
#
# Mechanical properties :
#
#
# Convention : Reuss Voigt Hill
#
# Bulk Modulus (GPa) = 21.83807 24.89930 23.36869
# Shear Modulus (GPa) = 20.25295 26.35638 23.30467
#
# Velocity S-wave (km/s) = 3.04916 3.47839 3.27082
# Velocity P-wave (km/s) = 4.73514 5.25001 4.99921
#
# Compressibility (1/GPa) = 0.04579158
#
# Stress axis : x y z
#
# Youngs Moduli (GPa) = 112.13245 64.45236 50.88853
#
# Poissons Ratio (x) = -0.01819 0.03923
# Poissons Ratio (y) = -0.03165 -0.06831
# Poissons Ratio (z) = 0.08644 -0.08651
#
# Static dielectric constant tensor:
#      x y z
#    x 3.856720 0.000000 0.000000 
#    y 0.000000 3.738560 0.000000 
#    z 0.000000 0.000000 3.847630 
# 
# 
# High freq. dielectric constant tensor:
#      x y z
#    x 1.852050 0.000000 0.000000 
#    y 0.000000 1.852300 0.000000 
#    z 0.000000 0.000000 1.842180 
# 
# From -- ./inp_files/27920.got.cif
#   From: 2010.03.12/outbox.cif.g09.slc.cpg/sg57_14_cif.got.tgz:27920.got - 2010.04.16 15:48:40.
