data_PCOD8234154
_publ_section_title
;
Structure prediction by ZEFSAII (Michael W. Deem and Ramdas Pophale) SiO2 
 PCOD8234154
Probable space group: P B C M
;
_chemical_formula_sum "Si O2"
_cell_formula_units_Z 64
_cell_length_a 8.016336
_cell_length_b 24.453693
_cell_length_c 15.406115
_cell_angle_alpha 90.000000
_cell_angle_beta 90.000000
_cell_angle_gamma 90.000000
_cell_volume 3020.045618
_symmetry_space_group_name_H-M "P B C M"
_symmetry_group_IT_number 57
_symmetry_cell_setting 'orthorhombic'
loop_
_space_group_symop_operation_xyz
x,y,z
-x,-y,1/2+z
x,1/2-y,-z
-x,1/2+y,1/2-z
-x,-y,-z
x,y,1/2-z
-x,1/2+y,z
x,1/2-y,1/2+z
loop_
_atom_site_type_symbol
_atom_site_label
_atom_site_fract_x
_atom_site_fract_y
_atom_site_fract_z
Si Si1 0.374685 0.886598 0.651257
Si Si2 0.994578 0.877633 0.849532
Si Si3 0.946080 0.243460 0.402292
Si Si4 0.683730 0.579784 0.848221
Si Si5 0.418513 0.768363 0.902916
Si Si6 0.587733 0.991951 0.651800
Si Si7 0.728580 0.702208 0.846329
Si Si8 0.849105 0.538380 0.019906
O O1 0.411726 0.870475 0.750000
O O2 0.429384 0.834442 0.594988
O O3 0.470958 0.941160 0.623875
O O4 0.180633 0.899973 0.637897
O O5 0.933582 0.886902 0.750000
O O6 0.978470 0.813878 0.871868
O O7 0.880985 0.909600 0.917954
O O8 0.888345 0.250000 0.500000
O O9 0.095538 0.287013 0.394572
O O10 0.760000 0.251020 0.358330
O O11 0.761741 0.572626 0.750000
O O12 0.508058 0.549203 0.849995
O O13 0.654404 0.643219 0.871315
O O14 0.797658 0.555772 0.923605
O O15 0.579788 0.745729 0.853412
O O16 0.443664 0.750000 0.000000
O O17 0.659933 0.982974 0.750000
O O18 0.721300 0.998160 0.575445
O O19 0.795383 0.703108 0.750000
O O20 0.000000 0.500000 0.000000
#
# Coordination Sequence:
#
# PCOD8234154 Si02
#       8
#     8   8   8   8   8   8   8   8
#     4   9  19  37  63  91 125 165 208 268 326 380
#     4  10  21  38  62  95 133 166 213 278 335 391
#     4  10  21  40  62  94 132 169 216 271 330 395
#     4  10  24  45  62  88 128 172 216 266 324 391
#     4  10  22  37  61  96 127 167 210 267 325 387
#     4  10  22  42  67  93 123 165 219 271 326 397
#     4  11  23  39  62  88 125 174 215 258 319 389
#     4  12  25  40  64  97 123 166 212 268 337 394
#
# _framework density 21.191732999999999
#
# number of rings (size 3 to 8) (size 9 to 14) (size 15 to 20)
#    0.000    1.750    0.000    3.375    3.500    3.500 
#    6.750    0.000    0.000    0.000    0.000    0.000 
#    0.000    0.000    0.000    0.000    0.000    0.000 
#
# Total GULP energy -792972.157860 kJ/mol
# GULP energy per Si atom -12390.189967 kJ/mol
# Density = 2.114350 g / cm^3
# Si number density = 21.191733 Si / 1000 Ang^3
#
#
#
# Elastic Constant Matrix: (Units=GPa)
#
#
# Indices 1 2 3 4 5 6 
#
# 1 105.1433 34.9128 31.7956 0.0000 0.0000 0.0000
# 2 34.9128 74.9633 21.9923 0.0000 0.0000 0.0000
# 3 31.7956 21.9923 107.3970 0.0000 0.0000 0.0000
# 4 0.0000 0.0000 0.0000 30.2797 0.0000 0.0000
# 5 0.0000 0.0000 0.0000 0.0000 -90.5536 0.0000
# 6 0.0000 0.0000 0.0000 0.0000 0.0000 30.9563
#
#
#
# Elastic Compliance Matrix: (Units=1/GPa)
#
#
# Indices 1 2 3 4 5 6 
#
# 1 0.011865 -0.004783 -0.002533 0.000000 0.000000 0.000000
# 2 -0.004783 0.016120 -0.001885 0.000000 0.000000 0.000000
# 3 -0.002533 -0.001885 0.010447 0.000000 0.000000 0.000000
# 4 0.000000 0.000000 0.000000 0.033025 0.000000 0.000000
# 5 0.000000 0.000000 0.000000 0.000000 -0.011043 0.000000
# 6 0.000000 0.000000 0.000000 0.000000 0.000000 0.032304
#
#
# Mechanical properties :
#
#
# Convention : Reuss Voigt Hill
#
# Bulk Modulus (GPa) = 49.92419 51.65611 50.79015
# Shear Modulus (GPa) = 42.44570 7.39000 24.91785
#
# Velocity S-wave (km/s) = 4.48027 1.86943 3.43276
# Velocity P-wave (km/s) = 7.09741 5.39335 6.30323
#
# Compressibility (1/GPa) = 0.02003037
#
# Stress axis : x y z
#
# Youngs Moduli (GPa) = 84.28145 62.03334 95.71868
#
# Poissons Ratio (x) = 0.29669 0.24249
# Poissons Ratio (y) = 0.40309 0.18044
# Poissons Ratio (z) = 0.21351 0.11694
#
# Static dielectric constant tensor:
#      x y z
#    x 3.819170 0.000000 0.000000 
#    y 0.000000 4.181810 0.000000 
#    z 0.000000 0.000000 4.134760 
# 
# 
# High freq. dielectric constant tensor:
#      x y z
#    x 1.828650 0.000000 0.000000 
#    y 0.000000 1.827950 0.000000 
#    z 0.000000 0.000000 1.840230 
# 
# From -- ./inp_files/16954.got.cif
#   From: 2010.03.12/outbox.cif.g09.slc.cpg/sg57_9_cif.got.tgz:16954.got - 2010.04.16 15:48:40.
