data_PCOD8234131
_publ_section_title
;
Structure prediction by ZEFSAII (Michael W. Deem and Ramdas Pophale) SiO2 
 PCOD8234131
Probable space group: P B C M
;
_chemical_formula_sum "Si O2"
_cell_formula_units_Z 48
_cell_length_a 11.700285
_cell_length_b 25.187123
_cell_length_c 8.569413
_cell_angle_alpha 90.000000
_cell_angle_beta 90.000000
_cell_angle_gamma 90.000000
_cell_volume 2525.376168
_symmetry_space_group_name_H-M "P B C M"
_symmetry_group_IT_number 57
_symmetry_cell_setting 'orthorhombic'
loop_
_space_group_symop_operation_xyz
x,y,z
-x,-y,1/2+z
x,1/2-y,-z
-x,1/2+y,1/2-z
-x,-y,-z
x,y,1/2-z
-x,1/2+y,z
x,1/2-y,1/2+z
loop_
_atom_site_type_symbol
_atom_site_label
_atom_site_fract_x
_atom_site_fract_y
_atom_site_fract_z
Si Si1 0.265009 0.101934 0.430659
Si Si2 0.123127 0.693429 0.433006
Si Si3 0.125372 0.504097 0.932539
Si Si4 0.492947 0.058867 0.567113
Si Si5 0.880255 0.806711 0.067457
Si Si6 0.276840 0.904640 0.567925
O O1 0.264309 0.117246 0.250000
O O2 0.188523 0.050855 0.464539
O O3 0.393509 0.091529 0.484342
O O4 0.216816 0.151091 0.527345
O O5 0.161723 0.750000 0.500000
O O6 0.107046 0.698345 0.250000
O O7 0.220055 0.651260 0.477713
O O8 0.001994 0.674214 0.500730
O O9 0.123989 0.518607 0.750000
O O10 0.188891 0.549015 0.029295
O O11 0.000000 0.500000 0.000000
O O12 0.469298 0.055319 0.750000
O O13 0.610086 0.089812 0.535220
O O14 0.500000 0.000000 0.500000
O O15 0.893210 0.800892 0.250000
O O16 0.843303 0.750000 0.000000
O O17 0.308454 0.907469 0.750000
#
# Coordination Sequence:
#
# PCOD8234131 Si02
#       6
#     8   8   8   8   8   8
#     4  11  23  40  60  86 119 156 200 246 295 353
#     4  10  21  38  61  89 120 158 198 244 297 352
#     4  11  23  36  56  85 119 155 192 241 299 356
#     4  12  24  40  62  87 117 158 202 244 298 356
#     4  11  22  38  62  90 121 159 199 245 299 355
#     4  11  23  39  60  86 119 155 199 247 296 355
#
# _framework density 19.007069999999999
#
# number of rings (size 3 to 8) (size 9 to 14) (size 15 to 20)
#    0.000    1.000    1.667    7.000    0.000    8.667 
#    0.000    0.833    0.000    2.000    0.000    0.000 
#    0.000    0.000    0.000    0.000    0.000    0.000 
#
# Total GULP energy -595514.653837 kJ/mol
# GULP energy per Si atom -12406.555288 kJ/mol
# Density = 1.896381 g / cm^3
# Si number density = 19.007070 Si / 1000 Ang^3
#
#
#
# Elastic Constant Matrix: (Units=GPa)
#
#
# Indices 1 2 3 4 5 6 
#
# 1 121.5074 53.9753 19.1576 0.0000 0.0000 0.0000
# 2 53.9753 107.0276 41.0422 0.0000 0.0000 0.0000
# 3 19.1576 41.0422 68.8885 0.0000 0.0000 0.0000
# 4 0.0000 0.0000 0.0000 33.5960 0.0000 0.0000
# 5 0.0000 0.0000 0.0000 0.0000 33.0399 0.0000
# 6 0.0000 0.0000 0.0000 0.0000 0.0000 45.6920
#
#
#
# Elastic Compliance Matrix: (Units=1/GPa)
#
#
# Indices 1 2 3 4 5 6 
#
# 1 0.010611 -0.005469 0.000308 0.000000 0.000000 0.000000
# 2 -0.005469 0.014929 -0.007373 0.000000 0.000000 0.000000
# 3 0.000308 -0.007373 0.018824 0.000000 0.000000 0.000000
# 4 0.000000 0.000000 0.000000 0.029765 0.000000 0.000000
# 5 0.000000 0.000000 0.000000 0.000000 0.030266 0.000000
# 6 0.000000 0.000000 0.000000 0.000000 0.000000 0.021886
#
#
# Mechanical properties :
#
#
# Convention : Reuss Voigt Hill
#
# Bulk Modulus (GPa) = 51.83092 58.41929 55.12510
# Shear Modulus (GPa) = 31.68919 34.68213 33.18566
#
# Velocity S-wave (km/s) = 4.08760 4.27628 4.18301
# Velocity P-wave (km/s) = 7.04319 7.42862 7.23847
#
# Compressibility (1/GPa) = 0.01929350
#
# Stress axis : x y z
#
# Youngs Moduli (GPa) = 94.24229 66.98339 53.12472
#
# Poissons Ratio (x) = 0.36634 -0.01634
# Poissons Ratio (y) = 0.51543 0.39171
# Poissons Ratio (z) = -0.02898 0.49390
#
# Static dielectric constant tensor:
#      x y z
#    x 3.588320 0.000000 0.000000 
#    y 0.000000 3.597160 0.000000 
#    z 0.000000 0.000000 3.614710 
# 
# 
# High freq. dielectric constant tensor:
#      x y z
#    x 1.742900 0.000000 0.000000 
#    y 0.000000 1.741450 0.000000 
#    z 0.000000 0.000000 1.759430 
# 
# From -- ./inp_files/3158.got.cif
#   From: 2010.03.12/outbox.cif.g09.slc.cpg/sg57_2_cif.got.tgz:3158.got - 2010.04.16 15:48:40.
