data_PCOD8234022
_publ_section_title
;
Structure prediction by ZEFSAII (Michael W. Deem and Ramdas Pophale) SiO2 
 PCOD8234022
Probable space group: P B C M
;
_chemical_formula_sum "Si O2"
_cell_formula_units_Z 56
_cell_length_a 14.661312
_cell_length_b 22.691775
_cell_length_c 8.743830
_cell_angle_alpha 90.000000
_cell_angle_beta 90.000000
_cell_angle_gamma 90.000000
_cell_volume 2908.995235
_symmetry_space_group_name_H-M "P B C M"
_symmetry_group_IT_number 57
_symmetry_cell_setting 'orthorhombic'
loop_
_space_group_symop_operation_xyz
x,y,z
-x,-y,1/2+z
x,1/2-y,-z
-x,1/2+y,1/2-z
-x,-y,-z
x,y,1/2-z
-x,1/2+y,z
x,1/2-y,1/2+z
loop_
_atom_site_type_symbol
_atom_site_label
_atom_site_fract_x
_atom_site_fract_y
_atom_site_fract_z
Si Si1 0.119302 0.453099 0.071824
Si Si2 0.707801 0.585908 0.069063
Si Si3 0.087462 0.923769 0.428708
Si Si4 0.424568 0.310613 0.568538
Si Si5 0.814211 0.311580 0.568016
Si Si6 0.403683 0.516049 0.068975
Si Si7 0.381211 0.852019 0.930875
O O1 0.141092 0.458058 0.250000
O O2 0.020325 0.426215 0.039999
O O3 0.188877 0.407279 0.991245
O O4 0.132492 0.518106 0.000864
O O5 0.705001 0.581617 0.250000
O O6 0.644672 0.639230 0.010553
O O7 0.673526 0.525786 0.995443
O O8 0.110508 0.922330 0.250000
O O9 0.124869 0.865086 0.507598
O O10 0.387596 0.250000 0.500000
O O11 0.424893 0.307646 0.750000
O O12 0.526447 0.322639 0.502694
O O13 0.851262 0.250000 0.500000
O O14 0.820885 0.310432 0.750000
O O15 0.709500 0.319147 0.510488
O O16 0.409978 0.511446 0.250000
O O17 0.376158 0.580913 0.013186
O O18 0.500000 0.500000 0.000000
O O19 0.386466 0.849936 0.750000
#
# Coordination Sequence:
#
# PCOD8234022 Si02
#       7
#     8   8   8   8   8   8   8
#     4  10  21  38  62  90 117 147 186 236 292 349
#     4  11  22  37  57  83 116 151 189 235 283 340
#     4  10  21  39  62  88 118 150 188 235 291 354
#     4  10  21  38  55  75 107 147 191 234 277 329
#     4  11  22  37  59  85 118 157 197 244 293 346
#     4  11  20  34  55  82 116 151 190 237 288 340
#     4   9  19  36  55  78 113 150 186 232 283 337
#
# _framework density 19.250633000000001
#
# number of rings (size 3 to 8) (size 9 to 14) (size 15 to 20)
#    0.000    1.714    1.429    3.429    0.000    4.000 
#    0.000    3.571    0.000    1.714    0.000    0.000 
#    0.000    0.000    0.000    0.000    0.000    0.000 
#
# Total GULP energy -694513.454826 kJ/mol
# GULP energy per Si atom -12402.025979 kJ/mol
# Density = 1.920682 g / cm^3
# Si number density = 19.250633 Si / 1000 Ang^3
#
#
#
# Elastic Constant Matrix: (Units=GPa)
#
#
# Indices 1 2 3 4 5 6 
#
# 1 90.0880 62.3877 35.1998 0.0000 0.0000 0.0000
# 2 62.3877 137.4984 46.4159 0.0000 0.0000 0.0000
# 3 35.1998 46.4159 75.2601 0.0000 0.0000 0.0000
# 4 0.0000 0.0000 0.0000 32.5540 0.0000 0.0000
# 5 0.0000 0.0000 0.0000 0.0000 32.8340 0.0000
# 6 0.0000 0.0000 0.0000 0.0000 0.0000 23.0822
#
#
#
# Elastic Compliance Matrix: (Units=1/GPa)
#
#
# Indices 1 2 3 4 5 6 
#
# 1 0.017116 -0.006395 -0.004061 0.000000 0.000000 0.000000
# 2 -0.006395 0.011575 -0.004147 0.000000 0.000000 0.000000
# 3 -0.004061 -0.004147 0.017745 0.000000 0.000000 0.000000
# 4 0.000000 0.000000 0.000000 0.030718 0.000000 0.000000
# 5 0.000000 0.000000 0.000000 0.000000 0.030456 0.000000
# 6 0.000000 0.000000 0.000000 0.000000 0.000000 0.043324
#
#
# Mechanical properties :
#
#
# Convention : Reuss Voigt Hill
#
# Bulk Modulus (GPa) = 58.04631 65.65037 61.84834
# Shear Modulus (GPa) = 26.89869 28.28355 27.59112
#
# Velocity S-wave (km/s) = 3.74209 3.83721 3.78995
# Velocity P-wave (km/s) = 6.99209 7.33548 7.16584
#
# Compressibility (1/GPa) = 0.01722762
#
# Stress axis : x y z
#
# Youngs Moduli (GPa) = 58.42566 86.39636 56.35534
#
# Poissons Ratio (x) = 0.55251 0.22886
# Poissons Ratio (y) = 0.37364 0.23373
# Poissons Ratio (z) = 0.23727 0.35832
#
# Static dielectric constant tensor:
#      x y z
#    x 3.833770 0.000000 0.000000 
#    y 0.000000 3.525860 0.000000 
#    z 0.000000 0.000000 3.381780 
# 
# 
# High freq. dielectric constant tensor:
#      x y z
#    x 1.755270 0.000000 0.000000 
#    y 0.000000 1.747690 0.000000 
#    z 0.000000 0.000000 1.746030 
# 
# From -- ./inp_files/5200.got.cif
#   From: 2010.03.12/outbox.cif.g09.slc.cpg/sg57_3_cif.got.tgz:5200.got - 2010.04.16 15:48:40.
