data_PCOD8234769
_publ_section_title
;
Structure prediction by ZEFSAII (Michael W. Deem and Ramdas Pophale) SiO2 
 PCOD8234769
Probable space group: P B C M
;
_chemical_formula_sum "Si O2"
_cell_formula_units_Z 64
_cell_length_a 12.589956
_cell_length_b 13.957953
_cell_length_c 17.299426
_cell_angle_alpha 90.000000
_cell_angle_beta 90.000000
_cell_angle_gamma 90.000000
_cell_volume 3040.028375
_symmetry_space_group_name_H-M "P B C M"
_symmetry_group_IT_number 57
_symmetry_cell_setting 'orthorhombic'
loop_
_space_group_symop_operation_xyz
x,y,z
-x,-y,1/2+z
x,1/2-y,-z
-x,1/2+y,1/2-z
-x,-y,-z
x,y,1/2-z
-x,1/2+y,z
x,1/2-y,1/2+z
loop_
_atom_site_type_symbol
_atom_site_label
_atom_site_fract_x
_atom_site_fract_y
_atom_site_fract_z
Si Si1 0.033682 0.588549 0.839973
Si Si2 0.038522 0.810012 0.836911
Si Si3 0.217364 0.974478 0.439347
Si Si4 0.554392 0.519539 0.417299
Si Si5 0.837206 0.027772 0.101743
Si Si6 0.839467 0.822671 0.930997
Si Si7 0.640021 0.708515 0.159015
Si Si8 0.630566 0.576212 0.661647
O O1 0.012732 0.567526 0.750000
O O2 0.055488 0.699560 0.858406
O O3 0.143706 0.539718 0.864857
O O4 0.933489 0.548788 0.888340
O O5 0.996582 0.817682 0.750000
O O6 0.951847 0.853096 0.894760
O O7 0.142785 0.877681 0.845443
O O8 0.339089 0.953900 0.415745
O O9 0.172452 0.923185 0.516218
O O10 0.214444 0.084648 0.467911
O O11 0.500000 0.500000 0.500000
O O12 0.579828 0.630783 0.395509
O O13 0.475964 0.483990 0.350831
O O14 0.727289 0.973760 0.117289
O O15 0.765301 0.785960 0.860982
O O16 0.855160 0.750000 0.000000
O O17 0.624378 0.684418 0.250000
O O18 0.601042 0.815147 0.136439
O O19 0.665295 0.575663 0.750000
#
# Coordination Sequence:
#
# PCOD8234769 Si02
#       8
#     8   8   8   8   8   8   8   8
#     4  11  24  41  62  94 133 172 219 267 328 406
#     4  11  24  39  61  93 132 176 220 269 332 403
#     4  11  24  41  64  91 130 171 217 269 332 393
#     4  11  24  45  67  97 131 171 220 281 337 399
#     4  12  23  42  67  97 134 172 220 276 341 395
#     4  11  22  36  65  98 130 172 221 276 330 398
#     4  10  23  42  69  99 130 175 227 276 335 404
#     4  11  23  43  70  98 132 174 226 282 339 400
#
# _framework density 21.052434999999999
#
# number of rings (size 3 to 8) (size 9 to 14) (size 15 to 20)
#    0.000    1.000    2.500    4.500    3.500    4.500 
#    2.250    1.250    0.000    0.000    0.000    0.000 
#    0.000    0.000    0.000    0.000    0.000    0.000 
#
# Total GULP energy -793191.879353 kJ/mol
# GULP energy per Si atom -12393.623115 kJ/mol
# Density = 2.100452 g / cm^3
# Si number density = 21.052435 Si / 1000 Ang^3
#
#
#
# Elastic Constant Matrix: (Units=GPa)
#
#
# Indices 1 2 3 4 5 6 
#
# 1 135.9167 41.4698 38.8085 0.0000 0.0000 0.0000
# 2 41.4698 104.7834 28.4894 0.0000 0.0000 0.0000
# 3 38.8085 28.4894 73.5492 0.0000 0.0000 0.0000
# 4 0.0000 0.0000 0.0000 31.0957 0.0000 0.0000
# 5 0.0000 0.0000 0.0000 0.0000 35.6654 0.0000
# 6 0.0000 0.0000 0.0000 0.0000 0.0000 25.4561
#
#
#
# Elastic Compliance Matrix: (Units=1/GPa)
#
#
# Indices 1 2 3 4 5 6 
#
# 1 0.009261 -0.002612 -0.003875 0.000000 0.000000 0.000000
# 2 -0.002612 0.011403 -0.003039 0.000000 0.000000 0.000000
# 3 -0.003875 -0.003039 0.016818 0.000000 0.000000 0.000000
# 4 0.000000 0.000000 0.000000 0.032159 0.000000 0.000000
# 5 0.000000 0.000000 0.000000 0.000000 0.028038 0.000000
# 6 0.000000 0.000000 0.000000 0.000000 0.000000 0.039283
#
#
# Mechanical properties :
#
#
# Convention : Reuss Voigt Hill
#
# Bulk Modulus (GPa) = 54.25599 59.08719 56.67159
# Shear Modulus (GPa) = 30.83425 32.14220 31.48822
#
# Velocity S-wave (km/s) = 3.83121 3.91163 3.87163
# Velocity P-wave (km/s) = 6.73786 6.96626 6.85301
#
# Compressibility (1/GPa) = 0.01843115
#
# Stress axis : x y z
#
# Youngs Moduli (GPa) = 107.98382 87.69346 59.45969
#
# Poissons Ratio (x) = 0.22901 0.23040
# Poissons Ratio (y) = 0.28200 0.18071
# Poissons Ratio (z) = 0.41842 0.26651
#
# Static dielectric constant tensor:
#      x y z
#    x 3.794110 0.000000 0.000000 
#    y 0.000000 3.914820 0.000000 
#    z 0.000000 0.000000 3.893120 
# 
# 
# High freq. dielectric constant tensor:
#      x y z
#    x 1.816870 0.000000 0.000000 
#    y 0.000000 1.825760 0.000000 
#    z 0.000000 0.000000 1.836390 
# 
# From -- ./inp_files/22104.got.cif
#   From: 2010.03.12/outbox.cif.g09.slc.cpg/sg57_12_cif.got.tgz:22104.got - 2010.04.16 15:48:40.
