data_PCOD8234221
_publ_section_title
;
Structure prediction by ZEFSAII (Michael W. Deem and Ramdas Pophale) SiO2 
 PCOD8234221
Probable space group: P B C M
;
_chemical_formula_sum "Si O2"
_cell_formula_units_Z 64
_cell_length_a 8.962509
_cell_length_b 23.186077
_cell_length_c 14.068777
_cell_angle_alpha 90.000000
_cell_angle_beta 90.000000
_cell_angle_gamma 90.000000
_cell_volume 2923.568167
_symmetry_space_group_name_H-M "P B C M"
_symmetry_group_IT_number 57
_symmetry_cell_setting 'orthorhombic'
loop_
_space_group_symop_operation_xyz
x,y,z
-x,-y,1/2+z
x,1/2-y,-z
-x,1/2+y,1/2-z
-x,-y,-z
x,y,1/2-z
-x,1/2+y,z
x,1/2-y,1/2+z
loop_
_atom_site_type_symbol
_atom_site_label
_atom_site_fract_x
_atom_site_fract_y
_atom_site_fract_z
Si Si1 0.570289 0.827107 0.354241
Si Si2 0.620073 0.698663 0.362277
Si Si3 0.858496 0.608288 0.356740
Si Si4 0.609381 0.370357 0.973005
Si Si5 0.827792 0.913802 0.147310
Si Si6 0.089327 0.594926 0.513030
Si Si7 0.726621 0.487469 0.143661
Si Si8 0.602364 0.489251 0.861512
O O1 0.491490 0.820741 0.250000
O O2 0.617950 0.764790 0.396320
O O3 0.467058 0.863316 0.424649
O O4 0.721749 0.860207 0.339660
O O5 0.622368 0.692492 0.250000
O O6 0.765448 0.662968 0.401285
O O7 0.463949 0.672760 0.398612
O O8 0.911846 0.622660 0.250000
O O9 0.740964 0.556403 0.358593
O O10 0.006093 0.586860 0.412243
O O11 0.605686 0.434625 0.930304
O O12 0.784559 0.356285 0.993945
O O13 0.892681 0.932111 0.250000
O O14 0.958975 0.887856 0.084100
O O15 0.738367 0.969041 0.104886
O O16 0.171107 0.539732 0.560938
O O17 0.769529 0.464503 0.250000
O O18 0.551784 0.475431 0.123394
O O19 0.618561 0.472204 0.750000
#
# Coordination Sequence:
#
# PCOD8234221 Si02
#       8
#     8   8   8   8   8   8   8   8
#     4  10  23  44  70  93 120 164 222 278 318 373
#     4  10  21  45  73  93 117 161 223 280 323 365
#     4  10  22  40  62  90 125 165 215 263 309 375
#     4  12  24  38  64  95 131 162 209 264 325 379
#     4  10  23  42  62  92 129 173 218 254 310 387
#     4  12  26  37  58  93 136 175 198 248 320 390
#     4  10  21  39  61  90 126 166 211 258 310 371
#     4  10  22  40  65  93 126 167 218 267 306 368
#
# _framework density 21.891055999999999
#
# number of rings (size 3 to 8) (size 9 to 14) (size 15 to 20)
#    0.000    1.500    1.250    3.000    3.500    4.000 
#    0.000    2.500    0.000    3.000    0.000    0.000 
#    0.000    0.000    0.000    0.000    0.000    0.000 
#
# Total GULP energy -792929.688500 kJ/mol
# GULP energy per Si atom -12389.526383 kJ/mol
# Density = 2.184123 g / cm^3
# Si number density = 21.891056 Si / 1000 Ang^3
#
#
#
# Elastic Constant Matrix: (Units=GPa)
#
#
# Indices 1 2 3 4 5 6 
#
# 1 129.1232 27.6962 61.4238 0.0000 0.0000 0.0000
# 2 27.6962 99.6383 44.9598 0.0000 0.0000 0.0000
# 3 61.4238 44.9598 102.2116 0.0000 0.0000 0.0000
# 4 0.0000 0.0000 0.0000 11.6330 0.0000 0.0000
# 5 0.0000 0.0000 0.0000 0.0000 25.6483 0.0000
# 6 0.0000 0.0000 0.0000 0.0000 0.0000 12.6147
#
#
#
# Elastic Compliance Matrix: (Units=1/GPa)
#
#
# Indices 1 2 3 4 5 6 
#
# 1 0.010845 -0.000092 -0.006477 0.000000 0.000000 0.000000
# 2 -0.000092 0.012522 -0.005453 0.000000 0.000000 0.000000
# 3 -0.006477 -0.005453 0.016075 0.000000 0.000000 0.000000
# 4 0.000000 0.000000 0.000000 0.085962 0.000000 0.000000
# 5 0.000000 0.000000 0.000000 0.000000 0.038989 0.000000
# 6 0.000000 0.000000 0.000000 0.000000 0.000000 0.079273
#
#
# Mechanical properties :
#
#
# Convention : Reuss Voigt Hill
#
# Bulk Modulus (GPa) = 64.94185 66.57028 65.75607
# Shear Modulus (GPa) = 18.32553 23.10540 20.71547
#
# Velocity S-wave (km/s) = 2.89645 3.25233 3.07953
# Velocity P-wave (km/s) = 6.39658 6.67678 6.53818
#
# Compressibility (1/GPa) = 0.01539839
#
# Stress axis : x y z
#
# Youngs Moduli (GPa) = 92.20496 79.85679 62.21006
#
# Poissons Ratio (x) = 0.00735 0.40294
# Poissons Ratio (y) = 0.00849 0.33923
# Poissons Ratio (z) = 0.59722 0.43545
#
# Static dielectric constant tensor:
#      x y z
#    x 4.121810 0.000000 0.000000 
#    y 0.000000 3.796870 0.000000 
#    z 0.000000 0.000000 4.492500 
# 
# 
# High freq. dielectric constant tensor:
#      x y z
#    x 1.853660 0.000000 0.000000 
#    y 0.000000 1.834490 0.000000 
#    z 0.000000 0.000000 1.887330 
# 
# From -- ./inp_files/16929.got.cif
#   From: 2010.03.12/outbox.cif.g09.slc.cpg/sg57_9_cif.got.tgz:16929.got - 2010.04.16 15:48:40.
