data_PCOD8234932
_publ_section_title
;
Structure prediction by ZEFSAII (Michael W. Deem and Ramdas Pophale) SiO2 
 PCOD8234932
Probable space group: P B C M
;
_chemical_formula_sum "Si O2"
_cell_formula_units_Z 32
_cell_length_a 20.949236
_cell_length_b 9.282607
_cell_length_c 8.669272
_cell_angle_alpha 90.000000
_cell_angle_beta 90.000000
_cell_angle_gamma 90.000000
_cell_volume 1685.857190
_symmetry_space_group_name_H-M "P B C M"
_symmetry_group_IT_number 57
_symmetry_cell_setting 'orthorhombic'
loop_
_space_group_symop_operation_xyz
x,y,z
-x,-y,1/2+z
x,1/2-y,-z
-x,1/2+y,1/2-z
-x,-y,-z
x,y,1/2-z
-x,1/2+y,z
x,1/2-y,1/2+z
loop_
_atom_site_type_symbol
_atom_site_label
_atom_site_fract_x
_atom_site_fract_y
_atom_site_fract_z
Si Si1 0.815823 0.592592 0.569040
Si Si2 0.324106 0.093150 0.930032
Si Si3 0.057368 0.090227 0.067668
Si Si4 0.557485 0.091469 0.066682
O O1 0.811690 0.750000 0.500000
O O2 0.830568 0.598123 0.750000
O O3 0.746117 0.524033 0.533412
O O4 0.875477 0.514342 0.484319
O O5 0.331922 0.116877 0.750000
O O6 0.376730 0.981586 0.991500
O O7 0.335112 0.250000 0.000000
O O8 0.052418 0.094695 0.250000
O O9 0.053875 0.250000 0.000000
O O10 0.000000 0.000000 0.000000
O O11 0.552823 0.097107 0.250000
O O12 0.554092 0.250000 0.000000
O O13 0.500000 0.000000 0.000000
#
# Coordination Sequence:
#
# PCOD8234932 Si02
#       4
#     8   8   8   8
#     4   9  16  30  51  76 104 137 175 219 265 318
#     4   9  19  34  55  80 107 137 175 219 267 318
#     4  11  21  35  54  79 108 142 181 224 269 319
#     4  11  23  39  57  81 110 144 181 222 267 317
#
# _framework density 18.981441
#
# number of rings (size 3 to 8) (size 9 to 14) (size 15 to 20)
#    0.000    2.000    0.000    6.000    0.000    5.000 
#    0.000    1.250    0.000    3.000    0.000    0.000 
#    0.000    0.000    0.000    0.000    0.000    0.000 
#
# Total GULP energy -396585.006364 kJ/mol
# GULP energy per Si atom -12393.281449 kJ/mol
# Density = 1.893824 g / cm^3
# Si number density = 18.981441 Si / 1000 Ang^3
#
#
#
# Elastic Constant Matrix: (Units=GPa)
#
#
# Indices 1 2 3 4 5 6 
#
# 1 214.9100 80.1069 73.9366 0.0000 0.0000 0.0000
# 2 80.1069 95.5473 40.6535 0.0000 0.0000 0.0000
# 3 73.9366 40.6535 117.7302 0.0000 0.0000 0.0000
# 4 0.0000 0.0000 0.0000 28.6118 0.0000 0.0000
# 5 0.0000 0.0000 0.0000 0.0000 33.2474 0.0000
# 6 0.0000 0.0000 0.0000 0.0000 0.0000 33.8967
#
#
#
# Elastic Compliance Matrix: (Units=1/GPa)
#
#
# Indices 1 2 3 4 5 6 
#
# 1 0.007580 -0.005075 -0.003008 0.000000 0.000000 0.000000
# 2 -0.005075 0.015667 -0.002223 0.000000 0.000000 0.000000
# 3 -0.003008 -0.002223 0.011150 0.000000 0.000000 0.000000
# 4 0.000000 0.000000 0.000000 0.034951 0.000000 0.000000
# 5 0.000000 0.000000 0.000000 0.000000 0.030078 0.000000
# 6 0.000000 0.000000 0.000000 0.000000 0.000000 0.029501
#
#
# Mechanical properties :
#
#
# Convention : Reuss Voigt Hill
#
# Bulk Modulus (GPa) = 72.53781 90.84237 81.69009
# Shear Modulus (GPa) = 32.43977 34.71722 33.57850
#
# Velocity S-wave (km/s) = 4.13852 4.28133 4.21053
# Velocity P-wave (km/s) = 7.81886 8.50895 8.17119
#
# Compressibility (1/GPa) = 0.01378591
#
# Stress axis : x y z
#
# Youngs Moduli (GPa) = 131.93454 63.83009 89.68339
#
# Poissons Ratio (x) = 0.32394 0.26973
# Poissons Ratio (y) = 0.66957 0.19934
# Poissons Ratio (z) = 0.39681 0.14187
#
# Static dielectric constant tensor:
#      x y z
#    x 5.055350 0.000000 0.000000 
#    y 0.000000 3.014790 0.000000 
#    z 0.000000 0.000000 3.590980 
# 
# 
# High freq. dielectric constant tensor:
#      x y z
#    x 1.771320 0.000000 0.000000 
#    y 0.000000 1.696890 0.000000 
#    z 0.000000 0.000000 1.751040 
# 
# From -- ./inp_files/7539.got.cif
#   From: 2010.03.12/outbox.cif.g09.slc.cpg/sg57_4_cif.got.tgz:7539.got - 2010.04.16 15:48:40.
