data_PCOD8234637
_publ_section_title
;
Structure prediction by ZEFSAII (Michael W. Deem and Ramdas Pophale) SiO2 
 PCOD8234637
Probable space group: P B C M
;
_chemical_formula_sum "Si O2"
_cell_formula_units_Z 48
_cell_length_a 9.729645
_cell_length_b 13.303570
_cell_length_c 17.125584
_cell_angle_alpha 90.000000
_cell_angle_beta 90.000000
_cell_angle_gamma 90.000000
_cell_volume 2216.718696
_symmetry_space_group_name_H-M "P B C M"
_symmetry_group_IT_number 57
_symmetry_cell_setting 'orthorhombic'
loop_
_space_group_symop_operation_xyz
x,y,z
-x,-y,1/2+z
x,1/2-y,-z
-x,1/2+y,1/2-z
-x,-y,-z
x,y,1/2-z
-x,1/2+y,z
x,1/2-y,1/2+z
loop_
_atom_site_type_symbol
_atom_site_label
_atom_site_fract_x
_atom_site_fract_y
_atom_site_fract_z
Si Si1 0.040372 0.941243 0.079126
Si Si2 0.397922 0.052361 0.841057
Si Si3 0.202531 0.212254 0.916976
Si Si4 0.307262 0.626330 0.841061
Si Si5 0.726227 0.346699 0.659069
Si Si6 0.976330 0.863615 0.838435
O O1 0.196049 0.901719 0.092011
O O2 0.939304 0.848279 0.083688
O O3 0.023915 0.016315 0.151965
O O4 0.000000 0.000000 0.000000
O O5 0.365791 0.059921 0.750000
O O6 0.322789 0.147229 0.879623
O O7 0.560324 0.057727 0.856994
O O8 0.347696 0.945417 0.877814
O O9 0.161906 0.315266 0.873483
O O10 0.255339 0.250000 0.000000
O O11 0.255984 0.613852 0.750000
O O12 0.355090 0.742681 0.854476
O O13 0.741645 0.371668 0.750000
O O14 0.878777 0.328608 0.622821
O O15 0.974713 0.830583 0.750000
#
# Coordination Sequence:
#
# PCOD8234637 Si02
#       6
#     8   8   8   8   8   8
#     4  12  24  41  63  94 131 172 218 273 335 401
#     4  10  22  41  67  98 132 172 226 286 337 399
#     4  12  24  41  62  93 134 176 219 272 338 409
#     4  10  22  41  68  99 132 173 224 279 335 401
#     4   9  18  35  62  94 125 164 215 274 339 389
#     4  11  22  37  66  98 124 168 229 287 334 391
#
# _framework density 21.653628000000001
#
# number of rings (size 3 to 8) (size 9 to 14) (size 15 to 20)
#    0.000    1.333    5.000    1.000    0.000    2.667 
#    0.000    6.667    0.000    0.000    0.000    0.000 
#    0.000    0.000    0.000    0.000    0.000    0.000 
#
# Total GULP energy -594707.777677 kJ/mol
# GULP energy per Si atom -12389.745368 kJ/mol
# Density = 2.160434 g / cm^3
# Si number density = 21.653628 Si / 1000 Ang^3
#
#
#
# Elastic Constant Matrix: (Units=GPa)
#
#
# Indices 1 2 3 4 5 6 
#
# 1 100.8991 37.1691 47.4858 0.0000 0.0000 0.0000
# 2 37.1691 92.7730 34.4618 0.0000 0.0000 0.0000
# 3 47.4858 34.4618 67.7966 0.0000 0.0000 0.0000
# 4 0.0000 0.0000 0.0000 33.5732 0.0000 0.0000
# 5 0.0000 0.0000 0.0000 0.0000 24.4494 0.0000
# 6 0.0000 0.0000 0.0000 0.0000 0.0000 36.5599
#
#
#
# Elastic Compliance Matrix: (Units=1/GPa)
#
#
# Indices 1 2 3 4 5 6 
#
# 1 0.015295 -0.002648 -0.009366 0.000000 0.000000 0.000000
# 2 -0.002648 0.013747 -0.005133 0.000000 0.000000 0.000000
# 3 -0.009366 -0.005133 0.023919 0.000000 0.000000 0.000000
# 4 0.000000 0.000000 0.000000 0.029786 0.000000 0.000000
# 5 0.000000 0.000000 0.000000 0.000000 0.040901 0.000000
# 6 0.000000 0.000000 0.000000 0.000000 0.000000 0.027352
#
#
# Mechanical properties :
#
#
# Convention : Reuss Voigt Hill
#
# Bulk Modulus (GPa) = 53.57389 55.52245 54.54817
# Shear Modulus (GPa) = 26.10750 28.40663 27.25706
#
# Velocity S-wave (km/s) = 3.47607 3.62590 3.55177
# Velocity P-wave (km/s) = 6.39576 6.57467 6.48583
#
# Compressibility (1/GPa) = 0.01866581
#
# Stress axis : x y z
#
# Youngs Moduli (GPa) = 65.38275 72.74496 41.80733
#
# Poissons Ratio (x) = 0.19266 0.39158
# Poissons Ratio (y) = 0.17316 0.21458
# Poissons Ratio (z) = 0.61239 0.37337
#
# Static dielectric constant tensor:
#      x y z
#    x 3.802230 0.000000 0.000000 
#    y 0.000000 4.304200 0.000000 
#    z 0.000000 0.000000 3.722820 
# 
# 
# High freq. dielectric constant tensor:
#      x y z
#    x 1.838820 0.000000 0.000000 
#    y 0.000000 1.869970 0.000000 
#    z 0.000000 0.000000 1.823420 
# 
# From -- ./inp_files/20968.got.cif
#   From: 2010.03.12/outbox.cif.g09.slc.cpg/sg57_11_cif.got.tgz:20968.got - 2010.04.16 15:48:40.
