data_PCOD8234707
_publ_section_title
;
Structure prediction by ZEFSAII (Michael W. Deem and Ramdas Pophale) SiO2 
 PCOD8234707
Probable space group: P B C M
;
_chemical_formula_sum "Si O2"
_cell_formula_units_Z 24
_cell_length_a 14.001484
_cell_length_b 8.196334
_cell_length_c 8.171729
_cell_angle_alpha 90.000000
_cell_angle_beta 90.000000
_cell_angle_gamma 90.000000
_cell_volume 937.794479
_symmetry_space_group_name_H-M "P B C M"
_symmetry_group_IT_number 57
_symmetry_cell_setting 'orthorhombic'
loop_
_space_group_symop_operation_xyz
x,y,z
-x,-y,1/2+z
x,1/2-y,-z
-x,1/2+y,1/2-z
-x,-y,-z
x,y,1/2-z
-x,1/2+y,z
x,1/2-y,1/2+z
loop_
_atom_site_type_symbol
_atom_site_label
_atom_site_fract_x
_atom_site_fract_y
_atom_site_fract_z
Si Si1 0.394964 0.792403 0.250000
Si Si2 0.899113 0.433457 0.556176
Si Si3 0.706326 0.947087 0.928932
Si Si4 0.611370 0.904213 0.250000
O O1 0.345514 0.875577 0.410680
O O2 0.506058 0.834568 0.250000
O O3 0.380802 0.600463 0.250000
O O4 0.888394 0.250000 0.500000
O O5 0.885244 0.449403 0.750000
O O6 0.818687 0.537091 0.463235
O O7 0.000000 0.500000 0.500000
O O8 0.691409 0.856760 0.750000
O O9 0.661877 0.847013 0.081093
#
# Coordination Sequence:
#
# PCOD8234707 Si02
#       4
#     4   8   8   4
#     4  10  24  36  67  84 130 160 215 254 315 368
#     4  12  24  43  69  98 131 169 217 268 325 389
#     4  10  23  39  66  92 124 168 214 255 313 385
#     4  12  20  44  57  96 120 170 207 266 307 374
#
# _framework density 25.591961999999999
#
# number of rings (size 3 to 8) (size 9 to 14) (size 15 to 20)
#    1.000    0.000    1.667    7.000    0.000    0.000 
#    0.000    3.333    0.000    0.000    0.000    0.000 
#    0.000    0.000    0.000    0.000    0.000    0.000 
#
# Total GULP energy -297555.672349 kJ/mol
# GULP energy per Si atom -12398.153015 kJ/mol
# Density = 2.553371 g / cm^3
# Si number density = 25.591962 Si / 1000 Ang^3
#
#
#
# Elastic Constant Matrix: (Units=GPa)
#
#
# Indices 1 2 3 4 5 6 
#
# 1 216.1744 19.4502 89.3149 0.0000 0.0000 0.0000
# 2 19.4502 96.2392 75.8858 0.0000 0.0000 0.0000
# 3 89.3149 75.8858 243.3813 0.0000 0.0000 0.0000
# 4 0.0000 0.0000 0.0000 55.6979 0.0000 0.0000
# 5 0.0000 0.0000 0.0000 0.0000 34.9583 0.0000
# 6 0.0000 0.0000 0.0000 0.0000 0.0000 -116.7301
#
#
#
# Elastic Compliance Matrix: (Units=1/GPa)
#
#
# Indices 1 2 3 4 5 6 
#
# 1 0.005482 0.000634 -0.002209 0.000000 0.000000 0.000000
# 2 0.000634 0.013852 -0.004552 0.000000 0.000000 0.000000
# 3 -0.002209 -0.004552 0.006339 0.000000 0.000000 0.000000
# 4 0.000000 0.000000 0.000000 0.017954 0.000000 0.000000
# 5 0.000000 0.000000 0.000000 0.000000 0.028605 0.000000
# 6 0.000000 0.000000 0.000000 0.000000 0.000000 -0.008567
#
#
# Mechanical properties :
#
#
# Convention : Reuss Voigt Hill
#
# Bulk Modulus (GPa) = 74.52405 102.78853 88.65629
# Shear Modulus (GPa) = 62.19586 19.52816 40.86201
#
# Velocity S-wave (km/s) = 4.93514 2.76535 4.00017
# Velocity P-wave (km/s) = 7.85223 7.10266 7.48683
#
# Compressibility (1/GPa) = 0.01341849
#
# Stress axis : x y z
#
# Youngs Moduli (GPa) = 182.42634 72.19361 157.75915
#
# Poissons Ratio (x) = -0.04579 0.34855
# Poissons Ratio (y) = -0.11571 0.71807
# Poissons Ratio (z) = 0.40305 0.32860
#
# Static dielectric constant tensor:
#      x y z
#    x 4.685770 0.000000 0.000000 
#    y 0.000000 4.609130 0.000000 
#    z 0.000000 0.000000 5.102000 
# 
# 
# High freq. dielectric constant tensor:
#      x y z
#    x 2.021080 0.000000 0.000000 
#    y 0.000000 2.059720 0.000000 
#    z 0.000000 0.000000 2.062840 
# 
# From -- ./inp_files/3951.got.cif
#   From: 2010.03.12/outbox.cif.g09.slc.cpg/sg57_2_cif.got.tgz:3951.got - 2010.04.16 15:48:40.
