data_PCOD8234868
_publ_section_title
;
Structure prediction by ZEFSAII (Michael W. Deem and Ramdas Pophale) SiO2 
 PCOD8234868
Probable space group: P B C M
;
_chemical_formula_sum "Si O2"
_cell_formula_units_Z 32
_cell_length_a 10.851659
_cell_length_b 13.629342
_cell_length_c 9.920812
_cell_angle_alpha 90.000000
_cell_angle_beta 90.000000
_cell_angle_gamma 90.000000
_cell_volume 1467.297736
_symmetry_space_group_name_H-M "P B C M"
_symmetry_group_IT_number 57
_symmetry_cell_setting 'orthorhombic'
loop_
_space_group_symop_operation_xyz
x,y,z
-x,-y,1/2+z
x,1/2-y,-z
-x,1/2+y,1/2-z
-x,-y,-z
x,y,1/2-z
-x,1/2+y,z
x,1/2-y,1/2+z
loop_
_atom_site_type_symbol
_atom_site_label
_atom_site_fract_x
_atom_site_fract_y
_atom_site_fract_z
Si Si1 0.811705 0.250000 0.000000
Si Si2 0.003332 0.093306 0.406879
Si Si3 0.270619 0.360755 0.982850
Si Si4 0.443807 0.414903 0.750000
Si Si5 0.682366 0.978947 0.250000
Si Si6 0.675243 0.299759 0.750000
O O1 0.896448 0.342043 0.970834
O O2 0.719976 0.234333 0.875038
O O3 0.978525 0.068655 0.250000
O O4 0.134732 0.146566 0.419539
O O5 0.000000 0.000000 0.500000
O O6 0.360469 0.418728 0.882520
O O7 0.319456 0.250000 0.000000
O O8 0.268539 0.420161 0.121655
O O9 0.532524 0.511263 0.750000
O O10 0.527246 0.314965 0.750000
O O11 0.737410 0.090128 0.250000
#
# Coordination Sequence:
#
# PCOD8234868 Si02
#       6
#     4   8   8   4   4   4
#     4  12  24  50  68 106 150 188 244 298 376 440
#     4  12  28  47  73 107 144 194 248 309 382 446
#     4  12  24  46  74 107 144 190 245 309 365 441
#     4  10  25  46  69 106 143 192 249 282 380 426
#     4  10  25  46  71 105 146 188 244 300 365 444
#     4  10  26  44  72 101 147 198 237 302 363 444
#
# _framework density 21.808796999999998
#
# number of rings (size 3 to 8) (size 9 to 14) (size 15 to 20)
#    0.750    0.000    3.750    3.000    5.250    0.000 
#    0.000    0.000    0.000    0.000    0.000    0.000 
#    0.000    0.000    0.000    0.000    0.000    0.000 
#
# Total GULP energy -396731.714637 kJ/mol
# GULP energy per Si atom -12397.866082 kJ/mol
# Density = 2.175916 g / cm^3
# Si number density = 21.808797 Si / 1000 Ang^3
#
#
#
# Elastic Constant Matrix: (Units=GPa)
#
#
# Indices 1 2 3 4 5 6 
#
# 1 93.2963 -9.8452 41.6423 0.0000 0.0000 0.0000
# 2 -9.8452 60.9171 45.5102 0.0000 0.0000 0.0000
# 3 41.6423 45.5102 196.0607 0.0000 0.0000 0.0000
# 4 0.0000 0.0000 0.0000 37.4965 0.0000 0.0000
# 5 0.0000 0.0000 0.0000 0.0000 37.5501 0.0000
# 6 0.0000 0.0000 0.0000 0.0000 0.0000 36.2724
#
#
#
# Elastic Compliance Matrix: (Units=1/GPa)
#
#
# Indices 1 2 3 4 5 6 
#
# 1 0.013005 0.005039 -0.003932 0.000000 0.000000 0.000000
# 2 0.005039 0.021812 -0.006134 0.000000 0.000000 0.000000
# 3 -0.003932 -0.006134 0.007359 0.000000 0.000000 0.000000
# 4 0.000000 0.000000 0.000000 0.026669 0.000000 0.000000
# 5 0.000000 0.000000 0.000000 0.000000 0.026631 0.000000
# 6 0.000000 0.000000 0.000000 0.000000 0.000000 0.027569
#
#
# Mechanical properties :
#
#
# Convention : Reuss Voigt Hill
#
# Bulk Modulus (GPa) = 31.12846 56.09876 43.61361
# Shear Modulus (GPa) = 34.76879 40.46160 37.61519
#
# Velocity S-wave (km/s) = 3.99714 4.31198 4.15754
# Velocity P-wave (km/s) = 5.96718 7.11124 6.56418
#
# Compressibility (1/GPa) = 0.03212494
#
# Stress axis : x y z
#
# Youngs Moduli (GPa) = 76.89123 45.84530 135.88165
#
# Poissons Ratio (x) = -0.23104 0.53429
# Poissons Ratio (y) = -0.38749 0.83344
# Poissons Ratio (z) = 0.30234 0.28119
#
# Static dielectric constant tensor:
#      x y z
#    x 4.382060 0.000000 0.000000 
#    y 0.000000 3.723520 0.000000 
#    z 0.000000 0.000000 4.121400 
# 
# 
# High freq. dielectric constant tensor:
#      x y z
#    x 1.876590 0.000000 0.000000 
#    y 0.000000 1.838140 0.000000 
#    z 0.000000 0.000000 1.871280 
# 
# From -- ./inp_files/2456.got.cif
#   From: 2010.03.12/outbox.cif.g09.slc.cpg/sg57_2_cif.got.tgz:2456.got - 2010.04.16 15:48:40.
