data_PCOD8234977
_publ_section_title
;
Structure prediction by ZEFSAII (Michael W. Deem and Ramdas Pophale) SiO2 
 PCOD8234977
Probable space group: P B C M
;
_chemical_formula_sum "Si O2"
_cell_formula_units_Z 48
_cell_length_a 11.347714
_cell_length_b 23.425841
_cell_length_c 8.845006
_cell_angle_alpha 90.000000
_cell_angle_beta 90.000000
_cell_angle_gamma 90.000000
_cell_volume 2351.265680
_symmetry_space_group_name_H-M "P B C M"
_symmetry_group_IT_number 57
_symmetry_cell_setting 'orthorhombic'
loop_
_space_group_symop_operation_xyz
x,y,z
-x,-y,1/2+z
x,1/2-y,-z
-x,1/2+y,1/2-z
-x,-y,-z
x,y,1/2-z
-x,1/2+y,z
x,1/2-y,1/2+z
loop_
_atom_site_type_symbol
_atom_site_label
_atom_site_fract_x
_atom_site_fract_y
_atom_site_fract_z
Si Si1 0.370949 0.687182 0.071193
Si Si2 0.413919 0.127266 0.923009
Si Si3 0.266954 0.016858 0.571491
Si Si4 0.045908 0.414911 0.429443
Si Si5 0.178699 0.191818 0.922163
Si Si6 0.780686 0.094894 0.571138
O O1 0.361217 0.694022 0.250000
O O2 0.382384 0.750000 0.000000
O O3 0.480867 0.646562 0.030866
O O4 0.256564 0.654419 0.006328
O O5 0.459502 0.124234 0.750000
O O6 0.361452 0.065753 0.972755
O O7 0.315004 0.175478 0.939407
O O8 0.270270 0.006050 0.750000
O O9 0.134521 0.034936 0.516916
O O10 0.300151 0.958245 0.484810
O O11 0.054342 0.411995 0.250000
O O12 0.912300 0.421337 0.484703
O O13 0.096517 0.356139 0.497886
O O14 0.143404 0.199241 0.750000
O O15 0.148589 0.250000 0.000000
O O16 0.770810 0.102200 0.750000
#
# Coordination Sequence:
#
# PCOD8234977 Si02
#       6
#     8   8   8   8   8   8
#     4  12  26  43  61  81 110 148 190 233 278 331
#     4   9  19  37  60  84 112 145 182 229 282 335
#     4   9  18  36  61  88 117 147 183 229 281 331
#     4   8  17  34  55  80 113 151 187 228 277 329
#     4   9  17  31  52  79 109 141 180 228 281 331
#     4  11  22  37  58  84 116 152 190 229 273 329
#
# _framework density 20.414536999999999
#
# number of rings (size 3 to 8) (size 9 to 14) (size 15 to 20)
#    0.000    2.333    0.000    5.000    0.000    4.000 
#    0.000    6.667    0.000    0.000    0.000    0.000 
#    0.000    0.000    0.000    0.000    0.000    0.000 
#
# Total GULP energy -594995.116613 kJ/mol
# GULP energy per Si atom -12395.731596 kJ/mol
# Density = 2.036807 g / cm^3
# Si number density = 20.414537 Si / 1000 Ang^3
#
#
#
# Elastic Constant Matrix: (Units=GPa)
#
#
# Indices 1 2 3 4 5 6 
#
# 1 68.5535 35.1659 33.4200 0.0000 0.0000 0.0000
# 2 35.1659 114.8832 41.6675 0.0000 0.0000 0.0000
# 3 33.4200 41.6675 85.8252 0.0000 0.0000 0.0000
# 4 0.0000 0.0000 0.0000 37.5031 0.0000 0.0000
# 5 0.0000 0.0000 0.0000 0.0000 24.6164 0.0000
# 6 0.0000 0.0000 0.0000 0.0000 0.0000 13.2939
#
#
#
# Elastic Compliance Matrix: (Units=1/GPa)
#
#
# Indices 1 2 3 4 5 6 
#
# 1 0.019324 -0.003867 -0.005647 0.000000 0.000000 0.000000
# 2 -0.003867 0.011339 -0.003999 0.000000 0.000000 0.000000
# 3 -0.005647 -0.003999 0.015792 0.000000 0.000000 0.000000
# 4 0.000000 0.000000 0.000000 0.026664 0.000000 0.000000
# 5 0.000000 0.000000 0.000000 0.000000 0.040623 0.000000
# 6 0.000000 0.000000 0.000000 0.000000 0.000000 0.075222
#
#
# Mechanical properties :
#
#
# Convention : Reuss Voigt Hill
#
# Bulk Modulus (GPa) = 51.47171 54.41874 52.94523
# Shear Modulus (GPa) = 22.47525 25.68326 24.07926
#
# Velocity S-wave (km/s) = 3.32165 3.55080 3.43813
# Velocity P-wave (km/s) = 6.32290 6.59740 6.46161
#
# Compressibility (1/GPa) = 0.01942815
#
# Stress axis : x y z
#
# Youngs Moduli (GPa) = 51.74976 88.19462 63.32261
#
# Poissons Ratio (x) = 0.34103 0.35760
# Poissons Ratio (y) = 0.20011 0.25323
# Poissons Ratio (z) = 0.29225 0.35270
#
# Static dielectric constant tensor:
#      x y z
#    x 3.770210 0.000000 0.000000 
#    y 0.000000 4.195310 0.000000 
#    z 0.000000 0.000000 3.268230 
# 
# 
# High freq. dielectric constant tensor:
#      x y z
#    x 1.793510 0.000000 0.000000 
#    y 0.000000 1.811810 0.000000 
#    z 0.000000 0.000000 1.773740 
# 
# From -- ./inp_files/3185.got.cif
#   From: 2010.03.12/outbox.cif.g09.slc.cpg/sg57_2_cif.got.tgz:3185.got - 2010.04.16 15:48:40.
