data_PCOD8234434
_publ_section_title
;
Structure prediction by ZEFSAII (Michael W. Deem and Ramdas Pophale) SiO2 
 PCOD8234434
Probable space group: P B C M
;
_chemical_formula_sum "Si O2"
_cell_formula_units_Z 48
_cell_length_a 14.646034
_cell_length_b 11.493754
_cell_length_c 14.339508
_cell_angle_alpha 90.000000
_cell_angle_beta 90.000000
_cell_angle_gamma 90.000000
_cell_volume 2413.882834
_symmetry_space_group_name_H-M "P B C M"
_symmetry_group_IT_number 57
_symmetry_cell_setting 'orthorhombic'
loop_
_space_group_symop_operation_xyz
x,y,z
-x,-y,1/2+z
x,1/2-y,-z
-x,1/2+y,1/2-z
-x,-y,-z
x,y,1/2-z
-x,1/2+y,z
x,1/2-y,1/2+z
loop_
_atom_site_type_symbol
_atom_site_label
_atom_site_fract_x
_atom_site_fract_y
_atom_site_fract_z
Si Si1 0.729917 0.385762 0.495917
Si Si2 0.335154 0.259852 0.647630
Si Si3 0.875336 0.748645 0.646109
Si Si4 0.097461 0.443066 0.997513
Si Si5 0.614548 0.985237 0.359629
Si Si6 0.597409 0.998554 0.859662
O O1 0.757804 0.250000 0.500000
O O2 0.821940 0.462257 0.484127
O O3 0.674003 0.416250 0.589859
O O4 0.660504 0.405728 0.409686
O O5 0.381197 0.250229 0.750000
O O6 0.229203 0.280853 0.655454
O O7 0.354323 0.138500 0.596184
O O8 0.377464 0.372088 0.597322
O O9 0.919525 0.739823 0.750000
O O10 0.886463 0.625996 0.593745
O O11 0.915795 0.855540 0.588794
O O12 0.000000 0.500000 0.000000
O O13 0.635281 0.997991 0.250000
O O14 0.508260 0.988798 0.383139
O O15 0.618208 0.007941 0.750000
#
# Coordination Sequence:
#
# PCOD8234434 Si02
#       6
#     8   8   8   8   8   8
#     4  12  26  40  58  90 129 168 203 251 314 378
#     4   9  17  35  65  90 112 156 212 253 298 352
#     4  10  21  43  72  95 118 161 215 267 313 365
#     4  11  25  43  68  94 127 163 208 262 319 379
#     4  10  22  40  62  90 125 165 209 256 304 363
#     4  10  22  40  62  90 125 165 209 256 304 363
#
# _framework density 19.884976000000002
#
# number of rings (size 3 to 8) (size 9 to 14) (size 15 to 20)
#    0.000    1.667    3.333    0.500    4.667    2.000 
#    0.000    0.000    0.000    0.000    0.000    0.000 
#    0.000    0.000    0.000    0.000    0.000    0.000 
#
# Total GULP energy -594909.956290 kJ/mol
# GULP energy per Si atom -12393.957423 kJ/mol
# Density = 1.983972 g / cm^3
# Si number density = 19.884976 Si / 1000 Ang^3
#
#
#
# Elastic Constant Matrix: (Units=GPa)
#
#
# Indices 1 2 3 4 5 6 
#
# 1 99.0442 29.8858 19.5752 0.0000 0.0000 0.0000
# 2 29.8858 125.3131 28.8362 0.0000 0.0000 0.0000
# 3 19.5752 28.8362 98.0426 0.0000 0.0000 0.0000
# 4 0.0000 0.0000 0.0000 21.6033 0.0000 0.0000
# 5 0.0000 0.0000 0.0000 0.0000 16.9988 0.0000
# 6 0.0000 0.0000 0.0000 0.0000 0.0000 40.5898
#
#
#
# Elastic Compliance Matrix: (Units=1/GPa)
#
#
# Indices 1 2 3 4 5 6 
#
# 1 0.011092 -0.002291 -0.001541 0.000000 0.000000 0.000000
# 2 -0.002291 0.009032 -0.002199 0.000000 0.000000 0.000000
# 3 -0.001541 -0.002199 0.011154 0.000000 0.000000 0.000000
# 4 0.000000 0.000000 0.000000 0.046289 0.000000 0.000000
# 5 0.000000 0.000000 0.000000 0.000000 0.058828 0.000000
# 6 0.000000 0.000000 0.000000 0.000000 0.000000 0.024637
#
#
# Mechanical properties :
#
#
# Convention : Reuss Voigt Hill
#
# Bulk Modulus (GPa) = 52.03738 53.22158 52.62948
# Shear Modulus (GPa) = 27.85512 32.11187 29.98350
#
# Velocity S-wave (km/s) = 3.74680 4.02292 3.88731
# Velocity P-wave (km/s) = 6.70403 6.95711 6.83174
#
# Compressibility (1/GPa) = 0.01921695
#
# Stress axis : x y z
#
# Youngs Moduli (GPa) = 90.15276 110.71246 89.65276
#
# Poissons Ratio (x) = 0.25362 0.13815
# Poissons Ratio (y) = 0.20652 0.19717
# Poissons Ratio (z) = 0.13892 0.24348
#
# Static dielectric constant tensor:
#      x y z
#    x 3.473470 0.000000 0.000000 
#    y 0.000000 3.733460 0.000000 
#    z 0.000000 0.000000 4.229610 
# 
# 
# High freq. dielectric constant tensor:
#      x y z
#    x 1.767440 0.000000 0.000000 
#    y 0.000000 1.779590 0.000000 
#    z 0.000000 0.000000 1.781570 
# 
# From -- ./inp_files/18367.got.cif
#   From: 2010.03.12/outbox.cif.g09.slc.cpg/sg57_10_cif.got.tgz:18367.got - 2010.04.16 15:48:40.
