data_PCOD8234616
_publ_section_title
;
Structure prediction by ZEFSAII (Michael W. Deem and Ramdas Pophale) SiO2 
 PCOD8234616
Probable space group: P B C M
;
_chemical_formula_sum "Si O2"
_cell_formula_units_Z 48
_cell_length_a 5.555970
_cell_length_b 20.789636
_cell_length_c 17.514903
_cell_angle_alpha 90.000000
_cell_angle_beta 90.000000
_cell_angle_gamma 90.000000
_cell_volume 2023.086788
_symmetry_space_group_name_H-M "P B C M"
_symmetry_group_IT_number 57
_symmetry_cell_setting 'orthorhombic'
loop_
_space_group_symop_operation_xyz
x,y,z
-x,-y,1/2+z
x,1/2-y,-z
-x,1/2+y,1/2-z
-x,-y,-z
x,y,1/2-z
-x,1/2+y,z
x,1/2-y,1/2+z
loop_
_atom_site_type_symbol
_atom_site_label
_atom_site_fract_x
_atom_site_fract_y
_atom_site_fract_z
Si Si1 0.094986 0.075223 0.607728
Si Si2 0.240295 0.092185 0.058287
Si Si3 0.481693 0.787050 0.931140
Si Si4 0.900413 0.156790 0.164933
Si Si5 0.819633 0.789572 0.164416
Si Si6 0.588930 0.011960 0.839545
O O1 0.122588 0.060753 0.517102
O O2 0.056246 0.151148 0.621730
O O3 0.346591 0.054477 0.648723
O O4 0.847371 0.044434 0.638961
O O5 0.318537 0.164711 0.033540
O O6 0.050534 0.099884 0.127082
O O7 0.439639 0.046810 0.099615
O O8 0.337899 0.839085 0.883801
O O9 0.574581 0.730621 0.876752
O O10 0.345127 0.750000 0.000000
O O11 0.840433 0.133930 0.250000
O O12 0.009714 0.227871 0.163256
O O13 0.754325 0.810400 0.250000
O O14 0.597615 0.991591 0.750000
#
# Coordination Sequence:
#
# PCOD8234616 Si02
#       6
#     8   8   8   8   8   8
#     4  12  27  47  74 107 144 190 243 302 363 427
#     4  11  26  45  72 102 143 186 241 303 358 437
#     4  11  23  40  69 104 139 184 234 294 363 426
#     4  10  24  41  67 101 140 187 238 298 364 433
#     4  10  22  41  63  97 138 182 236 292 359 426
#     4  12  28  49  73 104 144 193 246 298 359 430
#
# _framework density 23.726119000000001
#
# number of rings (size 3 to 8) (size 9 to 14) (size 15 to 20)
#    0.000    1.000    1.667    3.500    9.333    2.000 
#    0.000    0.000    0.000    0.000    0.000    0.000 
#    0.000    0.000    0.000    0.000    0.000    0.000 
#
# Total GULP energy -594659.796258 kJ/mol
# GULP energy per Si atom -12388.745755 kJ/mol
# Density = 2.367212 g / cm^3
# Si number density = 23.726119 Si / 1000 Ang^3
#
#
#
# Elastic Constant Matrix: (Units=GPa)
#
#
# Indices 1 2 3 4 5 6 
#
# 1 96.9960 14.0176 26.9720 0.0000 0.0000 0.0000
# 2 14.0176 71.1820 20.2720 0.0000 0.0000 0.0000
# 3 26.9720 20.2720 135.8964 0.0000 0.0000 0.0000
# 4 0.0000 0.0000 0.0000 37.3573 0.0000 0.0000
# 5 0.0000 0.0000 0.0000 0.0000 21.5081 0.0000
# 6 0.0000 0.0000 0.0000 0.0000 0.0000 29.0154
#
#
#
# Elastic Compliance Matrix: (Units=1/GPa)
#
#
# Indices 1 2 3 4 5 6 
#
# 1 0.011089 -0.001626 -0.001958 0.000000 0.000000 0.000000
# 2 -0.001626 0.014910 -0.001901 0.000000 0.000000 0.000000
# 3 -0.001958 -0.001901 0.008031 0.000000 0.000000 0.000000
# 4 0.000000 0.000000 0.000000 0.026769 0.000000 0.000000
# 5 0.000000 0.000000 0.000000 0.000000 0.046494 0.000000
# 6 0.000000 0.000000 0.000000 0.000000 0.000000 0.034464
#
#
# Mechanical properties :
#
#
# Convention : Reuss Voigt Hill
#
# Bulk Modulus (GPa) = 43.36775 47.39972 45.38374
# Shear Modulus (GPa) = 31.16907 33.76367 32.46637
#
# Velocity S-wave (km/s) = 3.62844 3.77644 3.70318
# Velocity P-wave (km/s) = 5.98934 6.24792 6.12000
#
# Compressibility (1/GPa) = 0.02305861
#
# Stress axis : x y z
#
# Youngs Moduli (GPa) = 90.17723 67.06803 124.51934
#
# Poissons Ratio (x) = 0.10906 0.24386
# Poissons Ratio (y) = 0.14663 0.23677
# Poissons Ratio (z) = 0.17660 0.12753
#
# Static dielectric constant tensor:
#      x y z
#    x 4.120900 0.000000 0.000000 
#    y 0.000000 4.280720 0.000000 
#    z 0.000000 0.000000 4.572970 
# 
# 
# High freq. dielectric constant tensor:
#      x y z
#    x 1.923270 0.000000 0.000000 
#    y 0.000000 1.951210 0.000000 
#    z 0.000000 0.000000 1.958540 
# 
# From -- ./inp_files/20207.got.cif
#   From: 2010.03.12/outbox.cif.g09.slc.cpg/sg57_11_cif.got.tgz:20207.got - 2010.04.16 15:48:40.
