data_PCOD8234511
_publ_section_title
;
Structure prediction by ZEFSAII (Michael W. Deem and Ramdas Pophale) SiO2 
 PCOD8234511
Probable space group: P B C M
;
_chemical_formula_sum "Si O2"
_cell_formula_units_Z 56
_cell_length_a 19.276983
_cell_length_b 8.981256
_cell_length_c 14.986483
_cell_angle_alpha 90.000000
_cell_angle_beta 90.000000
_cell_angle_gamma 90.000000
_cell_volume 2594.632570
_symmetry_space_group_name_H-M "P B C M"
_symmetry_group_IT_number 57
_symmetry_cell_setting 'orthorhombic'
loop_
_space_group_symop_operation_xyz
x,y,z
-x,-y,1/2+z
x,1/2-y,-z
-x,1/2+y,1/2-z
-x,-y,-z
x,y,1/2-z
-x,1/2+y,z
x,1/2-y,1/2+z
loop_
_atom_site_type_symbol
_atom_site_label
_atom_site_fract_x
_atom_site_fract_y
_atom_site_fract_z
Si Si1 0.209582 0.615500 0.445814
Si Si2 0.074112 0.886812 0.855682
Si Si3 0.058164 0.281980 0.145737
Si Si4 0.808759 0.628866 0.428670
Si Si5 0.574623 0.427017 0.999896
Si Si6 0.336432 0.103454 0.147932
Si Si7 0.334609 0.450173 0.353877
O O1 0.248148 0.750000 0.500000
O O2 0.148883 0.681232 0.382854
O O3 0.169257 0.518642 0.519231
O O4 0.261258 0.509175 0.391241
O O5 0.069512 0.887708 0.750000
O O6 0.010927 0.790889 0.896755
O O7 0.068256 0.054269 0.894549
O O8 0.047935 0.292192 0.250000
O O9 0.125621 0.183931 0.126522
O O10 0.781802 0.750000 0.500000
O O11 0.745926 0.582792 0.363219
O O12 0.621438 0.496254 0.080145
O O13 0.568407 0.250000 0.000000
O O14 0.500000 0.500000 0.000000
O O15 0.605679 0.461135 0.903318
O O16 0.357133 0.062556 0.250000
O O17 0.349999 0.277002 0.127650
O O18 0.336951 0.488236 0.250000
#
# Coordination Sequence:
#
# PCOD8234511 Si02
#       7
#     8   8   8   8   8   8   8
#     4  12  25  40  61  95 130 173 223 282 342 403
#     4  10  22  41  60  83 121 166 221 281 344 411
#     4  10  22  39  59  86 119 167 221 278 345 408
#     4  12  21  39  64  90 129 168 222 277 336 406
#     4  12  26  47  73 105 144 181 222 272 325 389
#     4  11  23  43  73 103 135 178 225 274 334 397
#     4  11  23  44  72 101 136 179 224 274 335 397
#
# _framework density 21.583017000000002
#
# number of rings (size 3 to 8) (size 9 to 14) (size 15 to 20)
#    0.000    0.857    4.286    2.571    2.000    4.571 
#    0.000    1.429    0.000    0.000    0.000    0.000 
#    0.000    0.000    0.000    0.000    0.000    0.000 
#
# Total GULP energy -694140.632412 kJ/mol
# GULP energy per Si atom -12395.368436 kJ/mol
# Density = 2.153389 g / cm^3
# Si number density = 21.583017 Si / 1000 Ang^3
#
#
#
# Elastic Constant Matrix: (Units=GPa)
#
#
# Indices 1 2 3 4 5 6 
#
# 1 131.5051 45.2169 36.2001 0.0000 0.0000 0.0000
# 2 45.2169 121.3467 65.1689 0.0000 0.0000 0.0000
# 3 36.2001 65.1689 79.7875 0.0000 0.0000 0.0000
# 4 0.0000 0.0000 0.0000 29.4812 0.0000 0.0000
# 5 0.0000 0.0000 0.0000 0.0000 22.4914 0.0000
# 6 0.0000 0.0000 0.0000 0.0000 0.0000 36.4706
#
#
#
# Elastic Compliance Matrix: (Units=1/GPa)
#
#
# Indices 1 2 3 4 5 6 
#
# 1 0.008970 -0.002061 -0.002386 0.000000 0.000000 0.000000
# 2 -0.002061 0.015154 -0.011442 0.000000 0.000000 0.000000
# 3 -0.002386 -0.011442 0.022962 0.000000 0.000000 0.000000
# 4 0.000000 0.000000 0.000000 0.033920 0.000000 0.000000
# 5 0.000000 0.000000 0.000000 0.000000 0.044461 0.000000
# 6 0.000000 0.000000 0.000000 0.000000 0.000000 0.027419
#
#
# Mechanical properties :
#
#
# Convention : Reuss Voigt Hill
#
# Bulk Modulus (GPa) = 65.33220 69.53457 67.43339
# Shear Modulus (GPa) = 26.34802 30.09221 28.22012
#
# Velocity S-wave (km/s) = 3.49775 3.73802 3.61988
# Velocity P-wave (km/s) = 6.82995 7.13566 6.98448
#
# Compressibility (1/GPa) = 0.01530639
#
# Stress axis : x y z
#
# Youngs Moduli (GPa) = 111.48565 65.98988 43.55021
#
# Poissons Ratio (x) = 0.13599 0.10393
# Poissons Ratio (y) = 0.22974 0.49832
# Poissons Ratio (z) = 0.26606 0.75508
#
# Static dielectric constant tensor:
#      x y z
#    x 3.863980 0.000000 0.000000 
#    y 0.000000 46.891060 0.000000 
#    z 0.000000 0.000000 3.911280 
# 
# 
# High freq. dielectric constant tensor:
#      x y z
#    x 1.845520 0.000000 0.000000 
#    y 0.000000 1.854760 0.000000 
#    z 0.000000 0.000000 1.848780 
# 
# From -- ./inp_files/19356.got.cif
#   From: 2010.03.12/outbox.cif.g09.slc.cpg/sg57_10_cif.got.tgz:19356.got - 2010.04.16 15:48:40.
