data_PCOD8234889
_publ_section_title
;
Structure prediction by ZEFSAII (Michael W. Deem and Ramdas Pophale) SiO2 
 PCOD8234889
Probable space group: P B C M
;
_chemical_formula_sum "Si O2"
_cell_formula_units_Z 32
_cell_length_a 8.079027
_cell_length_b 11.322114
_cell_length_c 17.161909
_cell_angle_alpha 90.000000
_cell_angle_beta 90.000000
_cell_angle_gamma 90.000000
_cell_volume 1569.828386
_symmetry_space_group_name_H-M "P B C M"
_symmetry_group_IT_number 57
_symmetry_cell_setting 'orthorhombic'
loop_
_space_group_symop_operation_xyz
x,y,z
-x,-y,1/2+z
x,1/2-y,-z
-x,1/2+y,1/2-z
-x,-y,-z
x,y,1/2-z
-x,1/2+y,z
x,1/2-y,1/2+z
loop_
_atom_site_type_symbol
_atom_site_label
_atom_site_fract_x
_atom_site_fract_y
_atom_site_fract_z
Si Si1 0.876183 0.088291 0.042179
Si Si2 0.379492 0.965196 0.431567
Si Si3 0.684594 0.923330 0.160622
Si Si4 0.192092 0.298121 0.917742
O O1 0.990571 0.192019 0.077354
O O2 0.776082 0.024023 0.111051
O O3 0.749415 0.127557 0.972366
O O4 0.000000 0.000000 0.000000
O O5 0.489599 0.910115 0.362440
O O6 0.500000 0.000000 0.500000
O O7 0.280386 0.078460 0.397932
O O8 0.698036 0.960560 0.250000
O O9 0.769433 0.796076 0.149254
O O10 0.262732 0.250000 0.000000
#
# Coordination Sequence:
#
# PCOD8234889 Si02
#       4
#     8   8   8   8
#     4   9  18  37  62  88 111 157 205 241 291 360
#     4   9  18  37  60  86 114 153 199 246 291 360
#     4  11  23  39  58  91 129 154 194 258 305 343
#     4  11  19  37  65  88 109 157 211 241 293 357
#
# _framework density 20.384394
#
# number of rings (size 3 to 8) (size 9 to 14) (size 15 to 20)
#    0.000    2.000    7.500    0.000    0.000    2.000 
#    9.000    3.750    0.000    0.000    0.000    0.000 
#    0.000    0.000    0.000    0.000    0.000    0.000 
#
# Total GULP energy -396439.246267 kJ/mol
# GULP energy per Si atom -12388.726446 kJ/mol
# Density = 2.033800 g / cm^3
# Si number density = 20.384394 Si / 1000 Ang^3
#
#
#
# Elastic Constant Matrix: (Units=GPa)
#
#
# Indices 1 2 3 4 5 6 
#
# 1 132.7731 34.3080 49.6808 0.0000 0.0000 0.0000
# 2 34.3080 61.3007 19.4515 0.0000 0.0000 0.0000
# 3 49.6808 19.4515 119.8555 0.0000 0.0000 0.0000
# 4 0.0000 0.0000 0.0000 25.3574 0.0000 0.0000
# 5 0.0000 0.0000 0.0000 0.0000 19.6187 0.0000
# 6 0.0000 0.0000 0.0000 0.0000 0.0000 39.7669
#
#
#
# Elastic Compliance Matrix: (Units=1/GPa)
#
#
# Indices 1 2 3 4 5 6 
#
# 1 0.009967 -0.004499 -0.003401 0.000000 0.000000 0.000000
# 2 -0.004499 0.019229 -0.001256 0.000000 0.000000 0.000000
# 3 -0.003401 -0.001256 0.009957 0.000000 0.000000 0.000000
# 4 0.000000 0.000000 0.000000 0.039436 0.000000 0.000000
# 5 0.000000 0.000000 0.000000 0.000000 0.050972 0.000000
# 6 0.000000 0.000000 0.000000 0.000000 0.000000 0.025147
#
#
# Mechanical properties :
#
#
# Convention : Reuss Voigt Hill
#
# Bulk Modulus (GPa) = 47.98178 57.86778 52.92478
# Shear Modulus (GPa) = 27.78288 30.98118 29.38203
#
# Velocity S-wave (km/s) = 3.69582 3.90275 3.80069
# Velocity P-wave (km/s) = 6.46542 6.98273 6.72905
#
# Compressibility (1/GPa) = 0.02084125
#
# Stress axis : x y z
#
# Youngs Moduli (GPa) = 100.33338 52.00367 100.43168
#
# Poissons Ratio (x) = 0.23396 0.34158
# Poissons Ratio (y) = 0.45138 0.12614
# Poissons Ratio (z) = 0.34125 0.06531
#
# Static dielectric constant tensor:
#      x y z
#    x 4.072940 0.000000 0.000000 
#    y 0.000000 3.310970 0.000000 
#    z 0.000000 0.000000 3.437650 
# 
# 
# High freq. dielectric constant tensor:
#      x y z
#    x 1.821290 0.000000 0.000000 
#    y 0.000000 1.776230 0.000000 
#    z 0.000000 0.000000 1.757580 
# 
# From -- ./inp_files/15588.got.cif
#   From: 2010.03.12/outbox.cif.g09.slc.cpg/sg57_8_cif.got.tgz:15588.got - 2010.04.16 15:48:40.
