data_PCOD8234744
_publ_section_title
;
Structure prediction by ZEFSAII (Michael W. Deem and Ramdas Pophale) SiO2 
 PCOD8234744
Probable space group: P B C M
;
_chemical_formula_sum "Si O2"
_cell_formula_units_Z 48
_cell_length_a 14.957006
_cell_length_b 17.449601
_cell_length_c 8.790761
_cell_angle_alpha 90.000000
_cell_angle_beta 90.000000
_cell_angle_gamma 90.000000
_cell_volume 2294.334003
_symmetry_space_group_name_H-M "P B C M"
_symmetry_group_IT_number 57
_symmetry_cell_setting 'orthorhombic'
loop_
_space_group_symop_operation_xyz
x,y,z
-x,-y,1/2+z
x,1/2-y,-z
-x,1/2+y,1/2-z
-x,-y,-z
x,y,1/2-z
-x,1/2+y,z
x,1/2-y,1/2+z
loop_
_atom_site_type_symbol
_atom_site_label
_atom_site_fract_x
_atom_site_fract_y
_atom_site_fract_z
Si Si1 0.013399 0.417792 0.926810
Si Si2 0.855228 0.169322 0.929331
Si Si3 0.645406 0.913069 0.070727
Si Si4 0.808874 0.670938 0.426631
Si Si5 0.303100 0.916094 0.573245
Si Si6 0.483945 0.667995 0.072221
O O1 0.988386 0.421886 0.750000
O O2 0.115401 0.392908 0.952597
O O3 0.000000 0.500000 0.000000
O O4 0.950945 0.355387 0.006664
O O5 0.861868 0.177495 0.750000
O O6 0.826051 0.250000 0.000000
O O7 0.781684 0.106280 0.972315
O O8 0.639515 0.903510 0.250000
O O9 0.669059 0.999172 0.022699
O O10 0.718519 0.854844 0.007378
O O11 0.549611 0.894418 0.999685
O O12 0.842248 0.750000 0.500000
O O13 0.789384 0.684037 0.250000
O O14 0.275996 0.913430 0.750000
O O15 0.383164 0.857772 0.537514
O O16 0.503079 0.672662 0.250000
O O17 0.502319 0.750000 0.000000
#
# Coordination Sequence:
#
# PCOD8234744 Si02
#       6
#     8   8   8   8   8   8
#     4  11  24  42  65  93 125 161 204 252 305 365
#     4  12  25  41  64  92 125 164 205 253 306 362
#     4  11  23  40  63  90 122 159 199 248 303 360
#     4  11  24  41  62  89 120 158 202 248 299 355
#     4  10  23  42  64  91 122 159 203 251 304 362
#     4  11  23  40  62  89 122 159 202 250 301 360
#
# _framework density 20.921106000000002
#
# number of rings (size 3 to 8) (size 9 to 14) (size 15 to 20)
#    0.000    1.000    0.000    6.500    0.000   10.667 
#    0.000    0.000    0.000    0.000    0.000    0.000 
#    0.000    0.000    0.000    0.000    0.000    0.000 
#
# Total GULP energy -595643.316231 kJ/mol
# GULP energy per Si atom -12409.235755 kJ/mol
# Density = 2.087349 g / cm^3
# Si number density = 20.921106 Si / 1000 Ang^3
#
#
#
# Elastic Constant Matrix: (Units=GPa)
#
#
# Indices 1 2 3 4 5 6 
#
# 1 69.1470 5.5184 34.5042 0.0000 0.0000 0.0000
# 2 5.5184 95.0482 34.8348 0.0000 0.0000 0.0000
# 3 34.5042 34.8348 124.4562 0.0000 0.0000 0.0000
# 4 0.0000 0.0000 0.0000 36.0557 0.0000 0.0000
# 5 0.0000 0.0000 0.0000 0.0000 34.2550 0.0000
# 6 0.0000 0.0000 0.0000 0.0000 0.0000 36.5051
#
#
#
# Elastic Compliance Matrix: (Units=1/GPa)
#
#
# Indices 1 2 3 4 5 6 
#
# 1 0.016841 0.000817 -0.004898 0.000000 0.000000 0.000000
# 2 0.000817 0.011763 -0.003519 0.000000 0.000000 0.000000
# 3 -0.004898 -0.003519 0.010378 0.000000 0.000000 0.000000
# 4 0.000000 0.000000 0.000000 0.027735 0.000000 0.000000
# 5 0.000000 0.000000 0.000000 0.000000 0.029193 0.000000
# 6 0.000000 0.000000 0.000000 0.000000 0.000000 0.027393
#
#
# Mechanical properties :
#
#
# Convention : Reuss Voigt Hill
#
# Bulk Modulus (GPa) = 42.04736 48.70734 45.37735
# Shear Modulus (GPa) = 34.14618 35.61609 34.88114
#
# Velocity S-wave (km/s) = 4.04436 4.13049 4.08765
# Velocity P-wave (km/s) = 6.47694 6.78822 6.63441
#
# Compressibility (1/GPa) = 0.02378271
#
# Stress axis : x y z
#
# Youngs Moduli (GPa) = 59.38016 85.01053 96.36015
#
# Poissons Ratio (x) = -0.06947 0.47194
# Poissons Ratio (y) = -0.04853 0.33910
# Poissons Ratio (z) = 0.29082 0.29916
#
# Static dielectric constant tensor:
#      x y z
#    x 3.953350 0.000000 0.000000 
#    y 0.000000 3.906440 0.000000 
#    z 0.000000 0.000000 3.874140 
# 
# 
# High freq. dielectric constant tensor:
#      x y z
#    x 1.831220 0.000000 0.000000 
#    y 0.000000 1.834050 0.000000 
#    z 0.000000 0.000000 1.830090 
# 
# From -- ./inp_files/4602.got.cif
#   From: 2010.03.12/outbox.cif.g09.slc.cpg/sg57_3_cif.got.tgz:4602.got - 2010.04.16 15:48:40.
