data_PCOD8234347
_publ_section_title
;
Structure prediction by ZEFSAII (Michael W. Deem and Ramdas Pophale) SiO2 
 PCOD8234347
Probable space group: P B C M
;
_chemical_formula_sum "Si O2"
_cell_formula_units_Z 48
_cell_length_a 11.321151
_cell_length_b 9.326156
_cell_length_c 18.369045
_cell_angle_alpha 90.000000
_cell_angle_beta 90.000000
_cell_angle_gamma 90.000000
_cell_volume 1939.455578
_symmetry_space_group_name_H-M "P B C M"
_symmetry_group_IT_number 57
_symmetry_cell_setting 'orthorhombic'
loop_
_space_group_symop_operation_xyz
x,y,z
-x,-y,1/2+z
x,1/2-y,-z
-x,1/2+y,1/2-z
-x,-y,-z
x,y,1/2-z
-x,1/2+y,z
x,1/2-y,1/2+z
loop_
_atom_site_type_symbol
_atom_site_label
_atom_site_fract_x
_atom_site_fract_y
_atom_site_fract_z
Si Si1 0.730221 0.313163 0.366746
Si Si2 0.544216 0.080101 0.332179
Si Si3 0.906516 0.423966 0.662781
Si Si4 0.618254 0.528599 0.458631
Si Si5 0.824610 0.894823 0.828774
Si Si6 0.271611 0.132089 0.901994
O O1 0.622167 0.224624 0.332591
O O2 0.844075 0.212959 0.373938
O O3 0.687563 0.379028 0.444238
O O4 0.765270 0.450063 0.318339
O O5 0.500215 0.052954 0.250000
O O6 0.427723 0.101213 0.382496
O O7 0.622266 0.943122 0.357359
O O8 0.885093 0.427835 0.750000
O O9 0.852324 0.563889 0.624188
O O10 0.043112 0.415905 0.641671
O O11 0.500000 0.500000 0.500000
O O12 0.702726 0.621727 0.511630
O O13 0.828001 0.817707 0.750000
O O14 0.745774 0.801896 0.885018
#
# Coordination Sequence:
#
# PCOD8234347 Si02
#       6
#     8   8   8   8   8   8
#     4  11  23  40  65  95 129 171 219 272 331 401
#     4  10  22  41  66  95 127 168 220 278 336 398
#     4  10  21  40  66  98 135 173 216 271 332 394
#     4  10  25  44  64  90 128 173 220 271 332 396
#     4  11  22  38  65  99 133 171 218 272 331 401
#     4  10  21  40  64  94 132 174 216 267 330 402
#
# _framework density 24.749212
#
# number of rings (size 3 to 8) (size 9 to 14) (size 15 to 20)
#    0.000    1.667    0.000    5.000    0.000   15.333 
#    0.000    5.000    0.000    0.000    0.000    0.000 
#    0.000    0.000    0.000    0.000    0.000    0.000 
#
# Total GULP energy -594822.542870 kJ/mol
# GULP energy per Si atom -12392.136310 kJ/mol
# Density = 2.469288 g / cm^3
# Si number density = 24.749212 Si / 1000 Ang^3
#
#
#
# Elastic Constant Matrix: (Units=GPa)
#
#
# Indices 1 2 3 4 5 6 
#
# 1 149.4713 53.0168 69.2466 0.0000 0.0000 0.0000
# 2 53.0168 136.3995 29.1006 0.0000 0.0000 0.0000
# 3 69.2466 29.1006 146.5070 0.0000 0.0000 0.0000
# 4 0.0000 0.0000 0.0000 28.8521 0.0000 0.0000
# 5 0.0000 0.0000 0.0000 0.0000 41.5359 0.0000
# 6 0.0000 0.0000 0.0000 0.0000 0.0000 24.6622
#
#
#
# Elastic Compliance Matrix: (Units=1/GPa)
#
#
# Indices 1 2 3 4 5 6 
#
# 1 0.009529 -0.002864 -0.003935 0.000000 0.000000 0.000000
# 2 -0.002864 0.008517 -0.000338 0.000000 0.000000 0.000000
# 3 -0.003935 -0.000338 0.008753 0.000000 0.000000 0.000000
# 4 0.000000 0.000000 0.000000 0.034659 0.000000 0.000000
# 5 0.000000 0.000000 0.000000 0.000000 0.024076 0.000000
# 6 0.000000 0.000000 0.000000 0.000000 0.000000 0.040548
#
#
# Mechanical properties :
#
#
# Convention : Reuss Voigt Hill
#
# Bulk Modulus (GPa) = 79.84565 81.67841 80.76203
# Shear Modulus (GPa) = 34.59469 37.74430 36.16950
#
# Velocity S-wave (km/s) = 3.74279 3.90945 3.82703
# Velocity P-wave (km/s) = 7.14212 7.31112 7.22711
#
# Compressibility (1/GPa) = 0.01252416
#
# Stress axis : x y z
#
# Youngs Moduli (GPa) = 104.94011 117.41464 114.25139
#
# Poissons Ratio (x) = 0.33632 0.44959
# Poissons Ratio (y) = 0.30059 0.03860
# Poissons Ratio (z) = 0.41295 0.03967
#
# Static dielectric constant tensor:
#      x y z
#    x 6.224360 0.000000 0.000000 
#    y 0.000000 4.478470 0.000000 
#    z 0.000000 0.000000 4.979710 
# 
# 
# High freq. dielectric constant tensor:
#      x y z
#    x 2.001270 0.000000 0.000000 
#    y 0.000000 1.992080 0.000000 
#    z 0.000000 0.000000 1.980270 
# 
# From -- ./inp_files/27106.got.cif
#   From: 2010.03.12/outbox.cif.g09.slc.cpg/sg57_14_cif.got.tgz:27106.got - 2010.04.16 15:48:40.
