data_PCOD8234940
_publ_section_title
;
Structure prediction by ZEFSAII (Michael W. Deem and Ramdas Pophale) SiO2 
 PCOD8234940
Probable space group: P B C M
;
_chemical_formula_sum "Si O2"
_cell_formula_units_Z 64
_cell_length_a 21.516508
_cell_length_b 17.882183
_cell_length_c 8.925021
_cell_angle_alpha 90.000000
_cell_angle_beta 90.000000
_cell_angle_gamma 90.000000
_cell_volume 3434.010122
_symmetry_space_group_name_H-M "P B C M"
_symmetry_group_IT_number 57
_symmetry_cell_setting 'orthorhombic'
loop_
_space_group_symop_operation_xyz
x,y,z
-x,-y,1/2+z
x,1/2-y,-z
-x,1/2+y,1/2-z
-x,-y,-z
x,y,1/2-z
-x,1/2+y,z
x,1/2-y,1/2+z
loop_
_atom_site_type_symbol
_atom_site_label
_atom_site_fract_x
_atom_site_fract_y
_atom_site_fract_z
Si Si1 0.187820 0.944433 0.076807
Si Si2 0.610093 0.076962 0.073016
Si Si3 0.507413 0.828345 0.572198
Si Si4 0.936302 0.976396 0.573169
Si Si5 0.252960 0.099893 0.077131
Si Si6 0.126097 0.326593 0.574087
Si Si7 0.728000 0.330687 0.572640
Si Si8 0.378887 0.091666 0.927065
O O1 0.190616 0.920590 0.250000
O O2 0.117437 0.964572 0.029170
O O3 0.231742 0.015296 0.047040
O O4 0.210430 0.875734 0.975409
O O5 0.615929 0.074496 0.250000
O O6 0.545361 0.113143 0.021518
O O7 0.667589 0.125288 0.009801
O O8 0.612157 0.992590 0.010612
O O9 0.488705 0.750000 0.500000
O O10 0.511073 0.819962 0.750000
O O11 0.572976 0.854766 0.509081
O O12 0.944035 0.974520 0.750000
O O13 0.917271 0.893972 0.514584
O O14 0.000000 0.000000 0.500000
O O15 0.272209 0.110242 0.250000
O O16 0.197569 0.156028 0.032832
O O17 0.310379 0.119931 0.970263
O O18 0.103740 0.250000 0.500000
O O19 0.118519 0.319083 0.750000
O O20 0.729101 0.250000 0.500000
O O21 0.726571 0.321999 0.750000
O O22 0.388739 0.097582 0.750000
#
# Coordination Sequence:
#
# PCOD8234940 Si02
#       8
#     8   8   8   8   8   8   8   8
#     4   9  18  35  56  79 109 144 182 226 271 321
#     4   9  20  37  57  80 108 138 181 231 274 328
#     4  11  23  40  56  75 105 143 183 228 280 333
#     4   9  19  36  58  84 114 148 188 228 268 318
#     4   9  18  34  55  79 108 143 181 222 271 324
#     4   9  19  35  55  82 115 146 182 227 270 319
#     4  11  21  35  55  83 113 143 180 229 280 332
#     4  11  21  36  57  83 110 140 180 228 276 331
#
# _framework density 18.637103
#
# number of rings (size 3 to 8) (size 9 to 14) (size 15 to 20)
#    0.000    2.250    1.250    3.375    0.000    2.000 
#    0.000    8.125    0.000    1.500    0.000    0.000 
#    0.000    0.000    0.000    0.000    0.000    0.000 
#
# Total GULP energy -793706.367669 kJ/mol
# GULP energy per Si atom -12401.661995 kJ/mol
# Density = 1.859468 g / cm^3
# Si number density = 18.637103 Si / 1000 Ang^3
#
#
#
# Elastic Constant Matrix: (Units=GPa)
#
#
# Indices 1 2 3 4 5 6 
#
# 1 117.2118 29.9869 34.4356 0.0000 0.0000 0.0000
# 2 29.9869 81.4272 28.1204 0.0000 0.0000 0.0000
# 3 34.4356 28.1204 57.7841 0.0000 0.0000 0.0000
# 4 0.0000 0.0000 0.0000 29.7832 0.0000 0.0000
# 5 0.0000 0.0000 0.0000 0.0000 30.1771 0.0000
# 6 0.0000 0.0000 0.0000 0.0000 0.0000 22.9960
#
#
#
# Elastic Compliance Matrix: (Units=1/GPa)
#
#
# Indices 1 2 3 4 5 6 
#
# 1 0.010626 -0.002075 -0.005323 0.000000 0.000000 0.000000
# 2 -0.002075 0.015167 -0.006144 0.000000 0.000000 0.000000
# 3 -0.005323 -0.006144 0.023468 0.000000 0.000000 0.000000
# 4 0.000000 0.000000 0.000000 0.033576 0.000000 0.000000
# 5 0.000000 0.000000 0.000000 0.000000 0.033138 0.000000
# 6 0.000000 0.000000 0.000000 0.000000 0.000000 0.043486
#
#
# Mechanical properties :
#
#
# Convention : Reuss Voigt Hill
#
# Bulk Modulus (GPa) = 45.09208 49.05653 47.07431
# Shear Modulus (GPa) = 25.78156 27.51662 26.64909
#
# Velocity S-wave (km/s) = 3.72337 3.84662 3.78550
# Velocity P-wave (km/s) = 6.53697 6.79027 6.66482
#
# Compressibility (1/GPa) = 0.02217684
#
# Stress axis : x y z
#
# Youngs Moduli (GPa) = 94.10699 65.93255 42.61143
#
# Poissons Ratio (x) = 0.13682 0.22681
# Poissons Ratio (y) = 0.19528 0.26182
# Poissons Ratio (z) = 0.50090 0.40511
#
# Static dielectric constant tensor:
#      x y z
#    x 3.818510 0.000000 0.000000 
#    y 0.000000 3.845110 0.000000 
#    z 0.000000 0.000000 3.221200 
# 
# 
# High freq. dielectric constant tensor:
#      x y z
#    x 1.722590 0.000000 0.000000 
#    y 0.000000 1.724840 0.000000 
#    z 0.000000 0.000000 1.711880 
# 
# From -- ./inp_files/8513.got.cif
#   From: 2010.03.12/outbox.cif.g09.slc.cpg/sg57_5_cif.got.tgz:8513.got - 2010.04.16 15:48:40.
