data_PCOD8234367
_publ_section_title
;
Structure prediction by ZEFSAII (Michael W. Deem and Ramdas Pophale) SiO2 
 PCOD8234367
Probable space group: P B C M
;
_chemical_formula_sum "Si O2"
_cell_formula_units_Z 64
_cell_length_a 14.337108
_cell_length_b 11.816043
_cell_length_c 17.862847
_cell_angle_alpha 90.000000
_cell_angle_beta 90.000000
_cell_angle_gamma 90.000000
_cell_volume 3026.107124
_symmetry_space_group_name_H-M "P B C M"
_symmetry_group_IT_number 57
_symmetry_cell_setting 'orthorhombic'
loop_
_space_group_symop_operation_xyz
x,y,z
-x,-y,1/2+z
x,1/2-y,-z
-x,1/2+y,1/2-z
-x,-y,-z
x,y,1/2-z
-x,1/2+y,z
x,1/2-y,1/2+z
loop_
_atom_site_type_symbol
_atom_site_label
_atom_site_fract_x
_atom_site_fract_y
_atom_site_fract_z
Si Si1 0.373345 0.839131 0.394857
Si Si2 0.364306 0.908657 0.556858
Si Si3 0.174650 0.602588 0.662019
Si Si4 0.828313 0.521943 0.570224
Si Si5 0.747769 0.708552 0.664205
Si Si6 0.438796 0.088544 0.665728
Si Si7 0.869471 0.621774 0.083714
Si Si8 0.932548 0.203952 0.417564
O O1 0.407906 0.886467 0.475275
O O2 0.348601 0.707228 0.398579
O O3 0.281864 0.901341 0.364354
O O4 0.459216 0.856760 0.338715
O O5 0.264673 0.962979 0.540404
O O6 0.431108 0.986678 0.606722
O O7 0.170445 0.586381 0.750000
O O8 0.120004 0.499851 0.622947
O O9 0.122642 0.718971 0.641212
O O10 0.806762 0.596306 0.643548
O O11 0.865744 0.605346 0.505612
O O12 0.902782 0.426667 0.590537
O O13 0.767817 0.738935 0.750000
O O14 0.638417 0.685031 0.648700
O O15 0.777006 0.815238 0.613653
O O16 0.422938 0.041886 0.750000
O O17 0.957678 0.702582 0.101550
O O18 0.909688 0.250000 0.500000
#
# Coordination Sequence:
#
# PCOD8234367 Si02
#       8
#     8   8   8   8   8   8   8   8
#     4  11  21  43  67  96 132 172 221 278 333 396
#     4  10  21  40  68  96 129 170 221 279 329 392
#     4  12  27  43  67 101 136 174 221 281 348 400
#     4  11  21  43  71  96 127 174 226 276 328 400
#     4  10  24  44  63  96 140 177 221 274 334 397
#     4  10  23  41  64  96 135 178 222 266 329 399
#     4  12  25  43  70  97 135 177 225 275 336 397
#     4  12  24  44  70  97 129 174 227 278 327 406
#
# _framework density 21.149284999999999
#
# number of rings (size 3 to 8) (size 9 to 14) (size 15 to 20)
#    0.000    1.000    3.750    2.625    1.750    3.500 
#    9.000    1.250    0.000    0.000    0.000    0.000 
#    0.000    0.000    0.000    0.000    0.000    0.000 
#
# Total GULP energy -793932.057109 kJ/mol
# GULP energy per Si atom -12405.188392 kJ/mol
# Density = 2.110115 g / cm^3
# Si number density = 21.149285 Si / 1000 Ang^3
#
#
#
# Elastic Constant Matrix: (Units=GPa)
#
#
# Indices 1 2 3 4 5 6 
#
# 1 106.2531 29.2208 26.7760 0.0000 0.0000 0.0000
# 2 29.2208 73.5951 13.2544 0.0000 0.0000 0.0000
# 3 26.7760 13.2544 75.2600 0.0000 0.0000 0.0000
# 4 0.0000 0.0000 0.0000 27.0814 0.0000 0.0000
# 5 0.0000 0.0000 0.0000 0.0000 24.4628 0.0000
# 6 0.0000 0.0000 0.0000 0.0000 0.0000 23.2035
#
#
#
# Elastic Compliance Matrix: (Units=1/GPa)
#
#
# Indices 1 2 3 4 5 6 
#
# 1 0.011325 -0.003894 -0.003343 0.000000 0.000000 0.000000
# 2 -0.003894 0.015372 -0.001322 0.000000 0.000000 0.000000
# 3 -0.003343 -0.001322 0.014710 0.000000 0.000000 0.000000
# 4 0.000000 0.000000 0.000000 0.036926 0.000000 0.000000
# 5 0.000000 0.000000 0.000000 0.000000 0.040878 0.000000
# 6 0.000000 0.000000 0.000000 0.000000 0.000000 0.043097
#
#
# Mechanical properties :
#
#
# Convention : Reuss Voigt Hill
#
# Bulk Modulus (GPa) = 41.17301 43.73450 42.45375
# Shear Modulus (GPa) = 26.66342 27.34000 27.00171
#
# Velocity S-wave (km/s) = 3.55452 3.59934 3.57700
# Velocity P-wave (km/s) = 6.02961 6.16421 6.09728
#
# Compressibility (1/GPa) = 0.02428776
#
# Stress axis : x y z
#
# Youngs Moduli (GPa) = 88.29991 65.05260 67.98309
#
# Poissons Ratio (x) = 0.25334 0.22729
# Poissons Ratio (y) = 0.34388 0.08985
# Poissons Ratio (z) = 0.29522 0.08598
#
# Static dielectric constant tensor:
#      x y z
#    x 3.753150 0.000000 0.000000 
#    y 0.000000 3.842220 0.000000 
#    z 0.000000 0.000000 3.708960 
# 
# 
# High freq. dielectric constant tensor:
#      x y z
#    x 1.830200 0.000000 0.000000 
#    y 0.000000 1.833900 0.000000 
#    z 0.000000 0.000000 1.825890 
# 
# From -- ./inp_files/22697.got.cif
#   From: 2010.03.12/outbox.cif.g09.slc.cpg/sg57_12_cif.got.tgz:22697.got - 2010.04.16 15:48:40.
