data_PCOD8234033
_publ_section_title
;
Structure prediction by ZEFSAII (Michael W. Deem and Ramdas Pophale) SiO2 
 PCOD8234033
Probable space group: P B C M
;
_chemical_formula_sum "Si O2"
_cell_formula_units_Z 64
_cell_length_a 22.099719
_cell_length_b 9.976768
_cell_length_c 14.768059
_cell_angle_alpha 90.000000
_cell_angle_beta 90.000000
_cell_angle_gamma 90.000000
_cell_volume 3256.117314
_symmetry_space_group_name_H-M "P B C M"
_symmetry_group_IT_number 57
_symmetry_cell_setting 'orthorhombic'
loop_
_space_group_symop_operation_xyz
x,y,z
-x,-y,1/2+z
x,1/2-y,-z
-x,1/2+y,1/2-z
-x,-y,-z
x,y,1/2-z
-x,1/2+y,z
x,1/2-y,1/2+z
loop_
_atom_site_type_symbol
_atom_site_label
_atom_site_fract_x
_atom_site_fract_y
_atom_site_fract_z
Si Si1 0.139156 0.481177 0.854075
Si Si2 0.857465 0.532892 0.642175
Si Si3 0.236755 0.097373 0.497940
Si Si4 0.348271 0.903472 0.004509
Si Si5 0.049127 0.249498 0.353731
Si Si6 0.084508 0.743023 0.142889
Si Si7 0.441944 0.577059 0.145982
Si Si8 0.451210 0.882610 0.354123
O O1 0.161591 0.479818 0.750000
O O2 0.077348 0.397561 0.863868
O O3 0.124172 0.630571 0.888280
O O4 0.190909 0.417297 0.914662
O O5 0.847241 0.544325 0.750000
O O6 0.793884 0.559911 0.593547
O O7 0.905991 0.640168 0.603250
O O8 0.880949 0.388659 0.609661
O O9 0.260107 0.250000 0.500000
O O10 0.292247 0.999741 0.479861
O O11 0.393150 0.924110 0.088473
O O12 0.325444 0.750000 0.000000
O O13 0.381508 0.944819 0.911755
O O14 0.041561 0.292160 0.250000
O O15 0.982955 0.249980 0.400353
O O16 0.077594 0.738535 0.250000
O O17 0.423927 0.553415 0.250000
O O18 0.492165 0.471260 0.113703
O O19 0.467927 0.726795 0.129929
O O20 0.435369 0.912347 0.250000
#
# Coordination Sequence:
#
# PCOD8234033 Si02
#       8
#     8   8   8   8   8   8   8   8
#     4  10  21  38  58  81 111 144 182 235 290 342
#     4  10  21  38  58  81 111 144 182 235 290 342
#     4  12  26  41  56  78 110 153 203 238 275 335
#     4  10  23  39  57  81 115 155 192 235 275 317
#     4   9  16  33  59  83 112 141 173 228 294 354
#     4   9  18  33  59  89 108 137 181 226 292 364
#     4   9  18  35  60  91 122 149 181 224 276 328
#     4   9  18  35  60  91 122 149 181 224 276 328
#
# _framework density 19.655311999999999
#
# number of rings (size 3 to 8) (size 9 to 14) (size 15 to 20)
#    0.000    2.250    1.250    1.125    1.750    5.000 
#    0.000    3.750    0.000    0.000    0.000    0.000 
#    0.000    0.000    0.000    0.000    0.000    0.000 
#
# Total GULP energy -793678.193576 kJ/mol
# GULP energy per Si atom -12401.221775 kJ/mol
# Density = 1.961058 g / cm^3
# Si number density = 19.655312 Si / 1000 Ang^3
#
#
#
# Elastic Constant Matrix: (Units=GPa)
#
#
# Indices 1 2 3 4 5 6 
#
# 1 69.5942 25.5335 20.9799 0.0000 0.0000 0.0000
# 2 25.5335 104.2212 12.4043 0.0000 0.0000 0.0000
# 3 20.9799 12.4043 65.4860 0.0000 0.0000 0.0000
# 4 0.0000 0.0000 0.0000 18.4600 0.0000 0.0000
# 5 0.0000 0.0000 0.0000 0.0000 33.4792 0.0000
# 6 0.0000 0.0000 0.0000 0.0000 0.0000 33.1529
#
#
#
# Elastic Compliance Matrix: (Units=1/GPa)
#
#
# Indices 1 2 3 4 5 6 
#
# 1 0.017150 -0.003629 -0.004807 0.000000 0.000000 0.000000
# 2 -0.003629 0.010584 -0.000842 0.000000 0.000000 0.000000
# 3 -0.004807 -0.000842 0.016970 0.000000 0.000000 0.000000
# 4 0.000000 0.000000 0.000000 0.054171 0.000000 0.000000
# 5 0.000000 0.000000 0.000000 0.000000 0.029869 0.000000
# 6 0.000000 0.000000 0.000000 0.000000 0.000000 0.030163
#
#
# Mechanical properties :
#
#
# Convention : Reuss Voigt Hill
#
# Bulk Modulus (GPa) = 38.24488 39.68184 38.96336
# Shear Modulus (GPa) = 26.85569 29.04401 27.94985
#
# Velocity S-wave (km/s) = 3.70040 3.84821 3.77503
# Velocity P-wave (km/s) = 6.14470 6.32279 6.23438
#
# Compressibility (1/GPa) = 0.02614729
#
# Stress axis : x y z
#
# Youngs Moduli (GPa) = 58.31012 94.47873 58.92784
#
# Poissons Ratio (x) = 0.34291 0.28325
# Poissons Ratio (y) = 0.21163 0.04962
# Poissons Ratio (z) = 0.28028 0.07956
#
# Static dielectric constant tensor:
#      x y z
#    x 3.347090 0.000000 0.000000 
#    y 0.000000 3.773950 0.000000 
#    z 0.000000 0.000000 3.522870 
# 
# 
# High freq. dielectric constant tensor:
#      x y z
#    x 1.742990 0.000000 0.000000 
#    y 0.000000 1.779340 0.000000 
#    z 0.000000 0.000000 1.766750 
# 
# From -- ./inp_files/19487.got.cif
#   From: 2010.03.12/outbox.cif.g09.slc.cpg/sg57_10_cif.got.tgz:19487.got - 2010.04.16 15:48:40.
