data_PCOD8234153
_publ_section_title
;
Structure prediction by ZEFSAII (Michael W. Deem and Ramdas Pophale) SiO2 
 PCOD8234153
Probable space group: P B C M
;
_chemical_formula_sum "Si O2"
_cell_formula_units_Z 48
_cell_length_a 15.071829
_cell_length_b 11.119366
_cell_length_c 13.620421
_cell_angle_alpha 90.000000
_cell_angle_beta 90.000000
_cell_angle_gamma 90.000000
_cell_volume 2282.635227
_symmetry_space_group_name_H-M "P B C M"
_symmetry_group_IT_number 57
_symmetry_cell_setting 'orthorhombic'
loop_
_space_group_symop_operation_xyz
x,y,z
-x,-y,1/2+z
x,1/2-y,-z
-x,1/2+y,1/2-z
-x,-y,-z
x,y,1/2-z
-x,1/2+y,z
x,1/2-y,1/2+z
loop_
_atom_site_type_symbol
_atom_site_label
_atom_site_fract_x
_atom_site_fract_y
_atom_site_fract_z
Si Si1 0.326848 0.251999 0.859665
Si Si2 0.828982 0.568759 0.360398
Si Si3 0.801534 0.119392 0.031430
Si Si4 0.554038 0.968808 0.642839
Si Si5 0.993056 0.375052 0.557981
Si Si6 0.631785 0.504921 0.558893
O O1 0.310143 0.199050 0.750000
O O2 0.241251 0.329410 0.892731
O O3 0.416321 0.330504 0.857954
O O4 0.344074 0.146190 0.937518
O O5 0.807471 0.525258 0.250000
O O6 0.819777 0.457196 0.433100
O O7 0.929182 0.622950 0.361106
O O8 0.770871 0.250000 0.000000
O O9 0.891295 0.125431 0.098229
O O10 0.719864 0.065220 0.093057
O O11 0.578360 0.026136 0.750000
O O12 0.448148 0.973845 0.631427
O O13 0.604684 0.034431 0.552702
O O14 0.007141 0.250000 0.500000
O O15 0.000000 0.500000 0.500000
#
# Coordination Sequence:
#
# PCOD8234153 Si02
#       6
#     8   8   8   8   8   8
#     4  10  21  38  62  94 122 154 211 266 310 376
#     4  10  21  39  65  92 120 160 210 264 317 373
#     4  10  22  40  60  89 123 166 211 248 315 389
#     4  10  22  38  56  88 123 158 207 260 314 375
#     4   9  20  37  61  88 122 161 205 257 310 381
#     4  11  22  37  65  88 123 168 208 258 322 375
#
# _framework density 21.028327000000001
#
# number of rings (size 3 to 8) (size 9 to 14) (size 15 to 20)
#    0.000    2.000    1.667    1.000    4.667    2.667 
#    0.000   10.833    0.000    0.000    0.000    0.000 
#    0.000    0.000    0.000    0.000    0.000    0.000 
#
# Total GULP energy -594689.798188 kJ/mol
# GULP energy per Si atom -12389.370796 kJ/mol
# Density = 2.098047 g / cm^3
# Si number density = 21.028327 Si / 1000 Ang^3
#
#
#
# Elastic Constant Matrix: (Units=GPa)
#
#
# Indices 1 2 3 4 5 6 
#
# 1 167.3389 58.3122 25.0053 0.0000 0.0000 0.0000
# 2 58.3122 105.2443 9.7903 0.0000 0.0000 0.0000
# 3 25.0053 9.7903 76.3879 0.0000 0.0000 0.0000
# 4 0.0000 0.0000 0.0000 18.4351 0.0000 0.0000
# 5 0.0000 0.0000 0.0000 0.0000 21.6747 0.0000
# 6 0.0000 0.0000 0.0000 0.0000 0.0000 26.7450
#
#
#
# Elastic Compliance Matrix: (Units=1/GPa)
#
#
# Indices 1 2 3 4 5 6 
#
# 1 0.007695 -0.004078 -0.001996 0.000000 0.000000 0.000000
# 2 -0.004078 0.011777 -0.000175 0.000000 0.000000 0.000000
# 3 -0.001996 -0.000175 0.013767 0.000000 0.000000 0.000000
# 4 0.000000 0.000000 0.000000 0.054244 0.000000 0.000000
# 5 0.000000 0.000000 0.000000 0.000000 0.046137 0.000000
# 6 0.000000 0.000000 0.000000 0.000000 0.000000 0.037390
#
#
# Mechanical properties :
#
#
# Convention : Reuss Voigt Hill
#
# Bulk Modulus (GPa) = 48.21169 59.46519 53.83844
# Shear Modulus (GPa) = 26.25737 30.42849 28.34293
#
# Velocity S-wave (km/s) = 3.53748 3.80810 3.67528
# Velocity P-wave (km/s) = 6.29776 6.90475 6.60823
#
# Compressibility (1/GPa) = 0.02074186
#
# Stress axis : x y z
#
# Youngs Moduli (GPa) = 129.95029 84.90837 72.63776
#
# Poissons Ratio (x) = 0.34625 0.14501
# Poissons Ratio (y) = 0.52993 0.01268
# Poissons Ratio (z) = 0.25943 0.01482
#
# Static dielectric constant tensor:
#      x y z
#    x 4.416480 0.000000 0.000000 
#    y 0.000000 3.612420 0.000000 
#    z 0.000000 0.000000 3.666890 
# 
# 
# High freq. dielectric constant tensor:
#      x y z
#    x 1.849250 0.000000 0.000000 
#    y 0.000000 1.807570 0.000000 
#    z 0.000000 0.000000 1.798990 
# 
# From -- ./inp_files/18426.got.cif
#   From: 2010.03.12/outbox.cif.g09.slc.cpg/sg57_10_cif.got.tgz:18426.got - 2010.04.16 15:48:40.
