data_PCOD8234475
_publ_section_title
;
Structure prediction by ZEFSAII (Michael W. Deem and Ramdas Pophale) SiO2 
 PCOD8234475
Probable space group: P B C M
;
_chemical_formula_sum "Si O2"
_cell_formula_units_Z 48
_cell_length_a 14.848974
_cell_length_b 19.268720
_cell_length_c 8.772908
_cell_angle_alpha 90.000000
_cell_angle_beta 90.000000
_cell_angle_gamma 90.000000
_cell_volume 2510.110774
_symmetry_space_group_name_H-M "P B C M"
_symmetry_group_IT_number 57
_symmetry_cell_setting 'orthorhombic'
loop_
_space_group_symop_operation_xyz
x,y,z
-x,-y,1/2+z
x,1/2-y,-z
-x,1/2+y,1/2-z
-x,-y,-z
x,y,1/2-z
-x,1/2+y,z
x,1/2-y,1/2+z
loop_
_atom_site_type_symbol
_atom_site_label
_atom_site_fract_x
_atom_site_fract_y
_atom_site_fract_z
Si Si1 0.631108 0.322026 0.929918
Si Si2 0.760251 0.444082 0.574176
Si Si3 0.429038 0.320986 0.571914
Si Si4 0.968220 0.428692 0.925987
Si Si5 0.737539 0.589443 0.072033
Si Si6 0.102450 0.174239 0.930144
O O1 0.635703 0.314987 0.750000
O O2 0.696111 0.383038 0.986472
O O3 0.529520 0.338948 0.987505
O O4 0.665597 0.250000 0.000000
O O5 0.740113 0.463416 0.750000
O O6 0.862130 0.418984 0.554285
O O7 0.739946 0.508975 0.467517
O O8 0.392341 0.250000 0.500000
O O9 0.431398 0.308490 0.750000
O O10 0.361464 0.382746 0.527678
O O11 0.997437 0.429875 0.750000
O O12 0.000000 0.500000 0.000000
O O13 0.013480 0.363369 0.007937
O O14 0.758738 0.600615 0.250000
O O15 0.810713 0.629605 0.973178
O O16 0.095716 0.180272 0.750000
O O17 0.110622 0.250000 0.000000
#
# Coordination Sequence:
#
# PCOD8234475 Si02
#       6
#     8   8   8   8   8   8
#     4   9  19  38  59  82 114 150 191 238 286 342
#     4  10  22  38  59  85 116 153 190 234 290 348
#     4   9  19  35  56  82 113 151 191 235 287 341
#     4  11  22  39  61  86 116 155 196 238 291 349
#     4  11  22  36  57  86 118 152 193 239 287 348
#     4  12  25  41  61  87 118 154 195 244 295 348
#
# _framework density 19.122661999999998
#
# number of rings (size 3 to 8) (size 9 to 14) (size 15 to 20)
#    0.000    1.667    1.667    3.000    0.000    5.333 
#    0.000    1.667    0.000    0.000    0.000    0.000 
#    0.000    0.000    0.000    0.000    0.000    0.000 
#
# Total GULP energy -595389.847424 kJ/mol
# GULP energy per Si atom -12403.955155 kJ/mol
# Density = 1.907914 g / cm^3
# Si number density = 19.122662 Si / 1000 Ang^3
#
#
#
# Elastic Constant Matrix: (Units=GPa)
#
#
# Indices 1 2 3 4 5 6 
#
# 1 111.1519 67.6996 42.4803 0.0000 0.0000 0.0000
# 2 67.6996 141.1095 47.4979 0.0000 0.0000 0.0000
# 3 42.4803 47.4979 88.5481 0.0000 0.0000 0.0000
# 4 0.0000 0.0000 0.0000 37.9569 0.0000 0.0000
# 5 0.0000 0.0000 0.0000 0.0000 16.9874 0.0000
# 6 0.0000 0.0000 0.0000 0.0000 0.0000 29.8236
#
#
#
# Elastic Compliance Matrix: (Units=1/GPa)
#
#
# Indices 1 2 3 4 5 6 
#
# 1 0.013637 -0.005297 -0.003701 0.000000 0.000000 0.000000
# 2 -0.005297 0.010706 -0.003201 0.000000 0.000000 0.000000
# 3 -0.003701 -0.003201 0.014786 0.000000 0.000000 0.000000
# 4 0.000000 0.000000 0.000000 0.026346 0.000000 0.000000
# 5 0.000000 0.000000 0.000000 0.000000 0.058867 0.000000
# 6 0.000000 0.000000 0.000000 0.000000 0.000000 0.033530
#
#
# Mechanical properties :
#
#
# Convention : Reuss Voigt Hill
#
# Bulk Modulus (GPa) = 67.88768 72.90722 70.39745
# Shear Modulus (GPa) = 26.71204 29.16236 27.93720
#
# Velocity S-wave (km/s) = 3.74154 3.90938 3.82638
# Velocity P-wave (km/s) = 7.36503 7.65418 7.51100
#
# Compressibility (1/GPa) = 0.01473021
#
# Stress axis : x y z
#
# Youngs Moduli (GPa) = 73.32746 93.40895 67.63096
#
# Poissons Ratio (x) = 0.49479 0.25031
# Poissons Ratio (y) = 0.38841 0.21651
# Poissons Ratio (z) = 0.27139 0.29904
#
# Static dielectric constant tensor:
#      x y z
#    x 3.932290 0.000000 0.000000 
#    y 0.000000 3.538640 0.000000 
#    z 0.000000 0.000000 3.526490 
# 
# 
# High freq. dielectric constant tensor:
#      x y z
#    x 1.754270 0.000000 0.000000 
#    y 0.000000 1.745730 0.000000 
#    z 0.000000 0.000000 1.746730 
# 
# From -- ./inp_files/4556.got.cif
#   From: 2010.03.12/outbox.cif.g09.slc.cpg/sg57_3_cif.got.tgz:4556.got - 2010.04.16 15:48:40.
