data_PCOD8234206
_publ_section_title
;
Structure prediction by ZEFSAII (Michael W. Deem and Ramdas Pophale) SiO2 
 PCOD8234206
Probable space group: P B C M
;
_chemical_formula_sum "Si O2"
_cell_formula_units_Z 64
_cell_length_a 25.990939
_cell_length_b 14.777005
_cell_length_c 8.689171
_cell_angle_alpha 90.000000
_cell_angle_beta 90.000000
_cell_angle_gamma 90.000000
_cell_volume 3337.234574
_symmetry_space_group_name_H-M "P B C M"
_symmetry_group_IT_number 57
_symmetry_cell_setting 'orthorhombic'
loop_
_space_group_symop_operation_xyz
x,y,z
-x,-y,1/2+z
x,1/2-y,-z
-x,1/2+y,1/2-z
-x,-y,-z
x,y,1/2-z
-x,1/2+y,z
x,1/2-y,1/2+z
loop_
_atom_site_type_symbol
_atom_site_label
_atom_site_fract_x
_atom_site_fract_y
_atom_site_fract_z
Si Si1 0.871836 0.149067 0.931096
Si Si2 0.787913 0.498620 0.073226
Si Si3 0.501056 0.401435 0.432401
Si Si4 0.869957 0.648647 0.432099
Si Si5 0.610159 0.658717 0.568229
Si Si6 0.943434 0.998989 0.433275
Si Si7 0.322250 0.501939 0.431311
Si Si8 0.393981 0.659642 0.432431
O O1 0.883208 0.155957 0.750000
O O2 0.819782 0.092663 0.962989
O O3 0.867457 0.250000 0.000000
O O4 0.917182 0.091950 0.009984
O O5 0.771975 0.501608 0.250000
O O6 0.818922 0.590112 0.029634
O O7 0.737020 0.494342 0.973664
O O8 0.500000 0.500000 0.500000
O O9 0.505205 0.405158 0.250000
O O10 0.448298 0.354988 0.488055
O O11 0.548782 0.348068 0.501275
O O12 0.865403 0.750000 0.500000
O O13 0.878979 0.655123 0.250000
O O14 0.916979 0.593087 0.505847
O O15 0.632430 0.750000 0.500000
O O16 0.612322 0.658904 0.750000
O O17 0.649099 0.584920 0.499263
O O18 0.943619 0.997226 0.250000
O O19 0.000000 0.000000 0.500000
O O20 0.326405 0.502228 0.250000
O O21 0.354989 0.585087 0.497309
O O22 0.369294 0.750000 0.500000
O O23 0.397638 0.659810 0.250000
#
# Coordination Sequence:
#
# PCOD8234206 Si02
#       8
#     8   8   8   8   8   8   8   8
#     4  10  21  39  61  88 120 155 199 246 292 347
#     4   9  21  39  59  84 115 148 192 243 291 345
#     4  11  21  37  60  83 112 147 184 227 281 341
#     4  10  21  39  61  88 120 156 200 247 292 346
#     4  10  22  39  56  81 111 143 182 226 277 337
#     4  11  22  38  60  89 125 163 201 244 294 344
#     4  10  22  40  58  79 114 149 185 235 288 344
#     4  11  23  40  58  83 114 146 188 233 283 344
#
# _framework density 19.177555000000002
#
# number of rings (size 3 to 8) (size 9 to 14) (size 15 to 20)
#    0.000    1.750    1.250    3.750    0.000    8.000 
#    0.000    7.500    0.000    0.000    0.000    0.000 
#    0.000    0.000    0.000    0.000    0.000    0.000 
#
# Total GULP energy -793492.387861 kJ/mol
# GULP energy per Si atom -12398.318560 kJ/mol
# Density = 1.913391 g / cm^3
# Si number density = 19.177555 Si / 1000 Ang^3
#
#
#
# Elastic Constant Matrix: (Units=GPa)
#
#
# Indices 1 2 3 4 5 6 
#
# 1 132.0353 68.8027 46.3658 0.0000 0.0000 0.0000
# 2 68.8027 183.7102 52.3825 0.0000 0.0000 0.0000
# 3 46.3658 52.3825 89.0500 0.0000 0.0000 0.0000
# 4 0.0000 0.0000 0.0000 37.6122 0.0000 0.0000
# 5 0.0000 0.0000 0.0000 0.0000 32.1574 0.0000
# 6 0.0000 0.0000 0.0000 0.0000 0.0000 21.3204
#
#
#
# Elastic Compliance Matrix: (Units=1/GPa)
#
#
# Indices 1 2 3 4 5 6 
#
# 1 0.010350 -0.002811 -0.003735 0.000000 0.000000 0.000000
# 2 -0.002811 0.007304 -0.002833 0.000000 0.000000 0.000000
# 3 -0.003735 -0.002833 0.014841 0.000000 0.000000 0.000000
# 4 0.000000 0.000000 0.000000 0.026587 0.000000 0.000000
# 5 0.000000 0.000000 0.000000 0.000000 0.031097 0.000000
# 6 0.000000 0.000000 0.000000 0.000000 0.000000 0.046903
#
#
# Mechanical properties :
#
#
# Convention : Reuss Voigt Hill
#
# Bulk Modulus (GPa) = 72.79948 82.21083 77.50515
# Shear Modulus (GPa) = 31.16808 34.03430 32.60119
#
# Velocity S-wave (km/s) = 4.03580 4.21728 4.12754
# Velocity P-wave (km/s) = 7.73046 8.16549 7.95095
#
# Compressibility (1/GPa) = 0.01373636
#
# Stress axis : x y z
#
# Youngs Moduli (GPa) = 96.61419 136.91239 67.38141
#
# Poissons Ratio (x) = 0.38490 0.25170
# Poissons Ratio (y) = 0.27161 0.19087
# Poissons Ratio (z) = 0.36090 0.38783
#
# Static dielectric constant tensor:
#      x y z
#    x 3.557860 0.000000 0.000000 
#    y 0.000000 4.370340 0.000000 
#    z 0.000000 0.000000 3.491370 
# 
# 
# High freq. dielectric constant tensor:
#      x y z
#    x 1.745500 0.000000 0.000000 
#    y 0.000000 1.761540 0.000000 
#    z 0.000000 0.000000 1.750810 
# 
# From -- ./inp_files/9447.got.cif
#   From: 2010.03.12/outbox.cif.g09.slc.cpg/sg57_5_cif.got.tgz:9447.got - 2010.04.16 15:48:40.
