data_PCOD8234548
_publ_section_title
;
Structure prediction by ZEFSAII (Michael W. Deem and Ramdas Pophale) SiO2 
 PCOD8234548
Probable space group: P B C M
;
_chemical_formula_sum "Si O2"
_cell_formula_units_Z 36
_cell_length_a 11.016814
_cell_length_b 18.543986
_cell_length_c 8.983513
_cell_angle_alpha 90.000000
_cell_angle_beta 90.000000
_cell_angle_gamma 90.000000
_cell_volume 1835.292579
_symmetry_space_group_name_H-M "P B C M"
_symmetry_group_IT_number 57
_symmetry_cell_setting 'orthorhombic'
loop_
_space_group_symop_operation_xyz
x,y,z
-x,-y,1/2+z
x,1/2-y,-z
-x,1/2+y,1/2-z
-x,-y,-z
x,y,1/2-z
-x,1/2+y,z
x,1/2-y,1/2+z
loop_
_atom_site_type_symbol
_atom_site_label
_atom_site_fract_x
_atom_site_fract_y
_atom_site_fract_z
Si Si1 0.729607 0.710822 0.250000
Si Si2 0.879086 0.858861 0.250000
Si Si3 0.839170 0.159351 0.750000
Si Si4 0.694987 0.015584 0.750000
Si Si5 0.270442 0.399487 0.500868
Si Si6 0.285585 0.750000 0.000000
Si Si7 0.552089 0.268905 0.750000
Si Si8 0.469698 0.112130 0.750000
O O1 0.786952 0.789820 0.250000
O O2 0.764915 0.669745 0.100023
O O3 0.584217 0.706473 0.250000
O O4 0.846789 0.907527 0.393839
O O5 0.016426 0.835223 0.250000
O O6 0.797394 0.198392 0.599357
O O7 0.796106 0.077294 0.750000
O O8 0.713634 0.969578 0.898866
O O9 0.556929 0.043042 0.750000
O O10 0.389696 0.387208 0.399919
O O11 0.374577 0.702362 0.105704
O O12 0.559082 0.181190 0.750000
#
# Coordination Sequence:
#
# PCOD8234548 Si02
#       8
#     4   4   4   4   8   4   4   4
#     4  11  21  35  65 100 124 153 200 273 313 364
#     4  11  24  41  63  91 122 163 216 265 300 355
#     4  11  26  43  65  85 131 164 213 258 298 377
#     4  11  23  43  58  87 130 168 207 251 309 376
#     4  10  23  38  62  94 122 167 209 249 318 363
#     4  10  22  40  58  94 118 166 198 244 318 364
#     4  11  19  35  66  88 132 148 202 253 324 366
#     4  11  19  39  61  91 129 164 196 262 312 374
#
# _framework density 19.615400000000001
#
# number of rings (size 3 to 8) (size 9 to 14) (size 15 to 20)
#    0.000    1.333    4.444    2.667    3.111    0.889 
#    0.000    3.333    0.000    0.000    0.000    0.000 
#    0.000    0.000    0.000    0.000    0.000    0.000 
#
# Total GULP energy -446283.974493 kJ/mol
# GULP energy per Si atom -12396.777069 kJ/mol
# Density = 1.957075 g / cm^3
# Si number density = 19.615400 Si / 1000 Ang^3
#
#
#
# Elastic Constant Matrix: (Units=GPa)
#
#
# Indices 1 2 3 4 5 6 
#
# 1 117.3305 14.7015 52.9800 0.0000 0.0000 0.0000
# 2 14.7015 81.5716 42.2739 0.0000 0.0000 0.0000
# 3 52.9800 42.2739 158.3607 0.0000 0.0000 0.0000
# 4 0.0000 0.0000 0.0000 -48.8387 0.0000 0.0000
# 5 0.0000 0.0000 0.0000 0.0000 18.7485 0.0000
# 6 0.0000 0.0000 0.0000 0.0000 0.0000 27.1670
#
#
#
# Elastic Compliance Matrix: (Units=1/GPa)
#
#
# Indices 1 2 3 4 5 6 
#
# 1 0.010040 -0.000080 -0.003338 0.000000 0.000000 0.000000
# 2 -0.000080 0.014228 -0.003771 0.000000 0.000000 0.000000
# 3 -0.003338 -0.003771 0.008438 0.000000 0.000000 0.000000
# 4 0.000000 0.000000 0.000000 -0.020476 0.000000 0.000000
# 5 0.000000 0.000000 0.000000 0.000000 0.053338 0.000000
# 6 0.000000 0.000000 0.000000 0.000000 0.000000 0.036809
#
#
# Mechanical properties :
#
#
# Convention : Reuss Voigt Hill
#
# Bulk Modulus (GPa) = 54.55996 64.13040 59.34518
# Shear Modulus (GPa) = 40.69513 15.90253 28.29883
#
# Velocity S-wave (km/s) = 4.55978 2.85040 3.80239
# Velocity P-wave (km/s) = 7.45636 6.60287 7.04256
#
# Compressibility (1/GPa) = 0.01832846
#
# Stress axis : x y z
#
# Youngs Moduli (GPa) = 99.60151 70.28358 118.51038
#
# Poissons Ratio (x) = 0.00561 0.39554
# Poissons Ratio (y) = 0.00795 0.44696
# Poissons Ratio (z) = 0.33243 0.26507
#
# Static dielectric constant tensor:
#      x y z
#    x 3.512570 0.000000 0.000000 
#    y 0.000000 3.393500 0.000000 
#    z 0.000000 0.000000 4.387970 
# 
# 
# High freq. dielectric constant tensor:
#      x y z
#    x 1.760010 0.000000 0.000000 
#    y 0.000000 1.741310 0.000000 
#    z 0.000000 0.000000 1.793330 
# 
# From -- ./inp_files/2856.got.cif
#   From: 2010.03.12/outbox.cif.g09.slc.cpg/sg57_2_cif.got.tgz:2856.got - 2010.04.16 15:48:40.
