data_PCOD8234374
_publ_section_title
;
Structure prediction by ZEFSAII (Michael W. Deem and Ramdas Pophale) SiO2 
 PCOD8234374
Probable space group: P B C M
;
_chemical_formula_sum "Si O2"
_cell_formula_units_Z 40
_cell_length_a 8.876171
_cell_length_b 10.218320
_cell_length_c 21.911455
_cell_angle_alpha 90.000000
_cell_angle_beta 90.000000
_cell_angle_gamma 90.000000
_cell_volume 1987.359232
_symmetry_space_group_name_H-M "P B C M"
_symmetry_group_IT_number 57
_symmetry_cell_setting 'orthorhombic'
loop_
_space_group_symop_operation_xyz
x,y,z
-x,-y,1/2+z
x,1/2-y,-z
-x,1/2+y,1/2-z
-x,-y,-z
x,y,1/2-z
-x,1/2+y,z
x,1/2-y,1/2+z
loop_
_atom_site_type_symbol
_atom_site_label
_atom_site_fract_x
_atom_site_fract_y
_atom_site_fract_z
Si Si1 0.843035 0.174734 0.911485
Si Si2 0.173705 0.190694 0.563067
Si Si3 0.392372 0.900259 0.321842
Si Si4 0.707303 0.084643 0.462477
Si Si5 0.559753 0.665726 0.384930
O O1 0.774433 0.122981 0.848484
O O2 0.821224 0.330805 0.920335
O O3 0.019961 0.144789 0.904528
O O4 0.751515 0.103216 0.966661
O O5 0.115700 0.250000 0.500000
O O6 0.267091 0.303768 0.597531
O O7 0.281853 0.066591 0.554882
O O8 0.386175 0.886319 0.250000
O O9 0.501717 0.791943 0.349519
O O10 0.451376 0.043741 0.339403
O O11 0.537061 0.133998 0.446670
#
# Coordination Sequence:
#
# PCOD8234374 Si02
#       5
#     8   8   8   8   8
#     4  10  23  39  63  92 131 165 207 259 324 384
#     4  12  23  36  66  98 131 163 200 264 330 393
#     4  11  24  45  66  89 128 174 220 264 307 371
#     4  10  21  41  59  98 129 161 203 262 326 387
#     4  11  24  41  69  96 128 164 218 266 320 374
#
# _framework density 20.127212
#
# number of rings (size 3 to 8) (size 9 to 14) (size 15 to 20)
#    0.000    1.200    4.000    2.400    8.400    1.600 
#    0.000    2.000    0.000    0.000    0.000    0.000 
#    0.000    0.000    0.000    0.000    0.000    0.000 
#
# Total GULP energy -495987.695122 kJ/mol
# GULP energy per Si atom -12399.692378 kJ/mol
# Density = 2.008140 g / cm^3
# Si number density = 20.127212 Si / 1000 Ang^3
#
#
#
# Elastic Constant Matrix: (Units=GPa)
#
#
# Indices 1 2 3 4 5 6 
#
# 1 125.6336 7.9609 45.2916 0.0000 0.0000 0.0000
# 2 7.9609 89.4149 6.2210 0.0000 0.0000 0.0000
# 3 45.2916 6.2210 75.6553 0.0000 0.0000 0.0000
# 4 0.0000 0.0000 0.0000 23.5528 0.0000 0.0000
# 5 0.0000 0.0000 0.0000 0.0000 19.3145 0.0000
# 6 0.0000 0.0000 0.0000 0.0000 0.0000 20.1911
#
#
#
# Elastic Compliance Matrix: (Units=1/GPa)
#
#
# Indices 1 2 3 4 5 6 
#
# 1 0.010171 -0.000485 -0.006049 0.000000 0.000000 0.000000
# 2 -0.000485 0.011271 -0.000637 0.000000 0.000000 0.000000
# 3 -0.006049 -0.000637 0.016892 0.000000 0.000000 0.000000
# 4 0.000000 0.000000 0.000000 0.042458 0.000000 0.000000
# 5 0.000000 0.000000 0.000000 0.000000 0.051775 0.000000
# 6 0.000000 0.000000 0.000000 0.000000 0.000000 0.049527
#
#
# Mechanical properties :
#
#
# Convention : Reuss Voigt Hill
#
# Bulk Modulus (GPa) = 41.67892 45.51676 43.59784
# Shear Modulus (GPa) = 24.45806 28.02705 26.24256
#
# Velocity S-wave (km/s) = 3.48972 3.73566 3.61478
# Velocity P-wave (km/s) = 6.08196 6.42422 6.25543
#
# Compressibility (1/GPa) = 0.02399295
#
# Stress axis : x y z
#
# Youngs Moduli (GPa) = 98.31755 88.72116 59.20116
#
# Poissons Ratio (x) = 0.04300 0.35812
# Poissons Ratio (y) = 0.04765 0.03769
# Poissons Ratio (z) = 0.59474 0.05648
#
# Static dielectric constant tensor:
#      x y z
#    x 3.543510 0.000000 0.000000 
#    y 0.000000 3.880830 0.000000 
#    z 0.000000 0.000000 3.336240 
# 
# 
# High freq. dielectric constant tensor:
#      x y z
#    x 1.786270 0.000000 0.000000 
#    y 0.000000 1.809520 0.000000 
#    z 0.000000 0.000000 1.745910 
# 
# From -- ./inp_files/24114.got.cif
#   From: 2010.03.12/outbox.cif.g09.slc.cpg/sg57_13_cif.got.tgz:24114.got - 2010.04.16 15:48:40.
