data_PCOD8234976
_publ_section_title
;
Structure prediction by ZEFSAII (Michael W. Deem and Ramdas Pophale) SiO2 
 PCOD8234976
Probable space group: P B C M
;
_chemical_formula_sum "Si O2"
_cell_formula_units_Z 48
_cell_length_a 14.875891
_cell_length_b 9.169495
_cell_length_c 17.630449
_cell_angle_alpha 90.000000
_cell_angle_beta 90.000000
_cell_angle_gamma 90.000000
_cell_volume 2404.870961
_symmetry_space_group_name_H-M "P B C M"
_symmetry_group_IT_number 57
_symmetry_cell_setting 'orthorhombic'
loop_
_space_group_symop_operation_xyz
x,y,z
-x,-y,1/2+z
x,1/2-y,-z
-x,1/2+y,1/2-z
-x,-y,-z
x,y,1/2-z
-x,1/2+y,z
x,1/2-y,1/2+z
loop_
_atom_site_type_symbol
_atom_site_label
_atom_site_fract_x
_atom_site_fract_y
_atom_site_fract_z
Si Si1 0.920154 0.204458 0.838562
Si Si2 0.765584 0.985984 0.660782
Si Si3 0.401672 0.126285 0.663505
Si Si4 0.946229 0.993768 0.078598
Si Si5 0.569163 0.961959 0.663752
Si Si6 0.228655 0.194901 0.579477
O O1 0.924464 0.247141 0.750000
O O2 0.927388 0.344664 0.891444
O O3 0.826864 0.123938 0.859359
O O4 0.000137 0.093119 0.856899
O O5 0.760986 0.957128 0.750000
O O6 0.664646 0.015047 0.628370
O O7 0.805291 0.835602 0.626859
O O8 0.383202 0.078514 0.750000
O O9 0.436870 0.289753 0.657815
O O10 0.307702 0.105152 0.620447
O O11 0.480516 0.029730 0.624070
O O12 0.852753 0.913969 0.063801
O O13 0.000000 0.000000 0.000000
O O14 0.565982 0.018080 0.750000
O O15 0.268001 0.250000 0.500000
#
# Coordination Sequence:
#
# PCOD8234976 Si02
#       6
#     8   8   8   8   8   8
#     4  11  23  38  60  88 112 141 189 244 287 330
#     4   9  19  37  59  84 116 150 185 232 285 331
#     4   9  18  33  55  81 109 144 184 227 274 324
#     4  12  25  41  59  81 114 154 190 230 291 359
#     4   8  15  30  53  80 111 145 179 219 274 334
#     4  11  22  37  57  80 110 150 192 230 275 336
#
# _framework density 19.959489999999999
#
# number of rings (size 3 to 8) (size 9 to 14) (size 15 to 20)
#    0.000    2.000    0.000    5.500    0.000    5.333 
#    0.000    6.667    0.000    2.000    0.000    0.000 
#    0.000    0.000    0.000    0.000    0.000    0.000 
#
# Total GULP energy -595127.397886 kJ/mol
# GULP energy per Si atom -12398.487456 kJ/mol
# Density = 1.991406 g / cm^3
# Si number density = 19.959490 Si / 1000 Ang^3
#
#
#
# Elastic Constant Matrix: (Units=GPa)
#
#
# Indices 1 2 3 4 5 6 
#
# 1 147.9242 63.5435 44.8207 0.0000 0.0000 0.0000
# 2 63.5435 92.9687 38.9170 0.0000 0.0000 0.0000
# 3 44.8207 38.9170 63.0685 0.0000 0.0000 0.0000
# 4 0.0000 0.0000 0.0000 24.3239 0.0000 0.0000
# 5 0.0000 0.0000 0.0000 0.0000 28.3037 0.0000
# 6 0.0000 0.0000 0.0000 0.0000 0.0000 43.6060
#
#
#
# Elastic Compliance Matrix: (Units=1/GPa)
#
#
# Indices 1 2 3 4 5 6 
#
# 1 0.010267 -0.005344 -0.003999 0.000000 0.000000 0.000000
# 2 -0.005344 0.017283 -0.006867 0.000000 0.000000 0.000000
# 3 -0.003999 -0.006867 0.022936 0.000000 0.000000 0.000000
# 4 0.000000 0.000000 0.000000 0.041112 0.000000 0.000000
# 5 0.000000 0.000000 0.000000 0.000000 0.035331 0.000000
# 6 0.000000 0.000000 0.000000 0.000000 0.000000 0.022933
#
#
# Mechanical properties :
#
#
# Convention : Reuss Voigt Hill
#
# Bulk Modulus (GPa) = 55.35360 66.50263 60.92812
# Shear Modulus (GPa) = 26.55275 29.69207 28.12241
#
# Velocity S-wave (km/s) = 3.65133 3.86115 3.75770
# Velocity P-wave (km/s) = 6.75051 7.29857 7.02988
#
# Compressibility (1/GPa) = 0.01806567
#
# Stress axis : x y z
#
# Youngs Moduli (GPa) = 97.39504 57.85938 43.60040
#
# Poissons Ratio (x) = 0.30918 0.17438
# Poissons Ratio (y) = 0.52044 0.29942
# Poissons Ratio (z) = 0.38953 0.39734
#
# Static dielectric constant tensor:
#      x y z
#    x 3.977100 0.000000 0.000000 
#    y 0.000000 3.597600 0.000000 
#    z 0.000000 0.000000 3.535430 
# 
# 
# High freq. dielectric constant tensor:
#      x y z
#    x 1.793060 0.000000 0.000000 
#    y 0.000000 1.772650 0.000000 
#    z 0.000000 0.000000 1.761600 
# 
# From -- ./inp_files/22393.got.cif
#   From: 2010.03.12/outbox.cif.g09.slc.cpg/sg57_12_cif.got.tgz:22393.got - 2010.04.16 15:48:40.
