data_PCOD8234003
_publ_section_title
;
Structure prediction by ZEFSAII (Michael W. Deem and Ramdas Pophale) SiO2 
 PCOD8234003
Probable space group: P B C M
;
_chemical_formula_sum "Si O2"
_cell_formula_units_Z 64
_cell_length_a 15.273706
_cell_length_b 23.637359
_cell_length_c 8.648467
_cell_angle_alpha 90.000000
_cell_angle_beta 90.000000
_cell_angle_gamma 90.000000
_cell_volume 3122.356664
_symmetry_space_group_name_H-M "P B C M"
_symmetry_group_IT_number 57
_symmetry_cell_setting 'orthorhombic'
loop_
_space_group_symop_operation_xyz
x,y,z
-x,-y,1/2+z
x,1/2-y,-z
-x,1/2+y,1/2-z
-x,-y,-z
x,y,1/2-z
-x,1/2+y,z
x,1/2-y,1/2+z
loop_
_atom_site_type_symbol
_atom_site_label
_atom_site_fract_x
_atom_site_fract_y
_atom_site_fract_z
Si Si1 0.253920 0.810833 0.931998
Si Si2 0.901800 0.374297 0.068940
Si Si3 0.593204 0.116966 0.928159
Si Si4 0.339648 0.004187 0.073789
Si Si5 0.749470 0.688590 0.932616
Si Si6 0.157764 0.510337 0.430015
Si Si7 0.903557 0.609849 0.567177
Si Si8 0.411502 0.374410 0.929314
O O1 0.264375 0.808893 0.750000
O O2 0.276820 0.750000 0.000000
O O3 0.155416 0.828950 0.975657
O O4 0.319296 0.856947 0.000813
O O5 0.889241 0.362779 0.250000
O O6 0.002371 0.365781 0.015816
O O7 0.873377 0.438079 0.034297
O O8 0.586802 0.134601 0.750000
O O9 0.597111 0.049389 0.949278
O O10 0.508903 0.141210 0.016045
O O11 0.303881 0.006159 0.250000
O O12 0.394646 0.059927 0.033577
O O13 0.260306 0.000631 0.954163
O O14 0.755476 0.691823 0.750000
O O15 0.825951 0.648380 0.002634
O O16 0.765061 0.750000 0.000000
O O17 0.655311 0.664904 0.978928
O O18 0.140957 0.523869 0.250000
O O19 0.105859 0.454903 0.489439
O O20 0.894754 0.609527 0.750000
O O21 0.401949 0.360106 0.750000
#
# Coordination Sequence:
#
# PCOD8234003 Si02
#       8
#     8   8   8   8   8   8   8   8
#     4  12  26  45  66  91 121 161 209 259 309 365
#     4  11  22  40  63  92 129 165 203 253 308 367
#     4  11  23  41  65  94 127 165 201 249 308 365
#     4  10  21  37  61  92 128 164 201 245 305 367
#     4  11  23  43  64  88 120 161 208 259 310 362
#     4  11  20  35  61  93 126 165 206 249 305 367
#     4   9  21  39  62  91 126 164 205 254 308 363
#     4  11  23  40  63  95 127 163 206 251 302 367
#
# _framework density 20.497337999999999
#
# number of rings (size 3 to 8) (size 9 to 14) (size 15 to 20)
#    0.000    1.250    2.500    3.750    0.000    2.000 
#    0.000    8.125    0.000    0.000    0.000    0.000 
#    0.000    0.000    0.000    0.000    0.000    0.000 
#
# Total GULP energy -793938.368534 kJ/mol
# GULP energy per Si atom -12405.287008 kJ/mol
# Density = 2.045068 g / cm^3
# Si number density = 20.497338 Si / 1000 Ang^3
#
#
#
# Elastic Constant Matrix: (Units=GPa)
#
#
# Indices 1 2 3 4 5 6 
#
# 1 98.7139 10.5627 13.0899 0.0000 0.0000 0.0000
# 2 10.5627 77.3629 26.8307 0.0000 0.0000 0.0000
# 3 13.0899 26.8307 64.6882 0.0000 0.0000 0.0000
# 4 0.0000 0.0000 0.0000 30.1133 0.0000 0.0000
# 5 0.0000 0.0000 0.0000 0.0000 27.1166 0.0000
# 6 0.0000 0.0000 0.0000 0.0000 0.0000 16.0919
#
#
#
# Elastic Compliance Matrix: (Units=1/GPa)
#
#
# Indices 1 2 3 4 5 6 
#
# 1 0.010453 -0.000810 -0.001779 0.000000 0.000000 0.000000
# 2 -0.000810 0.015161 -0.006124 0.000000 0.000000 0.000000
# 3 -0.001779 -0.006124 0.018359 0.000000 0.000000 0.000000
# 4 0.000000 0.000000 0.000000 0.033208 0.000000 0.000000
# 5 0.000000 0.000000 0.000000 0.000000 0.036878 0.000000
# 6 0.000000 0.000000 0.000000 0.000000 0.000000 0.062143
#
#
# Mechanical properties :
#
#
# Convention : Reuss Voigt Hill
#
# Bulk Modulus (GPa) = 37.67128 37.97017 37.82072
# Shear Modulus (GPa) = 24.69419 27.34980 26.02200
#
# Velocity S-wave (km/s) = 3.47472 3.65678 3.56691
# Velocity P-wave (km/s) = 5.87509 6.03275 5.95444
#
# Compressibility (1/GPa) = 0.02654542
#
# Stress axis : x y z
#
# Youngs Moduli (GPa) = 95.66723 65.96009 54.46941
#
# Poissons Ratio (x) = 0.05344 0.09691
# Poissons Ratio (y) = 0.07750 0.33358
# Poissons Ratio (z) = 0.17021 0.40396
#
# Static dielectric constant tensor:
#      x y z
#    x 3.813890 0.000000 0.000000 
#    y 0.000000 3.745950 0.000000 
#    z 0.000000 0.000000 3.625080 
# 
# 
# High freq. dielectric constant tensor:
#      x y z
#    x 1.809250 0.000000 0.000000 
#    y 0.000000 1.801750 0.000000 
#    z 0.000000 0.000000 1.798600 
# 
# From -- ./inp_files/5655.got.cif
#   From: 2010.03.12/outbox.cif.g09.slc.cpg/sg57_3_cif.got.tgz:5655.got - 2010.04.16 15:48:40.
