data_PCOD8234077
_publ_section_title
;
Structure prediction by ZEFSAII (Michael W. Deem and Ramdas Pophale) SiO2 
 PCOD8234077
Probable space group: P B C M
;
_chemical_formula_sum "Si O2"
_cell_formula_units_Z 64
_cell_length_a 24.161181
_cell_length_b 8.893907
_cell_length_c 14.839318
_cell_angle_alpha 90.000000
_cell_angle_beta 90.000000
_cell_angle_gamma 90.000000
_cell_volume 3188.780932
_symmetry_space_group_name_H-M "P B C M"
_symmetry_group_IT_number 57
_symmetry_cell_setting 'orthorhombic'
loop_
_space_group_symop_operation_xyz
x,y,z
-x,-y,1/2+z
x,1/2-y,-z
-x,1/2+y,1/2-z
-x,-y,-z
x,y,1/2-z
-x,1/2+y,z
x,1/2-y,1/2+z
loop_
_atom_site_type_symbol
_atom_site_label
_atom_site_fract_x
_atom_site_fract_y
_atom_site_fract_z
Si Si1 0.130476 0.575274 0.999997
Si Si2 0.333445 0.426568 0.645653
Si Si3 0.554371 0.418982 0.857068
Si Si4 0.666562 0.926578 0.354347
Si Si5 0.445636 0.918995 0.142932
Si Si6 0.739645 0.424516 0.000004
Si Si7 0.942512 0.925820 0.145757
Si Si8 0.942518 0.574187 0.145757
O O1 0.106765 0.498659 0.910462
O O2 0.114935 0.750000 0.000000
O O3 0.195419 0.547847 0.999985
O O4 0.106774 0.498653 0.089536
O O5 0.323597 0.466846 0.750000
O O6 0.334241 0.249995 0.628866
O O7 0.391576 0.491968 0.610133
O O8 0.284009 0.499918 0.589957
O O9 0.551478 0.418315 0.750000
O O10 0.608434 0.508004 0.889870
O O11 0.500005 0.500001 0.896895
O O12 0.556938 0.249993 0.895237
O O13 0.676411 0.966853 0.250000
O O14 0.716001 0.999912 0.410044
O O15 0.448531 0.918324 0.250000
O O16 0.724065 0.250000 0.000000
O O17 0.930003 0.959044 0.250000
O O18 0.946141 0.750004 0.125022
O O19 0.999995 0.000013 0.115331
O O20 0.930012 0.540959 0.250000
#
# Coordination Sequence:
#
# PCOD8234077 Si02
#       8
#     8   8   8   8   8   8   8   8
#     4  11  24  40  59  84 117 156 195 238 285 335
#     4  10  21  38  60  84 112 148 189 236 290 344
#     4   9  16  28  50  80 112 145 183 228 281 343
#     4  10  21  38  60  84 112 148 189 236 290 344
#     4   9  16  28  50  80 112 145 183 228 281 343
#     4  11  25  42  59  82 113 152 197 240 284 337
#     4  10  21  38  62  91 122 155 191 233 282 336
#     4  10  21  38  62  91 122 155 191 233 282 336
#
# _framework density 20.070367000000001
#
# number of rings (size 3 to 8) (size 9 to 14) (size 15 to 20)
#    0.000    2.000    0.000    3.375    0.000    9.000 
#    0.000    5.625    0.000    0.000    0.000    0.000 
#    0.000    0.000    0.000    0.000    0.000    0.000 
#
# Total GULP energy -793879.463406 kJ/mol
# GULP energy per Si atom -12404.366616 kJ/mol
# Density = 2.002469 g / cm^3
# Si number density = 20.070367 Si / 1000 Ang^3
#
#
#
# Elastic Constant Matrix: (Units=GPa)
#
#
# Indices 1 2 3 4 5 6 
#
# 1 130.6427 85.3294 62.1082 0.0000 0.0000 0.0000
# 2 85.3294 162.8786 59.4115 0.0000 0.0000 0.0000
# 3 62.1082 59.4115 92.6730 0.0000 0.0000 0.0000
# 4 0.0000 0.0000 0.0000 27.1939 0.0000 0.0000
# 5 0.0000 0.0000 0.0000 0.0000 63.3176 0.0000
# 6 0.0000 0.0000 0.0000 0.0000 0.0000 40.0557
#
#
#
# Elastic Compliance Matrix: (Units=1/GPa)
#
#
# Indices 1 2 3 4 5 6 
#
# 1 0.013808 -0.005036 -0.006026 0.000000 0.000000 0.000000
# 2 -0.005036 0.009850 -0.002940 0.000000 0.000000 0.000000
# 3 -0.006026 -0.002940 0.016714 0.000000 0.000000 0.000000
# 4 0.000000 0.000000 0.000000 0.036773 0.000000 0.000000
# 5 0.000000 0.000000 0.000000 0.000000 0.015793 0.000000
# 6 0.000000 0.000000 0.000000 0.000000 0.000000 0.024965
#
#
# Mechanical properties :
#
#
# Convention : Reuss Voigt Hill
#
# Bulk Modulus (GPa) = 80.84558 88.87693 84.86125
# Shear Modulus (GPa) = 33.32677 38.06980 35.69828
#
# Velocity S-wave (km/s) = 4.07934 4.35997 4.22199
# Velocity P-wave (km/s) = 7.90927 8.35012 8.13268
#
# Compressibility (1/GPa) = 0.01236926
#
# Stress axis : x y z
#
# Youngs Moduli (GPa) = 72.41968 101.52141 59.83181
#
# Poissons Ratio (x) = 0.51127 0.36052
# Poissons Ratio (y) = 0.36471 0.17589
# Poissons Ratio (z) = 0.43637 0.29844
#
# Static dielectric constant tensor:
#      x y z
#    x 3.594190 0.000000 0.000000 
#    y 0.000000 3.851260 0.000000 
#    z 0.000000 0.000000 3.535500 
# 
# 
# High freq. dielectric constant tensor:
#      x y z
#    x 1.781060 0.000000 0.000000 
#    y 0.000000 1.801900 0.000000 
#    z 0.000000 0.000000 1.782980 
# 
# From -- ./inp_files/19521.got.cif
#   From: 2010.03.12/outbox.cif.g09.slc.cpg/sg57_10_cif.got.tgz:19521.got - 2010.04.16 15:48:40.
