data_PCOD8234106
_publ_section_title
;
Structure prediction by ZEFSAII (Michael W. Deem and Ramdas Pophale) SiO2 
 PCOD8234106
Probable space group: P B C M
;
_chemical_formula_sum "Si O2"
_cell_formula_units_Z 64
_cell_length_a 9.040487
_cell_length_b 18.528890
_cell_length_c 19.502909
_cell_angle_alpha 90.000000
_cell_angle_beta 90.000000
_cell_angle_gamma 90.000000
_cell_volume 3266.935976
_symmetry_space_group_name_H-M "P B C M"
_symmetry_group_IT_number 57
_symmetry_cell_setting 'orthorhombic'
loop_
_space_group_symop_operation_xyz
x,y,z
-x,-y,1/2+z
x,1/2-y,-z
-x,1/2+y,1/2-z
-x,-y,-z
x,y,1/2-z
-x,1/2+y,z
x,1/2-y,1/2+z
loop_
_atom_site_type_symbol
_atom_site_label
_atom_site_fract_x
_atom_site_fract_y
_atom_site_fract_z
Si Si1 0.367892 0.059252 0.826317
Si Si2 0.415685 0.202688 0.905985
Si Si3 0.285549 0.340508 0.947439
Si Si4 0.045030 0.627993 0.074026
Si Si5 0.418099 0.493501 0.928734
Si Si6 0.145707 0.591844 0.569517
Si Si7 0.041114 0.000470 0.672402
Si Si8 0.259010 0.742228 0.922622
O O1 0.432404 0.064218 0.750000
O O2 0.362036 0.140232 0.855485
O O3 0.466087 0.002756 0.868091
O O4 0.209173 0.023376 0.826544
O O5 0.327163 0.277319 0.893716
O O6 0.585467 0.223675 0.886479
O O7 0.376404 0.173710 0.982450
O O8 0.332619 0.418444 0.918957
O O9 0.107759 0.336595 0.953211
O O10 0.018773 0.578566 0.140133
O O11 0.168879 0.685971 0.098584
O O12 0.098721 0.579300 0.009710
O O13 0.308619 0.560515 0.922449
O O14 0.500000 0.500000 0.000000
O O15 0.145402 0.676541 0.586756
O O16 0.038994 0.557862 0.624854
O O17 0.976264 0.999786 0.750000
O O18 0.310508 0.750000 0.000000
#
# Coordination Sequence:
#
# PCOD8234106 Si02
#       8
#     8   8   8   8   8   8   8   8
#     4  11  25  43  64  90 127 169 213 261 317 383
#     4  11  22  40  60  92 130 161 205 256 315 377
#     4  11  23  37  64  96 126 159 206 266 308 369
#     4  11  24  39  63  98 123 163 209 258 318 374
#     4  12  22  39  66  97 123 164 208 266 322 370
#     4  11  22  39  66  92 125 162 206 263 316 377
#     4  11  25  44  63  89 128 168 214 265 311 371
#     4  10  21  38  60  94 126 157 203 259 317 374
#
# _framework density 19.590222000000001
#
# number of rings (size 3 to 8) (size 9 to 14) (size 15 to 20)
#    0.000    1.000    5.000    1.875   10.500    0.500 
#    0.000    2.500    0.000    0.000    0.000    0.000 
#    0.000    0.000    0.000    0.000    0.000    0.000 
#
# Total GULP energy -793329.975714 kJ/mol
# GULP energy per Si atom -12395.780871 kJ/mol
# Density = 1.954563 g / cm^3
# Si number density = 19.590222 Si / 1000 Ang^3
#
#
#
# Elastic Constant Matrix: (Units=GPa)
#
#
# Indices 1 2 3 4 5 6 
#
# 1 84.2573 22.2167 26.0101 0.0000 0.0000 0.0000
# 2 22.2167 101.9600 39.3671 0.0000 0.0000 0.0000
# 3 26.0101 39.3671 96.7860 0.0000 0.0000 0.0000
# 4 0.0000 0.0000 0.0000 11.9951 0.0000 0.0000
# 5 0.0000 0.0000 0.0000 0.0000 22.6553 0.0000
# 6 0.0000 0.0000 0.0000 0.0000 0.0000 31.5742
#
#
#
# Elastic Compliance Matrix: (Units=1/GPa)
#
#
# Indices 1 2 3 4 5 6 
#
# 1 0.013211 -0.001789 -0.002823 0.000000 0.000000 0.000000
# 2 -0.001789 0.011877 -0.004350 0.000000 0.000000 0.000000
# 3 -0.002823 -0.004350 0.012860 0.000000 0.000000 0.000000
# 4 0.000000 0.000000 0.000000 0.083367 0.000000 0.000000
# 5 0.000000 0.000000 0.000000 0.000000 0.044140 0.000000
# 6 0.000000 0.000000 0.000000 0.000000 0.000000 0.031671
#
#
# Mechanical properties :
#
#
# Convention : Reuss Voigt Hill
#
# Bulk Modulus (GPa) = 49.93764 50.91011 50.42387
# Shear Modulus (GPa) = 22.55035 26.27222 24.41129
#
# Velocity S-wave (km/s) = 3.39647 3.66606 3.53384
# Velocity P-wave (km/s) = 6.39748 6.63053 6.51505
#
# Compressibility (1/GPa) = 0.02002498
#
# Stress axis : x y z
#
# Youngs Moduli (GPa) = 75.69169 84.19496 77.75975
#
# Poissons Ratio (x) = 0.15061 0.21950
# Poissons Ratio (y) = 0.13540 0.33827
# Poissons Ratio (z) = 0.21367 0.36627
#
# Static dielectric constant tensor:
#      x y z
#    x 3.526700 0.000000 0.000000 
#    y 0.000000 5.976900 0.000000 
#    z 0.000000 0.000000 3.516360 
# 
# 
# High freq. dielectric constant tensor:
#      x y z
#    x 1.778530 0.000000 0.000000 
#    y 0.000000 1.781120 0.000000 
#    z 0.000000 0.000000 1.725990 
# 
# From -- ./inp_files/24584.got.cif
#   From: 2010.03.12/outbox.cif.g09.slc.cpg/sg57_13_cif.got.tgz:24584.got - 2010.04.16 15:48:40.
