data_PCOD8234220
_publ_section_title
;
Structure prediction by ZEFSAII (Michael W. Deem and Ramdas Pophale) SiO2 
 PCOD8234220
Probable space group: P B C M
;
_chemical_formula_sum "Si O2"
_cell_formula_units_Z 56
_cell_length_a 13.077703
_cell_length_b 13.178046
_cell_length_c 15.772116
_cell_angle_alpha 90.000000
_cell_angle_beta 90.000000
_cell_angle_gamma 90.000000
_cell_volume 2718.143944
_symmetry_space_group_name_H-M "P B C M"
_symmetry_group_IT_number 57
_symmetry_cell_setting 'orthorhombic'
loop_
_space_group_symop_operation_xyz
x,y,z
-x,-y,1/2+z
x,1/2-y,-z
-x,1/2+y,1/2-z
-x,-y,-z
x,y,1/2-z
-x,1/2+y,z
x,1/2-y,1/2+z
loop_
_atom_site_type_symbol
_atom_site_label
_atom_site_fract_x
_atom_site_fract_y
_atom_site_fract_z
Si Si1 0.572802 0.455209 0.650412
Si Si2 0.886583 0.842636 0.052319
Si Si3 0.908089 0.312758 0.348859
Si Si4 0.740351 0.171671 0.432384
Si Si5 0.313972 0.151109 0.849600
Si Si6 0.645669 0.880883 0.850709
Si Si7 0.820854 0.006810 0.941589
O O1 0.565822 0.460921 0.750000
O O2 0.650368 0.364044 0.628952
O O3 0.609273 0.564523 0.613624
O O4 0.460437 0.428558 0.615962
O O5 0.799641 0.874550 0.118553
O O6 0.987890 0.803739 0.098690
O O7 0.840433 0.750000 0.000000
O O8 0.906341 0.934274 0.985255
O O9 0.930553 0.298642 0.250000
O O10 0.830653 0.225434 0.379073
O O11 0.865362 0.425763 0.365317
O O12 0.693194 0.250000 0.500000
O O13 0.783006 0.076103 0.482098
O O14 0.308205 0.140239 0.750000
O O15 0.353704 0.262146 0.875720
O O16 0.662816 0.895270 0.750000
O O17 0.732459 0.937805 0.902702
#
# Coordination Sequence:
#
# PCOD8234220 Si02
#       7
#     8   8   8   8   8   8   8
#     4  10  21  40  65  91 125 172 215 261 315 375
#     4  12  22  41  64  93 123 165 206 265 318 371
#     4  11  25  43  64  91 127 170 212 260 318 380
#     4  10  22  41  61  93 127 162 210 262 313 377
#     4  10  21  39  61  90 126 163 211 260 312 378
#     4  10  22  40  63  94 128 168 215 259 315 379
#     4  11  22  41  63  92 126 164 207 263 319 376
#
# _framework density 20.602294000000001
#
# number of rings (size 3 to 8) (size 9 to 14) (size 15 to 20)
#    0.000    1.429    2.857    3.000    0.000    2.857 
#    2.571    5.714    0.000    0.000    0.000    0.000 
#    0.000    0.000    0.000    0.000    0.000    0.000 
#
# Total GULP energy -694258.827374 kJ/mol
# GULP energy per Si atom -12397.479060 kJ/mol
# Density = 2.055540 g / cm^3
# Si number density = 20.602294 Si / 1000 Ang^3
#
#
#
# Elastic Constant Matrix: (Units=GPa)
#
#
# Indices 1 2 3 4 5 6 
#
# 1 101.7690 46.2407 38.7266 0.0000 0.0000 0.0000
# 2 46.2407 133.3026 42.0196 0.0000 0.0000 0.0000
# 3 38.7266 42.0196 66.0834 0.0000 0.0000 0.0000
# 4 0.0000 0.0000 0.0000 30.4252 0.0000 0.0000
# 5 0.0000 0.0000 0.0000 0.0000 24.6693 0.0000
# 6 0.0000 0.0000 0.0000 0.0000 0.0000 34.1905
#
#
#
# Elastic Compliance Matrix: (Units=1/GPa)
#
#
# Indices 1 2 3 4 5 6 
#
# 1 0.013389 -0.002715 -0.006120 0.000000 0.000000 0.000000
# 2 -0.002715 0.009933 -0.004725 0.000000 0.000000 0.000000
# 3 -0.006120 -0.004725 0.021723 0.000000 0.000000 0.000000
# 4 0.000000 0.000000 0.000000 0.032867 0.000000 0.000000
# 5 0.000000 0.000000 0.000000 0.000000 0.040536 0.000000
# 6 0.000000 0.000000 0.000000 0.000000 0.000000 0.029248
#
#
# Mechanical properties :
#
#
# Convention : Reuss Voigt Hill
#
# Bulk Modulus (GPa) = 55.78697 61.68096 58.73397
# Shear Modulus (GPa) = 27.65639 29.46823 28.56231
#
# Velocity S-wave (km/s) = 3.66784 3.78608 3.72743
# Velocity P-wave (km/s) = 6.71374 7.00831 6.86261
#
# Compressibility (1/GPa) = 0.01792533
#
# Stress axis : x y z
#
# Youngs Moduli (GPa) = 74.69032 100.67504 46.03450
#
# Poissons Ratio (x) = 0.27336 0.28171
# Poissons Ratio (y) = 0.20281 0.21750
# Poissons Ratio (z) = 0.45707 0.47566
#
# Static dielectric constant tensor:
#      x y z
#    x 3.708020 0.000000 0.000000 
#    y 0.000000 4.292330 0.000000 
#    z 0.000000 0.000000 3.718470 
# 
# 
# High freq. dielectric constant tensor:
#      x y z
#    x 1.799960 0.000000 0.000000 
#    y 0.000000 1.824290 0.000000 
#    z 0.000000 0.000000 1.807710 
# 
# From -- ./inp_files/18513.got.cif
#   From: 2010.03.12/outbox.cif.g09.slc.cpg/sg57_10_cif.got.tgz:18513.got - 2010.04.16 15:48:40.
