data_PCOD8234161
_publ_section_title
;
Structure prediction by ZEFSAII (Michael W. Deem and Ramdas Pophale) SiO2 
 PCOD8234161
Probable space group: P B C M
;
_chemical_formula_sum "Si O2"
_cell_formula_units_Z 48
_cell_length_a 9.636967
_cell_length_b 27.912678
_cell_length_c 8.638889
_cell_angle_alpha 90.000000
_cell_angle_beta 90.000000
_cell_angle_gamma 90.000000
_cell_volume 2323.805479
_symmetry_space_group_name_H-M "P B C M"
_symmetry_group_IT_number 57
_symmetry_cell_setting 'orthorhombic'
loop_
_space_group_symop_operation_xyz
x,y,z
-x,-y,1/2+z
x,1/2-y,-z
-x,1/2+y,1/2-z
-x,-y,-z
x,y,1/2-z
-x,1/2+y,z
x,1/2-y,1/2+z
loop_
_atom_site_type_symbol
_atom_site_label
_atom_site_fract_x
_atom_site_fract_y
_atom_site_fract_z
Si Si1 0.592520 0.542345 0.066588
Si Si2 0.097412 0.040844 0.933034
Si Si3 0.009357 0.355303 0.075341
Si Si4 0.719142 0.798034 0.422774
Si Si5 0.475003 0.860700 0.065776
Si Si6 0.232269 0.697260 0.069148
O O1 0.597756 0.538578 0.250000
O O2 0.500000 0.500000 0.000000
O O3 0.749595 0.539524 0.005246
O O4 0.514269 0.590389 0.017231
O O5 0.114660 0.035414 0.750000
O O6 0.014354 0.089428 0.975496
O O7 0.000000 0.000000 0.000000
O O8 0.950660 0.349161 0.250000
O O9 0.167336 0.338980 0.066541
O O10 0.922989 0.321913 0.958899
O O11 0.773026 0.750000 0.500000
O O12 0.684139 0.783159 0.250000
O O13 0.579567 0.819671 0.496411
O O14 0.484378 0.868349 0.250000
O O15 0.324225 0.842859 0.015677
O O16 0.265359 0.699537 0.250000
O O17 0.254277 0.750000 0.000000
#
# Coordination Sequence:
#
# PCOD8234161 Si02
#       6
#     8   8   8   8   8   8
#     4  12  26  45  70 100 133 173 220 271 331 397
#     4  11  24  45  70  99 135 173 220 272 332 398
#     4  10  22  43  66  92 129 173 215 268 326 386
#     4  10  21  38  63  93 124 163 208 259 319 381
#     4  11  23  44  68  94 131 172 216 271 329 391
#     4  12  26  43  64  96 133 177 225 272 326 390
#
# _framework density 20.655774000000001
#
# number of rings (size 3 to 8) (size 9 to 14) (size 15 to 20)
#    0.000    1.000    1.667    5.000    2.333    6.000 
#    0.000    0.000    0.000    0.000    0.000    0.000 
#    0.000    0.000    0.000    0.000    0.000    0.000 
#
# Total GULP energy -595270.795303 kJ/mol
# GULP energy per Si atom -12401.474902 kJ/mol
# Density = 2.060876 g / cm^3
# Si number density = 20.655774 Si / 1000 Ang^3
#
#
#
# Elastic Constant Matrix: (Units=GPa)
#
#
# Indices 1 2 3 4 5 6 
#
# 1 89.6117 37.7781 40.0440 0.0000 0.0000 0.0000
# 2 37.7781 141.6936 60.7730 0.0000 0.0000 0.0000
# 3 40.0440 60.7730 120.7829 0.0000 0.0000 0.0000
# 4 0.0000 0.0000 0.0000 37.5794 0.0000 0.0000
# 5 0.0000 0.0000 0.0000 0.0000 36.3350 0.0000
# 6 0.0000 0.0000 0.0000 0.0000 0.0000 37.2948
#
#
#
# Elastic Compliance Matrix: (Units=1/GPa)
#
#
# Indices 1 2 3 4 5 6 
#
# 1 0.013598 -0.002158 -0.003423 0.000000 0.000000 0.000000
# 2 -0.002158 0.009342 -0.003985 0.000000 0.000000 0.000000
# 3 -0.003423 -0.003985 0.011419 0.000000 0.000000 0.000000
# 4 0.000000 0.000000 0.000000 0.026610 0.000000 0.000000
# 5 0.000000 0.000000 0.000000 0.000000 0.027522 0.000000
# 6 0.000000 0.000000 0.000000 0.000000 0.000000 0.026813
#
#
# Mechanical properties :
#
#
# Convention : Reuss Voigt Hill
#
# Bulk Modulus (GPa) = 65.66593 69.91983 67.79288
# Shear Modulus (GPa) = 35.83914 36.47468 36.15691
#
# Velocity S-wave (km/s) = 4.16993 4.20674 4.18838
# Velocity P-wave (km/s) = 7.41917 7.58413 7.50210
#
# Compressibility (1/GPa) = 0.01522860
#
# Stress axis : x y z
#
# Youngs Moduli (GPa) = 73.53845 107.04358 87.57114
#
# Poissons Ratio (x) = 0.23095 0.29974
# Poissons Ratio (y) = 0.15866 0.34899
# Poissons Ratio (z) = 0.25171 0.42659
#
# Static dielectric constant tensor:
#      x y z
#    x 3.760350 0.000000 0.000000 
#    y 0.000000 1.489450 0.000000 
#    z 0.000000 0.000000 3.802930 
# 
# 
# High freq. dielectric constant tensor:
#      x y z
#    x 1.819600 0.000000 0.000000 
#    y 0.000000 1.824780 0.000000 
#    z 0.000000 0.000000 1.811140 
# 
# From -- ./inp_files/2115.got.cif
#   From: 2010.03.12/outbox.cif.g09.slc.cpg/sg57_2_cif.got.tgz:2115.got - 2010.04.16 15:48:40.
