data_PCOD8234135
_publ_section_title
;
Structure prediction by ZEFSAII (Michael W. Deem and Ramdas Pophale) SiO2 
 PCOD8234135
Probable space group: P B C M
;
_chemical_formula_sum "Si O2"
_cell_formula_units_Z 40
_cell_length_a 23.659421
_cell_length_b 8.857154
_cell_length_c 9.349481
_cell_angle_alpha 90.000000
_cell_angle_beta 90.000000
_cell_angle_gamma 90.000000
_cell_volume 1959.231756
_symmetry_space_group_name_H-M "P B C M"
_symmetry_group_IT_number 57
_symmetry_cell_setting 'orthorhombic'
loop_
_space_group_symop_operation_xyz
x,y,z
-x,-y,1/2+z
x,1/2-y,-z
-x,1/2+y,1/2-z
-x,-y,-z
x,y,1/2-z
-x,1/2+y,z
x,1/2-y,1/2+z
loop_
_atom_site_type_symbol
_atom_site_label
_atom_site_fract_x
_atom_site_fract_y
_atom_site_fract_z
Si Si1 0.424886 0.431950 0.750000
Si Si2 0.258300 0.900424 0.587559
Si Si3 0.543428 0.578355 0.750000
Si Si4 0.955398 0.596884 0.414778
Si Si5 0.170242 0.404045 0.585024
Si Si6 0.619024 0.070486 0.021551
O O1 0.476634 0.550246 0.750000
O O2 0.444422 0.257684 0.750000
O O3 0.383617 0.472568 0.620971
O O4 0.266480 0.750000 0.500000
O O5 0.236454 0.875418 0.750000
O O6 0.320804 0.972964 0.593143
O O7 0.213228 0.992327 0.498399
O O8 0.567958 0.493778 0.886391
O O9 0.952194 0.750000 0.500000
O O10 0.974880 0.621259 0.250000
O O11 0.892723 0.522750 0.417959
O O12 0.000000 0.500000 0.500000
O O13 0.169830 0.250000 0.500000
O O14 0.189375 0.379495 0.750000
O O15 0.610749 0.250000 0.000000
#
# Coordination Sequence:
#
# PCOD8234135 Si02
#       6
#     4   8   4   8   8   8
#     4  12  26  40  70  92 128 168 205 266 315 386
#     4  11  24  42  66  92 125 164 210 261 318 381
#     4  12  24  46  62  98 128 162 215 256 319 384
#     4  10  21  38  61  90 125 168 213 264 318 377
#     4  10  22  40  63  92 128 167 212 262 318 375
#     4  11  24  43  66  92 126 167 210 260 322 382
#
# _framework density 20.416163999999998
#
# number of rings (size 3 to 8) (size 9 to 14) (size 15 to 20)
#    0.000    1.200    1.000    4.800    5.600    4.800 
#    0.000    0.000    0.000    0.000    0.000    0.000 
#    0.000    0.000    0.000    0.000    0.000    0.000 
#
# Total GULP energy -495807.650936 kJ/mol
# GULP energy per Si atom -12395.191273 kJ/mol
# Density = 2.036970 g / cm^3
# Si number density = 20.416164 Si / 1000 Ang^3
#
#
#
# Elastic Constant Matrix: (Units=GPa)
#
#
# Indices 1 2 3 4 5 6 
#
# 1 98.5620 35.6760 47.9356 0.0000 0.0000 0.0000
# 2 35.6760 87.5085 35.6204 0.0000 0.0000 0.0000
# 3 47.9356 35.6204 182.5889 0.0000 0.0000 0.0000
# 4 0.0000 0.0000 0.0000 39.7034 0.0000 0.0000
# 5 0.0000 0.0000 0.0000 0.0000 38.9368 0.0000
# 6 0.0000 0.0000 0.0000 0.0000 0.0000 34.4594
#
#
#
# Elastic Compliance Matrix: (Units=1/GPa)
#
#
# Indices 1 2 3 4 5 6 
#
# 1 0.012924 -0.004223 -0.002569 0.000000 0.000000 0.000000
# 2 -0.004223 0.013793 -0.001582 0.000000 0.000000 0.000000
# 3 -0.002569 -0.001582 0.006460 0.000000 0.000000 0.000000
# 4 0.000000 0.000000 0.000000 0.025187 0.000000 0.000000
# 5 0.000000 0.000000 0.000000 0.000000 0.025683 0.000000
# 6 0.000000 0.000000 0.000000 0.000000 0.000000 0.029020
#
#
# Mechanical properties :
#
#
# Convention : Reuss Voigt Hill
#
# Bulk Modulus (GPa) = 60.87057 67.45817 64.16437
# Shear Modulus (GPa) = 36.95733 39.24841 38.10287
#
# Velocity S-wave (km/s) = 4.25926 4.38930 4.32477
# Velocity P-wave (km/s) = 7.35309 7.66819 7.51230
#
# Compressibility (1/GPa) = 0.01642830
#
# Stress axis : x y z
#
# Youngs Moduli (GPa) = 77.37529 72.49945 154.80107
#
# Poissons Ratio (x) = 0.30618 0.39770
# Poissons Ratio (y) = 0.32677 0.24491
# Poissons Ratio (z) = 0.19878 0.11470
#
# Static dielectric constant tensor:
#      x y z
#    x 4.376880 0.000000 0.000000 
#    y 0.000000 3.436480 0.000000 
#    z 0.000000 0.000000 3.880500 
# 
# 
# High freq. dielectric constant tensor:
#      x y z
#    x 1.809150 0.000000 0.000000 
#    y 0.000000 1.785320 0.000000 
#    z 0.000000 0.000000 1.824620 
# 
# From -- ./inp_files/8944.got.cif
#   From: 2010.03.12/outbox.cif.g09.slc.cpg/sg57_5_cif.got.tgz:8944.got - 2010.04.16 15:48:40.
