data_PCOD8234399
_publ_section_title
;
Structure prediction by ZEFSAII (Michael W. Deem and Ramdas Pophale) SiO2 
 PCOD8234399
Probable space group: P B C M
;
_chemical_formula_sum "Si O2"
_cell_formula_units_Z 40
_cell_length_a 11.512193
_cell_length_b 9.168219
_cell_length_c 16.671595
_cell_angle_alpha 90.000000
_cell_angle_beta 90.000000
_cell_angle_gamma 90.000000
_cell_volume 1759.625277
_symmetry_space_group_name_H-M "P B C M"
_symmetry_group_IT_number 57
_symmetry_cell_setting 'orthorhombic'
loop_
_space_group_symop_operation_xyz
x,y,z
-x,-y,1/2+z
x,1/2-y,-z
-x,1/2+y,1/2-z
-x,-y,-z
x,y,1/2-z
-x,1/2+y,z
x,1/2-y,1/2+z
loop_
_atom_site_type_symbol
_atom_site_label
_atom_site_fract_x
_atom_site_fract_y
_atom_site_fract_z
Si Si1 0.754890 0.953019 0.660010
Si Si2 0.573520 0.386610 0.051806
Si Si3 0.364461 0.145672 0.837472
Si Si4 0.863851 0.998750 0.344082
Si Si5 0.035574 0.288534 0.592386
O O1 0.769074 0.022616 0.750000
O O2 0.688469 0.803643 0.670224
O O3 0.879087 0.918887 0.620230
O O4 0.686055 0.054231 0.597752
O O5 0.482274 0.331513 0.116387
O O6 0.616611 0.250000 0.000000
O O7 0.500000 0.500000 0.000000
O O8 0.395258 0.082463 0.750000
O O9 0.266682 0.038470 0.876953
O O10 0.860758 0.032333 0.250000
O O11 0.946384 0.858056 0.356952
O O12 0.908099 0.142688 0.390979
O O13 0.053923 0.250000 0.500000
#
# Coordination Sequence:
#
# PCOD8234399 Si02
#       5
#     8   8   8   8   8
#     4  10  22  42  68  93 132 181 222 267 334 414
#     4  12  24  41  65  97 131 171 219 284 338 392
#     4   9  20  40  65  90 128 178 224 265 331 408
#     4  10  21  41  67  95 131 178 222 269 337 413
#     4  11  23  41  68 100 135 174 226 283 338 394
#
# _framework density 22.732111
#
# number of rings (size 3 to 8) (size 9 to 14) (size 15 to 20)
#    0.000    1.600    2.000    4.200    5.600    0.000 
#    3.600    0.000    0.000    0.000    0.000    0.000 
#    0.000    0.000    0.000    0.000    0.000    0.000 
#
# Total GULP energy -495831.955423 kJ/mol
# GULP energy per Si atom -12395.798886 kJ/mol
# Density = 2.268037 g / cm^3
# Si number density = 22.732111 Si / 1000 Ang^3
#
#
#
# Elastic Constant Matrix: (Units=GPa)
#
#
# Indices 1 2 3 4 5 6 
#
# 1 59.2040 17.1633 36.2184 0.0000 0.0000 0.0000
# 2 17.1633 48.7610 35.6319 0.0000 0.0000 0.0000
# 3 36.2184 35.6319 127.9959 0.0000 0.0000 0.0000
# 4 0.0000 0.0000 0.0000 32.2405 0.0000 0.0000
# 5 0.0000 0.0000 0.0000 0.0000 45.2188 0.0000
# 6 0.0000 0.0000 0.0000 0.0000 0.0000 34.7545
#
#
#
# Elastic Compliance Matrix: (Units=1/GPa)
#
#
# Indices 1 2 3 4 5 6 
#
# 1 0.020980 -0.003825 -0.004872 0.000000 0.000000 0.000000
# 2 -0.003825 0.026443 -0.006279 0.000000 0.000000 0.000000
# 3 -0.004872 -0.006279 0.010939 0.000000 0.000000 0.000000
# 4 0.000000 0.000000 0.000000 0.031017 0.000000 0.000000
# 5 0.000000 0.000000 0.000000 0.000000 0.022115 0.000000
# 6 0.000000 0.000000 0.000000 0.000000 0.000000 0.028773
#
#
# Mechanical properties :
#
#
# Convention : Reuss Voigt Hill
#
# Bulk Modulus (GPa) = 35.19758 45.99867 40.59813
# Shear Modulus (GPa) = 27.82601 32.23926 30.03264
#
# Velocity S-wave (km/s) = 3.50249 3.77002 3.63871
# Velocity P-wave (km/s) = 5.64569 6.26337 5.96253
#
# Compressibility (1/GPa) = 0.02841104
#
# Stress axis : x y z
#
# Youngs Moduli (GPa) = 47.66467 37.81752 91.41361
#
# Poissons Ratio (x) = 0.14464 0.44536
# Poissons Ratio (y) = 0.18230 0.57399
# Poissons Ratio (z) = 0.23222 0.23746
#
# Static dielectric constant tensor:
#      x y z
#    x 4.443590 0.000000 0.000000 
#    y 0.000000 3.859410 0.000000 
#    z 0.000000 0.000000 4.730570 
# 
# 
# High freq. dielectric constant tensor:
#      x y z
#    x 1.896570 0.000000 0.000000 
#    y 0.000000 1.885420 0.000000 
#    z 0.000000 0.000000 1.905460 
# 
# From -- ./inp_files/21622.got.cif
#   From: 2010.03.12/outbox.cif.g09.slc.cpg/sg57_11_cif.got.tgz:21622.got - 2010.04.16 15:48:40.
