data_PCOD8234733
_publ_section_title
;
Structure prediction by ZEFSAII (Michael W. Deem and Ramdas Pophale) SiO2 
 PCOD8234733
Probable space group: P B C M
;
_chemical_formula_sum "Si O2"
_cell_formula_units_Z 44
_cell_length_a 17.398270
_cell_length_b 8.944031
_cell_length_c 14.285045
_cell_angle_alpha 90.000000
_cell_angle_beta 90.000000
_cell_angle_gamma 90.000000
_cell_volume 2222.905370
_symmetry_space_group_name_H-M "P B C M"
_symmetry_group_IT_number 57
_symmetry_cell_setting 'orthorhombic'
loop_
_space_group_symop_operation_xyz
x,y,z
-x,-y,1/2+z
x,1/2-y,-z
-x,1/2+y,1/2-z
-x,-y,-z
x,y,1/2-z
-x,1/2+y,z
x,1/2-y,1/2+z
loop_
_atom_site_type_symbol
_atom_site_label
_atom_site_fract_x
_atom_site_fract_y
_atom_site_fract_z
Si Si1 0.189925 0.174924 0.599678
Si Si2 0.920069 0.314798 0.250000
Si Si3 0.617841 0.017193 0.750000
Si Si4 0.086252 0.171733 0.250000
Si Si5 0.684928 0.799008 0.250000
Si Si6 0.352617 0.765258 0.609539
Si Si7 0.561407 0.038308 0.250000
Si Si8 0.818337 0.335492 0.903822
O O1 0.206402 0.250000 0.500000
O O2 0.130635 0.277111 0.656830
O O3 0.269120 0.158023 0.656304
O O4 0.155598 0.008119 0.586293
O O5 0.921800 0.493743 0.250000
O O6 0.876959 0.252762 0.160274
O O7 0.005288 0.252467 0.250000
O O8 0.639757 0.102944 0.844692
O O9 0.672428 0.876155 0.750000
O O10 0.528683 0.980380 0.750000
O O11 0.602328 0.877939 0.250000
O O12 0.369170 0.750000 0.500000
O O13 0.415369 0.873043 0.656227
O O14 0.268625 0.829579 0.634568
O O15 0.821315 0.250000 0.000000
#
# Coordination Sequence:
#
# PCOD8234733 Si02
#       8
#     8   4   4   4   4   8   4   8
#     4  11  24  42  64  95 128 164 217 264 313 373
#     4  12  23  44  66  97 133 169 207 255 318 372
#     4  11  25  37  65  90 126 165 214 260 325 389
#     4  11  26  41  68  96 134 168 207 258 315 374
#     4  11  23  37  64  91 125 165 208 266 317 371
#     4  10  23  41  64  90 125 167 215 261 316 378
#     4  11  21  45  59  92 126 167 208 269 321 380
#     4  11  23  40  68  93 124 169 215 261 314 375
#
# _framework density 19.793914000000001
#
# number of rings (size 3 to 8) (size 9 to 14) (size 15 to 20)
#    0.000    1.091    1.818    5.455   10.182    1.455 
#    0.000    5.455    0.000    0.000    0.000    0.000 
#    0.000    0.000    0.000    0.000    0.000    0.000 
#
# Total GULP energy -545733.980391 kJ/mol
# GULP energy per Si atom -12403.045009 kJ/mol
# Density = 1.974886 g / cm^3
# Si number density = 19.793914 Si / 1000 Ang^3
#
#
#
# Elastic Constant Matrix: (Units=GPa)
#
#
# Indices 1 2 3 4 5 6 
#
# 1 82.8715 22.7392 33.2647 0.0000 0.0000 0.0000
# 2 22.7392 166.5772 42.7102 0.0000 0.0000 0.0000
# 3 33.2647 42.7102 123.8709 0.0000 0.0000 0.0000
# 4 0.0000 0.0000 0.0000 35.9520 0.0000 0.0000
# 5 0.0000 0.0000 0.0000 0.0000 10.5405 0.0000
# 6 0.0000 0.0000 0.0000 0.0000 0.0000 36.2725
#
#
#
# Elastic Compliance Matrix: (Units=1/GPa)
#
#
# Indices 1 2 3 4 5 6 
#
# 1 0.013679 -0.001015 -0.003323 0.000000 0.000000 0.000000
# 2 -0.001015 0.006661 -0.002024 0.000000 0.000000 0.000000
# 3 -0.003323 -0.002024 0.009663 0.000000 0.000000 0.000000
# 4 0.000000 0.000000 0.000000 0.027815 0.000000 0.000000
# 5 0.000000 0.000000 0.000000 0.000000 0.094872 0.000000
# 6 0.000000 0.000000 0.000000 0.000000 0.000000 0.027569
#
#
# Mechanical properties :
#
#
# Convention : Reuss Voigt Hill
#
# Bulk Modulus (GPa) = 57.87654 63.41641 60.64648
# Shear Modulus (GPa) = 25.15796 34.86003 30.00900
#
# Velocity S-wave (km/s) = 3.56897 4.20116 3.89790
# Velocity P-wave (km/s) = 6.80341 7.45928 7.13888
#
# Compressibility (1/GPa) = 0.01727816
#
# Stress axis : x y z
#
# Youngs Moduli (GPa) = 73.10213 150.13318 103.48457
#
# Poissons Ratio (x) = 0.15242 0.34393
# Poissons Ratio (y) = 0.07422 0.20945
# Poissons Ratio (z) = 0.24295 0.30386
#
# Static dielectric constant tensor:
#      x y z
#    x 3.647080 0.000000 0.000000 
#    y 0.000000 3.814200 0.000000 
#    z 0.000000 0.000000 3.556220 
# 
# 
# High freq. dielectric constant tensor:
#      x y z
#    x 1.770300 0.000000 0.000000 
#    y 0.000000 1.794330 0.000000 
#    z 0.000000 0.000000 1.778670 
# 
# From -- ./inp_files/18913.got.cif
#   From: 2010.03.12/outbox.cif.g09.slc.cpg/sg57_10_cif.got.tgz:18913.got - 2010.04.16 15:48:40.
