data_PCOD8234025
_publ_section_title
;
Structure prediction by ZEFSAII (Michael W. Deem and Ramdas Pophale) SiO2 
 PCOD8234025
Probable space group: P B C M
;
_chemical_formula_sum "Si O2"
_cell_formula_units_Z 56
_cell_length_a 18.460454
_cell_length_b 9.190783
_cell_length_c 16.282429
_cell_angle_alpha 90.000000
_cell_angle_beta 90.000000
_cell_angle_gamma 90.000000
_cell_volume 2762.575035
_symmetry_space_group_name_H-M "P B C M"
_symmetry_group_IT_number 57
_symmetry_cell_setting 'orthorhombic'
loop_
_space_group_symop_operation_xyz
x,y,z
-x,-y,1/2+z
x,1/2-y,-z
-x,1/2+y,1/2-z
-x,-y,-z
x,y,1/2-z
-x,1/2+y,z
x,1/2-y,1/2+z
loop_
_atom_site_type_symbol
_atom_site_label
_atom_site_fract_x
_atom_site_fract_y
_atom_site_fract_z
Si Si1 0.425900 0.354887 0.344898
Si Si2 0.722304 0.737904 0.908185
Si Si3 0.120599 0.755258 0.094165
Si Si4 0.834022 0.554596 0.155080
Si Si5 0.036937 0.249531 0.844097
Si Si6 0.470675 0.627904 0.058090
Si Si7 0.160249 0.459209 0.341814
O O1 0.451808 0.354572 0.250000
O O2 0.342944 0.303401 0.348286
O O3 0.470993 0.231783 0.395362
O O4 0.427641 0.525324 0.376783
O O5 0.759114 0.890891 0.884382
O O6 0.785395 0.617205 0.904846
O O7 0.691166 0.750000 0.000000
O O8 0.159947 0.627664 0.141658
O O9 0.034091 0.754602 0.100748
O O10 0.159019 0.886895 0.138945
O O11 0.142500 0.750000 0.000000
O O12 0.830544 0.595241 0.250000
O O13 0.906743 0.631433 0.120080
O O14 0.013962 0.282217 0.750000
O O15 0.077330 0.094743 0.852225
O O16 0.428122 0.750000 0.000000
O O17 0.500000 0.500000 0.000000
O O18 0.187790 0.424287 0.250000
#
# Coordination Sequence:
#
# PCOD8234025 Si02
#       7
#     8   8   8   8   8   8   8
#     4  11  21  38  64  94 125 162 201 237 284 347
#     4  11  22  39  61  84 113 149 187 231 284 340
#     4  12  23  33  50  79 110 140 182 240 294 338
#     4  10  21  38  57  78 106 145 191 233 281 348
#     4   9  19  35  55  75 100 140 186 232 288 349
#     4   9  19  37  61  92 127 159 195 241 289 331
#     4  10  21  38  56  76 106 145 187 231 283 344
#
# _framework density 20.270942000000002
#
# number of rings (size 3 to 8) (size 9 to 14) (size 15 to 20)
#    0.000    1.714    0.000    6.857    0.000    6.857 
#    0.000    5.000    0.000    0.000    0.000    0.000 
#    0.000    0.000    0.000    0.000    0.000    0.000 
#
# Total GULP energy -693822.399253 kJ/mol
# GULP energy per Si atom -12389.685701 kJ/mol
# Density = 2.022480 g / cm^3
# Si number density = 20.270942 Si / 1000 Ang^3
#
#
#
# Elastic Constant Matrix: (Units=GPa)
#
#
# Indices 1 2 3 4 5 6 
#
# 1 55.6564 14.3725 11.6962 0.0000 0.0000 0.0000
# 2 14.3725 136.2153 29.5803 0.0000 0.0000 0.0000
# 3 11.6962 29.5803 84.5308 0.0000 0.0000 0.0000
# 4 0.0000 0.0000 0.0000 32.4268 0.0000 0.0000
# 5 0.0000 0.0000 0.0000 0.0000 29.2492 0.0000
# 6 0.0000 0.0000 0.0000 0.0000 0.0000 18.6933
#
#
#
# Elastic Compliance Matrix: (Units=1/GPa)
#
#
# Indices 1 2 3 4 5 6 
#
# 1 0.018798 -0.001535 -0.002064 0.000000 0.000000 0.000000
# 2 -0.001535 0.008070 -0.002612 0.000000 0.000000 0.000000
# 3 -0.002064 -0.002612 0.013029 0.000000 0.000000 0.000000
# 4 0.000000 0.000000 0.000000 0.030839 0.000000 0.000000
# 5 0.000000 0.000000 0.000000 0.000000 0.034189 0.000000
# 6 0.000000 0.000000 0.000000 0.000000 0.000000 0.053495
#
#
# Mechanical properties :
#
#
# Convention : Reuss Voigt Hill
#
# Bulk Modulus (GPa) = 36.39519 43.07782 39.73650
# Shear Modulus (GPa) = 27.77772 30.79075 29.28424
#
# Velocity S-wave (km/s) = 3.70580 3.90161 3.80497
# Velocity P-wave (km/s) = 6.02528 6.44934 6.24091
#
# Compressibility (1/GPa) = 0.02747616
#
# Stress axis : x y z
#
# Youngs Moduli (GPa) = 53.19848 123.90861 76.74894
#
# Poissons Ratio (x) = 0.19023 0.15839
# Poissons Ratio (y) = 0.08167 0.20045
# Poissons Ratio (z) = 0.10979 0.32361
#
# Static dielectric constant tensor:
#      x y z
#    x 3.349070 0.000000 0.000000 
#    y 0.000000 3.968730 0.000000 
#    z 0.000000 0.000000 3.747150 
# 
# 
# High freq. dielectric constant tensor:
#      x y z
#    x 1.757370 0.000000 0.000000 
#    y 0.000000 1.806120 0.000000 
#    z 0.000000 0.000000 1.798980 
# 
# From -- ./inp_files/19363.got.cif
#   From: 2010.03.12/outbox.cif.g09.slc.cpg/sg57_10_cif.got.tgz:19363.got - 2010.04.16 15:48:40.
