data_PCOD8234822
_publ_section_title
;
Structure prediction by ZEFSAII (Michael W. Deem and Ramdas Pophale) SiO2 
 PCOD8234822
Probable space group: P B C M
;
_chemical_formula_sum "Si O2"
_cell_formula_units_Z 48
_cell_length_a 10.995291
_cell_length_b 9.312914
_cell_length_c 22.477256
_cell_angle_alpha 90.000000
_cell_angle_beta 90.000000
_cell_angle_gamma 90.000000
_cell_volume 2301.630544
_symmetry_space_group_name_H-M "P B C M"
_symmetry_group_IT_number 57
_symmetry_cell_setting 'orthorhombic'
loop_
_space_group_symop_operation_xyz
x,y,z
-x,-y,1/2+z
x,1/2-y,-z
-x,1/2+y,1/2-z
-x,-y,-z
x,y,1/2-z
-x,1/2+y,z
x,1/2-y,1/2+z
loop_
_atom_site_type_symbol
_atom_site_label
_atom_site_fract_x
_atom_site_fract_y
_atom_site_fract_z
Si Si1 0.553768 0.005308 0.250000
Si Si2 0.885755 0.362123 0.184394
Si Si3 0.147072 0.200588 0.661828
Si Si4 0.175147 0.902715 0.528905
Si Si5 0.265975 0.591698 0.151789
Si Si6 0.902895 0.581343 0.423982
Si Si7 0.338001 0.299144 0.750000
O O1 0.610707 0.069359 0.311131
O O2 0.412723 0.052002 0.250000
O O3 0.565803 0.833364 0.250000
O O4 0.855830 0.426819 0.250000
O O5 0.783400 0.247767 0.167250
O O6 0.889504 0.484672 0.134820
O O7 0.013120 0.275806 0.188575
O O8 0.143392 0.258006 0.593196
O O9 0.251353 0.294410 0.692884
O O10 0.173134 0.033064 0.671056
O O11 0.197602 0.750000 0.500000
O O12 0.279000 0.924775 0.579650
O O13 0.043649 0.908452 0.559513
O O14 0.180492 0.023671 0.477721
#
# Coordination Sequence:
#
# PCOD8234822 Si02
#       7
#     4   8   8   8   8   8   4
#     4  10  24  45  62  88 110 153 201 256 309 354
#     4  12  21  34  56  91 128 159 190 233 299 361
#     4  11  21  36  56  89 121 155 192 246 294 354
#     4  11  21  36  55  86 128 173 196 231 287 350
#     4  11  22  38  59  84 124 159 192 243 298 351
#     4  11  23  33  54  90 131 164 201 226 277 368
#     4  10  24  41  64  84 116 151 199 256 309 350
#
# _framework density 20.854780999999999
#
# number of rings (size 3 to 8) (size 9 to 14) (size 15 to 20)
#    0.000    1.000    6.667    0.000    3.500    2.667 
#    0.000    0.000    0.000    1.000    0.000    0.000 
#    0.000    0.000    0.000    0.000    0.000    0.000 
#
# Total GULP energy -594882.573843 kJ/mol
# GULP energy per Si atom -12393.386955 kJ/mol
# Density = 2.080731 g / cm^3
# Si number density = 20.854781 Si / 1000 Ang^3
#
#
#
# Elastic Constant Matrix: (Units=GPa)
#
#
# Indices 1 2 3 4 5 6 
#
# 1 28.7389 0.9261 12.6493 0.0000 0.0000 0.0000
# 2 0.9261 24.2306 5.2138 0.0000 0.0000 0.0000
# 3 12.6493 5.2138 145.2596 0.0000 0.0000 0.0000
# 4 0.0000 0.0000 0.0000 42.3003 0.0000 0.0000
# 5 0.0000 0.0000 0.0000 0.0000 11.6911 0.0000
# 6 0.0000 0.0000 0.0000 0.0000 0.0000 28.6660
#
#
#
# Elastic Compliance Matrix: (Units=1/GPa)
#
#
# Indices 1 2 3 4 5 6 
#
# 1 0.036195 -0.000711 -0.003126 0.000000 0.000000 0.000000
# 2 -0.000711 0.041605 -0.001431 0.000000 0.000000 0.000000
# 3 -0.003126 -0.001431 0.007208 0.000000 0.000000 0.000000
# 4 0.000000 0.000000 0.000000 0.023640 0.000000 0.000000
# 5 0.000000 0.000000 0.000000 0.000000 0.085535 0.000000
# 6 0.000000 0.000000 0.000000 0.000000 0.000000 0.034885
#
#
# Mechanical properties :
#
#
# Convention : Reuss Voigt Hill
#
# Bulk Modulus (GPa) = 13.42800 26.20082 19.81441
# Shear Modulus (GPa) = 18.90866 28.49414 23.70140
#
# Velocity S-wave (km/s) = 3.01438 3.70038 3.37485
# Velocity P-wave (km/s) = 4.30908 5.55408 4.97071
#
# Compressibility (1/GPa) = 0.07447127
#
# Stress axis : x y z
#
# Youngs Moduli (GPa) = 27.62808 24.03541 138.73752
#
# Poissons Ratio (x) = 0.01708 0.43375
# Poissons Ratio (y) = 0.01963 0.19860
# Poissons Ratio (z) = 0.08638 0.03441
#
# Static dielectric constant tensor:
#      x y z
#    x 3.273280 0.000000 0.000000 
#    y 0.000000 3.886660 0.000000 
#    z 0.000000 0.000000 4.398600 
# 
# 
# High freq. dielectric constant tensor:
#      x y z
#    x 1.755080 0.000000 0.000000 
#    y 0.000000 1.831330 0.000000 
#    z 0.000000 0.000000 1.832290 
# 
# From -- ./inp_files/27128.got.cif
#   From: 2010.03.12/outbox.cif.g09.slc.cpg/sg57_14_cif.got.tgz:27128.got - 2010.04.16 15:48:40.
