data_PCOD8234619
_publ_section_title
;
Structure prediction by ZEFSAII (Michael W. Deem and Ramdas Pophale) SiO2 
 PCOD8234619
Probable space group: P B C M
;
_chemical_formula_sum "Si O2"
_cell_formula_units_Z 64
_cell_length_a 14.338354
_cell_length_b 9.318445
_cell_length_c 23.093246
_cell_angle_alpha 90.000000
_cell_angle_beta 90.000000
_cell_angle_gamma 90.000000
_cell_volume 3085.515459
_symmetry_space_group_name_H-M "P B C M"
_symmetry_group_IT_number 57
_symmetry_cell_setting 'orthorhombic'
loop_
_space_group_symop_operation_xyz
x,y,z
-x,-y,1/2+z
x,1/2-y,-z
-x,1/2+y,1/2-z
-x,-y,-z
x,y,1/2-z
-x,1/2+y,z
x,1/2-y,1/2+z
loop_
_atom_site_type_symbol
_atom_site_label
_atom_site_fract_x
_atom_site_fract_y
_atom_site_fract_z
Si Si1 0.447790 0.612154 0.037297
Si Si2 0.253643 0.913654 0.508817
Si Si3 0.100443 0.949698 0.595353
Si Si4 0.574972 0.220616 0.687205
Si Si5 0.766367 0.534747 0.114999
Si Si6 0.076333 0.261660 0.568671
Si Si7 0.565526 0.581797 0.145506
Si Si8 0.783204 0.255889 0.681230
O O1 0.508265 0.652205 0.092511
O O2 0.427908 0.750000 0.000000
O O3 0.500000 0.500000 0.000000
O O4 0.343142 0.556530 0.050196
O O5 0.226385 0.750000 0.500000
O O6 0.167236 0.983722 0.541112
O O7 0.272156 0.981560 0.446355
O O8 0.154545 0.878854 0.650025
O O9 0.020067 0.844855 0.574532
O O10 0.062400 0.111776 0.604234
O O11 0.592875 0.149784 0.750000
O O12 0.489900 0.333649 0.695715
O O13 0.673897 0.292010 0.668323
O O14 0.548091 0.088855 0.645334
O O15 0.845863 0.651539 0.104793
O O16 0.676533 0.611789 0.145462
O O17 0.804244 0.402494 0.154280
O O18 0.100366 0.250000 0.500000
O O19 0.806544 0.256550 0.750000
#
# Coordination Sequence:
#
# PCOD8234619 Si02
#       8
#     8   8   8   8   8   8   8   8
#     4  11  22  34  53  86 126 166 201 247 317 382
#     4  11  21  37  63  90 128 169 213 262 322 388
#     4  12  24  42  68  96 130 164 215 265 326 393
#     4  10  22  41  64  89 120 169 224 264 311 367
#     4  11  23  41  62  96 131 172 216 263 325 383
#     4  12  26  42  65 101 132 168 208 262 325 397
#     4  11  22  37  58  89 129 167 209 265 313 371
#     4  10  23  45  71  94 125 171 220 272 323 382
#
# _framework density 20.742076999999998
#
# number of rings (size 3 to 8) (size 9 to 14) (size 15 to 20)
#    0.000    1.000    3.750    3.375    3.500    4.000 
#    0.000    3.125    0.000    0.000    0.000    0.000 
#    0.000    0.000    0.000    0.000    0.000    0.000 
#
# Total GULP energy -793041.907504 kJ/mol
# GULP energy per Si atom -12391.279805 kJ/mol
# Density = 2.069487 g / cm^3
# Si number density = 20.742077 Si / 1000 Ang^3
#
#
#
# Elastic Constant Matrix: (Units=GPa)
#
#
# Indices 1 2 3 4 5 6 
#
# 1 126.5057 61.6649 33.1047 0.0000 0.0000 0.0000
# 2 61.6649 108.9261 35.9602 0.0000 0.0000 0.0000
# 3 33.1047 35.9602 88.4304 0.0000 0.0000 0.0000
# 4 0.0000 0.0000 0.0000 23.6346 0.0000 0.0000
# 5 0.0000 0.0000 0.0000 0.0000 22.0737 0.0000
# 6 0.0000 0.0000 0.0000 0.0000 0.0000 39.4588
#
#
#
# Elastic Compliance Matrix: (Units=1/GPa)
#
#
# Indices 1 2 3 4 5 6 
#
# 1 0.011176 -0.005713 -0.001861 0.000000 0.000000 0.000000
# 2 -0.005713 0.013524 -0.003361 0.000000 0.000000 0.000000
# 3 -0.001861 -0.003361 0.013372 0.000000 0.000000 0.000000
# 4 0.000000 0.000000 0.000000 0.042311 0.000000 0.000000
# 5 0.000000 0.000000 0.000000 0.000000 0.045303 0.000000
# 6 0.000000 0.000000 0.000000 0.000000 0.000000 0.025343
#
#
# Mechanical properties :
#
#
# Convention : Reuss Voigt Hill
#
# Bulk Modulus (GPa) = 61.71694 65.03576 63.37635
# Shear Modulus (GPa) = 28.04275 29.90892 28.97583
#
# Velocity S-wave (km/s) = 3.68091 3.80141 3.74165
# Velocity P-wave (km/s) = 6.91986 7.11971 7.02050
#
# Compressibility (1/GPa) = 0.01620301
#
# Stress axis : x y z
#
# Youngs Moduli (GPa) = 89.47380 73.94131 74.78482
#
# Poissons Ratio (x) = 0.42241 0.13917
# Poissons Ratio (y) = 0.51115 0.25135
# Poissons Ratio (z) = 0.16650 0.24851
#
# Static dielectric constant tensor:
#      x y z
#    x 3.869750 0.000000 0.000000 
#    y 0.000000 3.574190 0.000000 
#    z 0.000000 0.000000 3.505380 
# 
# 
# High freq. dielectric constant tensor:
#      x y z
#    x 1.821230 0.000000 0.000000 
#    y 0.000000 1.808030 0.000000 
#    z 0.000000 0.000000 1.803040 
# 
# From -- ./inp_files/27515.got.cif
#   From: 2010.03.12/outbox.cif.g09.slc.cpg/sg57_14_cif.got.tgz:27515.got - 2010.04.16 15:48:40.
