data_PCOD8234788
_publ_section_title
;
Structure prediction by ZEFSAII (Michael W. Deem and Ramdas Pophale) SiO2 
 PCOD8234788
Probable space group: P B C M
;
_chemical_formula_sum "Si O2"
_cell_formula_units_Z 28
_cell_length_a 8.351379
_cell_length_b 10.851449
_cell_length_c 13.946519
_cell_angle_alpha 90.000000
_cell_angle_beta 90.000000
_cell_angle_gamma 90.000000
_cell_volume 1263.897194
_symmetry_space_group_name_H-M "P B C M"
_symmetry_group_IT_number 57
_symmetry_cell_setting 'orthorhombic'
loop_
_space_group_symop_operation_xyz
x,y,z
-x,-y,1/2+z
x,1/2-y,-z
-x,1/2+y,1/2-z
-x,-y,-z
x,y,1/2-z
-x,1/2+y,z
x,1/2-y,1/2+z
loop_
_atom_site_type_symbol
_atom_site_label
_atom_site_fract_x
_atom_site_fract_y
_atom_site_fract_z
Si Si1 0.598840 0.953917 0.910105
Si Si2 0.374487 0.625388 0.250000
Si Si3 0.245665 0.613315 0.750000
Si Si4 0.061495 0.375308 0.949382
Si Si5 0.048317 0.950858 0.750000
O O1 0.482328 0.871734 0.844586
O O2 0.745619 0.872468 0.948277
O O3 0.665621 0.065000 0.845291
O O4 0.500000 0.000000 0.000000
O O5 0.256551 0.741393 0.250000
O O6 0.239771 0.515275 0.250000
O O7 0.058599 0.575021 0.750000
O O8 0.993817 0.369325 0.842476
O O9 0.000038 0.250000 0.000000
O O10 0.000000 0.500000 0.000000
#
# Coordination Sequence:
#
# PCOD8234788 Si02
#       5
#     8   4   4   8   4
#     4  10  23  44  65 101 136 177 231 289 355 422
#     4  11  23  43  72  96 133 187 220 302 358 415
#     4   9  23  41  64  98 135 175 233 281 355 429
#     4  11  26  45  72 106 141 191 240 292 363 437
#     4  10  24  46  66  98 142 180 239 297 353 428
#
# _framework density 22.153701000000002
#
# number of rings (size 3 to 8) (size 9 to 14) (size 15 to 20)
#    0.000    1.714    0.000    2.571   12.000    0.000 
#    0.000    0.000    0.000    0.000    0.000    0.000 
#    0.000    0.000    0.000    0.000    0.000    0.000 
#
# Total GULP energy -347153.051528 kJ/mol
# GULP energy per Si atom -12398.323269 kJ/mol
# Density = 2.210328 g / cm^3
# Si number density = 22.153701 Si / 1000 Ang^3
#
#
#
# Elastic Constant Matrix: (Units=GPa)
#
#
# Indices 1 2 3 4 5 6 
#
# 1 157.7205 44.0656 39.9375 0.0000 0.0000 0.0000
# 2 44.0656 124.1841 53.6039 0.0000 0.0000 0.0000
# 3 39.9375 53.6039 160.3316 0.0000 0.0000 0.0000
# 4 0.0000 0.0000 0.0000 24.9081 0.0000 0.0000
# 5 0.0000 0.0000 0.0000 0.0000 43.5291 0.0000
# 6 0.0000 0.0000 0.0000 0.0000 0.0000 26.1260
#
#
#
# Elastic Compliance Matrix: (Units=1/GPa)
#
#
# Indices 1 2 3 4 5 6 
#
# 1 0.007200 -0.002081 -0.001098 0.000000 0.000000 0.000000
# 2 -0.002081 0.010012 -0.002829 0.000000 0.000000 0.000000
# 3 -0.001098 -0.002829 0.007456 0.000000 0.000000 0.000000
# 4 0.000000 0.000000 0.000000 0.040148 0.000000 0.000000
# 5 0.000000 0.000000 0.000000 0.000000 0.022973 0.000000
# 6 0.000000 0.000000 0.000000 0.000000 0.000000 0.038276
#
#
# Mechanical properties :
#
#
# Convention : Reuss Voigt Hill
#
# Bulk Modulus (GPa) = 79.03347 79.71670 79.37508
# Shear Modulus (GPa) = 35.13760 39.22125 37.17943
#
# Velocity S-wave (km/s) = 3.98689 4.21219 4.10109
# Velocity P-wave (km/s) = 7.54627 7.72777 7.63756
#
# Compressibility (1/GPa) = 0.01265287
#
# Stress axis : x y z
#
# Youngs Moduli (GPa) = 138.89524 99.87914 134.11432
#
# Poissons Ratio (x) = 0.20784 0.14721
# Poissons Ratio (y) = 0.28903 0.37941
# Poissons Ratio (z) = 0.15246 0.28256
#
# Static dielectric constant tensor:
#      x y z
#    x 4.345850 0.000000 0.000000 
#    y 0.000000 3.587020 0.000000 
#    z 0.000000 0.000000 4.087840 
# 
# 
# High freq. dielectric constant tensor:
#      x y z
#    x 1.892470 0.000000 0.000000 
#    y 0.000000 1.841700 0.000000 
#    z 0.000000 0.000000 1.893140 
# 
# From -- ./inp_files/15461.got.cif
#   From: 2010.03.12/outbox.cif.g09.slc.cpg/sg57_8_cif.got.tgz:15461.got - 2010.04.16 15:48:40.
