data_PCOD8234584
_publ_section_title
;
Structure prediction by ZEFSAII (Michael W. Deem and Ramdas Pophale) SiO2 
 PCOD8234584
Probable space group: P B C M
;
_chemical_formula_sum "Si O2"
_cell_formula_units_Z 32
_cell_length_a 4.921622
_cell_length_b 14.166975
_cell_length_c 18.608947
_cell_angle_alpha 90.000000
_cell_angle_beta 90.000000
_cell_angle_gamma 90.000000
_cell_volume 1297.499448
_symmetry_space_group_name_H-M "P B C M"
_symmetry_group_IT_number 57
_symmetry_cell_setting 'orthorhombic'
loop_
_space_group_symop_operation_xyz
x,y,z
-x,-y,1/2+z
x,1/2-y,-z
-x,1/2+y,1/2-z
-x,-y,-z
x,y,1/2-z
-x,1/2+y,z
x,1/2-y,1/2+z
loop_
_atom_site_type_symbol
_atom_site_label
_atom_site_fract_x
_atom_site_fract_y
_atom_site_fract_z
Si Si1 0.770611 0.701496 0.397895
Si Si2 0.527555 0.134441 0.750000
Si Si3 0.580745 0.590838 0.902986
Si Si4 0.257040 0.898599 0.543473
Si Si5 0.032888 0.238138 0.250000
O O1 0.758503 0.814149 0.406662
O O2 0.471571 0.659974 0.408792
O O3 0.968082 0.654210 0.456454
O O4 0.896540 0.675439 0.320006
O O5 0.561137 0.075878 0.675770
O O6 0.721101 0.226830 0.750000
O O7 0.216706 0.168449 0.750000
O O8 0.774592 0.502802 0.922398
O O9 0.337781 0.595513 0.960330
#
# Coordination Sequence:
#
# PCOD8234584 Si02
#       5
#     8   4   8   8   4
#     4  11  24  43  68  97 136 177 216 276 333 384
#     4  10  22  40  66  92 133 176 207 270 334 378
#     4  10  25  45  67 100 136 172 224 275 329 399
#     4  11  26  43  70 100 130 176 226 271 330 399
#     4  10  22  40  64  98 131 172 223 262 320 398
#
# _framework density 24.662824000000001
#
# number of rings (size 3 to 8) (size 9 to 14) (size 15 to 20)
#    0.000    1.500    0.000    3.750    0.000   22.000 
#    0.000    0.000    0.000    0.000    0.000    0.000 
#    0.000    0.000    0.000    0.000    0.000    0.000 
#
# Total GULP energy -396827.045135 kJ/mol
# GULP energy per Si atom -12400.845160 kJ/mol
# Density = 2.460669 g / cm^3
# Si number density = 24.662824 Si / 1000 Ang^3
#
#
#
# Elastic Constant Matrix: (Units=GPa)
#
#
# Indices 1 2 3 4 5 6 
#
# 1 68.5634 38.0836 -6.7073 0.0000 0.0000 0.0000
# 2 38.0836 144.5165 46.9126 0.0000 0.0000 0.0000
# 3 -6.7073 46.9126 155.8165 0.0000 0.0000 0.0000
# 4 0.0000 0.0000 0.0000 27.3021 0.0000 0.0000
# 5 0.0000 0.0000 0.0000 0.0000 20.7858 0.0000
# 6 0.0000 0.0000 0.0000 0.0000 0.0000 22.3525
#
#
#
# Elastic Compliance Matrix: (Units=1/GPa)
#
#
# Indices 1 2 3 4 5 6 
#
# 1 0.017876 -0.005498 0.002425 0.000000 0.000000 0.000000
# 2 -0.005498 0.009360 -0.003055 0.000000 0.000000 0.000000
# 3 0.002425 -0.003055 0.007442 0.000000 0.000000 0.000000
# 4 0.000000 0.000000 0.000000 0.036627 0.000000 0.000000
# 5 0.000000 0.000000 0.000000 0.000000 0.048110 0.000000
# 6 0.000000 0.000000 0.000000 0.000000 0.000000 0.044738
#
#
# Mechanical properties :
#
#
# Convention : Reuss Voigt Hill
#
# Bulk Modulus (GPa) = 44.59849 58.38602 51.49225
# Shear Modulus (GPa) = 27.19127 33.46192 30.32659
#
# Velocity S-wave (km/s) = 3.32402 3.68744 3.51044
# Velocity P-wave (km/s) = 5.73190 6.46952 6.11185
#
# Compressibility (1/GPa) = 0.02242229
#
# Stress axis : x y z
#
# Youngs Moduli (GPa) = 55.94072 106.83670 134.37440
#
# Poissons Ratio (x) = 0.58738 -0.32583
# Poissons Ratio (y) = 0.30756 0.41048
# Poissons Ratio (z) = -0.13564 0.32636
#
# Static dielectric constant tensor:
#      x y z
#    x 4.084130 0.000000 0.000000 
#    y 0.000000 4.328300 0.000000 
#    z 0.000000 0.000000 5.282370 
# 
# 
# High freq. dielectric constant tensor:
#      x y z
#    x 1.974250 0.000000 0.000000 
#    y 0.000000 1.960250 0.000000 
#    z 0.000000 0.000000 2.007650 
# 
# From -- ./inp_files/19870.got.cif
#   From: 2010.03.12/outbox.cif.g09.slc.cpg/sg57_10_cif.got.tgz:19870.got - 2010.04.16 15:48:40.
