data_PCOD8234401
_publ_section_title
;
Structure prediction by ZEFSAII (Michael W. Deem and Ramdas Pophale) SiO2 
 PCOD8234401
Probable space group: P B C M
;
_chemical_formula_sum "Si O2"
_cell_formula_units_Z 56
_cell_length_a 14.104691
_cell_length_b 10.643433
_cell_length_c 16.946156
_cell_angle_alpha 90.000000
_cell_angle_beta 90.000000
_cell_angle_gamma 90.000000
_cell_volume 2543.996485
_symmetry_space_group_name_H-M "P B C M"
_symmetry_group_IT_number 57
_symmetry_cell_setting 'orthorhombic'
loop_
_space_group_symop_operation_xyz
x,y,z
-x,-y,1/2+z
x,1/2-y,-z
-x,1/2+y,1/2-z
-x,-y,-z
x,y,1/2-z
-x,1/2+y,z
x,1/2-y,1/2+z
loop_
_atom_site_type_symbol
_atom_site_label
_atom_site_fract_x
_atom_site_fract_y
_atom_site_fract_z
Si Si1 0.919038 0.626479 0.944864
Si Si2 0.124050 0.942591 0.078104
Si Si3 0.288346 0.433036 0.659517
Si Si4 0.612402 0.795785 0.088128
Si Si5 0.584916 0.343461 0.339448
Si Si6 0.223824 0.774977 0.661493
Si Si7 0.237654 0.441555 0.158875
O O1 0.841026 0.653807 0.877491
O O2 0.015221 0.586900 0.899023
O O3 0.933872 0.750000 0.000000
O O4 0.880187 0.502270 0.990783
O O5 0.178096 0.809831 0.092028
O O6 0.181447 0.048090 0.127257
O O7 0.280951 0.466358 0.750000
O O8 0.330181 0.296450 0.645963
O O9 0.364612 0.532548 0.624026
O O10 0.501665 0.804038 0.105085
O O11 0.664616 0.927387 0.108047
O O12 0.629937 0.750000 0.000000
O O13 0.547339 0.365086 0.250000
O O14 0.661790 0.232040 0.342100
O O15 0.190823 0.730554 0.750000
O O16 0.196652 0.918743 0.648283
O O17 0.255503 0.407970 0.250000
#
# Coordination Sequence:
#
# PCOD8234401 Si02
#       7
#     8   8   8   8   8   8   8
#     4  11  25  42  65  99 132 170 212 266 337 399
#     4  10  22  41  68  94 130 169 211 263 325 394
#     4  10  21  41  68  93 122 174 222 264 322 384
#     4  12  25  41  60  95 136 169 216 272 332 393
#     4   9  20  40  64  91 124 167 218 266 321 386
#     4   9  21  42  67  96 130 174 225 270 319 383
#     4  11  24  42  65  93 127 172 220 275 329 381
#
# _framework density 22.012609000000001
#
# number of rings (size 3 to 8) (size 9 to 14) (size 15 to 20)
#    0.000    1.714    0.000    4.714    6.000    1.714 
#    5.143    0.714    0.000    0.000    0.000    0.000 
#    0.000    0.000    0.000    0.000    0.000    0.000 
#
# Total GULP energy -693890.428521 kJ/mol
# GULP energy per Si atom -12390.900509 kJ/mol
# Density = 2.196251 g / cm^3
# Si number density = 22.012609 Si / 1000 Ang^3
#
#
#
# Elastic Constant Matrix: (Units=GPa)
#
#
# Indices 1 2 3 4 5 6 
#
# 1 142.6191 32.3253 56.0273 0.0000 0.0000 0.0000
# 2 32.3253 80.1868 32.7929 0.0000 0.0000 0.0000
# 3 56.0273 32.7929 85.3969 0.0000 0.0000 0.0000
# 4 0.0000 0.0000 0.0000 29.3906 0.0000 0.0000
# 5 0.0000 0.0000 0.0000 0.0000 32.4135 0.0000
# 6 0.0000 0.0000 0.0000 0.0000 0.0000 28.8701
#
#
#
# Elastic Compliance Matrix: (Units=1/GPa)
#
#
# Indices 1 2 3 4 5 6 
#
# 1 0.009603 -0.001536 -0.005711 0.000000 0.000000 0.000000
# 2 -0.001536 0.015040 -0.004768 0.000000 0.000000 0.000000
# 3 -0.005711 -0.004768 0.017288 0.000000 0.000000 0.000000
# 4 0.000000 0.000000 0.000000 0.034024 0.000000 0.000000
# 5 0.000000 0.000000 0.000000 0.000000 0.030851 0.000000
# 6 0.000000 0.000000 0.000000 0.000000 0.000000 0.034638
#
#
# Mechanical properties :
#
#
# Convention : Reuss Voigt Hill
#
# Bulk Modulus (GPa) = 55.85972 61.16598 58.51285
# Shear Modulus (GPa) = 29.16468 30.60533 29.88501
#
# Velocity S-wave (km/s) = 3.64388 3.73279 3.68860
# Velocity P-wave (km/s) = 6.56773 6.81362 6.69181
#
# Compressibility (1/GPa) = 0.01790199
#
# Stress axis : x y z
#
# Youngs Moduli (GPa) = 104.13175 66.49014 57.84509
#
# Poissons Ratio (x) = 0.10212 0.33034
# Poissons Ratio (y) = 0.15993 0.27579
# Poissons Ratio (z) = 0.59467 0.31701
#
# Static dielectric constant tensor:
#      x y z
#    x 3.986960 0.000000 0.000000 
#    y 0.000000 4.001340 0.000000 
#    z 0.000000 0.000000 3.784260 
# 
# 
# High freq. dielectric constant tensor:
#      x y z
#    x 1.868150 0.000000 0.000000 
#    y 0.000000 1.869760 0.000000 
#    z 0.000000 0.000000 1.852210 
# 
# From -- ./inp_files/18520.got.cif
#   From: 2010.03.12/outbox.cif.g09.slc.cpg/sg57_10_cif.got.tgz:18520.got - 2010.04.16 15:48:40.
