data_PCOD8234816
_publ_section_title
;
Structure prediction by ZEFSAII (Michael W. Deem and Ramdas Pophale) SiO2 
 PCOD8234816
Probable space group: P B C M
;
_chemical_formula_sum "Si O2"
_cell_formula_units_Z 36
_cell_length_a 21.015629
_cell_length_b 9.000452
_cell_length_c 8.988678
_cell_angle_alpha 90.000000
_cell_angle_beta 90.000000
_cell_angle_gamma 90.000000
_cell_volume 1700.209882
_symmetry_space_group_name_H-M "P B C M"
_symmetry_group_IT_number 57
_symmetry_cell_setting 'orthorhombic'
loop_
_space_group_symop_operation_xyz
x,y,z
-x,-y,1/2+z
x,1/2-y,-z
-x,1/2+y,1/2-z
-x,-y,-z
x,y,1/2-z
-x,1/2+y,z
x,1/2-y,1/2+z
loop_
_atom_site_type_symbol
_atom_site_label
_atom_site_fract_x
_atom_site_fract_y
_atom_site_fract_z
Si Si1 0.557975 0.588733 0.929999
Si Si2 0.330182 0.909560 0.425832
Si Si3 0.990496 0.250000 0.000000
Si Si4 0.791531 0.598353 0.420273
Si Si5 0.911531 0.516874 0.906573
O O1 0.554604 0.592599 0.750000
O O2 0.554068 0.750000 0.000000
O O3 0.500000 0.500000 0.000000
O O4 0.623084 0.516723 0.985181
O O5 0.335615 0.750000 0.500000
O O6 0.347273 0.902775 0.250000
O O7 0.259368 0.970188 0.452992
O O8 0.035013 0.355318 0.098772
O O9 0.944775 0.143481 0.094285
O O10 0.772100 0.750000 0.500000
O O11 0.793842 0.640635 0.250000
O O12 0.861261 0.538224 0.462304
O O13 0.874097 0.529026 0.750000
#
# Coordination Sequence:
#
# PCOD8234816 Si02
#       5
#     8   8   4   8   8
#     4  12  25  44  71 104 142 184 227 276 327 387
#     4  11  25  45  68  99 135 176 222 275 329 392
#     4  10  24  40  62  96 124 162 208 266 324 394
#     4  11  25  43  65  93 127 168 217 268 328 392
#     4  11  23  41  65  91 125 165 211 265 325 392
#
# _framework density 21.173857999999999
#
# number of rings (size 3 to 8) (size 9 to 14) (size 15 to 20)
#    0.000    0.889    1.111    5.333    1.556    9.778 
#    0.000    0.000    0.000    0.000    0.000    0.000 
#    0.000    0.000    0.000    0.000    0.000    0.000 
#
# Total GULP energy -446326.645622 kJ/mol
# GULP energy per Si atom -12397.962378 kJ/mol
# Density = 2.112567 g / cm^3
# Si number density = 21.173858 Si / 1000 Ang^3
#
#
#
# Elastic Constant Matrix: (Units=GPa)
#
#
# Indices 1 2 3 4 5 6 
#
# 1 100.3994 55.4691 54.5210 0.0000 0.0000 0.0000
# 2 55.4691 175.2219 68.8134 0.0000 0.0000 0.0000
# 3 54.5210 68.8134 163.7435 0.0000 0.0000 0.0000
# 4 0.0000 0.0000 0.0000 29.5468 0.0000 0.0000
# 5 0.0000 0.0000 0.0000 0.0000 28.7074 0.0000
# 6 0.0000 0.0000 0.0000 0.0000 0.0000 30.7596
#
#
#
# Elastic Compliance Matrix: (Units=1/GPa)
#
#
# Indices 1 2 3 4 5 6 
#
# 1 0.013333 -0.002967 -0.003193 0.000000 0.000000 0.000000
# 2 -0.002967 0.007495 -0.002162 0.000000 0.000000 0.000000
# 3 -0.003193 -0.002162 0.008079 0.000000 0.000000 0.000000
# 4 0.000000 0.000000 0.000000 0.033845 0.000000 0.000000
# 5 0.000000 0.000000 0.000000 0.000000 0.034834 0.000000
# 6 0.000000 0.000000 0.000000 0.000000 0.000000 0.032510
#
#
# Mechanical properties :
#
#
# Convention : Reuss Voigt Hill
#
# Bulk Modulus (GPa) = 81.53948 88.55241 85.04595
# Shear Modulus (GPa) = 33.15044 35.17351 34.16197
#
# Velocity S-wave (km/s) = 3.96110 4.08017 4.02108
# Velocity P-wave (km/s) = 7.71450 8.00684 7.86203
#
# Compressibility (1/GPa) = 0.01226400
#
# Stress axis : x y z
#
# Youngs Moduli (GPa) = 75.00100 133.41566 123.78173
#
# Poissons Ratio (x) = 0.39584 0.39519
# Poissons Ratio (y) = 0.22253 0.26762
# Poissons Ratio (z) = 0.23945 0.28845
#
# Static dielectric constant tensor:
#      x y z
#    x 3.839950 0.000000 0.000000 
#    y 0.000000 3.929490 0.000000 
#    z 0.000000 0.000000 4.118390 
# 
# 
# High freq. dielectric constant tensor:
#      x y z
#    x 1.835650 0.000000 0.000000 
#    y 0.000000 1.849710 0.000000 
#    z 0.000000 0.000000 1.843950 
# 
# From -- ./inp_files/7624.got.cif
#   From: 2010.03.12/outbox.cif.g09.slc.cpg/sg57_4_cif.got.tgz:7624.got - 2010.04.16 15:48:40.
