data_PCOD8234086
_publ_section_title
;
Structure prediction by ZEFSAII (Michael W. Deem and Ramdas Pophale) SiO2 
 PCOD8234086
Probable space group: P B C M
;
_chemical_formula_sum "Si O2"
_cell_formula_units_Z 32
_cell_length_a 20.460232
_cell_length_b 9.167640
_cell_length_c 8.592709
_cell_angle_alpha 90.000000
_cell_angle_beta 90.000000
_cell_angle_gamma 90.000000
_cell_volume 1611.751967
_symmetry_space_group_name_H-M "P B C M"
_symmetry_group_IT_number 57
_symmetry_cell_setting 'orthorhombic'
loop_
_space_group_symop_operation_xyz
x,y,z
-x,-y,1/2+z
x,1/2-y,-z
-x,1/2+y,1/2-z
-x,-y,-z
x,y,1/2-z
-x,1/2+y,z
x,1/2-y,1/2+z
loop_
_atom_site_type_symbol
_atom_site_label
_atom_site_fract_x
_atom_site_fract_y
_atom_site_fract_z
Si Si1 0.806107 0.592846 0.931335
Si Si2 0.321654 0.910846 0.568144
Si Si3 0.940761 0.909852 0.933602
Si Si4 0.439690 0.088685 0.433609
O O1 0.820021 0.614683 0.750000
O O2 0.749391 0.477328 0.963646
O O3 0.786357 0.750000 0.000000
O O4 0.870920 0.526242 0.011650
O O5 0.324344 0.750000 0.500000
O O6 0.338976 0.907448 0.750000
O O7 0.372869 0.011310 0.479837
O O8 0.944400 0.909467 0.750000
O O9 0.947652 0.750000 0.000000
O O10 0.000000 0.000000 0.000000
O O11 0.440701 0.250000 0.500000
O O12 0.445763 0.096586 0.250000
O O13 0.500000 0.000000 0.500000
#
# Coordination Sequence:
#
# PCOD8234086 Si02
#       4
#     8   8   8   8
#     4  10  21  38  60  86 117 154 198 245 297 355
#     4  11  24  41  62  90 123 159 200 246 297 352
#     4  11  22  38  60  86 118 155 198 245 297 355
#     4  12  25  43  66  92 124 160 201 246 296 352
#
# _framework density 19.854171999999998
#
# number of rings (size 3 to 8) (size 9 to 14) (size 15 to 20)
#    0.000    1.000    0.000    9.000    0.000    7.000 
#    0.000    2.500    0.000    0.000    0.000    0.000 
#    0.000    0.000    0.000    0.000    0.000    0.000 
#
# Total GULP energy -396951.841445 kJ/mol
# GULP energy per Si atom -12404.745045 kJ/mol
# Density = 1.980898 g / cm^3
# Si number density = 19.854172 Si / 1000 Ang^3
#
#
#
# Elastic Constant Matrix: (Units=GPa)
#
#
# Indices 1 2 3 4 5 6 
#
# 1 144.6062 81.0652 87.1874 0.0000 0.0000 0.0000
# 2 81.0652 140.6242 74.5048 0.0000 0.0000 0.0000
# 3 87.1874 74.5048 201.3512 0.0000 0.0000 0.0000
# 4 0.0000 0.0000 0.0000 39.4680 0.0000 0.0000
# 5 0.0000 0.0000 0.0000 0.0000 39.2467 0.0000
# 6 0.0000 0.0000 0.0000 0.0000 0.0000 47.3373
#
#
#
# Elastic Compliance Matrix: (Units=1/GPa)
#
#
# Indices 1 2 3 4 5 6 
#
# 1 0.011657 -0.005032 -0.003186 0.000000 0.000000 0.000000
# 2 -0.005032 0.011017 -0.001898 0.000000 0.000000 0.000000
# 3 -0.003186 -0.001898 0.007048 0.000000 0.000000 0.000000
# 4 0.000000 0.000000 0.000000 0.025337 0.000000 0.000000
# 5 0.000000 0.000000 0.000000 0.000000 0.025480 0.000000
# 6 0.000000 0.000000 0.000000 0.000000 0.000000 0.021125
#
#
# Mechanical properties :
#
#
# Convention : Reuss Voigt Hill
#
# Bulk Modulus (GPa) = 105.35664 108.01071 106.68368
# Shear Modulus (GPa) = 39.98110 41.46536 40.72323
#
# Velocity S-wave (km/s) = 4.49234 4.57496 4.53384
# Velocity P-wave (km/s) = 8.94922 9.07894 9.01432
#
# Compressibility (1/GPa) = 0.00949157
#
# Stress axis : x y z
#
# Youngs Moduli (GPa) = 85.78551 90.76510 141.88270
#
# Poissons Ratio (x) = 0.45674 0.45198
# Poissons Ratio (y) = 0.43168 0.26926
# Poissons Ratio (z) = 0.27328 0.17225
#
# Static dielectric constant tensor:
#      x y z
#    x 3.666030 0.000000 0.000000 
#    y 0.000000 3.623460 0.000000 
#    z 0.000000 0.000000 3.932320 
# 
# 
# High freq. dielectric constant tensor:
#      x y z
#    x 1.795400 0.000000 0.000000 
#    y 0.000000 1.778280 0.000000 
#    z 0.000000 0.000000 1.799560 
# 
# From -- ./inp_files/7528.got.cif
#   From: 2010.03.12/outbox.cif.g09.slc.cpg/sg57_4_cif.got.tgz:7528.got - 2010.04.16 15:48:40.
