data_PCOD8234163
_publ_section_title
;
Structure prediction by ZEFSAII (Michael W. Deem and Ramdas Pophale) SiO2 
 PCOD8234163
Probable space group: P B C M
;
_chemical_formula_sum "Si O2"
_cell_formula_units_Z 52
_cell_length_a 19.414908
_cell_length_b 8.135062
_cell_length_c 16.005101
_cell_angle_alpha 90.000000
_cell_angle_beta 90.000000
_cell_angle_gamma 90.000000
_cell_volume 2527.869344
_symmetry_space_group_name_H-M "P B C M"
_symmetry_group_IT_number 57
_symmetry_cell_setting 'orthorhombic'
loop_
_space_group_symop_operation_xyz
x,y,z
-x,-y,1/2+z
x,1/2-y,-z
-x,1/2+y,1/2-z
-x,-y,-z
x,y,1/2-z
-x,1/2+y,z
x,1/2-y,1/2+z
loop_
_atom_site_type_symbol
_atom_site_label
_atom_site_fract_x
_atom_site_fract_y
_atom_site_fract_z
Si Si1 0.949578 0.594484 0.342619
Si Si2 0.365465 0.250000 0.500000
Si Si3 0.141448 0.568923 0.983991
Si Si4 0.465442 0.041457 0.586820
Si Si5 0.296666 0.914351 0.051137
Si Si6 0.589990 0.286381 0.157524
Si Si7 0.096130 0.034831 0.842868
O O1 0.930745 0.519666 0.250000
O O2 0.910866 0.512508 0.419890
O O3 0.031307 0.584569 0.357261
O O4 0.931783 0.783253 0.343309
O O5 0.414564 0.199309 0.578039
O O6 0.319379 0.410309 0.514835
O O7 0.214933 0.571795 0.937224
O O8 0.113585 0.750000 0.000000
O O9 0.147069 0.485173 0.076964
O O10 0.525147 0.089155 0.651514
O O11 0.500000 0.000000 0.500000
O O12 0.421368 0.880429 0.606729
O O13 0.340005 0.884413 0.135139
O O14 0.315120 0.750000 0.000000
O O15 0.599141 0.224383 0.250000
O O16 0.130148 0.998669 0.750000
#
# Coordination Sequence:
#
# PCOD8234163 Si02
#       7
#     8   4   8   8   8   8   8
#     4  10  21  38  63  93 127 163 209 263 327 379
#     4  12  22  38  72  86 120 164 216 258 306 382
#     4  11  24  39  63  89 124 169 216 256 313 387
#     4  12  20  38  67  93 119 166 210 257 320 383
#     4  11  24  43  63  89 123 173 218 251 314 386
#     4  12  23  39  62  98 134 160 209 273 326 381
#     4  10  21  39  63  93 125 161 208 270 318 375
#
# _framework density 20.570684
#
# number of rings (size 3 to 8) (size 9 to 14) (size 15 to 20)
#    0.000    0.923    4.615    2.308    2.154    2.462 
#    0.000    3.077    0.000    0.000    0.000    0.000 
#    0.000    0.000    0.000    0.000    0.000    0.000 
#
# Total GULP energy -644236.635907 kJ/mol
# GULP energy per Si atom -12389.166075 kJ/mol
# Density = 2.052386 g / cm^3
# Si number density = 20.570684 Si / 1000 Ang^3
#
#
#
# Elastic Constant Matrix: (Units=GPa)
#
#
# Indices 1 2 3 4 5 6 
#
# 1 67.9844 17.2222 29.6877 0.0000 0.0000 0.0000
# 2 17.2222 101.4643 22.3304 0.0000 0.0000 0.0000
# 3 29.6877 22.3304 111.7578 0.0000 0.0000 0.0000
# 4 0.0000 0.0000 0.0000 24.8409 0.0000 0.0000
# 5 0.0000 0.0000 0.0000 0.0000 16.4701 0.0000
# 6 0.0000 0.0000 0.0000 0.0000 0.0000 32.9416
#
#
#
# Elastic Compliance Matrix: (Units=1/GPa)
#
#
# Indices 1 2 3 4 5 6 
#
# 1 0.017011 -0.001980 -0.004123 0.000000 0.000000 0.000000
# 2 -0.001980 0.010539 -0.001580 0.000000 0.000000 0.000000
# 3 -0.004123 -0.001580 0.010359 0.000000 0.000000 0.000000
# 4 0.000000 0.000000 0.000000 0.040256 0.000000 0.000000
# 5 0.000000 0.000000 0.000000 0.000000 0.060716 0.000000
# 6 0.000000 0.000000 0.000000 0.000000 0.000000 0.030357
#
#
# Mechanical properties :
#
#
# Convention : Reuss Voigt Hill
#
# Bulk Modulus (GPa) = 44.35902 46.63190 45.49546
# Shear Modulus (GPa) = 26.02540 28.98159 27.50349
#
# Velocity S-wave (km/s) = 3.56078 3.75757 3.66050
# Velocity P-wave (km/s) = 6.20617 6.44547 6.32695
#
# Compressibility (1/GPa) = 0.02254333
#
# Stress axis : x y z
#
# Youngs Moduli (GPa) = 58.78395 94.88141 96.53496
#
# Poissons Ratio (x) = 0.18786 0.39805
# Poissons Ratio (y) = 0.11639 0.15252
# Poissons Ratio (z) = 0.24239 0.14991
#
# Static dielectric constant tensor:
#      x y z
#    x 3.910560 0.000000 0.000000 
#    y 0.000000 4.464660 0.000000 
#    z 0.000000 0.000000 4.204450 
# 
# 
# High freq. dielectric constant tensor:
#      x y z
#    x 1.789720 0.000000 0.000000 
#    y 0.000000 1.824230 0.000000 
#    z 0.000000 0.000000 1.794300 
# 
# From -- ./inp_files/19296.got.cif
#   From: 2010.03.12/outbox.cif.g09.slc.cpg/sg57_10_cif.got.tgz:19296.got - 2010.04.16 15:48:40.
