data_PCOD8234060
_publ_section_title
;
Structure prediction by ZEFSAII (Michael W. Deem and Ramdas Pophale) SiO2 
 PCOD8234060
Probable space group: P B C M
;
_chemical_formula_sum "Si O2"
_cell_formula_units_Z 48
_cell_length_a 16.225304
_cell_length_b 18.065549
_cell_length_c 8.841208
_cell_angle_alpha 90.000000
_cell_angle_beta 90.000000
_cell_angle_gamma 90.000000
_cell_volume 2591.526264
_symmetry_space_group_name_H-M "P B C M"
_symmetry_group_IT_number 57
_symmetry_cell_setting 'orthorhombic'
loop_
_space_group_symop_operation_xyz
x,y,z
-x,-y,1/2+z
x,1/2-y,-z
-x,1/2+y,1/2-z
-x,-y,-z
x,y,1/2-z
-x,1/2+y,z
x,1/2-y,1/2+z
loop_
_atom_site_type_symbol
_atom_site_label
_atom_site_fract_x
_atom_site_fract_y
_atom_site_fract_z
Si Si1 0.768559 0.456524 0.922767
Si Si2 0.329170 0.102638 0.578076
Si Si3 0.493366 0.419791 0.927963
Si Si4 0.351111 0.671186 0.427207
Si Si5 0.158835 0.327743 0.070866
Si Si6 0.082772 0.469844 0.571451
O O1 0.801252 0.457851 0.750000
O O2 0.697193 0.517461 0.941285
O O3 0.728877 0.378146 0.966846
O O4 0.844332 0.472550 0.033590
O O5 0.355474 0.118724 0.750000
O O6 0.406950 0.118958 0.471309
O O7 0.253869 0.155478 0.528912
O O8 0.500461 0.429486 0.750000
O O9 0.566383 0.367708 0.990964
O O10 0.500000 0.500000 0.000000
O O11 0.336981 0.750000 0.500000
O O12 0.360257 0.681745 0.250000
O O13 0.145602 0.327651 0.250000
O O14 0.132519 0.250000 0.000000
O O15 0.100537 0.389831 0.999648
O O16 0.073562 0.462126 0.750000
O O17 0.000000 0.500000 0.500000
#
# Coordination Sequence:
#
# PCOD8234060 Si02
#       6
#     8   8   8   8   8   8
#     4   9  18  37  58  78 110 145 181 229 283 335
#     4   9  18  34  55  79 109 145 185 230 280 332
#     4  11  21  34  53  78 109 148 194 239 283 333
#     4  10  22  38  54  77 111 148 188 235 286 331
#     4  10  21  38  59  85 120 154 187 233 288 339
#     4  11  22  38  62  91 117 147 190 231 279 341
#
# _framework density 18.521903999999999
#
# number of rings (size 3 to 8) (size 9 to 14) (size 15 to 20)
#    0.000    2.000    1.667    3.500    0.000    6.000 
#    0.000    4.167    0.000    2.000    0.000    0.000 
#    0.000    0.000    0.000    0.000    0.000    0.000 
#
# Total GULP energy -595311.846788 kJ/mol
# GULP energy per Si atom -12402.330141 kJ/mol
# Density = 1.847975 g / cm^3
# Si number density = 18.521904 Si / 1000 Ang^3
#
#
#
# Elastic Constant Matrix: (Units=GPa)
#
#
# Indices 1 2 3 4 5 6 
#
# 1 106.8391 62.5036 52.7225 0.0000 0.0000 0.0000
# 2 62.5036 143.1998 53.9077 0.0000 0.0000 0.0000
# 3 52.7225 53.9077 95.9541 0.0000 0.0000 0.0000
# 4 0.0000 0.0000 0.0000 33.1343 0.0000 0.0000
# 5 0.0000 0.0000 0.0000 0.0000 34.5564 0.0000
# 6 0.0000 0.0000 0.0000 0.0000 0.0000 20.5782
#
#
#
# Elastic Compliance Matrix: (Units=1/GPa)
#
#
# Indices 1 2 3 4 5 6 
#
# 1 0.014643 -0.004264 -0.005650 0.000000 0.000000 0.000000
# 2 -0.004264 0.010098 -0.003330 0.000000 0.000000 0.000000
# 3 -0.005650 -0.003330 0.015397 0.000000 0.000000 0.000000
# 4 0.000000 0.000000 0.000000 0.030180 0.000000 0.000000
# 5 0.000000 0.000000 0.000000 0.000000 0.028938 0.000000
# 6 0.000000 0.000000 0.000000 0.000000 0.000000 0.048595
#
#
# Mechanical properties :
#
#
# Convention : Reuss Voigt Hill
#
# Bulk Modulus (GPa) = 73.26455 76.02896 74.64676
# Shear Modulus (GPa) = 27.95023 29.44438 28.69730
#
# Velocity S-wave (km/s) = 3.88885 3.99144 3.94048
# Velocity P-wave (km/s) = 7.73341 7.89806 7.81617
#
# Compressibility (1/GPa) = 0.01364917
#
# Stress axis : x y z
#
# Youngs Moduli (GPa) = 68.29381 99.02774 64.94836
#
# Poissons Ratio (x) = 0.42229 0.36694
# Poissons Ratio (y) = 0.29123 0.21629
# Poissons Ratio (z) = 0.38584 0.32978
#
# Static dielectric constant tensor:
#      x y z
#    x 3.458130 0.000000 0.000000 
#    y 0.000000 3.441310 0.000000 
#    z 0.000000 0.000000 3.443790 
# 
# 
# High freq. dielectric constant tensor:
#      x y z
#    x 1.715030 0.000000 0.000000 
#    y 0.000000 1.713090 0.000000 
#    z 0.000000 0.000000 1.719530 
# 
# From -- ./inp_files/4621.got.cif
#   From: 2010.03.12/outbox.cif.g09.slc.cpg/sg57_3_cif.got.tgz:4621.got - 2010.04.16 15:48:40.
