data_PCOD8234697
_publ_section_title
;
Structure prediction by ZEFSAII (Michael W. Deem and Ramdas Pophale) SiO2 
 PCOD8234697
Probable space group: P B C M
;
_chemical_formula_sum "Si O2"
_cell_formula_units_Z 64
_cell_length_a 10.107128
_cell_length_b 14.180248
_cell_length_c 21.087218
_cell_angle_alpha 90.000000
_cell_angle_beta 90.000000
_cell_angle_gamma 90.000000
_cell_volume 3022.253435
_symmetry_space_group_name_H-M "P B C M"
_symmetry_group_IT_number 57
_symmetry_cell_setting 'orthorhombic'
loop_
_space_group_symop_operation_xyz
x,y,z
-x,-y,1/2+z
x,1/2-y,-z
-x,1/2+y,1/2-z
-x,-y,-z
x,y,1/2-z
-x,1/2+y,z
x,1/2-y,1/2+z
loop_
_atom_site_type_symbol
_atom_site_label
_atom_site_fract_x
_atom_site_fract_y
_atom_site_fract_z
Si Si1 0.323797 0.824011 0.679126
Si Si2 0.582496 0.676900 0.556985
Si Si3 0.025926 0.707719 0.937063
Si Si4 0.188379 0.451031 0.617605
Si Si5 0.912675 0.403297 0.883985
Si Si6 0.825164 0.560461 0.531767
Si Si7 0.701684 0.355256 0.407313
Si Si8 0.615105 0.804938 0.823670
O O1 0.291699 0.796702 0.750000
O O2 0.219681 0.904652 0.658614
O O3 0.307672 0.726263 0.643390
O O4 0.474730 0.860728 0.670529
O O5 0.612712 0.750000 0.500000
O O6 0.673781 0.584996 0.548801
O O7 0.430687 0.641610 0.550201
O O8 0.610317 0.717679 0.627286
O O9 0.038086 0.794127 0.888113
O O10 0.170194 0.662782 0.951066
O O11 0.918868 0.626123 0.922794
O O12 0.964973 0.750000 0.000000
O O13 0.160161 0.426181 0.543669
O O14 0.273156 0.545398 0.627691
O O15 0.265895 0.370746 0.654872
O O16 0.039003 0.457909 0.646729
O O17 0.865044 0.453097 0.949817
O O18 0.635951 0.771667 0.750000
#
# Coordination Sequence:
#
# PCOD8234697 Si02
#       8
#     8   8   8   8   8   8   8   8
#     4   9  22  46  65  84 121 172 219 264 323 390
#     4  11  22  42  63  95 133 172 218 271 325 385
#     4  11  19  37  59  85 125 175 199 254 331 382
#     4  12  22  39  61  99 129 166 210 270 328 387
#     4  11  23  37  64  92 127 165 215 264 322 386
#     4  12  23  38  61  98 137 163 210 272 329 387
#     4  10  23  36  62  94 126 166 214 272 321 386
#     4  10  23  43  67  91 125 172 219 265 325 391
#
# _framework density 21.176251000000001
#
# number of rings (size 3 to 8) (size 9 to 14) (size 15 to 20)
#    0.000    1.250    3.750    2.625    1.750    3.500 
#    0.000    0.625    0.000    0.000    0.000    0.000 
#    0.000    0.000    0.000    0.000    0.000    0.000 
#
# Total GULP energy -792840.544554 kJ/mol
# GULP energy per Si atom -12388.133509 kJ/mol
# Density = 2.112805 g / cm^3
# Si number density = 21.176251 Si / 1000 Ang^3
#
#
#
# Elastic Constant Matrix: (Units=GPa)
#
#
# Indices 1 2 3 4 5 6 
#
# 1 150.6755 37.5082 36.1912 0.0000 0.0000 0.0000
# 2 37.5082 60.4218 15.3944 0.0000 0.0000 0.0000
# 3 36.1912 15.3944 81.8490 0.0000 0.0000 0.0000
# 4 0.0000 0.0000 0.0000 20.8235 0.0000 0.0000
# 5 0.0000 0.0000 0.0000 0.0000 20.5780 0.0000
# 6 0.0000 0.0000 0.0000 0.0000 0.0000 25.7415
#
#
#
# Elastic Compliance Matrix: (Units=1/GPa)
#
#
# Indices 1 2 3 4 5 6 
#
# 1 0.008454 -0.004512 -0.002889 0.000000 0.000000 0.000000
# 2 -0.004512 0.019791 -0.001727 0.000000 0.000000 0.000000
# 3 -0.002889 -0.001727 0.013820 0.000000 0.000000 0.000000
# 4 0.000000 0.000000 0.000000 0.048023 0.000000 0.000000
# 5 0.000000 0.000000 0.000000 0.000000 0.048596 0.000000
# 6 0.000000 0.000000 0.000000 0.000000 0.000000 0.038848
#
#
# Mechanical properties :
#
#
# Convention : Reuss Voigt Hill
#
# Bulk Modulus (GPa) = 42.00279 52.34821 47.17550
# Shear Modulus (GPa) = 24.54291 27.01876 25.78083
#
# Velocity S-wave (km/s) = 3.40808 3.57585 3.49297
# Velocity P-wave (km/s) = 5.94681 6.46706 6.21238
#
# Compressibility (1/GPa) = 0.02380794
#
# Stress axis : x y z
#
# Youngs Moduli (GPa) = 118.28791 50.52746 72.35802
#
# Poissons Ratio (x) = 0.22797 0.20908
# Poissons Ratio (y) = 0.53369 0.12499
# Poissons Ratio (z) = 0.34179 0.08728
#
# Static dielectric constant tensor:
#      x y z
#    x 4.388010 0.000000 0.000000 
#    y 0.000000 3.938250 0.000000 
#    z 0.000000 0.000000 3.591480 
# 
# 
# High freq. dielectric constant tensor:
#      x y z
#    x 1.860270 0.000000 0.000000 
#    y 0.000000 1.819060 0.000000 
#    z 0.000000 0.000000 1.790980 
# 
# From -- ./inp_files/26887.got.cif
#   From: 2010.03.12/outbox.cif.g09.slc.cpg/sg57_14_cif.got.tgz:26887.got - 2010.04.16 15:48:40.
