data_PCOD8234442
_publ_section_title
;
Structure prediction by ZEFSAII (Michael W. Deem and Ramdas Pophale) SiO2 
 PCOD8234442
Probable space group: P B C M
;
_chemical_formula_sum "Si O2"
_cell_formula_units_Z 32
_cell_length_a 11.321215
_cell_length_b 10.934520
_cell_length_c 13.831472
_cell_angle_alpha 90.000000
_cell_angle_beta 90.000000
_cell_angle_gamma 90.000000
_cell_volume 1712.226299
_symmetry_space_group_name_H-M "P B C M"
_symmetry_group_IT_number 57
_symmetry_cell_setting 'orthorhombic'
loop_
_space_group_symop_operation_xyz
x,y,z
-x,-y,1/2+z
x,1/2-y,-z
-x,1/2+y,1/2-z
-x,-y,-z
x,y,1/2-z
-x,1/2+y,z
x,1/2-y,1/2+z
loop_
_atom_site_type_symbol
_atom_site_label
_atom_site_fract_x
_atom_site_fract_y
_atom_site_fract_z
Si Si1 0.157660 0.889603 0.517251
Si Si2 0.370083 0.447912 0.008826
Si Si3 0.065676 0.425418 0.638196
Si Si4 0.287638 0.223432 0.361188
O O1 0.184199 0.750000 0.500000
O O2 0.067377 0.897157 0.606589
O O3 0.283381 0.946371 0.545814
O O4 0.109268 0.957792 0.422381
O O5 0.343780 0.336775 0.082159
O O6 0.500000 0.500000 0.000000
O O7 0.346073 0.401583 0.899903
O O8 0.068081 0.464055 0.750000
O O9 0.146414 0.302270 0.621939
O O10 0.319017 0.242066 0.250000
#
# Coordination Sequence:
#
# PCOD8234442 Si02
#       4
#     8   8   8   8
#     4  10  22  35  58  88 116 147 188 238 284 341
#     4  10  22  38  61  83 114 157 196 235 283 336
#     4   9  20  38  59  85 118 150 184 234 295 347
#     4   9  20  39  61  83 112 151 192 236 291 346
#
# _framework density 18.689119000000002
#
# number of rings (size 3 to 8) (size 9 to 14) (size 15 to 20)
#    0.000    2.500    0.000    0.000   14.000    3.000 
#    0.000    0.000    0.000    0.000    0.000    0.000 
#    0.000    0.000    0.000    0.000    0.000    0.000 
#
# Total GULP energy -396472.313000 kJ/mol
# GULP energy per Si atom -12389.759781 kJ/mol
# Density = 1.864658 g / cm^3
# Si number density = 18.689119 Si / 1000 Ang^3
#
#
#
# Elastic Constant Matrix: (Units=GPa)
#
#
# Indices 1 2 3 4 5 6 
#
# 1 167.3123 58.5205 48.1259 0.0000 0.0000 0.0000
# 2 58.5205 111.2644 32.1849 0.0000 0.0000 0.0000
# 3 48.1259 32.1849 110.0349 0.0000 0.0000 0.0000
# 4 0.0000 0.0000 0.0000 19.2822 0.0000 0.0000
# 5 0.0000 0.0000 0.0000 0.0000 17.8424 0.0000
# 6 0.0000 0.0000 0.0000 0.0000 0.0000 -13.1600
#
#
#
# Elastic Compliance Matrix: (Units=1/GPa)
#
#
# Indices 1 2 3 4 5 6 
#
# 1 0.007882 -0.003439 -0.002441 0.000000 0.000000 0.000000
# 2 -0.003439 0.011319 -0.001807 0.000000 0.000000 0.000000
# 3 -0.002441 -0.001807 0.010684 0.000000 0.000000 0.000000
# 4 0.000000 0.000000 0.000000 0.051861 0.000000 0.000000
# 5 0.000000 0.000000 0.000000 0.000000 0.056046 0.000000
# 6 0.000000 0.000000 0.000000 0.000000 0.000000 -0.075988
#
#
# Mechanical properties :
#
#
# Convention : Reuss Voigt Hill
#
# Bulk Modulus (GPa) = 68.91411 74.03046 71.47228
# Shear Modulus (GPa) = 60.96333 21.44496 41.20414
#
# Velocity S-wave (km/s) = 5.71756 3.39109 4.70053
# Velocity P-wave (km/s) = 8.97448 7.41823 8.23321
#
# Compressibility (1/GPa) = 0.01451082
#
# Stress axis : x y z
#
# Youngs Moduli (GPa) = 126.86990 88.34569 93.59617
#
# Poissons Ratio (x) = 0.30386 0.22850
# Poissons Ratio (y) = 0.43636 0.16908
# Poissons Ratio (z) = 0.30973 0.15960
#
# Static dielectric constant tensor:
#      x y z
#    x 3.586800 0.000000 0.000000 
#    y 0.000000 3.371360 0.000000 
#    z 0.000000 0.000000 3.503560 
# 
# 
# High freq. dielectric constant tensor:
#      x y z
#    x 1.724130 0.000000 0.000000 
#    y 0.000000 1.725620 0.000000 
#    z 0.000000 0.000000 1.722150 
# 
# From -- ./inp_files/15480.got.cif
#   From: 2010.03.12/outbox.cif.g09.slc.cpg/sg57_8_cif.got.tgz:15480.got - 2010.04.16 15:48:40.
