data_PCOD8234591
_publ_section_title
;
Structure prediction by ZEFSAII (Michael W. Deem and Ramdas Pophale) SiO2 
 PCOD8234591
Probable space group: P B C M
;
_chemical_formula_sum "Si O2"
_cell_formula_units_Z 64
_cell_length_a 9.856320
_cell_length_b 21.496611
_cell_length_c 14.385965
_cell_angle_alpha 90.000000
_cell_angle_beta 90.000000
_cell_angle_gamma 90.000000
_cell_volume 3048.061967
_symmetry_space_group_name_H-M "P B C M"
_symmetry_group_IT_number 57
_symmetry_cell_setting 'orthorhombic'
loop_
_space_group_symop_operation_xyz
x,y,z
-x,-y,1/2+z
x,1/2-y,-z
-x,1/2+y,1/2-z
-x,-y,-z
x,y,1/2-z
-x,1/2+y,z
x,1/2-y,1/2+z
loop_
_atom_site_type_symbol
_atom_site_label
_atom_site_fract_x
_atom_site_fract_y
_atom_site_fract_z
Si Si1 0.712596 0.195855 0.933882
Si Si2 0.444886 0.508437 0.357142
Si Si3 0.779612 0.063931 0.010399
Si Si4 0.032631 0.765697 0.646769
Si Si5 0.742605 0.535289 0.357062
Si Si6 0.952237 0.886472 0.958630
Si Si7 0.461313 0.129199 0.643944
Si Si8 0.161546 0.155930 0.854744
O O1 0.837795 0.221964 0.873742
O O2 0.583381 0.176307 0.873653
O O3 0.658833 0.250000 0.000000
O O4 0.757347 0.136541 0.992567
O O5 0.397464 0.505548 0.250000
O O6 0.324890 0.539353 0.414225
O O7 0.581850 0.549125 0.366640
O O8 0.473949 0.439731 0.402699
O O9 0.931473 0.061049 0.053470
O O10 0.778340 0.026395 0.914447
O O11 0.051859 0.794298 0.750000
O O12 0.011698 0.819426 0.571297
O O13 0.896725 0.725119 0.643418
O O14 0.781505 0.522776 0.250000
O O15 0.823607 0.594957 0.395599
O O16 0.911801 0.886240 0.067751
O O17 0.466096 0.111538 0.750000
O O18 0.319528 0.161312 0.617028
O O19 0.143298 0.127186 0.750000
#
# Coordination Sequence:
#
# PCOD8234591 Si02
#       8
#     8   8   8   8   8   8   8   8
#     4  12  23  41  65 100 130 172 226 272 330 396
#     4  10  23  44  67  97 134 174 221 278 341 405
#     4  12  24  42  69  97 136 175 221 276 344 399
#     4  11  23  43  66  92 134 178 221 276 331 399
#     4  11  25  43  68  98 130 177 226 275 338 406
#     4  12  24  43  67  98 137 176 222 281 343 402
#     4  10  22  42  67  94 127 171 221 272 336 400
#     4  10  22  40  65  96 130 175 225 273 332 403
#
# _framework density 20.996948
#
# number of rings (size 3 to 8) (size 9 to 14) (size 15 to 20)
#    0.000    1.000    3.750    2.625    1.750    3.000 
#    0.000    1.250    0.000    0.000    0.000    0.000 
#    0.000    0.000    0.000    0.000    0.000    0.000 
#
# Total GULP energy -793431.423111 kJ/mol
# GULP energy per Si atom -12397.365986 kJ/mol
# Density = 2.094916 g / cm^3
# Si number density = 20.996948 Si / 1000 Ang^3
#
#
#
# Elastic Constant Matrix: (Units=GPa)
#
#
# Indices 1 2 3 4 5 6 
#
# 1 157.4099 58.4553 59.9974 0.0000 0.0000 0.0000
# 2 58.4553 96.0380 41.9866 0.0000 0.0000 0.0000
# 3 59.9974 41.9866 113.2612 0.0000 0.0000 0.0000
# 4 0.0000 0.0000 0.0000 29.7344 0.0000 0.0000
# 5 0.0000 0.0000 0.0000 0.0000 35.1633 0.0000
# 6 0.0000 0.0000 0.0000 0.0000 0.0000 20.8508
#
#
#
# Elastic Compliance Matrix: (Units=1/GPa)
#
#
# Indices 1 2 3 4 5 6 
#
# 1 0.009147 -0.004116 -0.003319 0.000000 0.000000 0.000000
# 2 -0.004116 0.014279 -0.003113 0.000000 0.000000 0.000000
# 3 -0.003319 -0.003113 0.011741 0.000000 0.000000 0.000000
# 4 0.000000 0.000000 0.000000 0.033631 0.000000 0.000000
# 5 0.000000 0.000000 0.000000 0.000000 0.028439 0.000000
# 6 0.000000 0.000000 0.000000 0.000000 0.000000 0.047960
#
#
# Mechanical properties :
#
#
# Convention : Reuss Voigt Hill
#
# Bulk Modulus (GPa) = 71.07166 76.39864 73.73515
# Shear Modulus (GPa) = 29.24272 30.90103 30.07187
#
# Velocity S-wave (km/s) = 3.73596 3.84042 3.78855
# Velocity P-wave (km/s) = 7.24789 7.49198 7.37094
#
# Compressibility (1/GPa) = 0.01407031
#
# Stress axis : x y z
#
# Youngs Moduli (GPa) = 109.33101 70.03415 85.16855
#
# Poissons Ratio (x) = 0.28826 0.28270
# Poissons Ratio (y) = 0.45001 0.26512
# Poissons Ratio (z) = 0.36290 0.21800
#
# Static dielectric constant tensor:
#      x y z
#    x 4.141550 0.000000 0.000000 
#    y 0.000000 3.881130 0.000000 
#    z 0.000000 0.000000 3.898710 
# 
# 
# High freq. dielectric constant tensor:
#      x y z
#    x 1.839730 0.000000 0.000000 
#    y 0.000000 1.807260 0.000000 
#    z 0.000000 0.000000 1.828440 
# 
# From -- ./inp_files/16974.got.cif
#   From: 2010.03.12/outbox.cif.g09.slc.cpg/sg57_9_cif.got.tgz:16974.got - 2010.04.16 15:48:40.
