data_PCOD8234878
_publ_section_title
;
Structure prediction by ZEFSAII (Michael W. Deem and Ramdas Pophale) SiO2 
 PCOD8234878
Probable space group: P B C M
;
_chemical_formula_sum "Si O2"
_cell_formula_units_Z 28
_cell_length_a 4.974286
_cell_length_b 8.787477
_cell_length_c 25.923648
_cell_angle_alpha 90.000000
_cell_angle_beta 90.000000
_cell_angle_gamma 90.000000
_cell_volume 1133.159565
_symmetry_space_group_name_H-M "P B C M"
_symmetry_group_IT_number 57
_symmetry_cell_setting 'orthorhombic'
loop_
_space_group_symop_operation_xyz
x,y,z
-x,-y,1/2+z
x,1/2-y,-z
-x,1/2+y,1/2-z
-x,-y,-z
x,y,1/2-z
-x,1/2+y,z
x,1/2-y,1/2+z
loop_
_atom_site_type_symbol
_atom_site_label
_atom_site_fract_x
_atom_site_fract_y
_atom_site_fract_z
Si Si1 0.651343 0.507743 0.345567
Si Si2 0.997577 0.750000 0.500000
Si Si3 0.163779 0.164168 0.691507
Si Si4 0.326962 0.500200 0.049205
O O1 0.416518 0.451298 0.307283
O O2 0.738445 0.677653 0.332147
O O3 0.521079 0.499986 0.401901
O O4 0.917067 0.402074 0.342277
O O5 0.151726 0.651634 0.456746
O O6 0.842002 0.653716 0.543530
O O7 0.062424 0.187422 0.750000
O O8 0.500000 0.500000 0.000000
#
# Coordination Sequence:
#
# PCOD8234878 Si02
#       4
#     8   4   8   8
#     4  12  30  49  85 118 161 217 272 330 421 487
#     4  10  26  50  74 108 176 206 274 328 400 460
#     4  12  27  53  82 118 160 208 276 349 409 480
#     4  11  27  46  78 114 164 216 267 329 398 493
#
# _framework density 24.709671
#
# number of rings (size 3 to 8) (size 9 to 14) (size 15 to 20)
#    0.000    0.571    0.000    5.143   16.000    0.000 
#    0.000    0.000    0.000    0.000    0.000    0.000 
#    0.000    0.000    0.000    0.000    0.000    0.000 
#
# Total GULP energy -346989.937883 kJ/mol
# GULP energy per Si atom -12392.497782 kJ/mol
# Density = 2.465343 g / cm^3
# Si number density = 24.709671 Si / 1000 Ang^3
#
#
#
# Elastic Constant Matrix: (Units=GPa)
#
#
# Indices 1 2 3 4 5 6 
#
# 1 191.7067 106.1724 72.7949 0.0000 0.0000 0.0000
# 2 106.1724 192.5195 94.6251 0.0000 0.0000 0.0000
# 3 72.7949 94.6251 164.1425 0.0000 0.0000 0.0000
# 4 0.0000 0.0000 0.0000 21.8697 0.0000 0.0000
# 5 0.0000 0.0000 0.0000 0.0000 54.2848 0.0000
# 6 0.0000 0.0000 0.0000 0.0000 0.0000 194.7136
#
#
#
# Elastic Compliance Matrix: (Units=1/GPa)
#
#
# Indices 1 2 3 4 5 6 
#
# 1 0.007719 -0.003592 -0.001353 0.000000 0.000000 0.000000
# 2 -0.003592 0.008920 -0.003549 0.000000 0.000000 0.000000
# 3 -0.001353 -0.003549 0.008738 0.000000 0.000000 0.000000
# 4 0.000000 0.000000 0.000000 0.045725 0.000000 0.000000
# 5 0.000000 0.000000 0.000000 0.000000 0.018421 0.000000
# 6 0.000000 0.000000 0.000000 0.000000 0.000000 0.005136
#
#
# Mechanical properties :
#
#
# Convention : Reuss Voigt Hill
#
# Bulk Modulus (GPa) = 119.19606 121.72817 120.46211
# Shear Modulus (GPa) = 43.68953 72.49204 58.09079
#
# Velocity S-wave (km/s) = 4.20946 5.42229 4.85390
# Velocity P-wave (km/s) = 8.48348 9.41127 8.95939
#
# Compressibility (1/GPa) = 0.00838954
#
# Stress axis : x y z
#
# Youngs Moduli (GPa) = 129.54266 112.11043 114.44334
#
# Poissons Ratio (x) = 0.40275 0.15478
# Poissons Ratio (y) = 0.46537 0.40615
# Poissons Ratio (z) = 0.17521 0.39787
#
# Static dielectric constant tensor:
#      x y z
#    x 4.919470 0.000000 0.000000 
#    y 0.000000 4.803070 0.000000 
#    z 0.000000 0.000000 4.464310 
# 
# 
# High freq. dielectric constant tensor:
#      x y z
#    x 2.007100 0.000000 0.000000 
#    y 0.000000 2.006280 0.000000 
#    z 0.000000 0.000000 1.989430 
# 
# From -- ./inp_files/27744.got.cif
#   From: 2010.03.12/outbox.cif.g09.slc.cpg/sg57_14_cif.got.tgz:27744.got - 2010.04.16 15:48:40.
