data_PCOD8234614
_publ_section_title
;
Structure prediction by ZEFSAII (Michael W. Deem and Ramdas Pophale) SiO2 
 PCOD8234614
Probable space group: P B C M
;
_chemical_formula_sum "Si O2"
_cell_formula_units_Z 36
_cell_length_a 8.346489
_cell_length_b 21.194525
_cell_length_c 9.820803
_cell_angle_alpha 90.000000
_cell_angle_beta 90.000000
_cell_angle_gamma 90.000000
_cell_volume 1737.298772
_symmetry_space_group_name_H-M "P B C M"
_symmetry_group_IT_number 57
_symmetry_cell_setting 'orthorhombic'
loop_
_space_group_symop_operation_xyz
x,y,z
-x,-y,1/2+z
x,1/2-y,-z
-x,1/2+y,1/2-z
-x,-y,-z
x,y,1/2-z
-x,1/2+y,z
x,1/2-y,1/2+z
loop_
_atom_site_type_symbol
_atom_site_label
_atom_site_fract_x
_atom_site_fract_y
_atom_site_fract_z
Si Si1 0.849306 0.886470 0.750000
Si Si2 0.205366 0.121162 0.750000
Si Si3 0.519266 0.406786 0.750000
Si Si4 0.731451 0.410290 0.512698
Si Si5 0.901245 0.484284 0.750000
Si Si6 0.981166 0.823163 0.012950
Si Si7 0.537580 0.448340 0.250000
O O1 0.661393 0.886473 0.750000
O O2 0.915992 0.847711 0.873260
O O3 0.916268 0.958238 0.750000
O O4 0.158838 0.163407 0.621081
O O5 0.393565 0.103144 0.750000
O O6 0.092389 0.059337 0.750000
O O7 0.600856 0.378115 0.613824
O O8 0.542565 0.482859 0.750000
O O9 0.820144 0.461581 0.608642
O O10 0.643958 0.442829 0.385624
O O11 0.851996 0.358252 0.452049
O O12 0.020077 0.750000 0.000000
#
# Coordination Sequence:
#
# PCOD8234614 Si02
#       7
#     4   4   4   8   4   8   4
#     4  10  23  39  68  92 128 162 208 255 323 363
#     4  12  24  40  66  96 129 156 217 258 315 370
#     4  11  22  39  61  94 134 158 195 261 327 386
#     4  10  22  41  63  91 130 165 207 247 323 374
#     4   9  22  39  60 101 123 166 198 258 313 385
#     4  11  25  45  64  87 124 173 219 257 293 369
#     4  12  23  37  63 101 132 160 192 264 326 382
#
# _framework density 20.721826
#
# number of rings (size 3 to 8) (size 9 to 14) (size 15 to 20)
#    0.000    1.333    2.222    4.000    6.222    1.778 
#    0.000    6.667    0.000    0.000    0.000    0.000 
#    0.000    0.000    0.000    0.000    0.000    0.000 
#
# Total GULP energy -446327.631951 kJ/mol
# GULP energy per Si atom -12397.989776 kJ/mol
# Density = 2.067466 g / cm^3
# Si number density = 20.721826 Si / 1000 Ang^3
#
#
#
# Elastic Constant Matrix: (Units=GPa)
#
#
# Indices 1 2 3 4 5 6 
#
# 1 101.9501 12.7782 20.9104 0.0000 0.0000 0.0000
# 2 12.7782 85.1994 11.5545 0.0000 0.0000 0.0000
# 3 20.9104 11.5545 128.2042 0.0000 0.0000 0.0000
# 4 0.0000 0.0000 0.0000 4.6441 0.0000 0.0000
# 5 0.0000 0.0000 0.0000 0.0000 11.8871 0.0000
# 6 0.0000 0.0000 0.0000 0.0000 0.0000 22.2411
#
#
#
# Elastic Compliance Matrix: (Units=1/GPa)
#
#
# Indices 1 2 3 4 5 6 
#
# 1 0.010296 -0.001333 -0.001559 0.000000 0.000000 0.000000
# 2 -0.001333 0.012055 -0.000869 0.000000 0.000000 0.000000
# 3 -0.001559 -0.000869 0.008133 0.000000 0.000000 0.000000
# 4 0.000000 0.000000 0.000000 0.215326 0.000000 0.000000
# 5 0.000000 0.000000 0.000000 0.000000 0.084124 0.000000
# 6 0.000000 0.000000 0.000000 0.000000 0.000000 0.044962
#
#
# Mechanical properties :
#
#
# Convention : Reuss Voigt Hill
#
# Bulk Modulus (GPa) = 43.55146 45.09332 44.32239
# Shear Modulus (GPa) = 12.81818 25.76186 19.29002
#
# Velocity S-wave (km/s) = 2.48983 3.52976 3.05438
# Velocity P-wave (km/s) = 5.41558 6.19845 5.82019
#
# Compressibility (1/GPa) = 0.02296134
#
# Stress axis : x y z
#
# Youngs Moduli (GPa) = 97.12948 82.95371 122.96074
#
# Poissons Ratio (x) = 0.11055 0.19171
# Poissons Ratio (y) = 0.12944 0.10686
# Poissons Ratio (z) = 0.15144 0.07209
#
# Static dielectric constant tensor:
#      x y z
#    x 4.052770 0.000000 0.000000 
#    y 0.000000 3.503450 0.000000 
#    z 0.000000 0.000000 3.945120 
# 
# 
# High freq. dielectric constant tensor:
#      x y z
#    x 1.826430 0.000000 0.000000 
#    y 0.000000 1.776130 0.000000 
#    z 0.000000 0.000000 1.832830 
# 
# From -- ./inp_files/1379.got.cif
#   From: 2010.03.12/outbox.cif.g09.slc.cpg/sg57_1_cif.got.tgz:1379.got - 2010.04.16 15:48:40.
