data_PCOD8234830
_publ_section_title
;
Structure prediction by ZEFSAII (Michael W. Deem and Ramdas Pophale) SiO2 
 PCOD8234830
Probable space group: P B C M
;
_chemical_formula_sum "Si O2"
_cell_formula_units_Z 32
_cell_length_a 14.094830
_cell_length_b 5.033426
_cell_length_c 20.255098
_cell_angle_alpha 90.000000
_cell_angle_beta 90.000000
_cell_angle_gamma 90.000000
_cell_volume 1437.003676
_symmetry_space_group_name_H-M "P B C M"
_symmetry_group_IT_number 57
_symmetry_cell_setting 'orthorhombic'
loop_
_space_group_symop_operation_xyz
x,y,z
-x,-y,1/2+z
x,1/2-y,-z
-x,1/2+y,1/2-z
-x,-y,-z
x,y,1/2-z
-x,1/2+y,z
x,1/2-y,1/2+z
loop_
_atom_site_type_symbol
_atom_site_label
_atom_site_fract_x
_atom_site_fract_y
_atom_site_fract_z
Si Si1 0.788877 0.095652 0.638929
Si Si2 0.675989 0.594264 0.675547
Si Si3 0.438489 0.566979 0.436381
Si Si4 0.937340 0.058287 0.750000
Si Si5 0.260303 0.750000 0.500000
O O1 0.758077 0.373786 0.671032
O O2 0.879180 0.003251 0.682058
O O3 0.806283 0.135296 0.559402
O O4 0.707686 0.873528 0.643840
O O5 0.648210 0.651115 0.750000
O O6 0.580119 0.486425 0.640732
O O7 0.476163 0.865359 0.454895
O O8 0.332825 0.529985 0.468403
O O9 0.974831 0.357857 0.750000
#
# Coordination Sequence:
#
# PCOD8234830 Si02
#       5
#     8   8   8   4   4
#     4  11  23  42  67  96 126 166 217 258 317 410
#     4  11  21  39  63  89 127 177 221 267 318 376
#     4  11  23  37  58  90 129 171 223 273 310 352
#     4  12  24  44  72 102 126 158 202 266 336 396
#     4  10  24  42  66  92 130 184 222 262 320 386
#
# _framework density 22.268557999999999
#
# number of rings (size 3 to 8) (size 9 to 14) (size 15 to 20)
#    0.000    1.000    2.500    5.250    0.000    9.000 
#    0.000    1.250    0.000    0.000    0.000    0.000 
#    0.000    0.000    0.000    0.000    0.000    0.000 
#
# Total GULP energy -396560.666154 kJ/mol
# GULP energy per Si atom -12392.520817 kJ/mol
# Density = 2.221787 g / cm^3
# Si number density = 22.268558 Si / 1000 Ang^3
#
#
#
# Elastic Constant Matrix: (Units=GPa)
#
#
# Indices 1 2 3 4 5 6 
#
# 1 71.7725 18.2949 47.1656 0.0000 0.0000 0.0000
# 2 18.2949 100.4715 52.1937 0.0000 0.0000 0.0000
# 3 47.1656 52.1937 190.4432 0.0000 0.0000 0.0000
# 4 0.0000 0.0000 0.0000 33.6107 0.0000 0.0000
# 5 0.0000 0.0000 0.0000 0.0000 39.7034 0.0000
# 6 0.0000 0.0000 0.0000 0.0000 0.0000 33.4606
#
#
#
# Elastic Compliance Matrix: (Units=1/GPa)
#
#
# Indices 1 2 3 4 5 6 
#
# 1 0.016734 -0.001043 -0.003859 0.000000 0.000000 0.000000
# 2 -0.001043 0.011670 -0.002940 0.000000 0.000000 0.000000
# 3 -0.003859 -0.002940 0.007012 0.000000 0.000000 0.000000
# 4 0.000000 0.000000 0.000000 0.029752 0.000000 0.000000
# 5 0.000000 0.000000 0.000000 0.000000 0.025187 0.000000
# 6 0.000000 0.000000 0.000000 0.000000 0.000000 0.029886
#
#
# Mechanical properties :
#
#
# Convention : Reuss Voigt Hill
#
# Bulk Modulus (GPa) = 50.67386 66.44396 58.55891
# Shear Modulus (GPa) = 35.08688 37.69047 36.38868
#
# Velocity S-wave (km/s) = 3.97372 4.11851 4.04676
# Velocity P-wave (km/s) = 6.62262 7.24697 6.94182
#
# Compressibility (1/GPa) = 0.01973404
#
# Stress axis : x y z
#
# Youngs Moduli (GPa) = 59.75692 85.68743 142.60481
#
# Poissons Ratio (x) = 0.08934 0.55028
# Poissons Ratio (y) = 0.06230 0.41929
# Poissons Ratio (z) = 0.23059 0.25194
#
# Static dielectric constant tensor:
#      x y z
#    x 3.572210 0.000000 0.000000 
#    y 0.000000 3.991120 0.000000 
#    z 0.000000 0.000000 4.566830 
# 
# 
# High freq. dielectric constant tensor:
#      x y z
#    x 1.825280 0.000000 0.000000 
#    y 0.000000 1.886360 0.000000 
#    z 0.000000 0.000000 1.913750 
# 
# From -- ./inp_files/22240.got.cif
#   From: 2010.03.12/outbox.cif.g09.slc.cpg/sg57_12_cif.got.tgz:22240.got - 2010.04.16 15:48:40.
