data_PCOD8234064
_publ_section_title
;
Structure prediction by ZEFSAII (Michael W. Deem and Ramdas Pophale) SiO2 
 PCOD8234064
Probable space group: P B C M
;
_chemical_formula_sum "Si O2"
_cell_formula_units_Z 56
_cell_length_a 20.022061
_cell_length_b 15.681706
_cell_length_c 8.753770
_cell_angle_alpha 90.000000
_cell_angle_beta 90.000000
_cell_angle_gamma 90.000000
_cell_volume 2748.509353
_symmetry_space_group_name_H-M "P B C M"
_symmetry_group_IT_number 57
_symmetry_cell_setting 'orthorhombic'
loop_
_space_group_symop_operation_xyz
x,y,z
-x,-y,1/2+z
x,1/2-y,-z
-x,1/2+y,1/2-z
-x,-y,-z
x,y,1/2-z
-x,1/2+y,z
x,1/2-y,1/2+z
loop_
_atom_site_type_symbol
_atom_site_label
_atom_site_fract_x
_atom_site_fract_y
_atom_site_fract_z
Si Si1 0.612719 0.831482 0.925240
Si Si2 0.711297 0.061835 0.427364
Si Si3 0.571839 0.999202 0.425690
Si Si4 0.735559 0.868446 0.081156
Si Si5 0.169884 0.657683 0.569233
Si Si6 0.884026 0.665828 0.578886
Si Si7 0.072854 0.995009 0.070000
O O1 0.591090 0.846507 0.750000
O O2 0.575964 0.750000 0.000000
O O3 0.692926 0.823317 0.945282
O O4 0.596751 0.905519 0.041983
O O5 0.714467 0.087288 0.250000
O O6 0.632322 0.061997 0.482940
O O7 0.755074 0.130181 0.520339
O O8 0.743678 0.969158 0.455590
O O9 0.560357 0.017198 0.250000
O O10 0.500000 0.000000 0.500000
O O11 0.700975 0.859571 0.250000
O O12 0.805314 0.820576 0.088039
O O13 0.151587 0.750000 0.500000
O O14 0.168104 0.665405 0.750000
O O15 0.115470 0.587270 0.511148
O O16 0.916280 0.750000 0.500000
O O17 0.914670 0.654986 0.750000
O O18 0.892842 0.582666 0.476903
O O19 0.067152 0.989847 0.250000
O O20 0.000000 0.000000 0.000000
#
# Coordination Sequence:
#
# PCOD8234064 Si02
#       7
#     8   8   8   8   8   8   8
#     4  11  21  33  52  79 113 151 191 239 290 349
#     4   9  18  36  61  88 121 158 199 250 306 363
#     4  10  21  38  59  86 119 159 203 248 308 374
#     4   9  18  33  55  84 117 153 189 233 292 353
#     4  11  24  41  66  96 125 163 215 267 322 381
#     4  11  22  37  59  88 123 160 197 244 301 364
#     4  11  25  44  65  91 123 164 210 261 319 384
#
# _framework density 20.374680999999999
#
# number of rings (size 3 to 8) (size 9 to 14) (size 15 to 20)
#    0.000    1.714    1.429    4.286    0.000    7.429 
#    0.000    2.143    0.000    3.429    0.000    0.000 
#    0.000    0.000    0.000    0.000    0.000    0.000 
#
# Total GULP energy -693765.023754 kJ/mol
# GULP energy per Si atom -12388.661138 kJ/mol
# Density = 2.032831 g / cm^3
# Si number density = 20.374681 Si / 1000 Ang^3
#
#
#
# Elastic Constant Matrix: (Units=GPa)
#
#
# Indices 1 2 3 4 5 6 
#
# 1 114.5440 41.4231 37.4402 0.0000 0.0000 0.0000
# 2 41.4231 119.6785 36.5650 0.0000 0.0000 0.0000
# 3 37.4402 36.5650 75.2546 0.0000 0.0000 0.0000
# 4 0.0000 0.0000 0.0000 33.5817 0.0000 0.0000
# 5 0.0000 0.0000 0.0000 0.0000 33.5533 0.0000
# 6 0.0000 0.0000 0.0000 0.0000 0.0000 5.7278
#
#
#
# Elastic Compliance Matrix: (Units=1/GPa)
#
#
# Indices 1 2 3 4 5 6 
#
# 1 0.011035 -0.002515 -0.004268 0.000000 0.000000 0.000000
# 2 -0.002515 0.010386 -0.003795 0.000000 0.000000 0.000000
# 3 -0.004268 -0.003795 0.017255 0.000000 0.000000 0.000000
# 4 0.000000 0.000000 0.000000 0.029778 0.000000 0.000000
# 5 0.000000 0.000000 0.000000 0.000000 0.029803 0.000000
# 6 0.000000 0.000000 0.000000 0.000000 0.000000 0.174586
#
#
# Mechanical properties :
#
#
# Convention : Reuss Voigt Hill
#
# Bulk Modulus (GPa) = 57.07792 60.03706 58.55749
# Shear Modulus (GPa) = 16.67556 27.50916 22.09236
#
# Velocity S-wave (km/s) = 2.86395 3.67844 3.29645
# Velocity P-wave (km/s) = 6.24590 6.89723 6.57963
#
# Compressibility (1/GPa) = 0.01751991
#
# Stress axis : x y z
#
# Youngs Moduli (GPa) = 90.62121 96.28533 57.95303
#
# Poissons Ratio (x) = 0.24220 0.24733
# Poissons Ratio (y) = 0.22796 0.21992
# Poissons Ratio (z) = 0.38675 0.36538
#
# Static dielectric constant tensor:
#      x y z
#    x 3.261890 0.000000 0.000000 
#    y 0.000000 3.200840 0.000000 
#    z 0.000000 0.000000 3.980960 
# 
# 
# High freq. dielectric constant tensor:
#      x y z
#    x 1.786110 0.000000 0.000000 
#    y 0.000000 1.792660 0.000000 
#    z 0.000000 0.000000 1.797070 
# 
# From -- ./inp_files/8085.got.cif
#   From: 2010.03.12/outbox.cif.g09.slc.cpg/sg57_5_cif.got.tgz:8085.got - 2010.04.16 15:48:40.
