data_PCOD8234554
_publ_section_title
;
Structure prediction by ZEFSAII (Michael W. Deem and Ramdas Pophale) SiO2 
 PCOD8234554
Probable space group: P B C M
;
_chemical_formula_sum "Si O2"
_cell_formula_units_Z 48
_cell_length_a 19.151498
_cell_length_b 8.722899
_cell_length_c 14.014619
_cell_angle_alpha 90.000000
_cell_angle_beta 90.000000
_cell_angle_gamma 90.000000
_cell_volume 2341.234359
_symmetry_space_group_name_H-M "P B C M"
_symmetry_group_IT_number 57
_symmetry_cell_setting 'orthorhombic'
loop_
_space_group_symop_operation_xyz
x,y,z
-x,-y,1/2+z
x,1/2-y,-z
-x,1/2+y,1/2-z
-x,-y,-z
x,y,1/2-z
-x,1/2+y,z
x,1/2-y,1/2+z
loop_
_atom_site_type_symbol
_atom_site_label
_atom_site_fract_x
_atom_site_fract_y
_atom_site_fract_z
Si Si1 0.565140 0.087961 0.045863
Si Si2 0.682179 0.589357 0.447343
Si Si3 0.088110 0.499833 0.357953
Si Si4 0.179196 0.925149 0.018592
Si Si5 0.050935 0.649851 0.641846
Si Si6 0.540816 0.292572 0.750000
Si Si7 0.399035 0.440933 0.750000
O O1 0.565792 0.109110 0.159367
O O2 0.560723 0.250000 0.000000
O O3 0.500000 0.000000 0.000000
O O4 0.637403 0.009094 0.020908
O O5 0.690662 0.750000 0.500000
O O6 0.757357 0.512534 0.431904
O O7 0.646566 0.590727 0.343726
O O8 0.109684 0.459882 0.250000
O O9 0.158428 0.486910 0.420596
O O10 0.058689 0.670284 0.368837
O O11 0.026412 0.390492 0.396293
O O12 0.111128 0.937218 0.084736
O O13 0.201857 0.750000 0.000000
O O14 0.057473 0.591695 0.750000
O O15 0.456736 0.305724 0.750000
O O16 0.567906 0.115024 0.750000
#
# Coordination Sequence:
#
# PCOD8234554 Si02
#       7
#     8   8   8   8   8   4   4
#     4  12  23  43  69 101 133 169 219 269 323 394
#     4  12  28  46  65  96 139 173 221 278 330 405
#     4   9  18  35  57  88 122 161 219 273 321 385
#     4  10  22  40  60  87 128 175 218 263 336 397
#     4   9  18  33  59  89 119 162 214 274 323 387
#     4  12  24  44  76 102 134 175 217 270 334 388
#     4  12  28  46  74 104 130 173 223 270 344 400
#
# _framework density 20.502006000000002
#
# number of rings (size 3 to 8) (size 9 to 14) (size 15 to 20)
#    0.000    1.333    3.333    1.500    3.500    1.333 
#    3.000    0.000    0.000    0.000    0.000    0.000 
#    0.000    0.000    0.000    0.000    0.000    0.000 
#
# Total GULP energy -595052.572836 kJ/mol
# GULP energy per Si atom -12396.928601 kJ/mol
# Density = 2.045534 g / cm^3
# Si number density = 20.502006 Si / 1000 Ang^3
#
#
#
# Elastic Constant Matrix: (Units=GPa)
#
#
# Indices 1 2 3 4 5 6 
#
# 1 94.1717 24.5586 39.7975 0.0000 0.0000 0.0000
# 2 24.5586 64.1361 22.2846 0.0000 0.0000 0.0000
# 3 39.7975 22.2846 124.7700 0.0000 0.0000 0.0000
# 4 0.0000 0.0000 0.0000 27.0056 0.0000 0.0000
# 5 0.0000 0.0000 0.0000 0.0000 32.9010 0.0000
# 6 0.0000 0.0000 0.0000 0.0000 0.0000 33.9943
#
#
#
# Elastic Compliance Matrix: (Units=1/GPa)
#
#
# Indices 1 2 3 4 5 6 
#
# 1 0.013086 -0.003796 -0.003496 0.000000 0.000000 0.000000
# 2 -0.003796 0.017725 -0.001955 0.000000 0.000000 0.000000
# 3 -0.003496 -0.001955 0.009479 0.000000 0.000000 0.000000
# 4 0.000000 0.000000 0.000000 0.037029 0.000000 0.000000
# 5 0.000000 0.000000 0.000000 0.000000 0.030394 0.000000
# 6 0.000000 0.000000 0.000000 0.000000 0.000000 0.029417
#
#
# Mechanical properties :
#
#
# Convention : Reuss Voigt Hill
#
# Bulk Modulus (GPa) = 45.88045 50.70657 48.29351
# Shear Modulus (GPa) = 30.69557 31.87599 31.28578
#
# Velocity S-wave (km/s) = 3.87356 3.94734 3.91063
# Velocity P-wave (km/s) = 6.51407 6.74993 6.63305
#
# Compressibility (1/GPa) = 0.02179578
#
# Stress axis : x y z
#
# Youngs Moduli (GPa) = 76.41544 56.41842 105.49606
#
# Poissons Ratio (x) = 0.21418 0.36882
# Poissons Ratio (y) = 0.29009 0.20623
# Poissons Ratio (z) = 0.26716 0.11029
#
# Static dielectric constant tensor:
#      x y z
#    x 3.767330 0.000000 0.000000 
#    y 0.000000 3.726490 0.000000 
#    z 0.000000 0.000000 4.103290 
# 
# 
# High freq. dielectric constant tensor:
#      x y z
#    x 1.797320 0.000000 0.000000 
#    y 0.000000 1.801240 0.000000 
#    z 0.000000 0.000000 1.818410 
# 
# From -- ./inp_files/19017.got.cif
#   From: 2010.03.12/outbox.cif.g09.slc.cpg/sg57_10_cif.got.tgz:19017.got - 2010.04.16 15:48:40.
