data_PCOD8234931
_publ_section_title
;
Structure prediction by ZEFSAII (Michael W. Deem and Ramdas Pophale) SiO2 
 PCOD8234931
Probable space group: P B C M
;
_chemical_formula_sum "Si O2"
_cell_formula_units_Z 48
_cell_length_a 30.910748
_cell_length_b 9.597558
_cell_length_c 8.727833
_cell_angle_alpha 90.000000
_cell_angle_beta 90.000000
_cell_angle_gamma 90.000000
_cell_volume 2589.266114
_symmetry_space_group_name_H-M "P B C M"
_symmetry_group_IT_number 57
_symmetry_cell_setting 'orthorhombic'
loop_
_space_group_symop_operation_xyz
x,y,z
-x,-y,1/2+z
x,1/2-y,-z
-x,1/2+y,1/2-z
-x,-y,-z
x,y,1/2-z
-x,1/2+y,z
x,1/2-y,1/2+z
loop_
_atom_site_type_symbol
_atom_site_label
_atom_site_fract_x
_atom_site_fract_y
_atom_site_fract_z
Si Si1 0.887024 0.604174 0.570281
Si Si2 0.962901 0.095982 0.068577
Si Si3 0.376840 0.598673 0.070557
Si Si4 0.210165 0.395390 0.431511
Si Si5 0.282367 0.900108 0.571331
Si Si6 0.537077 0.404862 0.068176
O O1 0.903513 0.750000 0.500000
O O2 0.888289 0.626882 0.750000
O O3 0.917611 0.476313 0.521301
O O4 0.838517 0.567085 0.513577
O O5 0.968694 0.105822 0.250000
O O6 0.964635 0.250000 0.000000
O O7 0.000000 0.000000 0.000000
O O8 0.387927 0.607050 0.250000
O O9 0.329734 0.528258 0.041030
O O10 0.372553 0.750000 0.000000
O O11 0.416962 0.525039 0.983233
O O12 0.224989 0.250000 0.500000
O O13 0.212839 0.387444 0.250000
O O14 0.244146 0.506311 0.499089
O O15 0.278421 0.750000 0.500000
O O16 0.275262 0.880815 0.750000
O O17 0.533507 0.399518 0.250000
O O18 0.533016 0.250000 0.000000
O O19 0.500000 0.500000 0.000000
#
# Coordination Sequence:
#
# PCOD8234931 Si02
#       6
#     8   8   8   8   8   8
#     4   9  19  35  55  76 102 135 173 212 255 304
#     4  11  23  38  56  80 108 140 175 217 263 312
#     4   9  16  29  48  71  98 131 167 206 250 300
#     4   9  18  34  52  74 103 136 170 208 253 304
#     4   9  18  31  50  74 101 130 166 209 251 296
#     4  11  21  35  54  77 103 134 170 212 258 308
#
# _framework density 18.538070999999999
#
# number of rings (size 3 to 8) (size 9 to 14) (size 15 to 20)
#    0.000    2.333    0.000    4.000    0.000    4.667 
#    0.000    0.833    0.000    2.000    0.000    0.000 
#    0.000    0.000    0.000    0.000    0.000    0.000 
#
# Total GULP energy -594903.611752 kJ/mol
# GULP energy per Si atom -12393.825245 kJ/mol
# Density = 1.849588 g / cm^3
# Si number density = 18.538071 Si / 1000 Ang^3
#
#
#
# Elastic Constant Matrix: (Units=GPa)
#
#
# Indices 1 2 3 4 5 6 
#
# 1 161.1962 91.4355 54.6004 0.0000 0.0000 0.0000
# 2 91.4355 116.6369 42.3598 0.0000 0.0000 0.0000
# 3 54.6004 42.3598 81.4294 0.0000 0.0000 0.0000
# 4 0.0000 0.0000 0.0000 29.9120 0.0000 0.0000
# 5 0.0000 0.0000 0.0000 0.0000 27.1618 0.0000
# 6 0.0000 0.0000 0.0000 0.0000 0.0000 45.6660
#
#
#
# Elastic Compliance Matrix: (Units=1/GPa)
#
#
# Indices 1 2 3 4 5 6 
#
# 1 0.012108 -0.008068 -0.003922 0.000000 0.000000 0.000000
# 2 -0.008068 0.015946 -0.002886 0.000000 0.000000 0.000000
# 3 -0.003922 -0.002886 0.016412 0.000000 0.000000 0.000000
# 4 0.000000 0.000000 0.000000 0.033431 0.000000 0.000000
# 5 0.000000 0.000000 0.000000 0.000000 0.036816 0.000000
# 6 0.000000 0.000000 0.000000 0.000000 0.000000 0.021898
#
#
# Mechanical properties :
#
#
# Convention : Reuss Voigt Hill
#
# Bulk Modulus (GPa) = 67.95710 81.78378 74.87044
# Shear Modulus (GPa) = 29.19398 31.93907 30.56652
#
# Velocity S-wave (km/s) = 3.97270 4.15527 4.06501
# Velocity P-wave (km/s) = 7.60137 8.19964 7.90617
#
# Compressibility (1/GPa) = 0.01471517
#
# Stress axis : x y z
#
# Youngs Moduli (GPa) = 82.58723 62.71091 60.93270
#
# Poissons Ratio (x) = 0.50594 0.23898
# Poissons Ratio (y) = 0.66629 0.17583
# Poissons Ratio (z) = 0.32392 0.18096
#
# Static dielectric constant tensor:
#      x y z
#    x 4.332270 0.000000 0.000000 
#    y 0.000000 3.188810 0.000000 
#    z 0.000000 0.000000 3.883520 
# 
# 
# High freq. dielectric constant tensor:
#      x y z
#    x 1.743030 0.000000 0.000000 
#    y 0.000000 1.691520 0.000000 
#    z 0.000000 0.000000 1.723520 
# 
# From -- ./inp_files/9894.got.cif
#   From: 2010.03.12/outbox.cif.g09.slc.cpg/sg57_5_cif.got.tgz:9894.got - 2010.04.16 15:48:40.
