data_PCOD8234315
_publ_section_title
;
Structure prediction by ZEFSAII (Michael W. Deem and Ramdas Pophale) SiO2 
 PCOD8234315
Probable space group: P B C M
;
_chemical_formula_sum "Si O2"
_cell_formula_units_Z 64
_cell_length_a 14.264767
_cell_length_b 25.439215
_cell_length_c 8.620677
_cell_angle_alpha 90.000000
_cell_angle_beta 90.000000
_cell_angle_gamma 90.000000
_cell_volume 3128.309844
_symmetry_space_group_name_H-M "P B C M"
_symmetry_group_IT_number 57
_symmetry_cell_setting 'orthorhombic'
loop_
_space_group_symop_operation_xyz
x,y,z
-x,-y,1/2+z
x,1/2-y,-z
-x,1/2+y,1/2-z
-x,-y,-z
x,y,1/2-z
-x,1/2+y,z
x,1/2-y,1/2+z
loop_
_atom_site_type_symbol
_atom_site_label
_atom_site_fract_x
_atom_site_fract_y
_atom_site_fract_z
Si Si1 0.881165 0.897353 0.931922
Si Si2 0.916223 0.099231 0.932721
Si Si3 0.410551 0.694843 0.431158
Si Si4 0.238710 0.306050 0.066744
Si Si5 0.800470 0.193096 0.065452
Si Si6 0.217841 0.994938 0.431874
Si Si7 0.595195 0.521713 0.568629
Si Si8 0.409357 0.134565 0.433039
O O1 0.869887 0.886256 0.750000
O O2 0.825247 0.949354 0.982171
O O3 0.841501 0.848005 0.026144
O O4 0.988606 0.906507 0.973036
O O5 0.936497 0.097804 0.750000
O O6 0.851044 0.051153 0.986775
O O7 0.868123 0.153451 0.978691
O O8 0.442521 0.750000 0.500000
O O9 0.413073 0.703019 0.250000
O O10 0.306190 0.678484 0.483936
O O11 0.485163 0.650710 0.482283
O O12 0.251388 0.302635 0.250000
O O13 0.206446 0.250000 0.000000
O O14 0.337296 0.321211 0.988750
O O15 0.815182 0.191031 0.250000
O O16 0.826638 0.250000 0.000000
O O17 0.235379 0.992116 0.250000
O O18 0.317379 0.986011 0.515691
O O19 0.500000 0.500000 0.500000
O O20 0.585545 0.518876 0.750000
O O21 0.616159 0.580608 0.515184
O O22 0.399396 0.126760 0.250000
#
# Coordination Sequence:
#
# PCOD8234315 Si02
#       8
#     8   8   8   8   8   8   8   8
#     4  11  23  43  68  94 127 167 208 265 322 380
#     4  11  24  41  65  97 127 163 210 262 316 385
#     4   9  20  36  58  86 119 158 201 250 300 362
#     4  12  25  42  65  96 130 173 219 269 327 388
#     4  10  21  40  62  90 125 165 209 258 316 373
#     4  10  23  44  68  95 130 167 210 260 316 381
#     4  12  26  42  64  94 130 172 214 261 317 376
#     4  11  22  40  63  92 129 166 210 263 316 382
#
# _framework density 20.45833
#
# number of rings (size 3 to 8) (size 9 to 14) (size 15 to 20)
#    0.000    1.250    1.250    4.500    1.750    4.500 
#    0.000    2.500    0.000    0.000    0.000    0.000 
#    0.000    0.000    0.000    0.000    0.000    0.000 
#
# Total GULP energy -793956.752603 kJ/mol
# GULP energy per Si atom -12405.574259 kJ/mol
# Density = 2.041177 g / cm^3
# Si number density = 20.458330 Si / 1000 Ang^3
#
#
#
# Elastic Constant Matrix: (Units=GPa)
#
#
# Indices 1 2 3 4 5 6 
#
# 1 133.8628 48.0845 38.5747 0.0000 0.0000 0.0000
# 2 48.0845 100.0299 24.4480 0.0000 0.0000 0.0000
# 3 38.5747 24.4480 50.5238 0.0000 0.0000 0.0000
# 4 0.0000 0.0000 0.0000 31.9872 0.0000 0.0000
# 5 0.0000 0.0000 0.0000 0.0000 34.4093 0.0000
# 6 0.0000 0.0000 0.0000 0.0000 0.0000 -9.0214
#
#
#
# Elastic Compliance Matrix: (Units=1/GPa)
#
#
# Indices 1 2 3 4 5 6 
#
# 1 0.010571 -0.003526 -0.006365 0.000000 0.000000 0.000000
# 2 -0.003526 0.012514 -0.003363 0.000000 0.000000 0.000000
# 3 -0.006365 -0.003363 0.026280 0.000000 0.000000 0.000000
# 4 0.000000 0.000000 0.000000 0.031263 0.000000 0.000000
# 5 0.000000 0.000000 0.000000 0.000000 0.029062 0.000000
# 6 0.000000 0.000000 0.000000 0.000000 0.000000 -0.110847
#
#
# Mechanical properties :
#
#
# Convention : Reuss Voigt Hill
#
# Bulk Modulus (GPa) = 43.75121 56.29232 50.02176
# Shear Modulus (GPa) = 151.65872 23.02896 87.34384
#
# Velocity S-wave (km/s) = 8.61925 3.35871 6.54112
# Velocity P-wave (km/s) = 10.97667 6.52814 9.03061
#
# Compressibility (1/GPa) = 0.02285651
#
# Stress axis : x y z
#
# Youngs Moduli (GPa) = 94.59879 79.91091 38.05231
#
# Poissons Ratio (x) = 0.28176 0.24219
# Poissons Ratio (y) = 0.33354 0.12798
# Poissons Ratio (z) = 0.60210 0.26877
#
# Static dielectric constant tensor:
#      x y z
#    x 3.970310 0.000000 0.000000 
#    y 0.000000 3.837800 0.000000 
#    z 0.000000 0.000000 3.728620 
# 
# 
# High freq. dielectric constant tensor:
#      x y z
#    x 1.812970 0.000000 0.000000 
#    y 0.000000 1.805050 0.000000 
#    z 0.000000 0.000000 1.805800 
# 
# From -- ./inp_files/5706.got.cif
#   From: 2010.03.12/outbox.cif.g09.slc.cpg/sg57_3_cif.got.tgz:5706.got - 2010.04.16 15:48:40.
