data_PCOD8234149
_publ_section_title
;
Structure prediction by ZEFSAII (Michael W. Deem and Ramdas Pophale) SiO2 
 PCOD8234149
Probable space group: P B C M
;
_chemical_formula_sum "Si O2"
_cell_formula_units_Z 40
_cell_length_a 18.366806
_cell_length_b 9.286757
_cell_length_c 10.602186
_cell_angle_alpha 90.000000
_cell_angle_beta 90.000000
_cell_angle_gamma 90.000000
_cell_volume 1808.394342
_symmetry_space_group_name_H-M "P B C M"
_symmetry_group_IT_number 57
_symmetry_cell_setting 'orthorhombic'
loop_
_space_group_symop_operation_xyz
x,y,z
-x,-y,1/2+z
x,1/2-y,-z
-x,1/2+y,1/2-z
-x,-y,-z
x,y,1/2-z
-x,1/2+y,z
x,1/2-y,1/2+z
loop_
_atom_site_type_symbol
_atom_site_label
_atom_site_fract_x
_atom_site_fract_y
_atom_site_fract_z
Si Si1 0.112204 0.086258 0.036103
Si Si2 0.266802 0.129660 0.390356
Si Si3 0.614452 0.091668 0.968245
Si Si4 0.041185 0.862854 0.612966
Si Si5 0.542414 0.859038 0.387076
O O1 0.188327 0.049220 0.102738
O O2 0.039604 0.065806 0.120858
O O3 0.119426 0.250000 0.000000
O O4 0.100873 0.987357 0.911995
O O5 0.278436 0.250000 0.500000
O O6 0.273722 0.200388 0.250000
O O7 0.324421 0.001093 0.399476
O O8 0.543458 0.109412 0.880535
O O9 0.646166 0.250000 0.000000
O O10 0.586698 0.007649 0.093481
O O11 0.046827 0.750000 0.500000
O O12 0.058349 0.793405 0.750000
O O13 0.563710 0.750000 0.500000
O O14 0.565243 0.795085 0.250000
#
# Coordination Sequence:
#
# PCOD8234149 Si02
#       5
#     8   8   8   8   8
#     4   9  21  38  60  87 119 159 204 249 297 353
#     4  11  24  42  63  88 121 162 205 248 298 358
#     4  10  23  39  61  91 124 158 199 249 303 358
#     4  10  21  38  62  92 124 157 199 252 308 365
#     4  10  22  41  65  91 120 157 202 250 301 360
#
# _framework density 22.119069
#
# number of rings (size 3 to 8) (size 9 to 14) (size 15 to 20)
#    0.000    2.000    0.000    1.800    0.000   24.000 
#    0.000    0.000    0.000    0.000    0.000    0.000 
#    0.000    0.000    0.000    0.000    0.000    0.000 
#
# Total GULP energy -495545.174990 kJ/mol
# GULP energy per Si atom -12388.629375 kJ/mol
# Density = 2.206873 g / cm^3
# Si number density = 22.119069 Si / 1000 Ang^3
#
#
#
# Elastic Constant Matrix: (Units=GPa)
#
#
# Indices 1 2 3 4 5 6 
#
# 1 100.5200 51.8825 30.2088 0.0000 0.0000 0.0000
# 2 51.8825 118.1351 69.6649 0.0000 0.0000 0.0000
# 3 30.2088 69.6649 207.9563 0.0000 0.0000 0.0000
# 4 0.0000 0.0000 0.0000 32.2272 0.0000 0.0000
# 5 0.0000 0.0000 0.0000 0.0000 -130.9674 0.0000
# 6 0.0000 0.0000 0.0000 0.0000 0.0000 40.6811
#
#
#
# Elastic Compliance Matrix: (Units=1/GPa)
#
#
# Indices 1 2 3 4 5 6 
#
# 1 0.012864 -0.005667 0.000030 0.000000 0.000000 0.000000
# 2 -0.005667 0.013046 -0.003547 0.000000 0.000000 0.000000
# 3 0.000030 -0.003547 0.005993 0.000000 0.000000 0.000000
# 4 0.000000 0.000000 0.000000 0.031030 0.000000 0.000000
# 5 0.000000 0.000000 0.000000 0.000000 -0.007635 0.000000
# 6 0.000000 0.000000 0.000000 0.000000 0.000000 0.024581
#
#
# Mechanical properties :
#
#
# Convention : Reuss Voigt Hill
#
# Bulk Modulus (GPa) = 73.89051 81.12487 77.50769
# Shear Modulus (GPa) = 48.65776 6.71187 27.68481
#
# Velocity S-wave (km/s) = 4.69530 1.74385 3.54167
# Velocity P-wave (km/s) = 7.92924 6.38833 7.20012
#
# Compressibility (1/GPa) = 0.01353354
#
# Stress axis : x y z
#
# Youngs Moduli (GPa) = 77.73342 76.65456 166.87267
#
# Poissons Ratio (x) = 0.43443 -0.00497
# Poissons Ratio (y) = 0.44055 0.59189
# Poissons Ratio (z) = -0.00232 0.27189
#
# Static dielectric constant tensor:
#      x y z
#    x 4.546970 0.000000 0.000000 
#    y 0.000000 3.924750 0.000000 
#    z 0.000000 0.000000 3.807660 
# 
# 
# High freq. dielectric constant tensor:
#      x y z
#    x 1.872020 0.000000 0.000000 
#    y 0.000000 1.861530 0.000000 
#    z 0.000000 0.000000 1.859140 
# 
# From -- ./inp_files/14030.got.cif
#   From: 2010.03.12/outbox.cif.g09.slc.cpg/sg57_8_cif.got.tgz:14030.got - 2010.04.16 15:48:40.
