data_PCOD8234456
_publ_section_title
;
Structure prediction by ZEFSAII (Michael W. Deem and Ramdas Pophale) SiO2 
 PCOD8234456
Probable space group: P B C M
;
_chemical_formula_sum "Si O2"
_cell_formula_units_Z 36
_cell_length_a 21.471954
_cell_length_b 5.193133
_cell_length_c 12.567002
_cell_angle_alpha 90.000000
_cell_angle_beta 90.000000
_cell_angle_gamma 90.000000
_cell_volume 1401.305084
_symmetry_space_group_name_H-M "P B C M"
_symmetry_group_IT_number 57
_symmetry_cell_setting 'orthorhombic'
loop_
_space_group_symop_operation_xyz
x,y,z
-x,-y,1/2+z
x,1/2-y,-z
-x,1/2+y,1/2-z
-x,-y,-z
x,y,1/2-z
-x,1/2+y,z
x,1/2-y,1/2+z
loop_
_atom_site_type_symbol
_atom_site_label
_atom_site_fract_x
_atom_site_fract_y
_atom_site_fract_z
Si Si1 0.961463 0.464349 0.373584
Si Si2 0.252496 0.096541 0.875964
Si Si3 0.675591 0.098566 0.876709
Si Si4 0.139908 0.250000 0.000000
Si Si5 0.535242 0.098284 0.622957
O O1 0.944764 0.485385 0.250000
O O2 0.900012 0.536275 0.438045
O O3 0.984432 0.174386 0.402419
O O4 0.250138 0.075851 0.750000
O O5 0.280885 0.366620 0.916771
O O6 0.296346 0.867647 0.920980
O O7 0.181931 0.083778 0.918415
O O8 0.675410 0.102085 0.750000
O O9 0.605459 0.061339 0.918714
O O10 0.533495 0.094928 0.750000
O O11 0.509394 0.370976 0.579382
#
# Coordination Sequence:
#
# PCOD8234456 Si02
#       5
#     8   8   8   4   8
#     4  10  23  43  66  93 125 156 188 235 289 336
#     4  10  22  37  55  81 116 156 193 237 289 342
#     4   9  18  34  51  76 117 153 189 243 299 346
#     4  12  24  40  64  92 118 156 202 238 274 340
#     4   9  15  24  45  76 105 139 188 241 291 348
#
# _framework density 25.690337
#
# number of rings (size 3 to 8) (size 9 to 14) (size 15 to 20)
#    0.000    2.222    0.000    2.667    0.000    9.778 
#    0.000    6.667    0.000    0.000    0.000   15.556 
#    0.000    0.000    0.000    0.000    0.000    4.444 
#
# Total GULP energy -446700.684342 kJ/mol
# GULP energy per Si atom -12408.352343 kJ/mol
# Density = 2.563186 g / cm^3
# Si number density = 25.690337 Si / 1000 Ang^3
#
#
#
# Elastic Constant Matrix: (Units=GPa)
#
#
# Indices 1 2 3 4 5 6 
#
# 1 180.1018 66.9968 10.0158 0.0000 0.0000 0.0000
# 2 66.9968 157.1747 11.1671 0.0000 0.0000 0.0000
# 3 10.0158 11.1671 25.5256 0.0000 0.0000 0.0000
# 4 0.0000 0.0000 0.0000 29.6909 0.0000 0.0000
# 5 0.0000 0.0000 0.0000 0.0000 41.0561 0.0000
# 6 0.0000 0.0000 0.0000 0.0000 0.0000 32.4089
#
#
#
# Elastic Compliance Matrix: (Units=1/GPa)
#
#
# Indices 1 2 3 4 5 6 
#
# 1 0.006648 -0.002733 -0.001413 0.000000 0.000000 0.000000
# 2 -0.002733 0.007690 -0.002292 0.000000 0.000000 0.000000
# 3 -0.001413 -0.002292 0.040733 0.000000 0.000000 0.000000
# 4 0.000000 0.000000 0.000000 0.033680 0.000000 0.000000
# 5 0.000000 0.000000 0.000000 0.000000 0.024357 0.000000
# 6 0.000000 0.000000 0.000000 0.000000 0.000000 0.030856
#
#
# Mechanical properties :
#
#
# Convention : Reuss Voigt Hill
#
# Bulk Modulus (GPa) = 23.69916 59.90684 41.80300
# Shear Modulus (GPa) = 29.25599 38.93934 34.09767
#
# Velocity S-wave (km/s) = 3.37826 3.89745 3.64711
# Velocity P-wave (km/s) = 4.94589 6.60476 5.83458
#
# Compressibility (1/GPa) = 0.04219558
#
# Stress axis : x y z
#
# Youngs Moduli (GPa) = 150.42710 130.03458 24.54995
#
# Poissons Ratio (x) = 0.35542 0.03468
# Poissons Ratio (y) = 0.41116 0.05627
# Poissons Ratio (z) = 0.21250 0.29803
#
# Static dielectric constant tensor:
#      x y z
#    x 4.483030 0.000000 0.000000 
#    y 0.000000 4.739720 0.000000 
#    z 0.000000 0.000000 5.025890 
# 
# 
# High freq. dielectric constant tensor:
#      x y z
#    x 2.016200 0.000000 0.000000 
#    y 0.000000 2.031560 0.000000 
#    z 0.000000 0.000000 2.092680 
# 
# From -- ./inp_files/19215.got.cif
#   From: 2010.03.12/outbox.cif.g09.slc.cpg/sg57_10_cif.got.tgz:19215.got - 2010.04.16 15:48:40.
