data_PCOD8234771
_publ_section_title
;
Structure prediction by ZEFSAII (Michael W. Deem and Ramdas Pophale) SiO2 
 PCOD8234771
Probable space group: P B C M
;
_chemical_formula_sum "Si O2"
_cell_formula_units_Z 64
_cell_length_a 9.528701
_cell_length_b 18.940506
_cell_length_c 17.664465
_cell_angle_alpha 90.000000
_cell_angle_beta 90.000000
_cell_angle_gamma 90.000000
_cell_volume 3188.054706
_symmetry_space_group_name_H-M "P B C M"
_symmetry_group_IT_number 57
_symmetry_cell_setting 'orthorhombic'
loop_
_space_group_symop_operation_xyz
x,y,z
-x,-y,1/2+z
x,1/2-y,-z
-x,1/2+y,1/2-z
-x,-y,-z
x,y,1/2-z
-x,1/2+y,z
x,1/2-y,1/2+z
loop_
_atom_site_type_symbol
_atom_site_label
_atom_site_fract_x
_atom_site_fract_y
_atom_site_fract_z
Si Si1 0.772867 0.682411 0.662927
Si Si2 0.333892 0.076389 0.081859
Si Si3 0.137775 0.584228 0.396060
Si Si4 0.453812 0.384516 0.072493
Si Si5 0.105344 0.168290 0.338095
Si Si6 0.586716 0.024970 0.164014
Si Si7 0.760628 0.078737 0.939423
Si Si8 0.987022 0.942158 0.338784
O O1 0.729206 0.685572 0.750000
O O2 0.628068 0.678514 0.615454
O O3 0.862013 0.751102 0.640076
O O4 0.866833 0.614471 0.644637
O O5 0.201245 0.117976 0.111723
O O6 0.443013 0.067440 0.150827
O O7 0.286738 0.001557 0.048738
O O8 0.410156 0.118448 0.014935
O O9 0.284949 0.577313 0.352835
O O10 0.160821 0.602040 0.484184
O O11 0.055044 0.650433 0.359777
O O12 0.047702 0.512903 0.384782
O O13 0.405223 0.458054 0.109379
O O14 0.622138 0.374015 0.077719
O O15 0.132100 0.153546 0.250000
O O16 0.594605 0.998015 0.250000
O O17 0.864578 0.087747 0.868338
O O18 0.000721 0.959097 0.250000
#
# Coordination Sequence:
#
# PCOD8234771 Si02
#       8
#     8   8   8   8   8   8   8   8
#     4  10  23  43  63  87 121 162 207 257 313 377
#     4  11  21  38  59  90 128 153 202 259 310 364
#     4  12  21  38  60  94 126 163 200 260 310 372
#     4  11  21  39  60  90 121 160 206 252 304 371
#     4  11  25  41  61  90 123 161 207 257 316 377
#     4  11  20  34  61  91 123 161 201 249 307 363
#     4  11  22  37  61  92 127 156 201 261 310 356
#     4  11  22  37  62  92 122 160 209 255 306 373
#
# _framework density 20.074936999999998
#
# number of rings (size 3 to 8) (size 9 to 14) (size 15 to 20)
#    0.000    1.000    5.000    3.000    1.750    3.000 
#    0.000    1.250    2.750    3.000    0.000    0.000 
#    0.000    0.000    0.000    0.000    0.000    0.000 
#
# Total GULP energy -793836.351440 kJ/mol
# GULP energy per Si atom -12403.692991 kJ/mol
# Density = 2.002925 g / cm^3
# Si number density = 20.074937 Si / 1000 Ang^3
#
#
#
# Elastic Constant Matrix: (Units=GPa)
#
#
# Indices 1 2 3 4 5 6 
#
# 1 106.4860 22.4111 47.1595 0.0000 0.0000 0.0000
# 2 22.4111 63.8320 26.4487 0.0000 0.0000 0.0000
# 3 47.1595 26.4487 89.0427 0.0000 0.0000 0.0000
# 4 0.0000 0.0000 0.0000 9.9636 0.0000 0.0000
# 5 0.0000 0.0000 0.0000 0.0000 37.3544 0.0000
# 6 0.0000 0.0000 0.0000 0.0000 0.0000 29.3682
#
#
#
# Elastic Compliance Matrix: (Units=1/GPa)
#
#
# Indices 1 2 3 4 5 6 
#
# 1 0.012461 -0.001871 -0.006044 0.000000 0.000000 0.000000
# 2 -0.001871 0.018146 -0.004399 0.000000 0.000000 0.000000
# 3 -0.006044 -0.004399 0.015738 0.000000 0.000000 0.000000
# 4 0.000000 0.000000 0.000000 0.100365 0.000000 0.000000
# 5 0.000000 0.000000 0.000000 0.000000 0.026771 0.000000
# 6 0.000000 0.000000 0.000000 0.000000 0.000000 0.034050
#
#
# Mechanical properties :
#
#
# Convention : Reuss Voigt Hill
#
# Bulk Modulus (GPa) = 46.04597 50.15549 48.10073
# Shear Modulus (GPa) = 20.88564 26.22668 23.55616
#
# Velocity S-wave (km/s) = 3.22900 3.61839 3.42923
# Velocity P-wave (km/s) = 6.07361 6.51885 6.30016
#
# Compressibility (1/GPa) = 0.02171743
#
# Stress axis : x y z
#
# Youngs Moduli (GPa) = 80.24749 55.10951 63.53863
#
# Poissons Ratio (x) = 0.10310 0.38404
# Poissons Ratio (y) = 0.15012 0.27951
# Poissons Ratio (z) = 0.48504 0.24243
#
# Static dielectric constant tensor:
#      x y z
#    x 3.918780 0.000000 0.000000 
#    y 0.000000 3.416160 0.000000 
#    z 0.000000 0.000000 3.682970 
# 
# 
# High freq. dielectric constant tensor:
#      x y z
#    x 1.799050 0.000000 0.000000 
#    y 0.000000 1.743230 0.000000 
#    z 0.000000 0.000000 1.792970 
# 
# From -- ./inp_files/21430.got.cif
#   From: 2010.03.12/outbox.cif.g09.slc.cpg/sg57_11_cif.got.tgz:21430.got - 2010.04.16 15:48:40.
