data_PCOD8234095
_publ_section_title
;
Structure prediction by ZEFSAII (Michael W. Deem and Ramdas Pophale) SiO2 
 PCOD8234095
Probable space group: P B C M
;
_chemical_formula_sum "Si O2"
_cell_formula_units_Z 64
_cell_length_a 14.828672
_cell_length_b 23.775963
_cell_length_c 8.817557
_cell_angle_alpha 90.000000
_cell_angle_beta 90.000000
_cell_angle_gamma 90.000000
_cell_volume 3108.770420
_symmetry_space_group_name_H-M "P B C M"
_symmetry_group_IT_number 57
_symmetry_cell_setting 'orthorhombic'
loop_
_space_group_symop_operation_xyz
x,y,z
-x,-y,1/2+z
x,1/2-y,-z
-x,1/2+y,1/2-z
-x,-y,-z
x,y,1/2-z
-x,1/2+y,z
x,1/2-y,1/2+z
loop_
_atom_site_type_symbol
_atom_site_label
_atom_site_fract_x
_atom_site_fract_y
_atom_site_fract_z
Si Si1 0.352433 0.601859 0.075178
Si Si2 0.408414 0.018141 0.575352
Si Si3 0.172463 0.618691 0.929009
Si Si4 0.555628 0.873837 0.571441
Si Si5 0.096548 0.992629 0.573324
Si Si6 0.018025 0.810565 0.929515
Si Si7 0.864676 0.881837 0.076730
Si Si8 0.697938 0.694122 0.574297
O O1 0.338834 0.619309 0.250000
O O2 0.339559 0.533986 0.058368
O O3 0.451457 0.621332 0.017834
O O4 0.276443 0.631510 0.973093
O O5 0.424151 0.032951 0.750000
O O6 0.380759 0.075289 0.490574
O O7 0.500000 0.000000 0.500000
O O8 0.159108 0.621345 0.750000
O O9 0.148318 0.556899 0.988581
O O10 0.112337 0.666899 0.005347
O O11 0.560435 0.873894 0.750000
O O12 0.601176 0.818146 0.503675
O O13 0.087802 0.976682 0.750000
O O14 0.148580 0.051575 0.550328
O O15 0.000000 0.000000 0.500000
O O16 0.025089 0.804437 0.750000
O O17 0.994556 0.750000 0.000000
O O18 0.940806 0.855687 0.969032
O O19 0.894705 0.869877 0.250000
O O20 0.768508 0.855085 0.040360
O O21 0.738925 0.750000 0.500000
O O22 0.681479 0.704012 0.750000
#
# Coordination Sequence:
#
# PCOD8234095 Si02
#       8
#     8   8   8   8   8   8   8   8
#     4   9  20  38  59  85 121 162 204 250 307 363
#     4   9  17  31  53  81 115 152 193 241 293 355
#     4  12  25  40  61  93 131 168 212 258 309 374
#     4  10  21  38  60  87 119 157 203 255 306 365
#     4  11  22  39  63  93 131 169 208 255 314 376
#     4  12  25  43  68  92 122 162 206 257 310 367
#     4  10  23  42  65  93 127 165 208 256 311 374
#     4  11  24  42  63  90 123 164 209 263 317 374
#
# _framework density 20.586918000000001
#
# number of rings (size 3 to 8) (size 9 to 14) (size 15 to 20)
#    0.000    1.500    1.250    4.875    1.750    5.500 
#    0.000    0.625    0.000    3.000    0.000    0.000 
#    0.000    0.000    0.000    0.000    0.000    0.000 
#
# Total GULP energy -793575.099333 kJ/mol
# GULP energy per Si atom -12399.610927 kJ/mol
# Density = 2.054006 g / cm^3
# Si number density = 20.586918 Si / 1000 Ang^3
#
#
#
# Elastic Constant Matrix: (Units=GPa)
#
#
# Indices 1 2 3 4 5 6 
#
# 1 85.1343 17.0201 42.3162 0.0000 0.0000 0.0000
# 2 17.0201 70.1242 27.3922 0.0000 0.0000 0.0000
# 3 42.3162 27.3922 125.7416 0.0000 0.0000 0.0000
# 4 0.0000 0.0000 0.0000 36.3691 0.0000 0.0000
# 5 0.0000 0.0000 0.0000 0.0000 31.3022 0.0000
# 6 0.0000 0.0000 0.0000 0.0000 0.0000 -26.5557
#
#
#
# Elastic Compliance Matrix: (Units=1/GPa)
#
#
# Indices 1 2 3 4 5 6 
#
# 1 0.014297 -0.001739 -0.004433 0.000000 0.000000 0.000000
# 2 -0.001739 0.015798 -0.002856 0.000000 0.000000 0.000000
# 3 -0.004433 -0.002856 0.010067 0.000000 0.000000 0.000000
# 4 0.000000 0.000000 0.000000 0.027496 0.000000 0.000000
# 5 0.000000 0.000000 0.000000 0.000000 0.031947 0.000000
# 6 0.000000 0.000000 0.000000 0.000000 0.000000 -0.037657
#
#
# Mechanical properties :
#
#
# Convention : Reuss Voigt Hill
#
# Bulk Modulus (GPa) = 45.23539 50.49524 47.86531
# Shear Modulus (GPa) = 57.22654 21.17457 39.20055
#
# Velocity S-wave (km/s) = 5.27806 3.21057 4.36839
# Velocity P-wave (km/s) = 7.69184 6.19070 6.98173
#
# Compressibility (1/GPa) = 0.02210659
#
# Stress axis : x y z
#
# Youngs Moduli (GPa) = 69.94483 63.29834 99.33613
#
# Poissons Ratio (x) = 0.11005 0.44032
# Poissons Ratio (y) = 0.12160 0.28375
# Poissons Ratio (z) = 0.31004 0.18081
#
# Static dielectric constant tensor:
#      x y z
#    x 3.667190 0.000000 0.000000 
#    y 0.000000 4.126170 0.000000 
#    z 0.000000 0.000000 3.631640 
# 
# 
# High freq. dielectric constant tensor:
#      x y z
#    x 1.804130 0.000000 0.000000 
#    y 0.000000 1.800400 0.000000 
#    z 0.000000 0.000000 1.811620 
# 
# From -- ./inp_files/5739.got.cif
#   From: 2010.03.12/outbox.cif.g09.slc.cpg/sg57_3_cif.got.tgz:5739.got - 2010.04.16 15:48:40.
