data_PCOD8234187
_publ_section_title
;
Structure prediction by ZEFSAII (Michael W. Deem and Ramdas Pophale) SiO2 
 PCOD8234187
Probable space group: P B C M
;
_chemical_formula_sum "Si O2"
_cell_formula_units_Z 64
_cell_length_a 9.192493
_cell_length_b 23.774750
_cell_length_c 15.226014
_cell_angle_alpha 90.000000
_cell_angle_beta 90.000000
_cell_angle_gamma 90.000000
_cell_volume 3327.633528
_symmetry_space_group_name_H-M "P B C M"
_symmetry_group_IT_number 57
_symmetry_cell_setting 'orthorhombic'
loop_
_space_group_symop_operation_xyz
x,y,z
-x,-y,1/2+z
x,1/2-y,-z
-x,1/2+y,1/2-z
-x,-y,-z
x,y,1/2-z
-x,1/2+y,z
x,1/2-y,1/2+z
loop_
_atom_site_type_symbol
_atom_site_label
_atom_site_fract_x
_atom_site_fract_y
_atom_site_fract_z
Si Si1 0.576880 0.059523 0.495669
Si Si2 0.425624 0.252103 0.402079
Si Si3 0.111058 0.254301 0.351328
Si Si4 0.918623 0.140814 0.850229
Si Si5 0.918068 0.871723 0.648286
Si Si6 0.582670 0.361029 0.347002
Si Si7 0.417349 0.127321 0.150716
Si Si8 0.077925 0.559114 0.003791
O O1 0.525976 0.094694 0.581163
O O2 0.525365 0.092055 0.409438
O O3 0.749348 0.051048 0.492367
O O4 0.500000 0.000000 0.500000
O O5 0.490363 0.250000 0.500000
O O6 0.500057 0.302140 0.349449
O O7 0.456072 0.193252 0.354089
O O8 0.254176 0.265047 0.408501
O O9 0.159286 0.257374 0.250000
O O10 0.994980 0.301201 0.377028
O O11 0.042146 0.193280 0.370578
O O12 0.956053 0.122922 0.750000
O O13 0.750028 0.152718 0.863845
O O14 0.970781 0.091974 0.915732
O O15 0.944270 0.887213 0.750000
O O16 0.025558 0.908911 0.590587
O O17 0.749876 0.883055 0.622272
O O18 0.559292 0.387567 0.250000
O O19 0.442033 0.106815 0.250000
O O20 0.000000 0.500000 0.000000
#
# Coordination Sequence:
#
# PCOD8234187 Si02
#       8
#     8   8   8   8   8   8   8   8
#     4  11  24  41  59  85 115 149 204 246 290 350
#     4  11  20  33  58  91 121 151 188 234 283 344
#     4   9  19  35  56  88 118 150 188 227 282 347
#     4   9  21  39  59  83 115 151 189 233 287 344
#     4   9  20  38  59  84 117 153 189 230 288 346
#     4  10  21  40  60  83 117 155 190 235 290 346
#     4  10  21  39  60  85 120 157 190 235 291 345
#     4  11  24  39  59  84 112 151 196 245 292 340
#
# _framework density 19.232887000000002
#
# number of rings (size 3 to 8) (size 9 to 14) (size 15 to 20)
#    0.000    2.000    1.250    2.625    3.500    3.500 
#    0.000    3.750    0.000    0.000    0.000    0.000 
#    0.000    0.000    0.000    0.000    0.000    0.000 
#
# Total GULP energy -793732.421900 kJ/mol
# GULP energy per Si atom -12402.069092 kJ/mol
# Density = 1.918911 g / cm^3
# Si number density = 19.232887 Si / 1000 Ang^3
#
#
#
# Elastic Constant Matrix: (Units=GPa)
#
#
# Indices 1 2 3 4 5 6 
#
# 1 69.6942 64.5377 47.1067 0.0000 0.0000 0.0000
# 2 64.5377 144.0339 61.7117 0.0000 0.0000 0.0000
# 3 47.1067 61.7117 113.0271 0.0000 0.0000 0.0000
# 4 0.0000 0.0000 0.0000 22.9089 0.0000 0.0000
# 5 0.0000 0.0000 0.0000 0.0000 32.9300 0.0000
# 6 0.0000 0.0000 0.0000 0.0000 0.0000 36.4258
#
#
#
# Elastic Compliance Matrix: (Units=1/GPa)
#
#
# Indices 1 2 3 4 5 6 
#
# 1 0.027469 -0.009664 -0.006172 0.000000 0.000000 0.000000
# 2 -0.009664 0.012463 -0.002777 0.000000 0.000000 0.000000
# 3 -0.006172 -0.002777 0.012936 0.000000 0.000000 0.000000
# 4 0.000000 0.000000 0.000000 0.043651 0.000000 0.000000
# 5 0.000000 0.000000 0.000000 0.000000 0.030367 0.000000
# 6 0.000000 0.000000 0.000000 0.000000 0.000000 0.027453
#
#
# Mechanical properties :
#
#
# Convention : Reuss Voigt Hill
#
# Bulk Modulus (GPa) = 63.92967 74.82971 69.37969
# Shear Modulus (GPa) = 25.40936 28.67953 27.04445
#
# Velocity S-wave (km/s) = 3.63869 3.86576 3.75394
# Velocity P-wave (km/s) = 7.13900 7.67575 7.41224
#
# Compressibility (1/GPa) = 0.01564219
#
# Stress axis : x y z
#
# Youngs Moduli (GPa) = 36.40517 80.24032 77.30393
#
# Poissons Ratio (x) = 0.77540 0.47712
# Poissons Ratio (y) = 0.35180 0.21467
# Poissons Ratio (z) = 0.22469 0.22282
#
# Static dielectric constant tensor:
#      x y z
#    x 3.334030 0.000000 0.000000 
#    y 0.000000 3.495080 0.000000 
#    z 0.000000 0.000000 3.708220 
# 
# 
# High freq. dielectric constant tensor:
#      x y z
#    x 1.740300 0.000000 0.000000 
#    y 0.000000 1.745040 0.000000 
#    z 0.000000 0.000000 1.761920 
# 
# From -- ./inp_files/16945.got.cif
#   From: 2010.03.12/outbox.cif.g09.slc.cpg/sg57_9_cif.got.tgz:16945.got - 2010.04.16 15:48:40.
