data_PCOD8234879
_publ_section_title
;
Structure prediction by ZEFSAII (Michael W. Deem and Ramdas Pophale) SiO2 
 PCOD8234879
Probable space group: P B C M
;
_chemical_formula_sum "Si O2"
_cell_formula_units_Z 24
_cell_length_a 8.960555
_cell_length_b 10.238407
_cell_length_c 12.306114
_cell_angle_alpha 90.000000
_cell_angle_beta 90.000000
_cell_angle_gamma 90.000000
_cell_volume 1128.985161
_symmetry_space_group_name_H-M "P B C M"
_symmetry_group_IT_number 57
_symmetry_cell_setting 'orthorhombic'
loop_
_space_group_symop_operation_xyz
x,y,z
-x,-y,1/2+z
x,1/2-y,-z
-x,1/2+y,1/2-z
-x,-y,-z
x,y,1/2-z
-x,1/2+y,z
x,1/2-y,1/2+z
loop_
_atom_site_type_symbol
_atom_site_label
_atom_site_fract_x
_atom_site_fract_y
_atom_site_fract_z
Si Si1 0.370207 0.594541 0.370551
Si Si2 0.146670 0.740251 0.250000
Si Si3 0.307552 0.384157 0.543490
Si Si4 0.120306 0.037127 0.250000
O O1 0.400103 0.532990 0.250000
O O2 0.253419 0.715943 0.356301
O O3 0.295909 0.486099 0.445917
O O4 0.522846 0.646456 0.421785
O O5 0.023529 0.627225 0.250000
O O6 0.074773 0.883618 0.250000
O O7 0.235711 0.250000 0.500000
O O8 0.216208 0.437399 0.643978
#
# Coordination Sequence:
#
# PCOD8234879 Si02
#       4
#     8   4   8   4
#     4   9  23  44  69 102 134 179 227 288 341 405
#     4  10  27  46  72  96 148 178 237 278 346 414
#     4  11  25  41  76 100 140 175 235 288 350 408
#     4  12  27  48  68 104 138 190 229 284 346 414
#
# _framework density 21.258030000000002
#
# number of rings (size 3 to 8) (size 9 to 14) (size 15 to 20)
#    1.000    0.667    1.667    0.000   16.333    1.333 
#    0.000    0.000    0.000    0.000    0.000    0.000 
#    0.000    0.000    0.000    0.000    0.000    0.000 
#
# Total GULP energy -297483.391975 kJ/mol
# GULP energy per Si atom -12395.141332 kJ/mol
# Density = 2.120965 g / cm^3
# Si number density = 21.258030 Si / 1000 Ang^3
#
#
#
# Elastic Constant Matrix: (Units=GPa)
#
#
# Indices 1 2 3 4 5 6 
#
# 1 71.9957 53.0931 9.4301 0.0000 0.0000 0.0000
# 2 53.0931 156.5604 51.4677 0.0000 0.0000 0.0000
# 3 9.4301 51.4677 131.7206 0.0000 0.0000 0.0000
# 4 0.0000 0.0000 0.0000 -73.6837 0.0000 0.0000
# 5 0.0000 0.0000 0.0000 0.0000 4.6949 0.0000
# 6 0.0000 0.0000 0.0000 0.0000 0.0000 22.0458
#
#
#
# Elastic Compliance Matrix: (Units=1/GPa)
#
#
# Indices 1 2 3 4 5 6 
#
# 1 0.018716 -0.006777 0.001308 0.000000 0.000000 0.000000
# 2 -0.006777 0.009783 -0.003337 0.000000 0.000000 0.000000
# 3 0.001308 -0.003337 0.008802 0.000000 0.000000 0.000000
# 4 0.000000 0.000000 0.000000 -0.013572 0.000000 0.000000
# 5 0.000000 0.000000 0.000000 0.000000 0.212999 0.000000
# 6 0.000000 0.000000 0.000000 0.000000 0.000000 0.045360
#
#
# Mechanical properties :
#
#
# Convention : Reuss Voigt Hill
#
# Bulk Modulus (GPa) = 50.79103 65.36205 58.07654
# Shear Modulus (GPa) = 16.32580 7.03046 11.67813
#
# Velocity S-wave (km/s) = 2.77426 1.82054 2.34637
# Velocity P-wave (km/s) = 5.84863 5.93573 5.89234
#
# Compressibility (1/GPa) = 0.01968852
#
# Stress axis : x y z
#
# Youngs Moduli (GPa) = 53.42994 102.22187 113.60869
#
# Poissons Ratio (x) = 0.69276 -0.14861
# Poissons Ratio (y) = 0.36210 0.37914
# Poissons Ratio (z) = -0.06989 0.34114
#
# Static dielectric constant tensor:
#      x y z
#    x 3.760030 0.000000 0.000000 
#    y 0.000000 3.680330 0.000000 
#    z 0.000000 0.000000 3.972100 
# 
# 
# High freq. dielectric constant tensor:
#      x y z
#    x 1.825320 0.000000 0.000000 
#    y 0.000000 1.826780 0.000000 
#    z 0.000000 0.000000 1.848220 
# 
# From -- ./inp_files/11166.got.cif
#   From: 2010.03.12/outbox.cif.g09.slc.cpg/sg57_6_cif.got.tgz:11166.got - 2010.04.16 15:48:40.
