data_PCOD8234991
_publ_section_title
;
Structure prediction by ZEFSAII (Michael W. Deem and Ramdas Pophale) SiO2 
 PCOD8234991
Probable space group: P B C M
;
_chemical_formula_sum "Si O2"
_cell_formula_units_Z 32
_cell_length_a 20.504880
_cell_length_b 9.185478
_cell_length_c 8.561775
_cell_angle_alpha 90.000000
_cell_angle_beta 90.000000
_cell_angle_gamma 90.000000
_cell_volume 1612.585699
_symmetry_space_group_name_H-M "P B C M"
_symmetry_group_IT_number 57
_symmetry_cell_setting 'orthorhombic'
loop_
_space_group_symop_operation_xyz
x,y,z
-x,-y,1/2+z
x,1/2-y,-z
-x,1/2+y,1/2-z
-x,-y,-z
x,y,1/2-z
-x,1/2+y,z
x,1/2-y,1/2+z
loop_
_atom_site_type_symbol
_atom_site_label
_atom_site_fract_x
_atom_site_fract_y
_atom_site_fract_z
Si Si1 0.440302 0.089331 0.567030
Si Si2 0.312813 0.909361 0.565617
Si Si3 0.804118 0.590534 0.434565
Si Si4 0.940790 0.590748 0.935049
O O1 0.438720 0.250000 0.500000
O O2 0.449291 0.099849 0.750000
O O3 0.500000 0.000000 0.500000
O O4 0.373942 0.008901 0.520182
O O5 0.326773 0.750000 0.500000
O O6 0.300963 0.903637 0.750000
O O7 0.250167 0.975104 0.481351
O O8 0.786601 0.750000 0.500000
O O9 0.809995 0.602930 0.250000
O O10 0.871853 0.529149 0.503849
O O11 0.941037 0.589868 0.750000
O O12 0.950713 0.750000 0.000000
O O13 0.000000 0.500000 0.000000
#
# Coordination Sequence:
#
# PCOD8234991 Si02
#       4
#     8   8   8   8
#     4  11  24  41  64  91 123 159 200 245 296 352
#     4  11  24  41  61  89 121 157 198 246 297 352
#     4  11  22  39  62  88 118 156 198 244 296 354
#     4  11  22  39  61  88 120 156 198 245 296 354
#
# _framework density 19.843906
#
# number of rings (size 3 to 8) (size 9 to 14) (size 15 to 20)
#    0.000    1.000    0.000    9.000    0.000    9.000 
#    0.000    5.000    0.000    0.000    0.000    0.000 
#    0.000    0.000    0.000    0.000    0.000    0.000 
#
# Total GULP energy -396966.053396 kJ/mol
# GULP energy per Si atom -12405.189169 kJ/mol
# Density = 1.979874 g / cm^3
# Si number density = 19.843906 Si / 1000 Ang^3
#
#
#
# Elastic Constant Matrix: (Units=GPa)
#
#
# Indices 1 2 3 4 5 6 
#
# 1 173.4211 94.1996 87.2100 0.0000 0.0000 0.0000
# 2 94.1996 141.2086 68.6233 0.0000 0.0000 0.0000
# 3 87.2100 68.6233 165.7341 0.0000 0.0000 0.0000
# 4 0.0000 0.0000 0.0000 39.6941 0.0000 0.0000
# 5 0.0000 0.0000 0.0000 0.0000 36.1456 0.0000
# 6 0.0000 0.0000 0.0000 0.0000 0.0000 119.7752
#
#
#
# Elastic Compliance Matrix: (Units=1/GPa)
#
#
# Indices 1 2 3 4 5 6 
#
# 1 0.010244 -0.005276 -0.003206 0.000000 0.000000 0.000000
# 2 -0.005276 0.011583 -0.002020 0.000000 0.000000 0.000000
# 3 -0.003206 -0.002020 0.008557 0.000000 0.000000 0.000000
# 4 0.000000 0.000000 0.000000 0.025193 0.000000 0.000000
# 5 0.000000 0.000000 0.000000 0.000000 0.027666 0.000000
# 6 0.000000 0.000000 0.000000 0.000000 0.000000 0.008349
#
#
# Mechanical properties :
#
#
# Convention : Reuss Voigt Hill
#
# Bulk Modulus (GPa) = 106.60079 108.93661 107.76870
# Shear Modulus (GPa) = 43.20691 54.47838 48.84264
#
# Velocity S-wave (km/s) = 4.67126 5.24529 4.96657
# Velocity P-wave (km/s) = 9.10662 9.57601 9.34426
#
# Compressibility (1/GPa) = 0.00938079
#
# Stress axis : x y z
#
# Youngs Moduli (GPa) = 97.61441 86.33507 116.86183
#
# Poissons Ratio (x) = 0.45550 0.37467
# Poissons Ratio (y) = 0.51500 0.23603
# Poissons Ratio (z) = 0.31296 0.17437
#
# Static dielectric constant tensor:
#      x y z
#    x 2.919980 0.000000 0.000000 
#    y 0.000000 3.383760 0.000000 
#    z 0.000000 0.000000 3.857390 
# 
# 
# High freq. dielectric constant tensor:
#      x y z
#    x 1.794530 0.000000 0.000000 
#    y 0.000000 1.779340 0.000000 
#    z 0.000000 0.000000 1.798180 
# 
# From -- ./inp_files/7540.got.cif
#   From: 2010.03.12/outbox.cif.g09.slc.cpg/sg57_4_cif.got.tgz:7540.got - 2010.04.16 15:48:40.
