data_PCOD8234982
_publ_section_title
;
Structure prediction by ZEFSAII (Michael W. Deem and Ramdas Pophale) SiO2 
 PCOD8234982
Probable space group: P B C M
;
_chemical_formula_sum "Si O2"
_cell_formula_units_Z 48
_cell_length_a 15.447544
_cell_length_b 9.317320
_cell_length_c 16.821080
_cell_angle_alpha 90.000000
_cell_angle_beta 90.000000
_cell_angle_gamma 90.000000
_cell_volume 2421.053177
_symmetry_space_group_name_H-M "P B C M"
_symmetry_group_IT_number 57
_symmetry_cell_setting 'orthorhombic'
loop_
_space_group_symop_operation_xyz
x,y,z
-x,-y,1/2+z
x,1/2-y,-z
-x,1/2+y,1/2-z
-x,-y,-z
x,y,1/2-z
-x,1/2+y,z
x,1/2-y,1/2+z
loop_
_atom_site_type_symbol
_atom_site_label
_atom_site_fract_x
_atom_site_fract_y
_atom_site_fract_z
Si Si1 0.586785 0.313872 0.155054
Si Si2 0.776108 0.287552 0.344331
Si Si3 0.936807 0.470152 0.343227
Si Si4 0.568840 0.997284 0.343905
Si Si5 0.761614 0.538955 0.843550
Si Si6 0.087743 0.217192 0.591819
O O1 0.582773 0.314438 0.250000
O O2 0.684171 0.355624 0.127043
O O3 0.513032 0.415332 0.117618
O O4 0.566628 0.156609 0.121249
O O5 0.778105 0.287635 0.250000
O O6 0.852982 0.386461 0.378312
O O7 0.785371 0.122455 0.373053
O O8 0.946419 0.443388 0.250000
O O9 0.929812 0.639185 0.358387
O O10 0.020675 0.407258 0.385792
O O11 0.557197 0.002194 0.250000
O O12 0.661411 0.924844 0.363607
O O13 0.780273 0.553007 0.750000
O O14 0.817095 0.656889 0.889912
O O15 0.078843 0.250000 0.500000
#
# Coordination Sequence:
#
# PCOD8234982 Si02
#       6
#     8   8   8   8   8   8
#     4   8  13  23  39  69 107 136 163 209 266 313
#     4   8  16  30  51  77 106 136 173 219 267 315
#     4  11  22  38  59  81 104 139 181 221 265 324
#     4   8  14  23  41  68 101 135 168 210 263 313
#     4   9  17  33  53  75 104 142 181 219 263 317
#     4  12  25  39  55  80 110 140 174 222 275 322
#
# _framework density 19.826082
#
# number of rings (size 3 to 8) (size 9 to 14) (size 15 to 20)
#    0.000    2.667    0.000    5.000    0.000    2.667 
#    0.000    5.000    0.000    0.000    0.000   11.667 
#    0.000    0.000    0.000    0.000    0.000    0.000 
#
# Total GULP energy -594967.894775 kJ/mol
# GULP energy per Si atom -12395.164474 kJ/mol
# Density = 1.978096 g / cm^3
# Si number density = 19.826082 Si / 1000 Ang^3
#
#
#
# Elastic Constant Matrix: (Units=GPa)
#
#
# Indices 1 2 3 4 5 6 
#
# 1 106.1614 29.2367 10.0955 0.0000 0.0000 0.0000
# 2 29.2367 62.6493 -1.9939 0.0000 0.0000 0.0000
# 3 10.0955 -1.9939 27.3713 0.0000 0.0000 0.0000
# 4 0.0000 0.0000 0.0000 10.9708 0.0000 0.0000
# 5 0.0000 0.0000 0.0000 0.0000 -6.3006 0.0000
# 6 0.0000 0.0000 0.0000 0.0000 0.0000 43.4377
#
#
#
# Elastic Compliance Matrix: (Units=1/GPa)
#
#
# Indices 1 2 3 4 5 6 
#
# 1 0.011355 -0.005445 -0.004585 0.000000 0.000000 0.000000
# 2 -0.005445 0.018610 0.003364 0.000000 0.000000 0.000000
# 3 -0.004585 0.003364 0.038471 0.000000 0.000000 0.000000
# 4 0.000000 0.000000 0.000000 0.091151 0.000000 0.000000
# 5 0.000000 0.000000 0.000000 0.000000 -0.158716 0.000000
# 6 0.000000 0.000000 0.000000 0.000000 0.000000 0.023021
#
#
# Mechanical properties :
#
#
# Convention : Reuss Voigt Hill
#
# Bulk Modulus (GPa) = 18.14749 30.09540 24.12144
# Shear Modulus (GPa) = 89.94066 20.21117 55.07592
#
# Velocity S-wave (km/s) = 6.74265 3.19631 5.27635
# Velocity P-wave (km/s) = 8.35410 5.36977 7.02230
#
# Compressibility (1/GPa) = 0.05510405
#
# Stress axis : x y z
#
# Youngs Moduli (GPa) = 88.06560 53.73457 25.99380
#
# Poissons Ratio (x) = 0.29259 0.11918
# Poissons Ratio (y) = 0.47952 -0.08744
# Poissons Ratio (z) = 0.40377 -0.18076
#
# Static dielectric constant tensor:
#      x y z
#    x 4.093820 0.000000 0.000000 
#    y 0.000000 3.830880 0.000000 
#    z 0.000000 0.000000 3.009930 
# 
# 
# High freq. dielectric constant tensor:
#      x y z
#    x 1.793230 0.000000 0.000000 
#    y 0.000000 1.771110 0.000000 
#    z 0.000000 0.000000 1.716050 
# 
# From -- ./inp_files/22420.got.cif
#   From: 2010.03.12/outbox.cif.g09.slc.cpg/sg57_12_cif.got.tgz:22420.got - 2010.04.16 15:48:40.
