data_PCOD8234595
_publ_section_title
;
Structure prediction by ZEFSAII (Michael W. Deem and Ramdas Pophale) SiO2 
 PCOD8234595
Probable space group: P B C M
;
_chemical_formula_sum "Si O2"
_cell_formula_units_Z 40
_cell_length_a 14.023554
_cell_length_b 9.593401
_cell_length_c 13.224750
_cell_angle_alpha 90.000000
_cell_angle_beta 90.000000
_cell_angle_gamma 90.000000
_cell_volume 1779.172922
_symmetry_space_group_name_H-M "P B C M"
_symmetry_group_IT_number 57
_symmetry_cell_setting 'orthorhombic'
loop_
_space_group_symop_operation_xyz
x,y,z
-x,-y,1/2+z
x,1/2-y,-z
-x,1/2+y,1/2-z
-x,-y,-z
x,y,1/2-z
-x,1/2+y,z
x,1/2-y,1/2+z
loop_
_atom_site_type_symbol
_atom_site_label
_atom_site_fract_x
_atom_site_fract_y
_atom_site_fract_z
Si Si1 0.067144 0.976830 0.366170
Si Si2 0.746142 0.867768 0.925885
Si Si3 0.386986 0.279583 0.750000
Si Si4 0.567934 0.036624 0.250000
Si Si5 0.691245 0.389213 0.941063
Si Si6 0.099150 0.669914 0.129442
O O1 0.040745 0.952148 0.250000
O O2 0.164701 0.062036 0.371245
O O3 0.978948 0.061804 0.415601
O O4 0.081995 0.824885 0.418260
O O5 0.679372 0.789067 0.847318
O O6 0.787100 0.750000 0.000000
O O7 0.681237 0.981423 0.982972
O O8 0.461225 0.405768 0.750000
O O9 0.438970 0.130431 0.750000
O O10 0.620206 0.094541 0.151538
O O11 0.798753 0.387633 0.900875
O O12 0.662259 0.250000 0.000000
O O13 0.091798 0.680279 0.250000
#
# Coordination Sequence:
#
# PCOD8234595 Si02
#       6
#     8   8   4   4   8   8
#     4  10  22  40  66 100 143 192 235 288 342 413
#     4  12  26  46  73 106 143 186 239 289 350 426
#     4  12  30  52  77 106 141 182 233 296 368 422
#     4  12  30  52  77 106 143 182 229 302 360 428
#     4  12  26  46  75 108 143 189 239 290 353 425
#     4  10  22  40  66 102 144 191 238 284 347 409
#
# _framework density 22.482357
#
# number of rings (size 3 to 8) (size 9 to 14) (size 15 to 20)
#    0.000    0.800    6.000    0.000    5.600    3.200 
#    0.000    0.000    0.000    0.000    0.000    0.000 
#    0.000    0.000    0.000    0.000    0.000    0.000 
#
# Total GULP energy -496310.282175 kJ/mol
# GULP energy per Si atom -12407.757054 kJ/mol
# Density = 2.243119 g / cm^3
# Si number density = 22.482357 Si / 1000 Ang^3
#
#
#
# Elastic Constant Matrix: (Units=GPa)
#
#
# Indices 1 2 3 4 5 6 
#
# 1 92.9219 27.1370 14.8580 0.0000 0.0000 0.0000
# 2 27.1370 150.4525 31.5532 0.0000 0.0000 0.0000
# 3 14.8580 31.5532 47.7643 0.0000 0.0000 0.0000
# 4 0.0000 0.0000 0.0000 29.1719 0.0000 0.0000
# 5 0.0000 0.0000 0.0000 0.0000 -17.9954 0.0000
# 6 0.0000 0.0000 0.0000 0.0000 0.0000 42.1800
#
#
#
# Elastic Compliance Matrix: (Units=1/GPa)
#
#
# Indices 1 2 3 4 5 6 
#
# 1 0.011630 -0.001554 -0.002591 0.000000 0.000000 0.000000
# 2 -0.001554 0.007923 -0.004751 0.000000 0.000000 0.000000
# 3 -0.002591 -0.004751 0.024880 0.000000 0.000000 0.000000
# 4 0.000000 0.000000 0.000000 0.034280 0.000000 0.000000
# 5 0.000000 0.000000 0.000000 0.000000 -0.055570 0.000000
# 6 0.000000 0.000000 0.000000 0.000000 0.000000 0.023708
#
#
# Mechanical properties :
#
#
# Convention : Reuss Voigt Hill
#
# Bulk Modulus (GPa) = 37.53496 48.69280 43.11388
# Shear Modulus (GPa) = 68.00525 25.17733 46.59129
#
# Velocity S-wave (km/s) = 5.50581 3.35008 4.55724
# Velocity P-wave (km/s) = 7.55977 6.05552 6.84907
#
# Compressibility (1/GPa) = 0.02664183
#
# Stress axis : x y z
#
# Youngs Moduli (GPa) = 85.98498 126.21035 40.19228
#
# Poissons Ratio (x) = 0.19617 0.10414
# Poissons Ratio (y) = 0.13365 0.19094
# Poissons Ratio (z) = 0.22278 0.59958
#
# Static dielectric constant tensor:
#      x y z
#    x 3.775360 0.000000 0.000000 
#    y 0.000000 4.363300 0.000000 
#    z 0.000000 0.000000 4.271640 
# 
# 
# High freq. dielectric constant tensor:
#      x y z
#    x 1.871660 0.000000 0.000000 
#    y 0.000000 1.905310 0.000000 
#    z 0.000000 0.000000 1.914210 
# 
# From -- ./inp_files/18249.got.cif
#   From: 2010.03.12/outbox.cif.g09.slc.cpg/sg57_10_cif.got.tgz:18249.got - 2010.04.16 15:48:40.
