data_PCOD8234848
_publ_section_title
;
Structure prediction by ZEFSAII (Michael W. Deem and Ramdas Pophale) SiO2 
 PCOD8234848
Probable space group: P B C M
;
_chemical_formula_sum "Si O2"
_cell_formula_units_Z 36
_cell_length_a 15.974818
_cell_length_b 8.509934
_cell_length_c 13.235362
_cell_angle_alpha 90.000000
_cell_angle_beta 90.000000
_cell_angle_gamma 90.000000
_cell_volume 1799.276613
_symmetry_space_group_name_H-M "P B C M"
_symmetry_group_IT_number 57
_symmetry_cell_setting 'orthorhombic'
loop_
_space_group_symop_operation_xyz
x,y,z
-x,-y,1/2+z
x,1/2-y,-z
-x,1/2+y,1/2-z
-x,-y,-z
x,y,1/2-z
-x,1/2+y,z
x,1/2-y,1/2+z
loop_
_atom_site_type_symbol
_atom_site_label
_atom_site_fract_x
_atom_site_fract_y
_atom_site_fract_z
Si Si1 0.772848 0.903386 0.558771
Si Si2 0.943525 0.280574 0.750000
Si Si3 0.083559 0.580884 0.456481
Si Si4 0.597297 0.000711 0.628125
Si Si5 0.499373 0.750000 0.500000
Si Si6 0.117085 0.087378 0.250000
O O1 0.739863 0.750000 0.500000
O O2 0.829866 0.996601 0.480547
O O3 0.695138 0.003861 0.600092
O O4 0.830699 0.864121 0.653137
O O5 0.913442 0.393703 0.838366
O O6 0.910152 0.099184 0.750000
O O7 0.043759 0.283758 0.750000
O O8 0.083541 0.750000 0.500000
O O9 0.000000 0.500000 0.500000
O O10 0.584576 0.999246 0.750000
O O11 0.557765 0.153687 0.577535
O O12 0.555825 0.850151 0.576055
#
# Coordination Sequence:
#
# PCOD8234848 Si02
#       6
#     8   4   8   8   4   4
#     4  12  26  43  66  97 135 174 224 283 331 394
#     4  12  24  42  66  92 130 183 229 275 334 393
#     4  12  24  41  63  94 129 174 226 276 330 388
#     4  11  23  45  73 101 139 177 220 273 338 408
#     4  10  24  44  72 108 134 174 222 274 338 406
#     4  12  26  42  66  90 130 177 231 273 338 393
#
# _framework density 20.008039
#
# number of rings (size 3 to 8) (size 9 to 14) (size 15 to 20)
#    0.000    0.444    6.667    1.333    4.667    0.000 
#    0.000    0.000    4.889    0.000    0.000    0.000 
#    0.000    0.000    0.000    0.000    0.000    0.000 
#
# Total GULP energy -446113.080686 kJ/mol
# GULP energy per Si atom -12392.030019 kJ/mol
# Density = 1.996250 g / cm^3
# Si number density = 20.008039 Si / 1000 Ang^3
#
#
#
# Elastic Constant Matrix: (Units=GPa)
#
#
# Indices 1 2 3 4 5 6 
#
# 1 121.4994 30.7187 52.8861 0.0000 0.0000 0.0000
# 2 30.7187 79.5995 37.8056 0.0000 0.0000 0.0000
# 3 52.8861 37.8056 172.6814 0.0000 0.0000 0.0000
# 4 0.0000 0.0000 0.0000 47.2717 0.0000 0.0000
# 5 0.0000 0.0000 0.0000 0.0000 39.5659 0.0000
# 6 0.0000 0.0000 0.0000 0.0000 0.0000 -35.8949
#
#
#
# Elastic Compliance Matrix: (Units=1/GPa)
#
#
# Indices 1 2 3 4 5 6 
#
# 1 0.009983 -0.002679 -0.002471 0.000000 0.000000 0.000000
# 2 -0.002679 0.014740 -0.002406 0.000000 0.000000 0.000000
# 3 -0.002471 -0.002406 0.007075 0.000000 0.000000 0.000000
# 4 0.000000 0.000000 0.000000 0.021154 0.000000 0.000000
# 5 0.000000 0.000000 0.000000 0.000000 0.025274 0.000000
# 6 0.000000 0.000000 0.000000 0.000000 0.000000 -0.027859
#
#
# Mechanical properties :
#
#
# Convention : Reuss Voigt Hill
#
# Bulk Modulus (GPa) = 59.93569 68.51123 64.22346
# Shear Modulus (GPa) = 70.38063 27.01318 48.69690
#
# Velocity S-wave (km/s) = 5.93738 3.67838 4.93878
# Velocity P-wave (km/s) = 8.77634 7.23580 8.04304
#
# Compressibility (1/GPa) = 0.01668455
#
# Stress axis : x y z
#
# Youngs Moduli (GPa) = 100.16582 67.84360 141.34963
#
# Poissons Ratio (x) = 0.18176 0.34928
# Poissons Ratio (y) = 0.26836 0.34016
# Poissons Ratio (z) = 0.24751 0.16326
#
# Static dielectric constant tensor:
#      x y z
#    x 3.707050 0.000000 0.000000 
#    y 0.000000 3.675750 0.000000 
#    z 0.000000 0.000000 3.995470 
# 
# 
# High freq. dielectric constant tensor:
#      x y z
#    x 1.784660 0.000000 0.000000 
#    y 0.000000 1.784740 0.000000 
#    z 0.000000 0.000000 1.808150 
# 
# From -- ./inp_files/18157.got.cif
#   From: 2010.03.12/outbox.cif.g09.slc.cpg/sg57_10_cif.got.tgz:18157.got - 2010.04.16 15:48:40.
