data_PCOD8234137
_publ_section_title
;
Structure prediction by ZEFSAII (Michael W. Deem and Ramdas Pophale) SiO2 
 PCOD8234137
Probable space group: P B C M
;
_chemical_formula_sum "Si O2"
_cell_formula_units_Z 48
_cell_length_a 14.832490
_cell_length_b 16.509563
_cell_length_c 10.014556
_cell_angle_alpha 90.000000
_cell_angle_beta 90.000000
_cell_angle_gamma 90.000000
_cell_volume 2452.343724
_symmetry_space_group_name_H-M "P B C M"
_symmetry_group_IT_number 57
_symmetry_cell_setting 'orthorhombic'
loop_
_space_group_symop_operation_xyz
x,y,z
-x,-y,1/2+z
x,1/2-y,-z
-x,1/2+y,1/2-z
-x,-y,-z
x,y,1/2-z
-x,1/2+y,z
x,1/2-y,1/2+z
loop_
_atom_site_type_symbol
_atom_site_label
_atom_site_fract_x
_atom_site_fract_y
_atom_site_fract_z
Si Si1 0.849656 0.844703 0.750000
Si Si2 0.416401 0.987551 0.096126
Si Si3 0.235961 0.434277 0.996214
Si Si4 0.817217 0.844216 0.250000
Si Si5 0.056443 0.678178 0.250000
Si Si6 0.857069 0.101731 0.508642
Si Si7 0.974529 0.367256 0.250000
Si Si8 0.322309 0.819039 0.100341
O O1 0.814185 0.888417 0.620430
O O2 0.817937 0.752302 0.750000
O O3 0.956296 0.855990 0.750000
O O4 0.441368 0.007474 0.250000
O O5 0.387263 0.894978 0.081401
O O6 0.337272 0.047058 0.048881
O O7 0.500000 0.000000 0.000000
O O8 0.237927 0.375373 0.122720
O O9 0.181975 0.515305 0.034398
O O10 0.918435 0.879101 0.250000
O O11 0.107753 0.647945 0.120061
O O12 0.054687 0.774356 0.250000
O O13 0.936137 0.089525 0.617446
O O14 0.780389 0.156225 0.575459
O O15 0.329227 0.784181 0.250000
O O16 0.355588 0.750000 0.000000
#
# Coordination Sequence:
#
# PCOD8234137 Si02
#       8
#     4   8   8   4   4   8   4   8
#     4  11  23  43  62  81 123 172 210 258 307 349
#     4  10  23  44  70  94 122 158 194 246 311 374
#     4  11  23  42  63  90 121 156 208 256 310 372
#     4  11  25  39  60  89 121 166 216 256 297 351
#     4  11  23  35  55  87 124 168 215 254 299 356
#     4  11  22  35  57  88 122 164 206 256 308 355
#     4  11  21  37  55  83 126 170 211 252 299 354
#     4  10  21  38  61  92 127 159 196 245 305 368
#
# _framework density 19.573111999999998
#
# number of rings (size 3 to 8) (size 9 to 14) (size 15 to 20)
#    0.000    1.333    1.667    4.000    2.333    7.333 
#    0.000    1.667    0.000    0.000    0.000    0.000 
#    0.000    0.000    0.000    0.000    0.000    0.000 
#
# Total GULP energy -595446.111308 kJ/mol
# GULP energy per Si atom -12405.127319 kJ/mol
# Density = 1.952856 g / cm^3
# Si number density = 19.573112 Si / 1000 Ang^3
#
#
#
# Elastic Constant Matrix: (Units=GPa)
#
#
# Indices 1 2 3 4 5 6 
#
# 1 109.1348 39.3803 55.8683 0.0000 0.0000 0.0000
# 2 39.3803 64.0194 40.4433 0.0000 0.0000 0.0000
# 3 55.8683 40.4433 156.2738 0.0000 0.0000 0.0000
# 4 0.0000 0.0000 0.0000 37.9399 0.0000 0.0000
# 5 0.0000 0.0000 0.0000 0.0000 37.0874 0.0000
# 6 0.0000 0.0000 0.0000 0.0000 0.0000 15.2228
#
#
#
# Elastic Compliance Matrix: (Units=1/GPa)
#
#
# Indices 1 2 3 4 5 6 
#
# 1 0.012893 -0.006000 -0.003056 0.000000 0.000000 0.000000
# 2 -0.006000 0.021465 -0.003410 0.000000 0.000000 0.000000
# 3 -0.003056 -0.003410 0.008374 0.000000 0.000000 0.000000
# 4 0.000000 0.000000 0.000000 0.026357 0.000000 0.000000
# 5 0.000000 0.000000 0.000000 0.000000 0.026963 0.000000
# 6 0.000000 0.000000 0.000000 0.000000 0.000000 0.065691
#
#
# Mechanical properties :
#
#
# Convention : Reuss Voigt Hill
#
# Bulk Modulus (GPa) = 56.18203 66.75688 61.46945
# Shear Modulus (GPa) = 25.95924 30.96577 28.46250
#
# Velocity S-wave (km/s) = 3.64575 3.98182 3.81749
# Velocity P-wave (km/s) = 6.81821 7.43776 7.13472
#
# Compressibility (1/GPa) = 0.01779929
#
# Stress axis : x y z
#
# Youngs Moduli (GPa) = 77.56391 46.58687 119.41359
#
# Poissons Ratio (x) = 0.27951 0.36498
# Poissons Ratio (y) = 0.46537 0.40723
# Poissons Ratio (z) = 0.23707 0.15887
#
# Static dielectric constant tensor:
#      x y z
#    x 3.550400 0.000000 0.000000 
#    y 0.000000 3.698950 0.000000 
#    z 0.000000 0.000000 3.842220 
# 
# 
# High freq. dielectric constant tensor:
#      x y z
#    x 1.751730 0.000000 0.000000 
#    y 0.000000 1.768160 0.000000 
#    z 0.000000 0.000000 1.781800 
# 
# From -- ./inp_files/4780.got.cif
#   From: 2010.03.12/outbox.cif.g09.slc.cpg/sg57_3_cif.got.tgz:4780.got - 2010.04.16 15:48:40.
