data_PCOD8234439
_publ_section_title
;
Structure prediction by ZEFSAII (Michael W. Deem and Ramdas Pophale) SiO2 
 PCOD8234439
Probable space group: P B C M
;
_chemical_formula_sum "Si O2"
_cell_formula_units_Z 20
_cell_length_a 4.534644
_cell_length_b 14.328722
_cell_length_c 9.851795
_cell_angle_alpha 90.000000
_cell_angle_beta 90.000000
_cell_angle_gamma 90.000000
_cell_volume 640.126816
_symmetry_space_group_name_H-M "P B C M"
_symmetry_group_IT_number 57
_symmetry_cell_setting 'orthorhombic'
loop_
_space_group_symop_operation_xyz
x,y,z
-x,-y,1/2+z
x,1/2-y,-z
-x,1/2+y,1/2-z
-x,-y,-z
x,y,1/2-z
-x,1/2+y,z
x,1/2-y,1/2+z
loop_
_atom_site_type_symbol
_atom_site_label
_atom_site_fract_x
_atom_site_fract_y
_atom_site_fract_z
Si Si1 0.827919 0.055979 0.250000
Si Si2 0.684747 0.684320 0.250000
Si Si3 0.266355 0.945791 0.405640
Si Si4 0.376862 0.750000 0.000000
O O1 0.965901 0.161770 0.250000
O O2 0.476760 0.079850 0.250000
O O3 0.950315 0.002128 0.385584
O O4 0.606500 0.743997 0.121470
O O5 0.399461 0.929900 0.250000
O O6 0.190545 0.845428 0.476245
O O7 0.500000 0.000000 0.500000
#
# Coordination Sequence:
#
# PCOD8234439 Si02
#       4
#     4   4   8   4
#     4  10  25  46  71 103 141 196 231 304 359 429
#     4  12  25  46  75 101 151 184 249 294 367 431
#     4  10  21  44  72 106 146 193 242 300 363 435
#     4  12  22  44  72 112 142 198 244 304 364 438
#
# _framework density 31.243808000000001
#
# number of rings (size 3 to 8) (size 9 to 14) (size 15 to 20)
#    1.200    0.000    6.000    0.000    0.000    3.200 
#    0.000    4.000    0.000    0.000    0.000    0.000 
#    0.000    0.000    0.000    0.000    0.000    0.000 
#
# Total GULP energy -247886.235258 kJ/mol
# GULP energy per Si atom -12394.311763 kJ/mol
# Density = 3.117270 g / cm^3
# Si number density = 31.243808 Si / 1000 Ang^3
#
#
#
# Elastic Constant Matrix: (Units=GPa)
#
#
# Indices 1 2 3 4 5 6 
#
# 1 109.7919 34.6750 34.5742 0.0000 0.0000 0.0000
# 2 34.6750 202.6338 16.5412 0.0000 0.0000 0.0000
# 3 34.5742 16.5412 200.4764 0.0000 0.0000 0.0000
# 4 0.0000 0.0000 0.0000 53.3100 0.0000 0.0000
# 5 0.0000 0.0000 0.0000 0.0000 21.8555 0.0000
# 6 0.0000 0.0000 0.0000 0.0000 0.0000 38.5196
#
#
#
# Elastic Compliance Matrix: (Units=1/GPa)
#
#
# Indices 1 2 3 4 5 6 
#
# 1 0.010122 -0.001600 -0.001614 0.000000 0.000000 0.000000
# 2 -0.001600 0.005221 -0.000155 0.000000 0.000000 0.000000
# 3 -0.001614 -0.000155 0.005279 0.000000 0.000000 0.000000
# 4 0.000000 0.000000 0.000000 0.018758 0.000000 0.000000
# 5 0.000000 0.000000 0.000000 0.000000 0.045755 0.000000
# 6 0.000000 0.000000 0.000000 0.000000 0.000000 0.025961
#
#
# Mechanical properties :
#
#
# Convention : Reuss Voigt Hill
#
# Bulk Modulus (GPa) = 72.02044 76.05365 74.03705
# Shear Modulus (GPa) = 40.82897 51.21115 46.02006
#
# Velocity S-wave (km/s) = 3.61887 4.05295 3.84205
# Velocity P-wave (km/s) = 6.36889 6.80417 6.59012
#
# Compressibility (1/GPa) = 0.01388495
#
# Stress axis : x y z
#
# Youngs Moduli (GPa) = 98.79784 191.51590 189.42391
#
# Poissons Ratio (x) = 0.30649 0.30564
# Poissons Ratio (y) = 0.15811 0.02933
# Poissons Ratio (z) = 0.15941 0.02965
#
# Static dielectric constant tensor:
#      x y z
#    x 5.339230 0.000000 0.000000 
#    y 0.000000 5.984610 0.000000 
#    z 0.000000 0.000000 7.537640 
# 
# 
# High freq. dielectric constant tensor:
#      x y z
#    x 2.273730 0.000000 0.000000 
#    y 0.000000 2.288710 0.000000 
#    z 0.000000 0.000000 2.360370 
# 
# From -- ./inp_files/10446.got.cif
#   From: 2010.03.12/outbox.cif.g09.slc.cpg/sg57_6_cif.got.tgz:10446.got - 2010.04.16 15:48:40.
