data_PCOD8234165
_publ_section_title
;
Structure prediction by ZEFSAII (Michael W. Deem and Ramdas Pophale) SiO2 
 PCOD8234165
Probable space group: P B C M
;
_chemical_formula_sum "Si O2"
_cell_formula_units_Z 56
_cell_length_a 14.828605
_cell_length_b 22.086088
_cell_length_c 8.743961
_cell_angle_alpha 90.000000
_cell_angle_beta 90.000000
_cell_angle_gamma 90.000000
_cell_volume 2863.698598
_symmetry_space_group_name_H-M "P B C M"
_symmetry_group_IT_number 57
_symmetry_cell_setting 'orthorhombic'
loop_
_space_group_symop_operation_xyz
x,y,z
-x,-y,1/2+z
x,1/2-y,-z
-x,1/2+y,1/2-z
-x,-y,-z
x,y,1/2-z
-x,1/2+y,z
x,1/2-y,1/2+z
loop_
_atom_site_type_symbol
_atom_site_label
_atom_site_fract_x
_atom_site_fract_y
_atom_site_fract_z
Si Si1 0.420992 0.187917 0.069008
Si Si2 0.918016 0.419329 0.929743
Si Si3 0.286340 0.084019 0.430470
Si Si4 0.404549 0.987374 0.575298
Si Si5 0.618520 0.153885 0.075739
Si Si6 0.199112 0.687423 0.929650
Si Si7 0.896130 0.942257 0.070378
O O1 0.420264 0.190068 0.250000
O O2 0.354693 0.135493 0.011025
O O3 0.522333 0.175810 0.009953
O O4 0.383891 0.250000 0.000000
O O5 0.913275 0.408953 0.750000
O O6 0.886042 0.487001 0.974982
O O7 0.853793 0.370369 0.007018
O O8 0.019907 0.410790 0.986943
O O9 0.271588 0.085655 0.250000
O O10 0.191392 0.093839 0.513949
O O11 0.327124 0.020011 0.479565
O O12 0.406464 0.010533 0.750000
O O13 0.378578 0.917904 0.568502
O O14 0.500000 0.000000 0.500000
O O15 0.633754 0.175893 0.250000
O O16 0.695353 0.182107 0.970021
O O17 0.186075 0.689924 0.750000
O O18 0.160502 0.750000 0.000000
O O19 0.909473 0.934530 0.250000
#
# Coordination Sequence:
#
# PCOD8234165 Si02
#       7
#     8   8   8   8   8   8   8
#     4  10  22  39  56  77 109 151 196 242 283 332
#     4  10  21  40  64  90 121 154 189 239 296 353
#     4  11  22  38  57  84 119 154 193 240 291 345
#     4  11  21  35  56  84 118 153 191 239 292 346
#     4  10  21  39  58  82 117 154 195 242 290 345
#     4  12  25  40  60  88 120 158 201 246 296 357
#     4  10  21  38  63  94 121 151 192 240 294 354
#
# _framework density 19.555129999999998
#
# number of rings (size 3 to 8) (size 9 to 14) (size 15 to 20)
#    0.000    1.429    1.429    4.286    0.000    9.143 
#    0.000    0.714    0.000    1.714    0.000    0.000 
#    0.000    0.000    0.000    0.000    0.000    0.000 
#
# Total GULP energy -694662.867164 kJ/mol
# GULP energy per Si atom -12404.694057 kJ/mol
# Density = 1.951062 g / cm^3
# Si number density = 19.555130 Si / 1000 Ang^3
#
#
#
# Elastic Constant Matrix: (Units=GPa)
#
#
# Indices 1 2 3 4 5 6 
#
# 1 121.5152 35.7641 37.4818 0.0000 0.0000 0.0000
# 2 35.7641 81.5670 36.5344 0.0000 0.0000 0.0000
# 3 37.4818 36.5344 82.2959 0.0000 0.0000 0.0000
# 4 0.0000 0.0000 0.0000 32.9030 0.0000 0.0000
# 5 0.0000 0.0000 0.0000 0.0000 35.6268 0.0000
# 6 0.0000 0.0000 0.0000 0.0000 0.0000 16.5973
#
#
#
# Elastic Compliance Matrix: (Units=1/GPa)
#
#
# Indices 1 2 3 4 5 6 
#
# 1 0.010117 -0.002961 -0.003293 0.000000 0.000000 0.000000
# 2 -0.002961 0.016169 -0.005830 0.000000 0.000000 0.000000
# 3 -0.003293 -0.005830 0.016239 0.000000 0.000000 0.000000
# 4 0.000000 0.000000 0.000000 0.030392 0.000000 0.000000
# 5 0.000000 0.000000 0.000000 0.000000 0.028069 0.000000
# 6 0.000000 0.000000 0.000000 0.000000 0.000000 0.060251
#
#
# Mechanical properties :
#
#
# Convention : Reuss Voigt Hill
#
# Bulk Modulus (GPa) = 54.47291 56.10428 55.28859
# Shear Modulus (GPa) = 26.10645 28.73192 27.41918
#
# Velocity S-wave (km/s) = 3.65775 3.83727 3.74859
# Velocity P-wave (km/s) = 6.76428 6.95597 6.86079
#
# Compressibility (1/GPa) = 0.01835775
#
# Stress axis : x y z
#
# Youngs Moduli (GPa) = 98.84721 61.84612 61.57929
#
# Poissons Ratio (x) = 0.18311 0.20280
# Poissons Ratio (y) = 0.29266 0.35899
# Poissons Ratio (z) = 0.32553 0.36054
#
# Static dielectric constant tensor:
#      x y z
#    x 3.580960 0.000000 0.000000 
#    y 0.000000 3.626110 0.000000 
#    z 0.000000 0.000000 3.585480 
# 
# 
# High freq. dielectric constant tensor:
#      x y z
#    x 1.765680 0.000000 0.000000 
#    y 0.000000 1.758750 0.000000 
#    z 0.000000 0.000000 1.767950 
# 
# From -- ./inp_files/5241.got.cif
#   From: 2010.03.12/outbox.cif.g09.slc.cpg/sg57_3_cif.got.tgz:5241.got - 2010.04.16 15:48:40.
