data_PCOD8234072
_publ_section_title
;
Structure prediction by ZEFSAII (Michael W. Deem and Ramdas Pophale) SiO2 
 PCOD8234072
Probable space group: P B C M
;
_chemical_formula_sum "Si O2"
_cell_formula_units_Z 40
_cell_length_a 12.473095
_cell_length_b 18.536860
_cell_length_c 8.729975
_cell_angle_alpha 90.000000
_cell_angle_beta 90.000000
_cell_angle_gamma 90.000000
_cell_volume 2018.475117
_symmetry_space_group_name_H-M "P B C M"
_symmetry_group_IT_number 57
_symmetry_cell_setting 'orthorhombic'
loop_
_space_group_symop_operation_xyz
x,y,z
-x,-y,1/2+z
x,1/2-y,-z
-x,1/2+y,1/2-z
-x,-y,-z
x,y,1/2-z
-x,1/2+y,z
x,1/2-y,1/2+z
loop_
_atom_site_type_symbol
_atom_site_label
_atom_site_fract_x
_atom_site_fract_y
_atom_site_fract_z
Si Si1 0.054449 0.930275 0.070943
Si Si2 0.715525 0.421069 0.568325
Si Si3 0.665531 0.579906 0.931755
Si Si4 0.535772 0.327888 0.431613
Si Si5 0.861837 0.672406 0.927390
O O1 0.076001 0.943420 0.250000
O O2 0.976897 0.862758 0.042476
O O3 0.162748 0.911741 0.983245
O O4 0.000000 0.000000 0.000000
O O5 0.708730 0.414410 0.750000
O O6 0.669410 0.497693 0.508134
O O7 0.648668 0.356779 0.492629
O O8 0.671980 0.579005 0.750000
O O9 0.557168 0.617932 0.989488
O O10 0.768198 0.622419 0.999460
O O11 0.510832 0.250000 0.500000
O O12 0.538833 0.322134 0.250000
O O13 0.837923 0.681808 0.750000
O O14 0.858705 0.750000 0.000000
#
# Coordination Sequence:
#
# PCOD8234072 Si02
#       5
#     8   8   8   8   8
#     4  11  22  39  62  88 122 160 204 250 300 361
#     4  11  22  40  64  89 122 159 201 253 308 361
#     4   9  19  38  62  88 121 156 196 250 303 359
#     4  11  23  40  61  88 122 160 204 249 303 364
#     4  10  21  38  59  88 122 156 195 246 301 357
#
# _framework density 19.816939000000001
#
# number of rings (size 3 to 8) (size 9 to 14) (size 15 to 20)
#    0.000    1.600    2.000    3.000    0.000    2.400 
#    0.000    6.000    0.000    0.000    0.000    0.000 
#    0.000    0.000    0.000    0.000    0.000    0.000 
#
# Total GULP energy -496150.805506 kJ/mol
# GULP energy per Si atom -12403.770138 kJ/mol
# Density = 1.977183 g / cm^3
# Si number density = 19.816939 Si / 1000 Ang^3
#
#
#
# Elastic Constant Matrix: (Units=GPa)
#
#
# Indices 1 2 3 4 5 6 
#
# 1 113.9135 21.2565 31.5733 0.0000 0.0000 0.0000
# 2 21.2565 76.1941 27.0045 0.0000 0.0000 0.0000
# 3 31.5733 27.0045 63.7031 0.0000 0.0000 0.0000
# 4 0.0000 0.0000 0.0000 35.2254 0.0000 0.0000
# 5 0.0000 0.0000 0.0000 0.0000 30.3245 0.0000
# 6 0.0000 0.0000 0.0000 0.0000 0.0000 -1.3270
#
#
#
# Elastic Compliance Matrix: (Units=1/GPa)
#
#
# Indices 1 2 3 4 5 6 
#
# 1 0.010277 -0.001249 -0.004564 0.000000 0.000000 0.000000
# 2 -0.001249 0.015597 -0.005992 0.000000 0.000000 0.000000
# 3 -0.004564 -0.005992 0.020500 0.000000 0.000000 0.000000
# 4 0.000000 0.000000 0.000000 0.028389 0.000000 0.000000
# 5 0.000000 0.000000 0.000000 0.000000 0.032977 0.000000
# 6 0.000000 0.000000 0.000000 0.000000 0.000000 -0.753569
#
#
# Mechanical properties :
#
#
# Convention : Reuss Voigt Hill
#
# Bulk Modulus (GPa) = 43.93251 45.94214 44.93733
# Shear Modulus (GPa) = -8.13495 24.44300 8.15402
#
# Velocity S-wave (km/s) = -2.02829 3.51585 2.03067
# Velocity P-wave (km/s) = 4.09048 6.30200 5.31259
#
# Compressibility (1/GPa) = 0.02276219
#
# Stress axis : x y z
#
# Youngs Moduli (GPa) = 97.30761 64.11596 48.78051
#
# Poissons Ratio (x) = 0.08011 0.22262
# Poissons Ratio (y) = 0.12158 0.29231
# Poissons Ratio (z) = 0.44409 0.38421
#
# Static dielectric constant tensor:
#      x y z
#    x 3.848170 0.000000 0.000000 
#    y 0.000000 3.053480 0.000000 
#    z 0.000000 0.000000 3.565660 
# 
# 
# High freq. dielectric constant tensor:
#      x y z
#    x 1.787630 0.000000 0.000000 
#    y 0.000000 1.781010 0.000000 
#    z 0.000000 0.000000 1.760770 
# 
# From -- ./inp_files/2638.got.cif
#   From: 2010.03.12/outbox.cif.g09.slc.cpg/sg57_2_cif.got.tgz:2638.got - 2010.04.16 15:48:40.
