data_PCOD8234123
_publ_section_title
;
Structure prediction by ZEFSAII (Michael W. Deem and Ramdas Pophale) SiO2 
 PCOD8234123
Probable space group: P B C M
;
_chemical_formula_sum "Si O2"
_cell_formula_units_Z 48
_cell_length_a 16.685473
_cell_length_b 15.719365
_cell_length_c 8.886456
_cell_angle_alpha 90.000000
_cell_angle_beta 90.000000
_cell_angle_gamma 90.000000
_cell_volume 2330.784470
_symmetry_space_group_name_H-M "P B C M"
_symmetry_group_IT_number 57
_symmetry_cell_setting 'orthorhombic'
loop_
_space_group_symop_operation_xyz
x,y,z
-x,-y,1/2+z
x,1/2-y,-z
-x,1/2+y,1/2-z
-x,-y,-z
x,y,1/2-z
-x,1/2+y,z
x,1/2-y,1/2+z
loop_
_atom_site_type_symbol
_atom_site_label
_atom_site_fract_x
_atom_site_fract_y
_atom_site_fract_z
Si Si1 0.348022 0.417208 0.579549
Si Si2 0.491671 0.338159 0.426463
Si Si3 0.822388 0.165619 0.426382
Si Si4 0.181434 0.339438 0.927569
Si Si5 0.332782 0.889214 0.423146
Si Si6 0.913117 0.504740 0.570594
O O1 0.377933 0.403685 0.750000
O O2 0.423820 0.405537 0.471427
O O3 0.275692 0.353522 0.540051
O O4 0.314578 0.511559 0.556501
O O5 0.466677 0.250000 0.500000
O O6 0.492047 0.327921 0.250000
O O7 0.578331 0.368604 0.484130
O O8 0.862028 0.250000 0.500000
O O9 0.827994 0.176118 0.250000
O O10 0.729709 0.162027 0.476045
O O11 0.867893 0.081122 0.481205
O O12 0.163089 0.339333 0.750000
O O13 0.155582 0.250000 0.000000
O O14 0.131109 0.413328 0.005525
O O15 0.322704 0.861144 0.250000
O O16 0.917365 0.511928 0.750000
O O17 0.000000 0.500000 0.500000
#
# Coordination Sequence:
#
# PCOD8234123 Si02
#       6
#     8   8   8   8   8   8
#     4  10  21  38  61  88 121 163 210 260 317 372
#     4  11  23  36  54  82 120 163 211 262 311 367
#     4  11  24  41  66  97 128 167 211 257 312 375
#     4  11  23  41  67  96 130 170 212 263 318 380
#     4  10  21  39  61  88 122 163 209 260 315 370
#     4  11  25  45  69  98 130 166 209 259 318 382
#
# _framework density 20.593924999999999
#
# number of rings (size 3 to 8) (size 9 to 14) (size 15 to 20)
#    0.000    1.333    1.667    3.500    0.000    8.667 
#    0.000    1.667    0.000    0.000    0.000    0.000 
#    0.000    0.000    0.000    0.000    0.000    0.000 
#
# Total GULP energy -595424.180870 kJ/mol
# GULP energy per Si atom -12404.670435 kJ/mol
# Density = 2.054705 g / cm^3
# Si number density = 20.593925 Si / 1000 Ang^3
#
#
#
# Elastic Constant Matrix: (Units=GPa)
#
#
# Indices 1 2 3 4 5 6 
#
# 1 111.3438 55.1827 51.7863 0.0000 0.0000 0.0000
# 2 55.1827 143.1588 53.5439 0.0000 0.0000 0.0000
# 3 51.7863 53.5439 84.4569 0.0000 0.0000 0.0000
# 4 0.0000 0.0000 0.0000 36.1432 0.0000 0.0000
# 5 0.0000 0.0000 0.0000 0.0000 35.3237 0.0000
# 6 0.0000 0.0000 0.0000 0.0000 0.0000 18.7093
#
#
#
# Elastic Compliance Matrix: (Units=1/GPa)
#
#
# Indices 1 2 3 4 5 6 
#
# 1 0.013331 -0.002728 -0.006444 0.000000 0.000000 0.000000
# 2 -0.002728 0.009715 -0.004486 0.000000 0.000000 0.000000
# 3 -0.006444 -0.004486 0.018636 0.000000 0.000000 0.000000
# 4 0.000000 0.000000 0.000000 0.027668 0.000000 0.000000
# 5 0.000000 0.000000 0.000000 0.000000 0.028310 0.000000
# 6 0.000000 0.000000 0.000000 0.000000 0.000000 0.053449
#
#
# Mechanical properties :
#
#
# Convention : Reuss Voigt Hill
#
# Bulk Modulus (GPa) = 69.61818 73.33169 71.47493
# Shear Modulus (GPa) = 27.29066 29.93168 28.61117
#
# Velocity S-wave (km/s) = 3.64425 3.81651 3.73138
# Velocity P-wave (km/s) = 7.18234 7.42339 7.30386
#
# Compressibility (1/GPa) = 0.01436406
#
# Stress axis : x y z
#
# Youngs Moduli (GPa) = 75.01575 102.93617 53.65996
#
# Poissons Ratio (x) = 0.28083 0.34580
# Poissons Ratio (y) = 0.20466 0.24072
# Poissons Ratio (z) = 0.48342 0.46178
#
# Static dielectric constant tensor:
#      x y z
#    x 4.065550 0.000000 0.000000 
#    y 0.000000 3.939960 0.000000 
#    z 0.000000 0.000000 3.701970 
# 
# 
# High freq. dielectric constant tensor:
#      x y z
#    x 1.803830 0.000000 0.000000 
#    y 0.000000 1.821540 0.000000 
#    z 0.000000 0.000000 1.806740 
# 
# From -- ./inp_files/6534.got.cif
#   From: 2010.03.12/outbox.cif.g09.slc.cpg/sg57_4_cif.got.tgz:6534.got - 2010.04.16 15:48:40.
