data_PCOD8234326
_publ_section_title
;
Structure prediction by ZEFSAII (Michael W. Deem and Ramdas Pophale) SiO2 
 PCOD8234326
Probable space group: P B C M
;
_chemical_formula_sum "Si O2"
_cell_formula_units_Z 56
_cell_length_a 19.570669
_cell_length_b 8.680766
_cell_length_c 15.393528
_cell_angle_alpha 90.000000
_cell_angle_beta 90.000000
_cell_angle_gamma 90.000000
_cell_volume 2615.181812
_symmetry_space_group_name_H-M "P B C M"
_symmetry_group_IT_number 57
_symmetry_cell_setting 'orthorhombic'
loop_
_space_group_symop_operation_xyz
x,y,z
-x,-y,1/2+z
x,1/2-y,-z
-x,1/2+y,1/2-z
-x,-y,-z
x,y,1/2-z
-x,1/2+y,z
x,1/2-y,1/2+z
loop_
_atom_site_type_symbol
_atom_site_label
_atom_site_fract_x
_atom_site_fract_y
_atom_site_fract_z
Si Si1 0.175516 0.112965 0.150173
Si Si2 0.170114 0.026147 0.849194
Si Si3 0.442781 0.182668 0.093851
Si Si4 0.679778 0.004856 0.652747
Si Si5 0.701662 0.326596 0.907896
Si Si6 0.074551 0.068610 0.002151
Si Si7 0.576908 0.009704 0.153233
O O1 0.158490 0.070135 0.250000
O O2 0.187508 0.294578 0.138430
O O3 0.245797 0.039720 0.116781
O O4 0.116562 0.035375 0.090902
O O5 0.145551 0.994264 0.750000
O O6 0.234230 0.918048 0.869359
O O7 0.110577 0.991275 0.918305
O O8 0.377322 0.070239 0.091494
O O9 0.506339 0.082686 0.123586
O O10 0.430288 0.325568 0.157380
O O11 0.458246 0.250000 0.000000
O O12 0.668750 0.941369 0.750000
O O13 0.676672 0.189577 0.654785
O O14 0.637707 0.443610 0.912765
O O15 0.719525 0.250000 0.000000
O O16 0.067780 0.250000 0.000000
O O17 0.000000 0.000000 0.000000
O O18 0.595553 0.065732 0.250000
#
# Coordination Sequence:
#
# PCOD8234326 Si02
#       7
#     8   8   8   8   8   8   8
#     4   9  20  39  63  89 122 163 209 254 304 365
#     4  10  21  40  63  89 122 165 209 252 305 372
#     4  12  25  42  62  88 120 158 206 258 317 380
#     4  11  22  38  60  89 120 155 198 250 305 365
#     4  12  24  39  61  91 124 159 204 258 315 372
#     4  10  22  39  61  90 124 161 202 249 303 362
#     4  12  24  41  62  86 119 163 207 257 317 382
#
# _framework density 21.413426000000001
#
# number of rings (size 3 to 8) (size 9 to 14) (size 15 to 20)
#    0.000    1.143    0.000    6.857    0.000    5.143 
#    0.000    0.000    0.000    0.000    0.000    0.000 
#    0.000    0.000    0.000    0.000    0.000    0.000 
#
# Total GULP energy -694388.202129 kJ/mol
# GULP energy per Si atom -12399.789324 kJ/mol
# Density = 2.136469 g / cm^3
# Si number density = 21.413426 Si / 1000 Ang^3
#
#
#
# Elastic Constant Matrix: (Units=GPa)
#
#
# Indices 1 2 3 4 5 6 
#
# 1 153.8979 67.0494 54.7241 0.0000 0.0000 0.0000
# 2 67.0494 92.0154 33.5364 0.0000 0.0000 0.0000
# 3 54.7241 33.5364 127.8243 0.0000 0.0000 0.0000
# 4 0.0000 0.0000 0.0000 22.0063 0.0000 0.0000
# 5 0.0000 0.0000 0.0000 0.0000 28.2281 0.0000
# 6 0.0000 0.0000 0.0000 0.0000 0.0000 44.7814
#
#
#
# Elastic Compliance Matrix: (Units=1/GPa)
#
#
# Indices 1 2 3 4 5 6 
#
# 1 0.010298 -0.006521 -0.002698 0.000000 0.000000 0.000000
# 2 -0.006521 0.016146 -0.001444 0.000000 0.000000 0.000000
# 3 -0.002698 -0.001444 0.009357 0.000000 0.000000 0.000000
# 4 0.000000 0.000000 0.000000 0.045442 0.000000 0.000000
# 5 0.000000 0.000000 0.000000 0.000000 0.035426 0.000000
# 6 0.000000 0.000000 0.000000 0.000000 0.000000 0.022331
#
#
# Mechanical properties :
#
#
# Convention : Reuss Voigt Hill
#
# Bulk Modulus (GPa) = 69.08544 76.03970 72.56257
# Shear Modulus (GPa) = 30.27552 33.56500 31.92026
#
# Velocity S-wave (km/s) = 3.76421 3.96343 3.86510
# Velocity P-wave (km/s) = 7.15717 7.51880 7.34021
#
# Compressibility (1/GPa) = 0.01447483
#
# Stress axis : x y z
#
# Youngs Moduli (GPa) = 97.10566 61.93645 106.86863
#
# Poissons Ratio (x) = 0.40386 0.28834
# Poissons Ratio (y) = 0.63319 0.15436
# Poissons Ratio (z) = 0.26199 0.08946
#
# Static dielectric constant tensor:
#      x y z
#    x 2.492550 0.000000 0.000000 
#    y 0.000000 3.372570 0.000000 
#    z 0.000000 0.000000 4.083200 
# 
# 
# High freq. dielectric constant tensor:
#      x y z
#    x 1.833720 0.000000 0.000000 
#    y 0.000000 1.847260 0.000000 
#    z 0.000000 0.000000 1.854060 
# 
# From -- ./inp_files/19325.got.cif
#   From: 2010.03.12/outbox.cif.g09.slc.cpg/sg57_10_cif.got.tgz:19325.got - 2010.04.16 15:48:40.
