data_PCOD8234541
_publ_section_title
;
Structure prediction by ZEFSAII (Michael W. Deem and Ramdas Pophale) SiO2 
 PCOD8234541
Probable space group: P B C M
;
_chemical_formula_sum "Si O2"
_cell_formula_units_Z 56
_cell_length_a 8.076801
_cell_length_b 21.515433
_cell_length_c 14.733106
_cell_angle_alpha 90.000000
_cell_angle_beta 90.000000
_cell_angle_gamma 90.000000
_cell_volume 2560.258324
_symmetry_space_group_name_H-M "P B C M"
_symmetry_group_IT_number 57
_symmetry_cell_setting 'orthorhombic'
loop_
_space_group_symop_operation_xyz
x,y,z
-x,-y,1/2+z
x,1/2-y,-z
-x,1/2+y,1/2-z
-x,-y,-z
x,y,1/2-z
-x,1/2+y,z
x,1/2-y,1/2+z
loop_
_atom_site_type_symbol
_atom_site_label
_atom_site_fract_x
_atom_site_fract_y
_atom_site_fract_z
Si Si1 0.704202 0.806576 0.566617
Si Si2 0.055269 0.626428 0.853354
Si Si3 0.797152 0.566925 0.518105
Si Si4 0.604178 0.021037 0.352695
Si Si5 0.638065 0.340114 0.855895
Si Si6 0.948997 0.265644 0.643353
Si Si7 0.775270 0.008207 0.849389
O O1 0.682665 0.750000 0.500000
O O2 0.707479 0.870399 0.512216
O O3 0.538908 0.807221 0.627382
O O4 0.874724 0.797400 0.622464
O O5 0.989503 0.632674 0.750000
O O6 0.066310 0.695235 0.897001
O O7 0.222361 0.584215 0.857649
O O8 0.939127 0.582547 0.911821
O O9 0.665927 0.527108 0.573623
O O10 0.869084 0.528644 0.430877
O O11 0.673108 0.009358 0.250000
O O12 0.648317 0.089288 0.390827
O O13 0.408588 0.016494 0.351672
O O14 0.664750 0.340918 0.750000
O O15 0.794714 0.303483 0.900153
O O16 0.926256 0.261426 0.750000
O O17 0.853647 0.990406 0.750000
#
# Coordination Sequence:
#
# PCOD8234541 Si02
#       7
#     8   8   8   8   8   8   8
#     4  12  25  42  64 102 134 172 226 276 338 403
#     4  10  22  42  64  95 131 170 224 275 334 406
#     4  12  23  41  65  95 133 174 216 273 345 390
#     4  10  22  43  66  98 134 169 223 279 336 408
#     4  10  23  45  71  97 131 179 227 276 336 401
#     4  10  23  45  68  93 132 177 227 281 332 396
#     4  10  22  39  65  95 130 173 220 276 333 405
#
# _framework density 21.872795
#
# number of rings (size 3 to 8) (size 9 to 14) (size 15 to 20)
#    0.000    1.429    2.857    1.714    0.000    4.571 
#    0.000    4.286    0.000    0.000    0.000    0.000 
#    0.000    0.000    0.000    0.000    0.000    0.000 
#
# Total GULP energy -693992.074420 kJ/mol
# GULP energy per Si atom -12392.715615 kJ/mol
# Density = 2.182301 g / cm^3
# Si number density = 21.872795 Si / 1000 Ang^3
#
#
#
# Elastic Constant Matrix: (Units=GPa)
#
#
# Indices 1 2 3 4 5 6 
#
# 1 97.1035 60.7219 22.1842 0.0000 0.0000 0.0000
# 2 60.7219 162.6094 43.7326 0.0000 0.0000 0.0000
# 3 22.1842 43.7326 68.1520 0.0000 0.0000 0.0000
# 4 0.0000 0.0000 0.0000 33.6231 0.0000 0.0000
# 5 0.0000 0.0000 0.0000 0.0000 -0.8924 0.0000
# 6 0.0000 0.0000 0.0000 0.0000 0.0000 40.9177
#
#
#
# Elastic Compliance Matrix: (Units=1/GPa)
#
#
# Indices 1 2 3 4 5 6 
#
# 1 0.013546 -0.004680 -0.001406 0.000000 0.000000 0.000000
# 2 -0.004680 0.009049 -0.004283 0.000000 0.000000 0.000000
# 3 -0.001406 -0.004283 0.017879 0.000000 0.000000 0.000000
# 4 0.000000 0.000000 0.000000 0.029741 0.000000 0.000000
# 5 0.000000 0.000000 0.000000 0.000000 -1.120604 0.000000
# 6 0.000000 0.000000 0.000000 0.000000 0.000000 0.024439
#
#
# Mechanical properties :
#
#
# Convention : Reuss Voigt Hill
#
# Bulk Modulus (GPa) = 50.67049 64.57137 57.62093
# Shear Modulus (GPa) = -5.00686 28.14476 11.56895
#
# Velocity S-wave (km/s) = -1.51461 3.59102 2.30232
# Velocity P-wave (km/s) = 4.48972 6.83954 5.78519
#
# Compressibility (1/GPa) = 0.01973535
#
# Stress axis : x y z
#
# Youngs Moduli (GPa) = 73.82099 110.50406 55.93012
#
# Poissons Ratio (x) = 0.51719 0.07865
# Poissons Ratio (y) = 0.34551 0.23957
# Poissons Ratio (z) = 0.10380 0.47334
#
# Static dielectric constant tensor:
#      x y z
#    x 3.956830 0.000000 0.000000 
#    y 0.000000 4.416420 0.000000 
#    z 0.000000 0.000000 4.363510 
# 
# 
# High freq. dielectric constant tensor:
#      x y z
#    x 1.845380 0.000000 0.000000 
#    y 0.000000 1.875740 0.000000 
#    z 0.000000 0.000000 1.867870 
# 
# From -- ./inp_files/16698.got.cif
#   From: 2010.03.12/outbox.cif.g09.slc.cpg/sg57_9_cif.got.tgz:16698.got - 2010.04.16 15:48:40.
