data_PCOD8234506
_publ_section_title
;
Structure prediction by ZEFSAII (Michael W. Deem and Ramdas Pophale) SiO2 
 PCOD8234506
Probable space group: P B C M
;
_chemical_formula_sum "Si O2"
_cell_formula_units_Z 48
_cell_length_a 30.613310
_cell_length_b 8.886236
_cell_length_c 8.902968
_cell_angle_alpha 90.000000
_cell_angle_beta 90.000000
_cell_angle_gamma 90.000000
_cell_volume 2421.937573
_symmetry_space_group_name_H-M "P B C M"
_symmetry_group_IT_number 57
_symmetry_cell_setting 'orthorhombic'
loop_
_space_group_symop_operation_xyz
x,y,z
-x,-y,1/2+z
x,1/2-y,-z
-x,1/2+y,1/2-z
-x,-y,-z
x,y,1/2-z
-x,1/2+y,z
x,1/2-y,1/2+z
loop_
_atom_site_type_symbol
_atom_site_label
_atom_site_fract_x
_atom_site_fract_y
_atom_site_fract_z
Si Si1 0.798135 0.088140 0.573329
Si Si2 0.460146 0.412516 0.927482
Si Si3 0.627582 0.088149 0.926012
Si Si4 0.962085 0.091929 0.077848
Si Si5 0.288456 0.410339 0.574102
Si Si6 0.125450 0.094260 0.577019
O O1 0.803095 0.250000 0.500000
O O2 0.805312 0.104311 0.750000
O O3 0.751012 0.021084 0.532811
O O4 0.833904 0.976766 0.507996
O O5 0.467382 0.396746 0.750000
O O6 0.416853 0.504242 0.968047
O O7 0.456042 0.250000 0.000000
O O8 0.500000 0.500000 0.000000
O O9 0.632671 0.112686 0.750000
O O10 0.667463 0.987475 0.988416
O O11 0.628097 0.250000 0.000000
O O12 0.975262 0.115591 0.250000
O O13 0.916237 0.010400 0.060416
O O14 0.956708 0.250000 0.000000
O O15 0.000000 0.000000 0.000000
O O16 0.280716 0.250000 0.500000
O O17 0.291861 0.382008 0.750000
O O18 0.113056 0.250000 0.500000
O O19 0.138221 0.120266 0.750000
#
# Coordination Sequence:
#
# PCOD8234506 Si02
#       6
#     8   8   8   8   8   8
#     4  11  23  39  61  88 119 155 196 242 292 347
#     4  11  23  39  60  86 117 153 194 240 291 347
#     4  10  22  39  59  85 116 151 192 238 289 345
#     4  11  24  41  63  90 121 157 197 243 293 347
#     4  10  22  39  59  86 117 151 193 239 289 345
#     4  11  24  41  62  89 121 157 197 242 292 347
#
# _framework density 19.818843000000001
#
# number of rings (size 3 to 8) (size 9 to 14) (size 15 to 20)
#    0.000    1.333    0.000    5.000    0.000   11.333 
#    0.000    0.000    0.000    0.000    0.000    0.000 
#    0.000    0.000    0.000    0.000    0.000    0.000 
#
# Total GULP energy -595490.915105 kJ/mol
# GULP energy per Si atom -12406.060731 kJ/mol
# Density = 1.977373 g / cm^3
# Si number density = 19.818843 Si / 1000 Ang^3
#
#
#
# Elastic Constant Matrix: (Units=GPa)
#
#
# Indices 1 2 3 4 5 6 
#
# 1 104.8593 25.5964 62.9628 0.0000 0.0000 0.0000
# 2 25.5964 133.5476 64.8249 0.0000 0.0000 0.0000
# 3 62.9628 64.8249 105.4841 0.0000 0.0000 0.0000
# 4 0.0000 0.0000 0.0000 43.1906 0.0000 0.0000
# 5 0.0000 0.0000 0.0000 0.0000 32.3356 0.0000
# 6 0.0000 0.0000 0.0000 0.0000 0.0000 33.3906
#
#
#
# Elastic Compliance Matrix: (Units=1/GPa)
#
#
# Indices 1 2 3 4 5 6 
#
# 1 0.015280 0.002136 -0.010433 0.000000 0.000000 0.000000
# 2 0.002136 0.010970 -0.008016 0.000000 0.000000 0.000000
# 3 -0.010433 -0.008016 0.020634 0.000000 0.000000 0.000000
# 4 0.000000 0.000000 0.000000 0.023153 0.000000 0.000000
# 5 0.000000 0.000000 0.000000 0.000000 0.030926 0.000000
# 6 0.000000 0.000000 0.000000 0.000000 0.000000 0.029949
#
#
# Mechanical properties :
#
#
# Convention : Reuss Voigt Hill
#
# Bulk Modulus (GPa) = 70.14387 72.29545 71.21966
# Shear Modulus (GPa) = 29.71082 34.48383 32.09732
#
# Velocity S-wave (km/s) = 3.87605 4.17580 4.02871
# Velocity P-wave (km/s) = 7.44990 7.73350 7.59302
#
# Compressibility (1/GPa) = 0.01425641
#
# Stress axis : x y z
#
# Youngs Moduli (GPa) = 65.44665 91.16005 48.46472
#
# Poissons Ratio (x) = -0.19468 0.50562
# Poissons Ratio (y) = -0.13976 0.38850
# Poissons Ratio (z) = 0.68278 0.73075
#
# Static dielectric constant tensor:
#      x y z
#    x 3.843180 0.000000 0.000000 
#    y 0.000000 3.695320 0.000000 
#    z 0.000000 0.000000 3.785160 
# 
# 
# High freq. dielectric constant tensor:
#      x y z
#    x 1.793460 0.000000 0.000000 
#    y 0.000000 1.792520 0.000000 
#    z 0.000000 0.000000 1.782000 
# 
# From -- ./inp_files/10002.got.cif
#   From: 2010.03.12/outbox.cif.g09.slc.cpg/sg57_6_cif.got.tgz:10002.got - 2010.04.16 15:48:40.
