data_PCOD8234598
_publ_section_title
;
Structure prediction by ZEFSAII (Michael W. Deem and Ramdas Pophale) SiO2 
 PCOD8234598
Probable space group: P B C M
;
_chemical_formula_sum "Si O2"
_cell_formula_units_Z 32
_cell_length_a 12.841837
_cell_length_b 12.329448
_cell_length_c 9.758138
_cell_angle_alpha 90.000000
_cell_angle_beta 90.000000
_cell_angle_gamma 90.000000
_cell_volume 1545.032937
_symmetry_space_group_name_H-M "P B C M"
_symmetry_group_IT_number 57
_symmetry_cell_setting 'orthorhombic'
loop_
_space_group_symop_operation_xyz
x,y,z
-x,-y,1/2+z
x,1/2-y,-z
-x,1/2+y,1/2-z
-x,-y,-z
x,y,1/2-z
-x,1/2+y,z
x,1/2-y,1/2+z
loop_
_atom_site_type_symbol
_atom_site_label
_atom_site_fract_x
_atom_site_fract_y
_atom_site_fract_z
Si Si1 0.811792 0.566322 0.250000
Si Si2 0.902212 0.703269 0.750000
Si Si3 0.856459 0.173146 0.750000
Si Si4 0.410597 0.542845 0.098701
Si Si5 0.741479 0.632098 0.532469
Si Si6 0.282292 0.750000 0.000000
O O1 0.885944 0.668781 0.250000
O O2 0.873286 0.455114 0.250000
O O3 0.745780 0.568158 0.389131
O O4 0.851294 0.649277 0.613575
O O5 0.024960 0.707683 0.750000
O O6 0.794358 0.217663 0.621129
O O7 0.455437 0.571457 0.250000
O O8 0.331874 0.442714 0.123836
O O9 0.355539 0.649062 0.037639
O O10 0.500000 0.500000 0.000000
O O11 0.691464 0.750000 0.500000
#
# Coordination Sequence:
#
# PCOD8234598 Si02
#       6
#     4   4   4   8   8   4
#     4  10  22  40  66  95 139 181 229 284 351 410
#     4  10  24  42  68 107 140 192 241 286 355 423
#     4  12  26  44  72 100 149 187 234 298 356 423
#     4  12  28  48  74 101 142 189 238 298 361 424
#     4  10  22  44  67  99 139 177 240 291 345 425
#     4  12  28  50  68 108 144 182 238 294 360 432
#
# _framework density 20.711531999999998
#
# number of rings (size 3 to 8) (size 9 to 14) (size 15 to 20)
#    0.000    1.000    5.000    0.000   10.500    3.000 
#    0.000    0.000    0.000    0.000    0.000    0.000 
#    0.000    0.000    0.000    0.000    0.000    0.000 
#
# Total GULP energy -396540.554736 kJ/mol
# GULP energy per Si atom -12391.892336 kJ/mol
# Density = 2.066439 g / cm^3
# Si number density = 20.711532 Si / 1000 Ang^3
#
#
#
# Elastic Constant Matrix: (Units=GPa)
#
#
# Indices 1 2 3 4 5 6 
#
# 1 134.7251 64.1722 66.0893 0.0000 0.0000 0.0000
# 2 64.1722 127.0068 40.1282 0.0000 0.0000 0.0000
# 3 66.0893 40.1282 172.3611 0.0000 0.0000 0.0000
# 4 0.0000 0.0000 0.0000 28.1186 0.0000 0.0000
# 5 0.0000 0.0000 0.0000 0.0000 57.3008 0.0000
# 6 0.0000 0.0000 0.0000 0.0000 0.0000 26.1392
#
#
#
# Elastic Compliance Matrix: (Units=1/GPa)
#
#
# Indices 1 2 3 4 5 6 
#
# 1 0.011216 -0.004650 -0.003218 0.000000 0.000000 0.000000
# 2 -0.004650 0.010427 -0.000644 0.000000 0.000000 0.000000
# 3 -0.003218 -0.000644 0.007186 0.000000 0.000000 0.000000
# 4 0.000000 0.000000 0.000000 0.035564 0.000000 0.000000
# 5 0.000000 0.000000 0.000000 0.000000 0.017452 0.000000
# 6 0.000000 0.000000 0.000000 0.000000 0.000000 0.038257
#
#
# Mechanical properties :
#
#
# Convention : Reuss Voigt Hill
#
# Bulk Modulus (GPa) = 84.72321 86.09695 85.41008
# Shear Modulus (GPa) = 35.44565 39.89192 37.66879
#
# Velocity S-wave (km/s) = 4.14139 4.39347 4.26929
# Velocity P-wave (km/s) = 7.99145 8.20954 8.10123
#
# Compressibility (1/GPa) = 0.01180314
#
# Stress axis : x y z
#
# Youngs Moduli (GPa) = 89.15681 95.90582 139.16549
#
# Poissons Ratio (x) = 0.44600 0.44783
# Poissons Ratio (y) = 0.41462 0.08968
# Poissons Ratio (z) = 0.28691 0.06180
#
# Static dielectric constant tensor:
#      x y z
#    x 3.462780 0.000000 0.000000 
#    y 0.000000 4.237030 0.000000 
#    z 0.000000 0.000000 4.068130 
# 
# 
# High freq. dielectric constant tensor:
#      x y z
#    x 1.786650 0.000000 0.000000 
#    y 0.000000 1.829980 0.000000 
#    z 0.000000 0.000000 1.839710 
# 
# From -- ./inp_files/4154.got.cif
#   From: 2010.03.12/outbox.cif.g09.slc.cpg/sg57_3_cif.got.tgz:4154.got - 2010.04.16 15:48:40.
