data_PCOD8234443
_publ_section_title
;
Structure prediction by ZEFSAII (Michael W. Deem and Ramdas Pophale) SiO2 
 PCOD8234443
Probable space group: P B C M
;
_chemical_formula_sum "Si O2"
_cell_formula_units_Z 56
_cell_length_a 12.228139
_cell_length_b 14.205386
_cell_length_c 15.381441
_cell_angle_alpha 90.000000
_cell_angle_beta 90.000000
_cell_angle_gamma 90.000000
_cell_volume 2671.839893
_symmetry_space_group_name_H-M "P B C M"
_symmetry_group_IT_number 57
_symmetry_cell_setting 'orthorhombic'
loop_
_space_group_symop_operation_xyz
x,y,z
-x,-y,1/2+z
x,1/2-y,-z
-x,1/2+y,1/2-z
-x,-y,-z
x,y,1/2-z
-x,1/2+y,z
x,1/2-y,1/2+z
loop_
_atom_site_type_symbol
_atom_site_label
_atom_site_fract_x
_atom_site_fract_y
_atom_site_fract_z
Si Si1 0.956159 0.138950 0.651982
Si Si2 0.177131 0.820038 0.652380
Si Si3 0.816240 0.454791 0.002872
Si Si4 0.173051 0.339242 0.057198
Si Si5 0.412804 0.947613 0.946044
Si Si6 0.389333 0.368820 0.149227
Si Si7 0.579226 0.266378 0.649201
O O1 0.936809 0.100418 0.750000
O O2 0.919346 0.246323 0.644083
O O3 0.887185 0.076216 0.584980
O O4 0.084287 0.140013 0.631744
O O5 0.184902 0.862099 0.750000
O O6 0.145792 0.904688 0.587207
O O7 0.290302 0.763399 0.629769
O O8 0.824821 0.567262 0.001624
O O9 0.688960 0.424678 0.009952
O O10 0.290994 0.316492 0.099097
O O11 0.137112 0.250000 0.000000
O O12 0.378474 0.019642 0.868997
O O13 0.466502 0.855260 0.904422
O O14 0.500000 0.000000 0.000000
O O15 0.372234 0.350634 0.250000
O O16 0.508203 0.325204 0.119201
O O17 0.557174 0.284055 0.750000
#
# Coordination Sequence:
#
# PCOD8234443 Si02
#       7
#     8   8   8   8   8   8   8
#     4  11  23  41  64  92 122 157 203 258 315 365
#     4   9  19  37  64  93 119 153 202 257 309 361
#     4  10  22  40  62  90 120 162 205 254 303 364
#     4  11  24  41  62  87 124 161 209 255 309 372
#     4  10  22  35  58  89 120 158 201 247 305 359
#     4  10  22  39  60  85 122 166 203 247 308 375
#     4   9  19  36  58  85 117 155 199 247 297 359
#
# _framework density 20.959339
#
# number of rings (size 3 to 8) (size 9 to 14) (size 15 to 20)
#    0.000    2.000    0.000    2.571    6.000    4.000 
#    0.000    3.571    0.000    0.000    0.000    0.000 
#    0.000    0.000    0.000    0.000    0.000    0.000 
#
# Total GULP energy -694080.534283 kJ/mol
# GULP energy per Si atom -12394.295255 kJ/mol
# Density = 2.091163 g / cm^3
# Si number density = 20.959339 Si / 1000 Ang^3
#
#
#
# Elastic Constant Matrix: (Units=GPa)
#
#
# Indices 1 2 3 4 5 6 
#
# 1 79.6887 8.6005 31.6680 0.0000 0.0000 0.0000
# 2 8.6005 63.2926 25.7676 0.0000 0.0000 0.0000
# 3 31.6680 25.7676 92.3265 0.0000 0.0000 0.0000
# 4 0.0000 0.0000 0.0000 27.3198 0.0000 0.0000
# 5 0.0000 0.0000 0.0000 0.0000 30.4495 0.0000
# 6 0.0000 0.0000 0.0000 0.0000 0.0000 27.0308
#
#
#
# Elastic Compliance Matrix: (Units=1/GPa)
#
#
# Indices 1 2 3 4 5 6 
#
# 1 0.014529 0.000062 -0.005001 0.000000 0.000000 0.000000
# 2 0.000062 0.017825 -0.004996 0.000000 0.000000 0.000000
# 3 -0.005001 -0.004996 0.013941 0.000000 0.000000 0.000000
# 4 0.000000 0.000000 0.000000 0.036603 0.000000 0.000000
# 5 0.000000 0.000000 0.000000 0.000000 0.032841 0.000000
# 6 0.000000 0.000000 0.000000 0.000000 0.000000 0.036995
#
#
# Mechanical properties :
#
#
# Convention : Reuss Voigt Hill
#
# Bulk Modulus (GPa) = 37.84292 40.81999 39.33146
# Shear Modulus (GPa) = 27.56130 28.24480 27.90305
#
# Velocity S-wave (km/s) = 3.63021 3.67495 3.65265
# Velocity P-wave (km/s) = 5.97209 6.12577 6.04942
#
# Compressibility (1/GPa) = 0.02642502
#
# Stress axis : x y z
#
# Youngs Moduli (GPa) = 68.82560 56.10023 71.73214
#
# Poissons Ratio (x) = -0.00345 0.35872
# Poissons Ratio (y) = -0.00424 0.35837
# Poissons Ratio (z) = 0.34418 0.28028
#
# Static dielectric constant tensor:
#      x y z
#    x 3.942610 0.000000 0.000000 
#    y 0.000000 2.640390 0.000000 
#    z 0.000000 0.000000 3.152180 
# 
# 
# High freq. dielectric constant tensor:
#      x y z
#    x 1.826660 0.000000 0.000000 
#    y 0.000000 1.816370 0.000000 
#    z 0.000000 0.000000 1.819100 
# 
# From -- ./inp_files/17729.got.cif
#   From: 2010.03.12/outbox.cif.g09.slc.cpg/sg57_9_cif.got.tgz:17729.got - 2010.04.16 15:48:40.
