data_PCOD8234837
_publ_section_title
;
Structure prediction by ZEFSAII (Michael W. Deem and Ramdas Pophale) SiO2 
 PCOD8234837
Probable space group: P B C M
;
_chemical_formula_sum "Si O2"
_cell_formula_units_Z 24
_cell_length_a 5.235152
_cell_length_b 10.324239
_cell_length_c 20.216085
_cell_angle_alpha 90.000000
_cell_angle_beta 90.000000
_cell_angle_gamma 90.000000
_cell_volume 1092.658379
_symmetry_space_group_name_H-M "P B C M"
_symmetry_group_IT_number 57
_symmetry_cell_setting 'orthorhombic'
loop_
_space_group_symop_operation_xyz
x,y,z
-x,-y,1/2+z
x,1/2-y,-z
-x,1/2+y,1/2-z
-x,-y,-z
x,y,1/2-z
-x,1/2+y,z
x,1/2-y,1/2+z
loop_
_atom_site_type_symbol
_atom_site_label
_atom_site_fract_x
_atom_site_fract_y
_atom_site_fract_z
Si Si1 0.960650 0.076922 0.066806
Si Si2 0.531818 0.816269 0.884385
Si Si3 0.681360 0.553331 0.675215
O O1 0.925409 0.974205 0.127510
O O2 0.706684 0.168347 0.064312
O O3 0.203673 0.168681 0.076603
O O4 0.000000 0.000000 0.000000
O O5 0.523776 0.678041 0.849053
O O6 0.508832 0.929672 0.829044
O O7 0.778395 0.573723 0.750000
#
# Coordination Sequence:
#
# PCOD8234837 Si02
#       3
#     8   8   8
#     4  10  24  45  67  99 135 182 229 277 340 410
#     4  10  24  43  67  99 132 178 225 283 339 412
#     4  10  24  43  69 101 138 178 227 286 346 410
#
# _framework density 21.964779
#
# number of rings (size 3 to 8) (size 9 to 14) (size 15 to 20)
#    2.000    0.000    0.000    2.000    4.667    4.000 
#    0.000    0.000    0.000    0.000    0.000    0.000 
#    0.000    0.000    0.000    0.000    0.000    0.000 
#
# Total GULP energy -297362.806877 kJ/mol
# GULP energy per Si atom -12390.116953 kJ/mol
# Density = 2.191479 g / cm^3
# Si number density = 21.964779 Si / 1000 Ang^3
#
#
#
# Elastic Constant Matrix: (Units=GPa)
#
#
# Indices 1 2 3 4 5 6 
#
# 1 144.6499 14.5294 22.8028 0.0000 0.0000 0.0000
# 2 14.5294 106.7025 5.0568 0.0000 0.0000 0.0000
# 3 22.8028 5.0568 94.7224 0.0000 0.0000 0.0000
# 4 0.0000 0.0000 0.0000 24.6849 0.0000 0.0000
# 5 0.0000 0.0000 0.0000 0.0000 30.3773 0.0000
# 6 0.0000 0.0000 0.0000 0.0000 0.0000 9.9486
#
#
#
# Elastic Compliance Matrix: (Units=1/GPa)
#
#
# Indices 1 2 3 4 5 6 
#
# 1 0.007273 -0.000910 -0.001702 0.000000 0.000000 0.000000
# 2 -0.000910 0.009509 -0.000289 0.000000 0.000000 0.000000
# 3 -0.001702 -0.000289 0.010982 0.000000 0.000000 0.000000
# 4 0.000000 0.000000 0.000000 0.040511 0.000000 0.000000
# 5 0.000000 0.000000 0.000000 0.000000 0.032919 0.000000
# 6 0.000000 0.000000 0.000000 0.000000 0.000000 0.100517
#
#
# Mechanical properties :
#
#
# Convention : Reuss Voigt Hill
#
# Bulk Modulus (GPa) = 45.53008 47.87252 46.70130
# Shear Modulus (GPa) = 23.27378 33.24788 28.26083
#
# Velocity S-wave (km/s) = 3.25867 3.89484 3.59087
# Velocity P-wave (km/s) = 5.91035 6.48605 6.20488
#
# Compressibility (1/GPa) = 0.02196350
#
# Stress axis : x y z
#
# Youngs Moduli (GPa) = 137.49557 105.15910 91.05500
#
# Poissons Ratio (x) = 0.09566 0.15500
# Poissons Ratio (y) = 0.12508 0.02629
# Poissons Ratio (z) = 0.23406 0.03036
#
# Static dielectric constant tensor:
#      x y z
#    x 3.782010 0.000000 0.000000 
#    y 0.000000 3.896830 0.000000 
#    z 0.000000 0.000000 3.808520 
# 
# 
# High freq. dielectric constant tensor:
#      x y z
#    x 1.853780 0.000000 0.000000 
#    y 0.000000 1.868360 0.000000 
#    z 0.000000 0.000000 1.849420 
# 
# From -- ./inp_files/19717.got.cif
#   From: 2010.03.12/outbox.cif.g09.slc.cpg/sg57_10_cif.got.tgz:19717.got - 2010.04.16 15:48:40.
