data_PCOD8234899
_publ_section_title
;
Structure prediction by ZEFSAII (Michael W. Deem and Ramdas Pophale) SiO2 
 PCOD8234899
Probable space group: P B C M
;
_chemical_formula_sum "Si O2"
_cell_formula_units_Z 64
_cell_length_a 15.114655
_cell_length_b 24.502073
_cell_length_c 8.574491
_cell_angle_alpha 90.000000
_cell_angle_beta 90.000000
_cell_angle_gamma 90.000000
_cell_volume 3175.480257
_symmetry_space_group_name_H-M "P B C M"
_symmetry_group_IT_number 57
_symmetry_cell_setting 'orthorhombic'
loop_
_space_group_symop_operation_xyz
x,y,z
-x,-y,1/2+z
x,1/2-y,-z
-x,1/2+y,1/2-z
-x,-y,-z
x,y,1/2-z
-x,1/2+y,z
x,1/2-y,1/2+z
loop_
_atom_site_type_symbol
_atom_site_label
_atom_site_fract_x
_atom_site_fract_y
_atom_site_fract_z
Si Si1 0.126832 0.134430 0.566409
Si Si2 0.625766 0.401545 0.933894
Si Si3 0.039755 0.808926 0.933640
Si Si4 0.706981 0.808895 0.934456
Si Si5 0.634578 0.522843 0.565560
Si Si6 0.829988 0.981527 0.434622
Si Si7 0.173121 0.600878 0.064514
Si Si8 0.546070 0.631776 0.566279
O O1 0.116548 0.143685 0.750000
O O2 0.226184 0.148607 0.514694
O O3 0.108732 0.070463 0.519790
O O4 0.058818 0.173264 0.478165
O O5 0.618411 0.393147 0.750000
O O6 0.598940 0.463297 0.984480
O O7 0.725861 0.388789 0.990711
O O8 0.556854 0.360666 0.018345
O O9 0.047539 0.806051 0.750000
O O10 0.109684 0.852360 0.005349
O O11 0.063075 0.750000 0.000000
O O12 0.718879 0.809904 0.750000
O O13 0.731508 0.750000 0.000000
O O14 0.606443 0.823426 0.981196
O O15 0.638631 0.526440 0.750000
O O16 0.732802 0.529723 0.495511
O O17 0.574399 0.571944 0.502056
O O18 0.821741 0.984952 0.250000
O O19 0.862400 0.041182 0.495378
O O20 0.169603 0.602302 0.250000
O O21 0.557895 0.639090 0.750000
#
# Coordination Sequence:
#
# PCOD8234899 Si02
#       8
#     8   8   8   8   8   8   8   8
#     4  11  21  37  62  89 117 147 181 227 287 352
#     4   9  17  32  55  82 111 150 194 234 281 334
#     4  11  23  40  60  84 111 146 194 241 284 336
#     4  12  25  41  59  81 112 151 194 239 285 341
#     4   8  14  27  50  79 113 150 186 224 270 331
#     4   8  14  29  55  85 115 150 183 222 283 345
#     4   8  17  35  59  83 113 151 193 240 287 338
#     4  11  20  33  53  82 116 152 190 233 282 333
#
# _framework density 20.154432
#
# number of rings (size 3 to 8) (size 9 to 14) (size 15 to 20)
#    0.000    2.250    1.250    4.500    0.000    0.500 
#    0.000    2.500    0.000    3.750    0.000    0.000 
#    0.000    0.000    0.000    0.000    0.000    0.000 
#
# Total GULP energy -793219.694356 kJ/mol
# GULP energy per Si atom -12394.057724 kJ/mol
# Density = 2.010856 g / cm^3
# Si number density = 20.154432 Si / 1000 Ang^3
#
#
#
# Elastic Constant Matrix: (Units=GPa)
#
#
# Indices 1 2 3 4 5 6 
#
# 1 70.2960 50.3854 19.2919 0.0000 0.0000 0.0000
# 2 50.3854 129.5931 29.3385 0.0000 0.0000 0.0000
# 3 19.2919 29.3385 49.0623 0.0000 0.0000 0.0000
# 4 0.0000 0.0000 0.0000 19.4549 0.0000 0.0000
# 5 0.0000 0.0000 0.0000 0.0000 23.0635 0.0000
# 6 0.0000 0.0000 0.0000 0.0000 0.0000 32.9568
#
#
#
# Elastic Compliance Matrix: (Units=1/GPa)
#
#
# Indices 1 2 3 4 5 6 
#
# 1 0.020308 -0.007041 -0.003775 0.000000 0.000000 0.000000
# 2 -0.007041 0.011366 -0.004028 0.000000 0.000000 0.000000
# 3 -0.003775 -0.004028 0.024275 0.000000 0.000000 0.000000
# 4 0.000000 0.000000 0.000000 0.051401 0.000000 0.000000
# 5 0.000000 0.000000 0.000000 0.000000 0.043359 0.000000
# 6 0.000000 0.000000 0.000000 0.000000 0.000000 0.030343
#
#
# Mechanical properties :
#
#
# Convention : Reuss Voigt Hill
#
# Bulk Modulus (GPa) = 38.07885 49.66480 43.87183
# Shear Modulus (GPa) = 22.77965 25.09074 23.93519
#
# Velocity S-wave (km/s) = 3.36557 3.53218 3.44988
# Velocity P-wave (km/s) = 5.83415 6.42889 6.13873
#
# Compressibility (1/GPa) = 0.02626129
#
# Stress axis : x y z
#
# Youngs Moduli (GPa) = 49.24054 87.98189 41.19418
#
# Poissons Ratio (x) = 0.61950 0.15551
# Poissons Ratio (y) = 0.34672 0.16593
# Poissons Ratio (z) = 0.18588 0.35439
#
# Static dielectric constant tensor:
#      x y z
#    x 3.666000 0.000000 0.000000 
#    y 0.000000 3.911170 0.000000 
#    z 0.000000 0.000000 3.227330 
# 
# 
# High freq. dielectric constant tensor:
#      x y z
#    x 1.782770 0.000000 0.000000 
#    y 0.000000 1.785300 0.000000 
#    z 0.000000 0.000000 1.753640 
# 
# From -- ./inp_files/5576.got.cif
#   From: 2010.03.12/outbox.cif.g09.slc.cpg/sg57_3_cif.got.tgz:5576.got - 2010.04.16 15:48:40.
