data_PCOD8234094
_publ_section_title
;
Structure prediction by ZEFSAII (Michael W. Deem and Ramdas Pophale) SiO2 
 PCOD8234094
Probable space group: P B C M
;
_chemical_formula_sum "Si O2"
_cell_formula_units_Z 56
_cell_length_a 5.112596
_cell_length_b 33.574004
_cell_length_c 13.884637
_cell_angle_alpha 90.000000
_cell_angle_beta 90.000000
_cell_angle_gamma 90.000000
_cell_volume 2383.302364
_symmetry_space_group_name_H-M "P B C M"
_symmetry_group_IT_number 57
_symmetry_cell_setting 'orthorhombic'
loop_
_space_group_symop_operation_xyz
x,y,z
-x,-y,1/2+z
x,1/2-y,-z
-x,1/2+y,1/2-z
-x,-y,-z
x,y,1/2-z
-x,1/2+y,z
x,1/2-y,1/2+z
loop_
_atom_site_type_symbol
_atom_site_label
_atom_site_fract_x
_atom_site_fract_y
_atom_site_fract_z
Si Si1 0.495041 0.018098 0.360080
Si Si2 0.927437 0.273259 0.862048
Si Si3 0.571412 0.732070 0.640320
Si Si4 0.004879 0.144519 0.450321
Si Si5 0.991629 0.442680 0.946533
Si Si6 0.722936 0.934434 0.142185
Si Si7 0.499215 0.646184 0.927121
O O1 0.539490 0.032229 0.250000
O O2 0.206519 0.030072 0.394450
O O3 0.708112 0.038052 0.430760
O O4 0.518929 0.970650 0.369256
O O5 0.919004 0.263694 0.750000
O O6 0.669706 0.254605 0.911536
O O7 0.167585 0.249064 0.910576
O O8 0.940336 0.320645 0.875977
O O9 0.581336 0.746162 0.750000
O O10 0.545305 0.684560 0.638768
O O11 0.984526 0.101370 0.399018
O O12 0.303818 0.149676 0.483255
O O13 0.801354 0.145658 0.539148
O O14 0.051508 0.438154 0.060922
O O15 0.849715 0.935566 0.250000
O O16 0.558448 0.893866 0.131884
#
# Coordination Sequence:
#
# PCOD8234094 Si02
#       7
#     8   8   8   8   8   8   8
#     4  11  24  42  68  97 127 169 216 262 323 385
#     4  10  22  39  59  85 118 157 202 251 306 371
#     4  10  21  38  60  87 119 157 199 248 308 368
#     4  11  24  40  60  89 120 160 206 252 313 368
#     4  11  23  44  65  95 133 167 213 269 318 380
#     4  10  23  43  67  96 130 171 214 262 323 387
#     4  11  23  40  61  89 123 158 203 256 307 373
#
# _framework density 23.496808999999999
#
# number of rings (size 3 to 8) (size 9 to 14) (size 15 to 20)
#    0.000    1.429    0.000    5.143    0.000    6.857 
#    0.000   15.714    0.000    0.000    0.000    0.000 
#    0.000    0.000    0.000    0.000    0.000    0.000 
#
# Total GULP energy -694379.867888 kJ/mol
# GULP energy per Si atom -12399.640498 kJ/mol
# Density = 2.344333 g / cm^3
# Si number density = 23.496809 Si / 1000 Ang^3
#
#
#
# Elastic Constant Matrix: (Units=GPa)
#
#
# Indices 1 2 3 4 5 6 
#
# 1 99.8292 14.8371 4.0863 0.0000 0.0000 0.0000
# 2 14.8371 147.2287 10.4032 0.0000 0.0000 0.0000
# 3 4.0863 10.4032 71.0752 0.0000 0.0000 0.0000
# 4 0.0000 0.0000 0.0000 38.5776 0.0000 0.0000
# 5 0.0000 0.0000 0.0000 0.0000 3.9473 0.0000
# 6 0.0000 0.0000 0.0000 0.0000 0.0000 35.5984
#
#
#
# Elastic Compliance Matrix: (Units=1/GPa)
#
#
# Indices 1 2 3 4 5 6 
#
# 1 0.010183 -0.000995 -0.000440 0.000000 0.000000 0.000000
# 2 -0.000995 0.006960 -0.000962 0.000000 0.000000 0.000000
# 3 -0.000440 -0.000962 0.014236 0.000000 0.000000 0.000000
# 4 0.000000 0.000000 0.000000 0.025922 0.000000 0.000000
# 5 0.000000 0.000000 0.000000 0.000000 0.253340 0.000000
# 6 0.000000 0.000000 0.000000 0.000000 0.000000 0.028091
#
#
# Mechanical properties :
#
#
# Convention : Reuss Voigt Hill
#
# Bulk Modulus (GPa) = 37.61372 41.86515 39.73943
# Shear Modulus (GPa) = 14.18893 34.87841 24.53367
#
# Velocity S-wave (km/s) = 2.46003 3.85696 3.23480
# Velocity P-wave (km/s) = 4.91038 6.13929 5.55890
#
# Compressibility (1/GPa) = 0.02658605
#
# Stress axis : x y z
#
# Youngs Moduli (GPa) = 98.20274 143.67025 70.24623
#
# Poissons Ratio (x) = 0.14297 0.03089
# Poissons Ratio (y) = 0.09772 0.06755
# Poissons Ratio (z) = 0.04319 0.13815
#
# Static dielectric constant tensor:
#      x y z
#    x 4.413210 0.000000 0.000000 
#    y 0.000000 4.475240 0.000000 
#    z 0.000000 0.000000 4.000550 
# 
# 
# High freq. dielectric constant tensor:
#      x y z
#    x 1.935860 0.000000 0.000000 
#    y 0.000000 1.949280 0.000000 
#    z 0.000000 0.000000 1.914700 
# 
# From -- ./inp_files/15272.got.cif
#   From: 2010.03.12/outbox.cif.g09.slc.cpg/sg57_8_cif.got.tgz:15272.got - 2010.04.16 15:48:40.
