data_PCOD8234047
_publ_section_title
;
Structure prediction by ZEFSAII (Michael W. Deem and Ramdas Pophale) SiO2 
 PCOD8234047
Probable space group: P B C M
;
_chemical_formula_sum "Si O2"
_cell_formula_units_Z 64
_cell_length_a 25.755154
_cell_length_b 14.659692
_cell_length_c 8.608139
_cell_angle_alpha 90.000000
_cell_angle_beta 90.000000
_cell_angle_gamma 90.000000
_cell_volume 3250.111558
_symmetry_space_group_name_H-M "P B C M"
_symmetry_group_IT_number 57
_symmetry_cell_setting 'orthorhombic'
loop_
_space_group_symop_operation_xyz
x,y,z
-x,-y,1/2+z
x,1/2-y,-z
-x,1/2+y,1/2-z
-x,-y,-z
x,y,1/2-z
-x,1/2+y,z
x,1/2-y,1/2+z
loop_
_atom_site_type_symbol
_atom_site_label
_atom_site_fract_x
_atom_site_fract_y
_atom_site_fract_z
Si Si1 0.863141 0.147611 0.933828
Si Si2 0.787991 0.496700 0.567901
Si Si3 0.500647 0.400155 0.567468
Si Si4 0.865436 0.649299 0.568907
Si Si5 0.604074 0.842209 0.433113
Si Si6 0.057013 0.993658 0.566584
Si Si7 0.322599 0.491619 0.926072
Si Si8 0.394160 0.661043 0.573589
O O1 0.865888 0.154192 0.750000
O O2 0.861589 0.250000 0.000000
O O3 0.913534 0.093400 0.994944
O O4 0.811396 0.091866 0.982073
O O5 0.797682 0.481914 0.750000
O O6 0.815684 0.590500 0.512050
O O7 0.727696 0.508613 0.533217
O O8 0.500000 0.500000 0.500000
O O9 0.488951 0.401500 0.750000
O O10 0.456164 0.343186 0.481470
O O11 0.556542 0.358319 0.534775
O O12 0.867099 0.750000 0.500000
O O13 0.862765 0.664478 0.750000
O O14 0.915577 0.589359 0.521504
O O15 0.629298 0.750000 0.500000
O O16 0.610086 0.847266 0.250000
O O17 0.634300 0.924265 0.510358
O O18 0.056148 0.979428 0.750000
O O19 0.000000 0.000000 0.500000
O O20 0.307287 0.465941 0.750000
O O21 0.348318 0.589533 0.935634
O O22 0.367828 0.750000 0.500000
O O23 0.413612 0.673471 0.750000
#
# Coordination Sequence:
#
# PCOD8234047 Si02
#       8
#     8   8   8   8   8   8   8   8
#     4  11  22  39  63  90 120 160 207 255 308 364
#     4  10  22  41  62  87 120 156 199 251 305 359
#     4  12  23  39  63  89 119 155 195 237 293 357
#     4   9  20  37  59  86 117 155 199 246 293 350
#     4  12  25  42  64  89 120 157 197 244 298 357
#     4  10  21  38  58  88 127 165 206 252 303 357
#     4  11  24  42  63  89 121 156 199 247 300 360
#     4  11  24  41  62  88 120 154 195 241 292 354
#
# _framework density 19.691631000000001
#
# number of rings (size 3 to 8) (size 9 to 14) (size 15 to 20)
#    0.000    1.250    1.250    6.000    0.000    6.000 
#    0.000    3.750    0.000    0.000    0.000    0.000 
#    0.000    0.000    0.000    0.000    0.000    0.000 
#
# Total GULP energy -793686.972528 kJ/mol
# GULP energy per Si atom -12401.358946 kJ/mol
# Density = 1.964681 g / cm^3
# Si number density = 19.691631 Si / 1000 Ang^3
#
#
#
# Elastic Constant Matrix: (Units=GPa)
#
#
# Indices 1 2 3 4 5 6 
#
# 1 103.2665 31.3328 27.0331 0.0000 0.0000 0.0000
# 2 31.3328 141.6114 61.6195 0.0000 0.0000 0.0000
# 3 27.0331 61.6195 95.7946 0.0000 0.0000 0.0000
# 4 0.0000 0.0000 0.0000 35.5955 0.0000 0.0000
# 5 0.0000 0.0000 0.0000 0.0000 22.1369 0.0000
# 6 0.0000 0.0000 0.0000 0.0000 0.0000 608.2761
#
#
#
# Elastic Compliance Matrix: (Units=1/GPa)
#
#
# Indices 1 2 3 4 5 6 
#
# 1 0.010669 -0.001459 -0.002072 0.000000 0.000000 0.000000
# 2 -0.001459 0.010006 -0.006025 0.000000 0.000000 0.000000
# 3 -0.002072 -0.006025 0.014899 0.000000 0.000000 0.000000
# 4 0.000000 0.000000 0.000000 0.028093 0.000000 0.000000
# 5 0.000000 0.000000 0.000000 0.000000 0.045173 0.000000
# 6 0.000000 0.000000 0.000000 0.000000 0.000000 0.001644
#
#
# Mechanical properties :
#
#
# Convention : Reuss Voigt Hill
#
# Bulk Modulus (GPa) = 60.74482 64.51593 62.63038
# Shear Modulus (GPa) = 37.01419 147.91419 92.46419
#
# Velocity S-wave (km/s) = 4.34024 8.67631 6.85988
# Velocity P-wave (km/s) = 7.48545 11.54146 9.72721
#
# Compressibility (1/GPa) = 0.01646231
#
# Stress axis : x y z
#
# Youngs Moduli (GPa) = 93.73111 99.94185 67.11827
#
# Poissons Ratio (x) = 0.14580 0.13909
# Poissons Ratio (y) = 0.13674 0.40436
# Poissons Ratio (z) = 0.19424 0.60210
#
# Static dielectric constant tensor:
#      x y z
#    x 3.665510 0.000000 0.000000 
#    y 0.000000 3.798700 0.000000 
#    z 0.000000 0.000000 3.736600 
# 
# 
# High freq. dielectric constant tensor:
#      x y z
#    x 1.763170 0.000000 0.000000 
#    y 0.000000 1.782000 0.000000 
#    z 0.000000 0.000000 1.782940 
# 
# From -- ./inp_files/9444.got.cif
#   From: 2010.03.12/outbox.cif.g09.slc.cpg/sg57_5_cif.got.tgz:9444.got - 2010.04.16 15:48:40.
