data_PCOD8234529
_publ_section_title
;
Structure prediction by ZEFSAII (Michael W. Deem and Ramdas Pophale) SiO2 
 PCOD8234529
Probable space group: P B C M
;
_chemical_formula_sum "Si O2"
_cell_formula_units_Z 48
_cell_length_a 11.828723
_cell_length_b 13.824378
_cell_length_c 13.910400
_cell_angle_alpha 90.000000
_cell_angle_beta 90.000000
_cell_angle_gamma 90.000000
_cell_volume 2274.694516
_symmetry_space_group_name_H-M "P B C M"
_symmetry_group_IT_number 57
_symmetry_cell_setting 'orthorhombic'
loop_
_space_group_symop_operation_xyz
x,y,z
-x,-y,1/2+z
x,1/2-y,-z
-x,1/2+y,1/2-z
-x,-y,-z
x,y,1/2-z
-x,1/2+y,z
x,1/2-y,1/2+z
loop_
_atom_site_type_symbol
_atom_site_label
_atom_site_fract_x
_atom_site_fract_y
_atom_site_fract_z
Si Si1 0.003436 0.220093 0.601224
Si Si2 0.410404 0.985372 0.135920
Si Si3 0.040615 0.930679 0.643521
Si Si4 0.796907 0.912298 0.142790
Si Si5 0.156846 0.556175 0.863630
Si Si6 0.420270 0.138663 0.523714
O O1 0.055473 0.250000 0.500000
O O2 0.952008 0.315526 0.650594
O O3 0.897278 0.149105 0.584033
O O4 0.104995 0.168766 0.657456
O O5 0.421861 0.005811 0.250000
O O6 0.284641 0.956715 0.104131
O O7 0.491112 0.897805 0.103894
O O8 0.440243 0.082239 0.076700
O O9 0.045942 0.974704 0.750000
O O10 0.147550 0.988488 0.596597
O O11 0.918281 0.963518 0.601820
O O12 0.744030 0.928402 0.250000
O O13 0.703741 0.876745 0.067875
O O14 0.151562 0.573907 0.750000
O O15 0.441955 0.250000 0.500000
#
# Coordination Sequence:
#
# PCOD8234529 Si02
#       6
#     8   8   8   8   8   8
#     4  11  22  32  56  91 126 166 206 255 313 378
#     4  10  24  46  68  92 127 168 212 268 325 385
#     4   9  19  36  57  84 121 165 204 248 308 370
#     4  10  22  39  61  91 130 167 210 264 313 376
#     4   9  20  38  59  83 118 159 203 252 307 375
#     4  11  25  44  69  97 126 161 217 267 325 388
#
# _framework density 21.101735000000001
#
# number of rings (size 3 to 8) (size 9 to 14) (size 15 to 20)
#    0.000    2.000    0.000    3.500    7.000    3.333 
#    3.000    0.000    0.000    0.000    0.000    0.000 
#    0.000    0.000    0.000    0.000    0.000    0.000 
#
# Total GULP energy -594856.853778 kJ/mol
# GULP energy per Si atom -12392.851120 kJ/mol
# Density = 2.105371 g / cm^3
# Si number density = 21.101735 Si / 1000 Ang^3
#
#
#
# Elastic Constant Matrix: (Units=GPa)
#
#
# Indices 1 2 3 4 5 6 
#
# 1 88.7349 38.7549 17.8990 0.0000 0.0000 0.0000
# 2 38.7549 150.9778 11.9172 0.0000 0.0000 0.0000
# 3 17.8990 11.9172 72.4878 0.0000 0.0000 0.0000
# 4 0.0000 0.0000 0.0000 20.5997 0.0000 0.0000
# 5 0.0000 0.0000 0.0000 0.0000 28.8796 0.0000
# 6 0.0000 0.0000 0.0000 0.0000 0.0000 22.2379
#
#
#
# Elastic Compliance Matrix: (Units=1/GPa)
#
#
# Indices 1 2 3 4 5 6 
#
# 1 0.013209 -0.003174 -0.002740 0.000000 0.000000 0.000000
# 2 -0.003174 0.007473 -0.000445 0.000000 0.000000 0.000000
# 3 -0.002740 -0.000445 0.014545 0.000000 0.000000 0.000000
# 4 0.000000 0.000000 0.000000 0.048544 0.000000 0.000000
# 5 0.000000 0.000000 0.000000 0.000000 0.034627 0.000000
# 6 0.000000 0.000000 0.000000 0.000000 0.000000 0.044968
#
#
# Mechanical properties :
#
#
# Convention : Reuss Voigt Hill
#
# Bulk Modulus (GPa) = 44.42581 49.92696 47.17638
# Shear Modulus (GPa) = 27.23508 30.58541 28.91025
#
# Velocity S-wave (km/s) = 3.59647 3.81126 3.70542
# Velocity P-wave (km/s) = 6.19233 6.56347 6.38060
#
# Compressibility (1/GPa) = 0.02250944
#
# Stress axis : x y z
#
# Youngs Moduli (GPa) = 75.70878 133.80766 68.75199
#
# Poissons Ratio (x) = 0.42474 0.18836
# Poissons Ratio (y) = 0.24032 0.03058
# Poissons Ratio (z) = 0.20741 0.05952
#
# Static dielectric constant tensor:
#      x y z
#    x 3.783790 0.000000 0.000000 
#    y 0.000000 3.759760 0.000000 
#    z 0.000000 0.000000 3.891290 
# 
# 
# High freq. dielectric constant tensor:
#      x y z
#    x 1.815010 0.000000 0.000000 
#    y 0.000000 1.823750 0.000000 
#    z 0.000000 0.000000 1.841140 
# 
# From -- ./inp_files/17613.got.cif
#   From: 2010.03.12/outbox.cif.g09.slc.cpg/sg57_9_cif.got.tgz:17613.got - 2010.04.16 15:48:40.
