data_PCOD8234247
_publ_section_title
;
Structure prediction by ZEFSAII (Michael W. Deem and Ramdas Pophale) SiO2 
 PCOD8234247
Probable space group: P B C M
;
_chemical_formula_sum "Si O2"
_cell_formula_units_Z 40
_cell_length_a 12.386142
_cell_length_b 18.614837
_cell_length_c 8.756694
_cell_angle_alpha 90.000000
_cell_angle_beta 90.000000
_cell_angle_gamma 90.000000
_cell_volume 2018.996035
_symmetry_space_group_name_H-M "P B C M"
_symmetry_group_IT_number 57
_symmetry_cell_setting 'orthorhombic'
loop_
_space_group_symop_operation_xyz
x,y,z
-x,-y,1/2+z
x,1/2-y,-z
-x,1/2+y,1/2-z
-x,-y,-z
x,y,1/2-z
-x,1/2+y,z
x,1/2-y,1/2+z
loop_
_atom_site_type_symbol
_atom_site_label
_atom_site_fract_x
_atom_site_fract_y
_atom_site_fract_z
Si Si1 0.467293 0.672838 0.928177
Si Si2 0.670588 0.916521 0.071857
Si Si3 0.950253 0.428540 0.569913
Si Si4 0.720081 0.063592 0.571673
Si Si5 0.883705 0.673871 0.927797
O O1 0.480289 0.683697 0.750000
O O2 0.575154 0.634253 0.990518
O O3 0.363198 0.626115 0.969915
O O4 0.452600 0.750000 0.000000
O O5 0.654768 0.935204 0.250000
O O6 0.784305 0.878744 0.041807
O O7 0.665508 0.988643 0.973710
O O8 0.963106 0.432994 0.750000
O O9 0.825649 0.421628 0.527433
O O10 0.000000 0.500000 0.500000
O O11 0.010691 0.358475 0.507437
O O12 0.749775 0.062581 0.750000
O O13 0.907625 0.683566 0.750000
O O14 0.854964 0.750000 0.000000
#
# Coordination Sequence:
#
# PCOD8234247 Si02
#       5
#     8   8   8   8   8
#     4  10  23  41  61  90 125 164 207 255 307 368
#     4  10  21  39  63  91 124 161 207 256 307 366
#     4  12  24  41  64  90 123 162 207 257 311 368
#     4  11  23  39  63  92 124 162 210 256 308 372
#     4  11  23  39  62  93 127 163 206 254 310 371
#
# _framework density 19.811827999999998
#
# number of rings (size 3 to 8) (size 9 to 14) (size 15 to 20)
#    0.000    1.200    2.000    4.200    0.000    4.000 
#    0.000    2.000    0.000    0.000    0.000    0.000 
#    0.000    0.000    0.000    0.000    0.000    0.000 
#
# Total GULP energy -496276.399787 kJ/mol
# GULP energy per Si atom -12406.909995 kJ/mol
# Density = 1.976673 g / cm^3
# Si number density = 19.811828 Si / 1000 Ang^3
#
#
#
# Elastic Constant Matrix: (Units=GPa)
#
#
# Indices 1 2 3 4 5 6 
#
# 1 112.1999 53.9980 51.0106 0.0000 0.0000 0.0000
# 2 53.9980 116.8989 57.0954 0.0000 0.0000 0.0000
# 3 51.0106 57.0954 105.4963 0.0000 0.0000 0.0000
# 4 0.0000 0.0000 0.0000 39.1370 0.0000 0.0000
# 5 0.0000 0.0000 0.0000 0.0000 29.8936 0.0000
# 6 0.0000 0.0000 0.0000 0.0000 0.0000 22.4968
#
#
#
# Elastic Compliance Matrix: (Units=1/GPa)
#
#
# Indices 1 2 3 4 5 6 
#
# 1 0.012589 -0.003863 -0.003996 0.000000 0.000000 0.000000
# 2 -0.003863 0.012814 -0.005067 0.000000 0.000000 0.000000
# 3 -0.003996 -0.005067 0.014154 0.000000 0.000000 0.000000
# 4 0.000000 0.000000 0.000000 0.025551 0.000000 0.000000
# 5 0.000000 0.000000 0.000000 0.000000 0.033452 0.000000
# 6 0.000000 0.000000 0.000000 0.000000 0.000000 0.044451
#
#
# Mechanical properties :
#
#
# Convention : Reuss Voigt Hill
#
# Bulk Modulus (GPa) = 72.97504 73.20036 73.08770
# Shear Modulus (GPa) = 28.83003 29.80489 29.31746
#
# Velocity S-wave (km/s) = 3.81884 3.88287 3.85098
# Velocity P-wave (km/s) = 7.50725 7.55845 7.53289
#
# Compressibility (1/GPa) = 0.01370331
#
# Stress axis : x y z
#
# Youngs Moduli (GPa) = 79.43615 78.04197 70.65360
#
# Poissons Ratio (x) = 0.30149 0.28235
# Poissons Ratio (y) = 0.30687 0.35799
# Poissons Ratio (z) = 0.31745 0.39543
#
# Static dielectric constant tensor:
#      x y z
#    x 3.787290 0.000000 0.000000 
#    y 0.000000 1.075550 0.000000 
#    z 0.000000 0.000000 3.574490 
# 
# 
# High freq. dielectric constant tensor:
#      x y z
#    x 1.786840 0.000000 0.000000 
#    y 0.000000 1.780680 0.000000 
#    z 0.000000 0.000000 1.777190 
# 
# From -- ./inp_files/2635.got.cif
#   From: 2010.03.12/outbox.cif.g09.slc.cpg/sg57_2_cif.got.tgz:2635.got - 2010.04.16 15:48:40.
