data_PCOD8234737
_publ_section_title
;
Structure prediction by ZEFSAII (Michael W. Deem and Ramdas Pophale) SiO2 
 PCOD8234737
Probable space group: P B C M
;
_chemical_formula_sum "Si O2"
_cell_formula_units_Z 56
_cell_length_a 11.628165
_cell_length_b 12.659996
_cell_length_c 18.631701
_cell_angle_alpha 90.000000
_cell_angle_beta 90.000000
_cell_angle_gamma 90.000000
_cell_volume 2742.819701
_symmetry_space_group_name_H-M "P B C M"
_symmetry_group_IT_number 57
_symmetry_cell_setting 'orthorhombic'
loop_
_space_group_symop_operation_xyz
x,y,z
-x,-y,1/2+z
x,1/2-y,-z
-x,1/2+y,1/2-z
-x,-y,-z
x,y,1/2-z
-x,1/2+y,z
x,1/2-y,1/2+z
loop_
_atom_site_type_symbol
_atom_site_label
_atom_site_fract_x
_atom_site_fract_y
_atom_site_fract_z
Si Si1 0.018946 0.862302 0.831049
Si Si2 0.803883 0.273945 0.081868
Si Si3 0.984754 0.057816 0.925366
Si Si4 0.608929 0.320909 0.666017
Si Si5 0.649853 0.557970 0.670906
Si Si6 0.409409 0.260079 0.080962
Si Si7 0.168334 0.208125 0.873951
O O1 0.068830 0.866160 0.750000
O O2 0.900488 0.795320 0.828614
O O3 0.109412 0.811421 0.885091
O O4 0.996131 0.980480 0.857830
O O5 0.858898 0.390479 0.084580
O O6 0.686708 0.268669 0.127917
O O7 0.773934 0.250000 0.000000
O O8 0.080070 0.150441 0.927715
O O9 0.000000 0.000000 0.000000
O O10 0.601388 0.296653 0.750000
O O11 0.663451 0.435777 0.649193
O O12 0.481505 0.318490 0.631807
O O13 0.592423 0.565435 0.750000
O O14 0.572237 0.620205 0.612069
O O15 0.775240 0.614888 0.674720
O O16 0.272831 0.231844 0.084309
O O17 0.454710 0.250000 0.000000
#
# Coordination Sequence:
#
# PCOD8234737 Si02
#       7
#     8   8   8   8   8   8   8
#     4  11  23  39  63  95 127 166 216 263 319 388
#     4  11  23  40  63  90 130 168 212 265 323 380
#     4  11  23  39  65  94 132 171 208 265 325 384
#     4  11  23  42  64  91 127 168 221 268 320 384
#     4   9  20  39  63  88 121 168 207 256 320 380
#     4  10  23  41  65  93 124 164 212 266 319 385
#     4   9  23  40  63  91 128 166 209 260 320 386
#
# _framework density 20.416944999999998
#
# number of rings (size 3 to 8) (size 9 to 14) (size 15 to 20)
#    0.857    0.857    1.429    2.571    2.000    5.143 
#    2.571    0.000    0.000    0.000    0.000    0.000 
#    0.000    0.000    0.000    0.000    0.000    0.000 
#
# Total GULP energy -694034.072650 kJ/mol
# GULP energy per Si atom -12393.465583 kJ/mol
# Density = 2.037048 g / cm^3
# Si number density = 20.416945 Si / 1000 Ang^3
#
#
#
# Elastic Constant Matrix: (Units=GPa)
#
#
# Indices 1 2 3 4 5 6 
#
# 1 92.2263 31.4929 37.8589 0.0000 0.0000 0.0000
# 2 31.4929 69.9849 37.5334 0.0000 0.0000 0.0000
# 3 37.8589 37.5334 151.7890 0.0000 0.0000 0.0000
# 4 0.0000 0.0000 0.0000 34.0733 0.0000 0.0000
# 5 0.0000 0.0000 0.0000 0.0000 26.5220 0.0000
# 6 0.0000 0.0000 0.0000 0.0000 0.0000 31.1688
#
#
#
# Elastic Compliance Matrix: (Units=1/GPa)
#
#
# Indices 1 2 3 4 5 6 
#
# 1 0.013384 -0.004880 -0.002132 0.000000 0.000000 0.000000
# 2 -0.004880 0.018252 -0.003296 0.000000 0.000000 0.000000
# 3 -0.002132 -0.003296 0.007935 0.000000 0.000000 0.000000
# 4 0.000000 0.000000 0.000000 0.029348 0.000000 0.000000
# 5 0.000000 0.000000 0.000000 0.000000 0.037705 0.000000
# 6 0.000000 0.000000 0.000000 0.000000 0.000000 0.032083
#
#
# Mechanical properties :
#
#
# Convention : Reuss Voigt Hill
#
# Bulk Modulus (GPa) = 52.75270 58.64117 55.69694
# Shear Modulus (GPa) = 30.18564 32.16050 31.17307
#
# Velocity S-wave (km/s) = 3.84925 3.97317 3.91170
# Velocity P-wave (km/s) = 6.75643 7.05920 6.90947
#
# Compressibility (1/GPa) = 0.01895637
#
# Stress axis : x y z
#
# Youngs Moduli (GPa) = 74.71502 54.78730 126.02635
#
# Poissons Ratio (x) = 0.26734 0.26865
# Poissons Ratio (y) = 0.36458 0.41542
# Poissons Ratio (z) = 0.15927 0.18059
#
# Static dielectric constant tensor:
#      x y z
#    x 3.674100 0.000000 0.000000 
#    y 0.000000 3.666380 0.000000 
#    z 0.000000 0.000000 3.586170 
# 
# 
# High freq. dielectric constant tensor:
#      x y z
#    x 1.788660 0.000000 0.000000 
#    y 0.000000 1.787390 0.000000 
#    z 0.000000 0.000000 1.799890 
# 
# From -- ./inp_files/25058.got.cif
#   From: 2010.03.12/outbox.cif.g09.slc.cpg/sg57_13_cif.got.tgz:25058.got - 2010.04.16 15:48:40.
