data_PCOD8234242
_publ_section_title
;
Structure prediction by ZEFSAII (Michael W. Deem and Ramdas Pophale) SiO2 
 PCOD8234242
Probable space group: P B C M
;
_chemical_formula_sum "Si O2"
_cell_formula_units_Z 48
_cell_length_a 14.665537
_cell_length_b 19.181047
_cell_length_c 8.689624
_cell_angle_alpha 90.000000
_cell_angle_beta 90.000000
_cell_angle_gamma 90.000000
_cell_volume 2444.394311
_symmetry_space_group_name_H-M "P B C M"
_symmetry_group_IT_number 57
_symmetry_cell_setting 'orthorhombic'
loop_
_space_group_symop_operation_xyz
x,y,z
-x,-y,1/2+z
x,1/2-y,-z
-x,1/2+y,1/2-z
-x,-y,-z
x,y,1/2-z
-x,1/2+y,z
x,1/2-y,1/2+z
loop_
_atom_site_type_symbol
_atom_site_label
_atom_site_fract_x
_atom_site_fract_y
_atom_site_fract_z
Si Si1 0.383688 0.324030 0.571928
Si Si2 0.774586 0.912940 0.431265
Si Si3 0.075317 0.323167 0.570757
Si Si4 0.266074 0.562787 0.931634
Si Si5 0.862614 0.176911 0.070966
Si Si6 0.456916 0.931882 0.573006
O O1 0.406414 0.250000 0.500000
O O2 0.354995 0.317921 0.750000
O O3 0.301172 0.357255 0.478095
O O4 0.474791 0.368307 0.551764
O O5 0.775627 0.923642 0.250000
O O6 0.872833 0.886051 0.487123
O O7 0.753227 0.985673 0.510131
O O8 0.108257 0.250000 0.500000
O O9 0.099398 0.322959 0.750000
O O10 0.969028 0.335050 0.539814
O O11 0.266748 0.561749 0.750000
O O12 0.188228 0.614057 0.989446
O O13 0.363622 0.589369 0.990236
O O14 0.838708 0.177295 0.250000
O O15 0.829825 0.250000 0.000000
O O16 0.436049 0.948109 0.750000
O O17 0.500000 0.000000 0.500000
#
# Coordination Sequence:
#
# PCOD8234242 Si02
#       6
#     8   8   8   8   8   8
#     4  11  24  41  63  92 125 161 205 254 306 366
#     4  12  24  39  62  90 125 164 206 255 309 371
#     4  10  21  39  63  90 124 163 206 254 309 370
#     4  12  25  41  64  92 125 164 207 256 311 371
#     4  10  22  42  66  92 123 162 207 257 310 368
#     4  11  23  41  65  90 122 163 207 252 307 369
#
# _framework density 19.636766999999999
#
# number of rings (size 3 to 8) (size 9 to 14) (size 15 to 20)
#    0.000    1.000    1.667    5.500    0.000    5.333 
#    0.000    1.667    0.000    0.000    0.000    0.000 
#    0.000    0.000    0.000    0.000    0.000    0.000 
#
# Total GULP energy -595555.171578 kJ/mol
# GULP energy per Si atom -12407.399408 kJ/mol
# Density = 1.959207 g / cm^3
# Si number density = 19.636767 Si / 1000 Ang^3
#
#
#
# Elastic Constant Matrix: (Units=GPa)
#
#
# Indices 1 2 3 4 5 6 
#
# 1 87.2256 41.3899 53.5710 0.0000 0.0000 0.0000
# 2 41.3899 101.6035 40.9320 0.0000 0.0000 0.0000
# 3 53.5710 40.9320 145.2363 0.0000 0.0000 0.0000
# 4 0.0000 0.0000 0.0000 39.8584 0.0000 0.0000
# 5 0.0000 0.0000 0.0000 0.0000 -14.2708 0.0000
# 6 0.0000 0.0000 0.0000 0.0000 0.0000 -455.6909
#
#
#
# Elastic Compliance Matrix: (Units=1/GPa)
#
#
# Indices 1 2 3 4 5 6 
#
# 1 0.016725 -0.004882 -0.004793 0.000000 0.000000 0.000000
# 2 -0.004882 0.012528 -0.001730 0.000000 0.000000 0.000000
# 3 -0.004793 -0.001730 0.009141 0.000000 0.000000 0.000000
# 4 0.000000 0.000000 0.000000 0.025089 0.000000 0.000000
# 5 0.000000 0.000000 0.000000 0.000000 -0.070073 0.000000
# 6 0.000000 0.000000 0.000000 0.000000 0.000000 -0.002194
#
#
# Mechanical properties :
#
#
# Convention : Reuss Voigt Hill
#
# Bulk Modulus (GPa) = 64.17162 67.31681 65.74422
# Shear Modulus (GPa) = 260.14553 -72.80916 93.66818
#
# Velocity S-wave (km/s) = 11.52243 -6.09577 6.91404
# Velocity P-wave (km/s) = 14.48351 3.89733 9.86364
#
# Compressibility (1/GPa) = 0.01558321
#
# Stress axis : x y z
#
# Youngs Moduli (GPa) = 59.79068 79.82136 109.39922
#
# Poissons Ratio (x) = 0.38971 0.52436
# Poissons Ratio (y) = 0.29191 0.18925
# Poissons Ratio (z) = 0.28658 0.13808
#
# Static dielectric constant tensor:
#      x y z
#    x 3.821650 0.000000 0.000000 
#    y 0.000000 3.697400 0.000000 
#    z 0.000000 0.000000 3.844940 
# 
# 
# High freq. dielectric constant tensor:
#      x y z
#    x 1.775240 0.000000 0.000000 
#    y 0.000000 1.771780 0.000000 
#    z 0.000000 0.000000 1.787450 
# 
# From -- ./inp_files/4698.got.cif
#   From: 2010.03.12/outbox.cif.g09.slc.cpg/sg57_3_cif.got.tgz:4698.got - 2010.04.16 15:48:40.
