data_PCOD8234825
_publ_section_title
;
Structure prediction by ZEFSAII (Michael W. Deem and Ramdas Pophale) SiO2 
 PCOD8234825
Probable space group: P B C M
;
_chemical_formula_sum "Si O2"
_cell_formula_units_Z 40
_cell_length_a 12.356480
_cell_length_b 18.674220
_cell_length_c 8.809207
_cell_angle_alpha 90.000000
_cell_angle_beta 90.000000
_cell_angle_gamma 90.000000
_cell_volume 2032.703602
_symmetry_space_group_name_H-M "P B C M"
_symmetry_group_IT_number 57
_symmetry_cell_setting 'orthorhombic'
loop_
_space_group_symop_operation_xyz
x,y,z
-x,-y,1/2+z
x,1/2-y,-z
-x,1/2+y,1/2-z
-x,-y,-z
x,y,1/2-z
-x,1/2+y,z
x,1/2-y,1/2+z
loop_
_atom_site_type_symbol
_atom_site_label
_atom_site_fract_x
_atom_site_fract_y
_atom_site_fract_z
Si Si1 0.292224 0.557687 0.929438
Si Si2 0.319272 0.092977 0.570008
Si Si3 0.532134 0.326294 0.071548
Si Si4 0.063596 0.564507 0.075900
Si Si5 0.877636 0.826554 0.576111
O O1 0.287451 0.546950 0.750000
O O2 0.372817 0.620555 0.979130
O O3 0.337305 0.485493 0.003132
O O4 0.174439 0.578716 0.988962
O O5 0.315746 0.087494 0.750000
O O6 0.417330 0.143095 0.513775
O O7 0.207274 0.124171 0.510564
O O8 0.529952 0.316860 0.250000
O O9 0.555666 0.250000 0.000000
O O10 0.087622 0.543951 0.250000
O O11 0.994596 0.636961 0.064501
O O12 0.000000 0.500000 0.000000
O O13 0.885137 0.750000 0.500000
O O14 0.840306 0.818169 0.750000
#
# Coordination Sequence:
#
# PCOD8234825 Si02
#       5
#     8   8   8   8   8
#     4  11  23  40  63  91 124 161 206 255 307 367
#     4  11  22  39  64  92 122 160 207 255 309 367
#     4  10  24  42  61  89 124 163 205 255 309 365
#     4  11  23  40  63  90 122 161 205 251 304 362
#     4  11  24  40  61  91 125 161 202 253 310 365
#
# _framework density 19.678225000000001
#
# number of rings (size 3 to 8) (size 9 to 14) (size 15 to 20)
#    0.000    1.200    2.000    3.600    0.000    8.000 
#    0.000    4.000    0.000    0.000    0.000    0.000 
#    0.000    0.000    0.000    0.000    0.000    0.000 
#
# Total GULP energy -496245.807630 kJ/mol
# GULP energy per Si atom -12406.145191 kJ/mol
# Density = 1.963344 g / cm^3
# Si number density = 19.678225 Si / 1000 Ang^3
#
#
#
# Elastic Constant Matrix: (Units=GPa)
#
#
# Indices 1 2 3 4 5 6 
#
# 1 91.0688 47.4113 36.2597 0.0000 0.0000 0.0000
# 2 47.4113 153.9450 55.1491 0.0000 0.0000 0.0000
# 3 36.2597 55.1491 99.6202 0.0000 0.0000 0.0000
# 4 0.0000 0.0000 0.0000 36.7713 0.0000 0.0000
# 5 0.0000 0.0000 0.0000 0.0000 31.9511 0.0000
# 6 0.0000 0.0000 0.0000 0.0000 0.0000 30.8077
#
#
#
# Elastic Compliance Matrix: (Units=1/GPa)
#
#
# Indices 1 2 3 4 5 6 
#
# 1 0.013925 -0.003085 -0.003361 0.000000 0.000000 0.000000
# 2 -0.003085 0.008786 -0.003741 0.000000 0.000000 0.000000
# 3 -0.003361 -0.003741 0.013332 0.000000 0.000000 0.000000
# 4 0.000000 0.000000 0.000000 0.027195 0.000000 0.000000
# 5 0.000000 0.000000 0.000000 0.000000 0.031298 0.000000
# 6 0.000000 0.000000 0.000000 0.000000 0.000000 0.032459
#
#
# Mechanical properties :
#
#
# Convention : Reuss Voigt Hill
#
# Bulk Modulus (GPa) = 63.81506 69.14157 66.47831
# Shear Modulus (GPa) = 32.76719 33.62696 33.19707
#
# Velocity S-wave (km/s) = 4.08505 4.13830 4.11176
# Velocity P-wave (km/s) = 7.39932 7.61882 7.50987
#
# Compressibility (1/GPa) = 0.01567028
#
# Stress axis : x y z
#
# Youngs Moduli (GPa) = 71.81523 113.81723 75.00496
#
# Poissons Ratio (x) = 0.35107 0.25207
# Poissons Ratio (y) = 0.22151 0.28061
# Poissons Ratio (z) = 0.24135 0.42581
#
# Static dielectric constant tensor:
#      x y z
#    x 3.793520 0.000000 0.000000 
#    y 0.000000 4.464810 0.000000 
#    z 0.000000 0.000000 3.726460 
# 
# 
# High freq. dielectric constant tensor:
#      x y z
#    x 1.779430 0.000000 0.000000 
#    y 0.000000 1.776650 0.000000 
#    z 0.000000 0.000000 1.779620 
# 
# From -- ./inp_files/2625.got.cif
#   From: 2010.03.12/outbox.cif.g09.slc.cpg/sg57_2_cif.got.tgz:2625.got - 2010.04.16 15:48:40.
