data_PCOD8234145
_publ_section_title
;
Structure prediction by ZEFSAII (Michael W. Deem and Ramdas Pophale) SiO2 
 PCOD8234145
Probable space group: P B C M
;
_chemical_formula_sum "Si O2"
_cell_formula_units_Z 40
_cell_length_a 12.519526
_cell_length_b 17.769230
_cell_length_c 8.735881
_cell_angle_alpha 90.000000
_cell_angle_beta 90.000000
_cell_angle_gamma 90.000000
_cell_volume 1943.404503
_symmetry_space_group_name_H-M "P B C M"
_symmetry_group_IT_number 57
_symmetry_cell_setting 'orthorhombic'
loop_
_space_group_symop_operation_xyz
x,y,z
-x,-y,1/2+z
x,1/2-y,-z
-x,1/2+y,1/2-z
-x,-y,-z
x,y,1/2-z
-x,1/2+y,z
x,1/2-y,1/2+z
loop_
_atom_site_type_symbol
_atom_site_label
_atom_site_fract_x
_atom_site_fract_y
_atom_site_fract_z
Si Si1 0.185326 0.331797 0.071135
Si Si2 0.373401 0.075337 0.071021
Si Si3 0.407029 0.597848 0.928195
Si Si4 0.210883 0.828531 0.569804
Si Si5 0.972758 0.079295 0.928422
O O1 0.211918 0.328574 0.250000
O O2 0.066076 0.360740 0.039964
O O3 0.199256 0.250000 0.000000
O O4 0.264754 0.389577 0.990236
O O5 0.386273 0.091120 0.250000
O O6 0.370654 0.986894 0.034714
O O7 0.472736 0.113041 0.983735
O O8 0.398435 0.616755 0.750000
O O9 0.331827 0.654426 0.020754
O O10 0.172247 0.750000 0.500000
O O11 0.201649 0.824012 0.750000
O O12 0.135179 0.893737 0.507422
O O13 0.950806 0.068633 0.750000
O O14 0.000000 0.000000 0.000000
#
# Coordination Sequence:
#
# PCOD8234145 Si02
#       5
#     8   8   8   8   8
#     4  11  24  40  60  87 120 157 198 244 295 352
#     4  10  21  38  62  90 121 157 198 245 296 352
#     4  10  21  39  63  90 121 157 200 247 296 354
#     4  12  25  41  62  89 123 160 201 249 302 359
#     4  11  24  42  65  92 121 157 201 247 298 357
#
# _framework density 20.582439000000001
#
# number of rings (size 3 to 8) (size 9 to 14) (size 15 to 20)
#    0.000    1.200    0.000    6.000    0.000   11.200 
#    0.000    4.000    0.000    0.000    0.000    0.000 
#    0.000    0.000    0.000    0.000    0.000    0.000 
#
# Total GULP energy -496332.101020 kJ/mol
# GULP energy per Si atom -12408.302526 kJ/mol
# Density = 2.053559 g / cm^3
# Si number density = 20.582439 Si / 1000 Ang^3
#
#
#
# Elastic Constant Matrix: (Units=GPa)
#
#
# Indices 1 2 3 4 5 6 
#
# 1 76.1256 10.6599 38.6189 0.0000 0.0000 0.0000
# 2 10.6599 61.7188 39.0568 0.0000 0.0000 0.0000
# 3 38.6189 39.0568 133.9228 0.0000 0.0000 0.0000
# 4 0.0000 0.0000 0.0000 38.4663 0.0000 0.0000
# 5 0.0000 0.0000 0.0000 0.0000 40.8918 0.0000
# 6 0.0000 0.0000 0.0000 0.0000 0.0000 30.7547
#
#
#
# Elastic Compliance Matrix: (Units=1/GPa)
#
#
# Indices 1 2 3 4 5 6 
#
# 1 0.015389 0.000184 -0.004491 0.000000 0.000000 0.000000
# 2 0.000184 0.019872 -0.005848 0.000000 0.000000 0.000000
# 3 -0.004491 -0.005848 0.010468 0.000000 0.000000 0.000000
# 4 0.000000 0.000000 0.000000 0.025997 0.000000 0.000000
# 5 0.000000 0.000000 0.000000 0.000000 0.024455 0.000000
# 6 0.000000 0.000000 0.000000 0.000000 0.000000 0.032515
#
#
# Mechanical properties :
#
#
# Convention : Reuss Voigt Hill
#
# Bulk Modulus (GPa) = 39.34333 49.82649 44.58491
# Shear Modulus (GPa) = 31.75029 34.25131 33.00080
#
# Velocity S-wave (km/s) = 3.93184 4.08377 4.00853
# Velocity P-wave (km/s) = 6.30627 6.81887 6.56757
#
# Compressibility (1/GPa) = 0.02541727
#
# Stress axis : x y z
#
# Youngs Moduli (GPa) = 64.98196 50.32277 95.53124
#
# Poissons Ratio (x) = -0.00927 0.42907
# Poissons Ratio (y) = -0.01198 0.55871
# Poissons Ratio (z) = 0.29186 0.29431
#
# Static dielectric constant tensor:
#      x y z
#    x 3.864710 0.000000 0.000000 
#    y 0.000000 3.708560 0.000000 
#    z 0.000000 0.000000 3.863370 
# 
# 
# High freq. dielectric constant tensor:
#      x y z
#    x 1.817930 0.000000 0.000000 
#    y 0.000000 1.807260 0.000000 
#    z 0.000000 0.000000 1.821770 
# 
# From -- ./inp_files/2649.got.cif
#   From: 2010.03.12/outbox.cif.g09.slc.cpg/sg57_2_cif.got.tgz:2649.got - 2010.04.16 15:48:40.
