data_PCOD8234329
_publ_section_title
;
Structure prediction by ZEFSAII (Michael W. Deem and Ramdas Pophale) SiO2 
 PCOD8234329
Probable space group: P B C M
;
_chemical_formula_sum "Si O2"
_cell_formula_units_Z 36
_cell_length_a 11.232421
_cell_length_b 13.432343
_cell_length_c 10.828984
_cell_angle_alpha 90.000000
_cell_angle_beta 90.000000
_cell_angle_gamma 90.000000
_cell_volume 1633.852541
_symmetry_space_group_name_H-M "P B C M"
_symmetry_group_IT_number 57
_symmetry_cell_setting 'orthorhombic'
loop_
_space_group_symop_operation_xyz
x,y,z
-x,-y,1/2+z
x,1/2-y,-z
-x,1/2+y,1/2-z
-x,-y,-z
x,y,1/2-z
-x,1/2+y,z
x,1/2-y,1/2+z
loop_
_atom_site_type_symbol
_atom_site_label
_atom_site_fract_x
_atom_site_fract_y
_atom_site_fract_z
Si Si1 0.621491 0.550327 0.386996
Si Si2 0.951594 0.750000 0.000000
Si Si3 0.866430 0.394365 0.886870
Si Si4 0.781804 0.608863 0.889041
Si Si5 0.389867 0.640246 0.028646
O O1 0.676709 0.571748 0.250000
O O2 0.684902 0.610150 0.499847
O O3 0.627544 0.430955 0.408736
O O4 0.484385 0.585476 0.382763
O O5 0.033249 0.843468 0.968411
O O6 0.864414 0.707003 0.893767
O O7 0.908553 0.371316 0.750000
O O8 0.862941 0.511886 0.913463
O O9 0.736258 0.346652 0.904447
O O10 0.724432 0.604142 0.750000
O O11 0.439182 0.750000 0.000000
#
# Coordination Sequence:
#
# PCOD8234329 Si02
#       5
#     8   4   8   8   8
#     4  10  23  41  66  98 132 169 211 260 316 386
#     4  12  22  40  64  94 120 168 226 266 312 380
#     4  10  21  40  63  90 128 165 209 265 320 378
#     4  10  24  44  64  91 131 171 210 266 324 380
#     4  10  21  41  64  97 129 166 208 260 321 382
#
# _framework density 22.033809999999999
#
# number of rings (size 3 to 8) (size 9 to 14) (size 15 to 20)
#    0.000    1.778    1.111    2.000    1.556    8.889 
#    0.000    3.333    0.000    0.000    0.000    0.000 
#    0.000    0.000    0.000    0.000    0.000    0.000 
#
# Total GULP energy -446061.540727 kJ/mol
# GULP energy per Si atom -12390.598354 kJ/mol
# Density = 2.198366 g / cm^3
# Si number density = 22.033810 Si / 1000 Ang^3
#
#
#
# Elastic Constant Matrix: (Units=GPa)
#
#
# Indices 1 2 3 4 5 6 
#
# 1 87.8162 33.6689 51.1181 0.0000 0.0000 0.0000
# 2 33.6689 85.3377 12.9406 0.0000 0.0000 0.0000
# 3 51.1181 12.9406 134.9444 0.0000 0.0000 0.0000
# 4 0.0000 0.0000 0.0000 14.0328 0.0000 0.0000
# 5 0.0000 0.0000 0.0000 0.0000 16.4876 0.0000
# 6 0.0000 0.0000 0.0000 0.0000 0.0000 35.2783
#
#
#
# Elastic Compliance Matrix: (Units=1/GPa)
#
#
# Indices 1 2 3 4 5 6 
#
# 1 0.017061 -0.005836 -0.005903 0.000000 0.000000 0.000000
# 2 -0.005836 0.013887 0.000879 0.000000 0.000000 0.000000
# 3 -0.005903 0.000879 0.009562 0.000000 0.000000 0.000000
# 4 0.000000 0.000000 0.000000 0.071262 0.000000 0.000000
# 5 0.000000 0.000000 0.000000 0.000000 0.060652 0.000000
# 6 0.000000 0.000000 0.000000 0.000000 0.000000 0.028346
#
#
# Mechanical properties :
#
#
# Convention : Reuss Voigt Hill
#
# Bulk Modulus (GPa) = 53.21895 55.95037 54.58466
# Shear Modulus (GPa) = 21.85746 27.18446 24.52096
#
# Velocity S-wave (km/s) = 3.15301 3.51630 3.33960
# Velocity P-wave (km/s) = 6.12055 6.47564 6.30060
#
# Compressibility (1/GPa) = 0.01879030
#
# Stress axis : x y z
#
# Youngs Moduli (GPa) = 58.61200 72.00760 104.57637
#
# Poissons Ratio (x) = 0.42025 0.61735
# Poissons Ratio (y) = 0.34207 -0.09193
# Poissons Ratio (z) = 0.34601 -0.06330
#
# Static dielectric constant tensor:
#      x y z
#    x 3.801660 0.000000 0.000000 
#    y 0.000000 4.004920 0.000000 
#    z 0.000000 0.000000 3.815460 
# 
# 
# High freq. dielectric constant tensor:
#      x y z
#    x 1.859640 0.000000 0.000000 
#    y 0.000000 1.872220 0.000000 
#    z 0.000000 0.000000 1.851750 
# 
# From -- ./inp_files/12512.got.cif
#   From: 2010.03.12/outbox.cif.g09.slc.cpg/sg57_7_cif.got.tgz:12512.got - 2010.04.16 15:48:40.
