data_PCOD8234222
_publ_section_title
;
Structure prediction by ZEFSAII (Michael W. Deem and Ramdas Pophale) SiO2 
 PCOD8234222
Probable space group: P B C M
;
_chemical_formula_sum "Si O2"
_cell_formula_units_Z 48
_cell_length_a 29.369636
_cell_length_b 8.883608
_cell_length_c 8.973376
_cell_angle_alpha 90.000000
_cell_angle_beta 90.000000
_cell_angle_gamma 90.000000
_cell_volume 2341.228576
_symmetry_space_group_name_H-M "P B C M"
_symmetry_group_IT_number 57
_symmetry_cell_setting 'orthorhombic'
loop_
_space_group_symop_operation_xyz
x,y,z
-x,-y,1/2+z
x,1/2-y,-z
-x,1/2+y,1/2-z
-x,-y,-z
x,y,1/2-z
-x,1/2+y,z
x,1/2-y,1/2+z
loop_
_atom_site_type_symbol
_atom_site_label
_atom_site_fract_x
_atom_site_fract_y
_atom_site_fract_z
Si Si1 0.126608 0.084388 0.431024
Si Si2 0.957729 0.086606 0.431345
Si Si3 0.697433 0.401687 0.586254
Si Si4 0.560702 0.925668 0.750000
Si Si5 0.401742 0.570537 0.478229
Si Si6 0.782085 0.911202 0.070901
Si Si7 0.534314 0.925666 0.250000
O O1 0.121435 0.250000 0.500000
O O2 0.124435 0.086827 0.250000
O O3 0.174014 0.012406 0.491588
O O4 0.087701 0.984724 0.503057
O O5 0.961214 0.250000 0.500000
O O6 0.958279 0.086055 0.250000
O O7 0.000000 0.000000 0.500000
O O8 0.692803 0.250000 0.500000
O O9 0.714262 0.361633 0.750000
O O10 0.647027 0.474496 0.592203
O O11 0.736282 0.506055 0.516319
O O12 0.543876 0.753326 0.750000
O O13 0.595487 0.966574 0.621022
O O14 0.519442 0.045675 0.750000
O O15 0.406850 0.750000 0.500000
O O16 0.444769 0.511512 0.388605
O O17 0.788090 0.903416 0.250000
O O18 0.776819 0.750000 0.000000
#
# Coordination Sequence:
#
# PCOD8234222 Si02
#       7
#     8   8   8   4   8   8   4
#     4  11  22  40  64  93 128 172 217 266 323 381
#     4  12  25  43  65  94 129 170 217 270 325 387
#     4  10  23  41  64  90 122 160 203 252 307 371
#     4  12  26  40  66  94 120 170 196 262 305 372
#     4  11  23  43  64  91 124 164 206 255 310 374
#     4  10  21  39  61  92 126 164 209 260 313 372
#     4  12  24  44  64  92 130 154 214 246 313 370
#
# _framework density 20.502057000000001
#
# number of rings (size 3 to 8) (size 9 to 14) (size 15 to 20)
#    0.000    1.000    0.833    7.500    3.500    3.333 
#    0.000    1.667    0.000    0.000    0.000    0.000 
#    0.000    0.000    0.000    0.000    0.000    0.000 
#
# Total GULP energy -594737.775244 kJ/mol
# GULP energy per Si atom -12390.370318 kJ/mol
# Density = 2.045539 g / cm^3
# Si number density = 20.502057 Si / 1000 Ang^3
#
#
#
# Elastic Constant Matrix: (Units=GPa)
#
#
# Indices 1 2 3 4 5 6 
#
# 1 134.5559 52.4560 37.9011 0.0000 0.0000 0.0000
# 2 52.4560 104.7022 34.3622 0.0000 0.0000 0.0000
# 3 37.9011 34.3622 150.8334 0.0000 0.0000 0.0000
# 4 0.0000 0.0000 0.0000 34.9686 0.0000 0.0000
# 5 0.0000 0.0000 0.0000 0.0000 38.7378 0.0000
# 6 0.0000 0.0000 0.0000 0.0000 0.0000 42.5117
#
#
#
# Elastic Compliance Matrix: (Units=1/GPa)
#
#
# Indices 1 2 3 4 5 6 
#
# 1 0.009505 -0.004300 -0.001409 0.000000 0.000000 0.000000
# 2 -0.004300 0.012268 -0.001714 0.000000 0.000000 0.000000
# 3 -0.001409 -0.001714 0.007374 0.000000 0.000000 0.000000
# 4 0.000000 0.000000 0.000000 0.028597 0.000000 0.000000
# 5 0.000000 0.000000 0.000000 0.000000 0.025815 0.000000
# 6 0.000000 0.000000 0.000000 0.000000 0.000000 0.023523
#
#
# Mechanical properties :
#
#
# Convention : Reuss Voigt Hill
#
# Bulk Modulus (GPa) = 69.92372 71.05890 70.49131
# Shear Modulus (GPa) = 39.46509 40.93509 40.20009
#
# Velocity S-wave (km/s) = 4.39217 4.47322 4.43288
# Velocity P-wave (km/s) = 7.73959 7.83672 7.78831
#
# Compressibility (1/GPa) = 0.01430130
#
# Stress axis : x y z
#
# Youngs Moduli (GPa) = 105.20924 81.51524 135.60411
#
# Poissons Ratio (x) = 0.35048 0.19105
# Poissons Ratio (y) = 0.45236 0.23248
# Poissons Ratio (z) = 0.14822 0.13975
#
# Static dielectric constant tensor:
#      x y z
#    x 4.514630 0.000000 0.000000 
#    y 0.000000 3.577420 0.000000 
#    z 0.000000 0.000000 3.971140 
# 
# 
# High freq. dielectric constant tensor:
#      x y z
#    x 1.824270 0.000000 0.000000 
#    y 0.000000 1.795230 0.000000 
#    z 0.000000 0.000000 1.821150 
# 
# From -- ./inp_files/10118.got.cif
#   From: 2010.03.12/outbox.cif.g09.slc.cpg/sg57_6_cif.got.tgz:10118.got - 2010.04.16 15:48:40.
