data_PCOD8234646
_publ_section_title
;
Structure prediction by ZEFSAII (Michael W. Deem and Ramdas Pophale) SiO2 
 PCOD8234646
Probable space group: P B C M
;
_chemical_formula_sum "Si O2"
_cell_formula_units_Z 48
_cell_length_a 7.208878
_cell_length_b 13.873148
_cell_length_c 23.895226
_cell_angle_alpha 90.000000
_cell_angle_beta 90.000000
_cell_angle_gamma 90.000000
_cell_volume 2389.757524
_symmetry_space_group_name_H-M "P B C M"
_symmetry_group_IT_number 57
_symmetry_cell_setting 'orthorhombic'
loop_
_space_group_symop_operation_xyz
x,y,z
-x,-y,1/2+z
x,1/2-y,-z
-x,1/2+y,1/2-z
-x,-y,-z
x,y,1/2-z
-x,1/2+y,z
x,1/2-y,1/2+z
loop_
_atom_site_type_symbol
_atom_site_label
_atom_site_fract_x
_atom_site_fract_y
_atom_site_fract_z
Si Si1 0.602431 0.375361 0.606512
Si Si2 0.536596 0.957790 0.186538
Si Si3 0.101011 0.374083 0.357357
Si Si4 0.261711 0.711462 0.686234
Si Si5 0.759169 0.788303 0.938143
Si Si6 0.036112 0.960483 0.561228
O O1 0.498319 0.453071 0.645427
O O2 0.710868 0.301643 0.646045
O O3 0.451922 0.323991 0.567422
O O4 0.750516 0.425607 0.565454
O O5 0.493610 0.989910 0.250000
O O6 0.749837 0.924297 0.182874
O O7 0.401584 0.872245 0.167700
O O8 0.208432 0.297640 0.395305
O O9 0.998727 0.453619 0.395323
O O10 0.949239 0.323728 0.318627
O O11 0.299611 0.743497 0.750000
O O12 0.899282 0.873969 0.923959
O O13 0.795409 0.750000 0.000000
O O14 0.000000 0.000000 0.500000
#
# Coordination Sequence:
#
# PCOD8234646 Si02
#       6
#     8   8   8   8   8   8
#     4  11  24  41  64  95 127 162 208 262 306 374
#     4  10  22  42  64  90 125 163 205 256 312 370
#     4  11  22  41  64  90 125 163 209 259 308 369
#     4  11  22  39  65  93 124 165 207 251 314 374
#     4  12  24  41  64  95 125 165 211 256 314 368
#     4  11  24  42  64  91 126 168 212 259 310 370
#
# _framework density 20.085720999999999
#
# number of rings (size 3 to 8) (size 9 to 14) (size 15 to 20)
#    0.000    1.000    5.000    2.000    0.000    2.667 
#    0.000    0.000    0.000    0.000    0.000    0.000 
#    0.000    0.000    0.000    0.000    0.000    0.000 
#
# Total GULP energy -595513.875101 kJ/mol
# GULP energy per Si atom -12406.539065 kJ/mol
# Density = 2.004001 g / cm^3
# Si number density = 20.085721 Si / 1000 Ang^3
#
#
#
# Elastic Constant Matrix: (Units=GPa)
#
#
# Indices 1 2 3 4 5 6 
#
# 1 73.9120 20.0114 23.4708 0.0000 0.0000 0.0000
# 2 20.0114 90.4612 28.4151 0.0000 0.0000 0.0000
# 3 23.4708 28.4151 70.0184 0.0000 0.0000 0.0000
# 4 0.0000 0.0000 0.0000 17.1810 0.0000 0.0000
# 5 0.0000 0.0000 0.0000 0.0000 41.2757 0.0000
# 6 0.0000 0.0000 0.0000 0.0000 0.0000 43.4290
#
#
#
# Elastic Compliance Matrix: (Units=1/GPa)
#
#
# Indices 1 2 3 4 5 6 
#
# 1 0.015468 -0.002055 -0.004351 0.000000 0.000000 0.000000
# 2 -0.002055 0.012943 -0.004564 0.000000 0.000000 0.000000
# 3 -0.004351 -0.004564 0.017592 0.000000 0.000000 0.000000
# 4 0.000000 0.000000 0.000000 0.058204 0.000000 0.000000
# 5 0.000000 0.000000 0.000000 0.000000 0.024227 0.000000
# 6 0.000000 0.000000 0.000000 0.000000 0.000000 0.023026
#
#
# Mechanical properties :
#
#
# Convention : Reuss Voigt Hill
#
# Bulk Modulus (GPa) = 41.55642 42.02070 41.78856
# Shear Modulus (GPa) = 27.56036 31.21009 29.38522
#
# Velocity S-wave (km/s) = 3.70826 3.94616 3.82906
# Velocity P-wave (km/s) = 6.25055 6.45980 6.35603
#
# Compressibility (1/GPa) = 0.02406367
#
# Stress axis : x y z
#
# Youngs Moduli (GPa) = 64.65116 77.26469 56.84262
#
# Poissons Ratio (x) = 0.15878 0.24732
# Poissons Ratio (y) = 0.13286 0.25940
# Poissons Ratio (z) = 0.28129 0.35260
#
# Static dielectric constant tensor:
#      x y z
#    x 3.637120 0.000000 0.000000 
#    y 0.000000 3.832110 0.000000 
#    z 0.000000 0.000000 3.473650 
# 
# 
# High freq. dielectric constant tensor:
#      x y z
#    x 1.789230 0.000000 0.000000 
#    y 0.000000 1.798750 0.000000 
#    z 0.000000 0.000000 1.782120 
# 
# From -- ./inp_files/27946.got.cif
#   From: 2010.03.12/outbox.cif.g09.slc.cpg/sg57_14_cif.got.tgz:27946.got - 2010.04.16 15:48:40.
