data_PCOD8234510
_publ_section_title
;
Structure prediction by ZEFSAII (Michael W. Deem and Ramdas Pophale) SiO2 
 PCOD8234510
Probable space group: P B C M
;
_chemical_formula_sum "Si O2"
_cell_formula_units_Z 48
_cell_length_a 15.004747
_cell_length_b 17.419366
_cell_length_c 8.954166
_cell_angle_alpha 90.000000
_cell_angle_beta 90.000000
_cell_angle_gamma 90.000000
_cell_volume 2340.378839
_symmetry_space_group_name_H-M "P B C M"
_symmetry_group_IT_number 57
_symmetry_cell_setting 'orthorhombic'
loop_
_space_group_symop_operation_xyz
x,y,z
-x,-y,1/2+z
x,1/2-y,-z
-x,1/2+y,1/2-z
-x,-y,-z
x,y,1/2-z
-x,1/2+y,z
x,1/2-y,1/2+z
loop_
_atom_site_type_symbol
_atom_site_label
_atom_site_fract_x
_atom_site_fract_y
_atom_site_fract_z
Si Si1 0.522114 0.331040 0.425250
Si Si2 0.973010 0.578453 0.076218
Si Si3 0.850317 0.168941 0.423171
Si Si4 0.351371 0.423979 0.420851
Si Si5 0.822361 0.830575 0.078547
Si Si6 0.303264 0.920836 0.074174
O O1 0.505419 0.250000 0.500000
O O2 0.517299 0.318201 0.250000
O O3 0.445636 0.390402 0.475544
O O4 0.616819 0.364895 0.475889
O O5 0.956140 0.563161 0.250000
O O6 0.048579 0.642576 0.050866
O O7 0.882404 0.605842 0.000793
O O8 0.000000 0.500000 0.000000
O O9 0.833510 0.250000 0.500000
O O10 0.827244 0.177634 0.250000
O O11 0.786254 0.104799 0.492167
O O12 0.355916 0.453684 0.250000
O O13 0.279669 0.356086 0.435910
O O14 0.326249 0.492977 0.528948
O O15 0.852279 0.822799 0.250000
O O16 0.836579 0.750000 0.000000
O O17 0.287397 0.917750 0.250000
#
# Coordination Sequence:
#
# PCOD8234510 Si02
#       6
#     8   8   8   8   8   8
#     4  10  22  39  59  86 118 153 194 239 289 344
#     4  11  24  41  62  88 119 155 195 241 292 347
#     4  11  24  41  61  86 117 154 194 239 291 344
#     4  10  22  40  60  85 119 155 193 239 289 344
#     4  11  23  39  61  88 118 154 195 240 292 347
#     4  11  23  38  60  89 118 153 196 240 289 344
#
# _framework density 20.509499000000002
#
# number of rings (size 3 to 8) (size 9 to 14) (size 15 to 20)
#    0.000    1.333    0.000    5.000    0.000   12.667 
#    0.000    0.000    0.000    0.000    0.000    0.000 
#    0.000    0.000    0.000    0.000    0.000    0.000 
#
# Total GULP energy -595574.678813 kJ/mol
# GULP energy per Si atom -12407.805809 kJ/mol
# Density = 2.046282 g / cm^3
# Si number density = 20.509499 Si / 1000 Ang^3
#
#
#
# Elastic Constant Matrix: (Units=GPa)
#
#
# Indices 1 2 3 4 5 6 
#
# 1 70.1869 -3.0648 36.9451 0.0000 0.0000 0.0000
# 2 -3.0648 88.0605 37.7620 0.0000 0.0000 0.0000
# 3 36.9451 37.7620 106.3748 0.0000 0.0000 0.0000
# 4 0.0000 0.0000 0.0000 45.7072 0.0000 0.0000
# 5 0.0000 0.0000 0.0000 0.0000 25.5083 0.0000
# 6 0.0000 0.0000 0.0000 0.0000 0.0000 33.8702
#
#
#
# Elastic Compliance Matrix: (Units=1/GPa)
#
#
# Indices 1 2 3 4 5 6 
#
# 1 0.018570 0.004025 -0.007878 0.000000 0.000000 0.000000
# 2 0.004025 0.014267 -0.006463 0.000000 0.000000 0.000000
# 3 -0.007878 -0.006463 0.014431 0.000000 0.000000 0.000000
# 4 0.000000 0.000000 0.000000 0.021878 0.000000 0.000000
# 5 0.000000 0.000000 0.000000 0.000000 0.039203 0.000000
# 6 0.000000 0.000000 0.000000 0.000000 0.000000 0.029524
#
#
# Mechanical properties :
#
#
# Convention : Reuss Voigt Hill
#
# Bulk Modulus (GPa) = 37.54280 45.32298 41.43289
# Shear Modulus (GPa) = 29.87112 33.88248 31.87680
#
# Velocity S-wave (km/s) = 3.82049 4.06894 3.94667
# Velocity P-wave (km/s) = 6.14869 6.64992 6.40421
#
# Compressibility (1/GPa) = 0.02663626
#
# Stress axis : x y z
#
# Youngs Moduli (GPa) = 53.84891 70.09103 69.29468
#
# Poissons Ratio (x) = -0.28210 0.54594
# Poissons Ratio (y) = -0.21673 0.44782
# Poissons Ratio (z) = 0.42425 0.45297
#
# Static dielectric constant tensor:
#      x y z
#    x 4.040250 0.000000 0.000000 
#    y 0.000000 3.623850 0.000000 
#    z 0.000000 0.000000 3.791970 
# 
# 
# High freq. dielectric constant tensor:
#      x y z
#    x 1.817580 0.000000 0.000000 
#    y 0.000000 1.811280 0.000000 
#    z 0.000000 0.000000 1.808890 
# 
# From -- ./inp_files/4567.got.cif
#   From: 2010.03.12/outbox.cif.g09.slc.cpg/sg57_3_cif.got.tgz:4567.got - 2010.04.16 15:48:40.
