data_PCOD8234679
_publ_section_title
;
Structure prediction by ZEFSAII (Michael W. Deem and Ramdas Pophale) SiO2 
 PCOD8234679
Probable space group: P B C M
;
_chemical_formula_sum "Si O2"
_cell_formula_units_Z 40
_cell_length_a 8.356145
_cell_length_b 10.116345
_cell_length_c 21.595297
_cell_angle_alpha 90.000000
_cell_angle_beta 90.000000
_cell_angle_gamma 90.000000
_cell_volume 1825.529185
_symmetry_space_group_name_H-M "P B C M"
_symmetry_group_IT_number 57
_symmetry_cell_setting 'orthorhombic'
loop_
_space_group_symop_operation_xyz
x,y,z
-x,-y,1/2+z
x,1/2-y,-z
-x,1/2+y,1/2-z
-x,-y,-z
x,y,1/2-z
-x,1/2+y,z
x,1/2-y,1/2+z
loop_
_atom_site_type_symbol
_atom_site_label
_atom_site_fract_x
_atom_site_fract_y
_atom_site_fract_z
Si Si1 0.851765 0.750085 0.932610
Si Si2 0.375629 0.999318 0.441026
Si Si3 0.321335 0.489770 0.122393
Si Si4 0.870842 0.281457 0.250000
Si Si5 0.158036 0.018458 0.750000
Si Si6 0.191928 0.769892 0.385043
O O1 0.757781 0.613592 0.924623
O O2 0.999708 0.756436 0.885328
O O3 0.723741 0.867954 0.929577
O O4 0.931867 0.750000 0.000000
O O5 0.487321 0.979322 0.380926
O O6 0.249776 0.877470 0.435935
O O7 0.500000 0.000000 0.500000
O O8 0.271178 0.459838 0.191679
O O9 0.275427 0.633743 0.097061
O O10 0.770121 0.310396 0.186842
O O11 0.025995 0.370675 0.250000
O O12 0.921643 0.126464 0.250000
#
# Coordination Sequence:
#
# PCOD8234679 Si02
#       6
#     8   8   8   4   4   8
#     4  12  25  43  70 103 136 191 233 284 354 433
#     4  12  27  46  67 103 147 185 229 295 362 432
#     4  11  24  44  68 100 143 185 229 296 358 419
#     4  10  22  43  71 103 143 180 244 302 346 419
#     4  10  22  43  69 103 141 184 240 298 352 427
#     4  11  26  44  72 104 140 189 242 290 353 428
#
# _framework density 21.911453999999999
#
# number of rings (size 3 to 8) (size 9 to 14) (size 15 to 20)
#    0.000    0.800    4.000    2.400    5.600    2.400 
#    0.000    4.000    0.000    0.000    0.000    0.000 
#    0.000    0.000    0.000    0.000    0.000    0.000 
#
# Total GULP energy -495760.878136 kJ/mol
# GULP energy per Si atom -12394.021953 kJ/mol
# Density = 2.186158 g / cm^3
# Si number density = 21.911454 Si / 1000 Ang^3
#
#
#
# Elastic Constant Matrix: (Units=GPa)
#
#
# Indices 1 2 3 4 5 6 
#
# 1 109.5308 41.5084 29.3852 0.0000 0.0000 0.0000
# 2 41.5084 102.8563 60.6637 0.0000 0.0000 0.0000
# 3 29.3852 60.6637 103.8409 0.0000 0.0000 0.0000
# 4 0.0000 0.0000 0.0000 5.8056 0.0000 0.0000
# 5 0.0000 0.0000 0.0000 0.0000 306.9625 0.0000
# 6 0.0000 0.0000 0.0000 0.0000 0.0000 45.0274
#
#
#
# Elastic Compliance Matrix: (Units=1/GPa)
#
#
# Indices 1 2 3 4 5 6 
#
# 1 0.010819 -0.003906 -0.000780 0.000000 0.000000 0.000000
# 2 -0.003906 0.016244 -0.008384 0.000000 0.000000 0.000000
# 3 -0.000780 -0.008384 0.014749 0.000000 0.000000 0.000000
# 4 0.000000 0.000000 0.000000 0.172247 0.000000 0.000000
# 5 0.000000 0.000000 0.000000 0.000000 0.003258 0.000000
# 6 0.000000 0.000000 0.000000 0.000000 0.000000 0.022209
#
#
# Mechanical properties :
#
#
# Convention : Reuss Voigt Hill
#
# Bulk Modulus (GPa) = 63.80984 64.37140 64.09062
# Shear Modulus (GPa) = 18.45772 83.87048 51.16410
#
# Velocity S-wave (km/s) = 2.90552 6.19355 4.83747
# Velocity P-wave (km/s) = 6.35932 8.97711 7.77912
#
# Compressibility (1/GPa) = 0.01567156
#
# Stress axis : x y z
#
# Youngs Moduli (GPa) = 92.42650 61.56269 67.80282
#
# Poissons Ratio (x) = 0.24049 0.05286
# Poissons Ratio (y) = 0.36106 0.56846
# Poissons Ratio (z) = 0.07205 0.51614
#
# Static dielectric constant tensor:
#      x y z
#    x 3.958200 0.000000 0.000000 
#    y 0.000000 4.044610 0.000000 
#    z 0.000000 0.000000 4.213760 
# 
# 
# High freq. dielectric constant tensor:
#      x y z
#    x 1.857880 0.000000 0.000000 
#    y 0.000000 1.873210 0.000000 
#    z 0.000000 0.000000 1.871450 
# 
# From -- ./inp_files/26564.got.cif
#   From: 2010.03.12/outbox.cif.g09.slc.cpg/sg57_14_cif.got.tgz:26564.got - 2010.04.16 15:48:40.
