data_PCOD8234643
_publ_section_title
;
Structure prediction by ZEFSAII (Michael W. Deem and Ramdas Pophale) SiO2 
 PCOD8234643
Probable space group: P B C M
;
_chemical_formula_sum "Si O2"
_cell_formula_units_Z 28
_cell_length_a 10.227207
_cell_length_b 9.268320
_cell_length_c 13.988241
_cell_angle_alpha 90.000000
_cell_angle_beta 90.000000
_cell_angle_gamma 90.000000
_cell_volume 1325.931756
_symmetry_space_group_name_H-M "P B C M"
_symmetry_group_IT_number 57
_symmetry_cell_setting 'orthorhombic'
loop_
_space_group_symop_operation_xyz
x,y,z
-x,-y,1/2+z
x,1/2-y,-z
-x,1/2+y,1/2-z
-x,-y,-z
x,y,1/2-z
-x,1/2+y,z
x,1/2-y,1/2+z
loop_
_atom_site_type_symbol
_atom_site_label
_atom_site_fract_x
_atom_site_fract_y
_atom_site_fract_z
Si Si1 0.302387 0.829522 0.750000
Si Si2 0.173500 0.972455 0.250000
Si Si3 0.760528 0.715495 0.105195
Si Si4 0.471196 0.635115 0.432099
Si Si5 0.123369 0.073810 0.750000
O O1 0.282007 0.656106 0.750000
O O2 0.379482 0.891963 0.658363
O O3 0.159596 0.903999 0.750000
O O4 0.186946 0.068210 0.346040
O O5 0.031124 0.902000 0.250000
O O6 0.604147 0.706637 0.107027
O O7 0.810178 0.855102 0.159008
O O8 0.815122 0.750000 0.000000
O O9 0.397894 0.750000 0.500000
O O10 0.500000 0.500000 0.500000
#
# Coordination Sequence:
#
# PCOD8234643 Si02
#       5
#     4   4   8   8   4
#     4  12  22  38  66  92 124 164 202 264 318 358
#     4  11  24  41  62  91 122 163 218 252 294 377
#     4  10  22  42  63  86 123 163 200 255 317 368
#     4  11  23  39  63  95 123 154 203 256 315 380
#     4  11  24  41  60  87 124 165 208 252 304 369
#
# _framework density 21.117224
#
# number of rings (size 3 to 8) (size 9 to 14) (size 15 to 20)
#    0.000    1.143    0.000    8.571    0.000    4.571 
#    0.000    5.714    0.000    0.000    0.000    0.000 
#    0.000    0.000    0.000    0.000    0.000    0.000 
#
# Total GULP energy -347035.680988 kJ/mol
# GULP energy per Si atom -12394.131464 kJ/mol
# Density = 2.106916 g / cm^3
# Si number density = 21.117224 Si / 1000 Ang^3
#
#
#
# Elastic Constant Matrix: (Units=GPa)
#
#
# Indices 1 2 3 4 5 6 
#
# 1 89.6312 22.1586 44.7247 0.0000 0.0000 0.0000
# 2 22.1586 130.3118 61.5164 0.0000 0.0000 0.0000
# 3 44.7247 61.5164 176.0110 0.0000 0.0000 0.0000
# 4 0.0000 0.0000 0.0000 40.4855 0.0000 0.0000
# 5 0.0000 0.0000 0.0000 0.0000 -49.5133 0.0000
# 6 0.0000 0.0000 0.0000 0.0000 0.0000 38.2832
#
#
#
# Elastic Compliance Matrix: (Units=1/GPa)
#
#
# Indices 1 2 3 4 5 6 
#
# 1 0.012841 -0.000770 -0.002994 0.000000 0.000000 0.000000
# 2 -0.000770 0.009236 -0.003032 0.000000 0.000000 0.000000
# 3 -0.002994 -0.003032 0.007502 0.000000 0.000000 0.000000
# 4 0.000000 0.000000 0.000000 0.024700 0.000000 0.000000
# 5 0.000000 0.000000 0.000000 0.000000 -0.020197 0.000000
# 6 0.000000 0.000000 0.000000 0.000000 0.000000 0.026121
#
#
# Mechanical properties :
#
#
# Convention : Reuss Voigt Hill
#
# Bulk Modulus (GPa) = 62.55222 72.52816 67.54019
# Shear Modulus (GPa) = 63.19037 23.68803 43.43920
#
# Velocity S-wave (km/s) = 5.47618 3.35287 4.54039
# Velocity P-wave (km/s) = 8.34689 7.02916 7.71620
#
# Compressibility (1/GPa) = 0.01598664
#
# Stress axis : x y z
#
# Youngs Moduli (GPa) = 77.87500 108.26728 133.29755
#
# Poissons Ratio (x) = 0.08340 0.39906
# Poissons Ratio (y) = 0.05999 0.40421
# Poissons Ratio (z) = 0.23314 0.32831
#
# Static dielectric constant tensor:
#      x y z
#    x 3.606630 0.000000 0.000000 
#    y 0.000000 3.896890 0.000000 
#    z 0.000000 0.000000 4.278780 
# 
# 
# High freq. dielectric constant tensor:
#      x y z
#    x 1.810690 0.000000 0.000000 
#    y 0.000000 1.842660 0.000000 
#    z 0.000000 0.000000 1.843440 
# 
# From -- ./inp_files/17148.got.cif
#   From: 2010.03.12/outbox.cif.g09.slc.cpg/sg57_9_cif.got.tgz:17148.got - 2010.04.16 15:48:40.
