data_PCOD8234772
_publ_section_title
;
Structure prediction by ZEFSAII (Michael W. Deem and Ramdas Pophale) SiO2 
 PCOD8234772
Probable space group: P B C M
;
_chemical_formula_sum "Si O2"
_cell_formula_units_Z 36
_cell_length_a 12.134178
_cell_length_b 13.614945
_cell_length_c 10.330809
_cell_angle_alpha 90.000000
_cell_angle_beta 90.000000
_cell_angle_gamma 90.000000
_cell_volume 1706.713348
_symmetry_space_group_name_H-M "P B C M"
_symmetry_group_IT_number 57
_symmetry_cell_setting 'orthorhombic'
loop_
_space_group_symop_operation_xyz
x,y,z
-x,-y,1/2+z
x,1/2-y,-z
-x,1/2+y,1/2-z
-x,-y,-z
x,y,1/2-z
-x,1/2+y,z
x,1/2-y,1/2+z
loop_
_atom_site_type_symbol
_atom_site_label
_atom_site_fract_x
_atom_site_fract_y
_atom_site_fract_z
Si Si1 0.260626 0.139791 0.952823
Si Si2 0.844551 0.163743 0.750000
Si Si3 0.911478 0.916537 0.250000
Si Si4 0.500095 0.833383 0.392434
Si Si5 0.800642 0.111650 0.250000
Si Si6 0.290825 0.936071 0.028978
O O1 0.150257 0.128437 0.872253
O O2 0.376279 0.124421 0.877924
O O3 0.258093 0.250000 0.000000
O O4 0.260932 0.050883 0.057826
O O5 0.853648 0.281069 0.750000
O O6 0.783663 0.131993 0.619506
O O7 0.963703 0.115546 0.750000
O O8 0.902846 0.035007 0.250000
O O9 0.490728 0.750000 0.500000
O O10 0.465363 0.792470 0.250000
O O11 0.418211 0.920415 0.434064
O O12 0.727742 0.092148 0.378335
#
# Coordination Sequence:
#
# PCOD8234772 Si02
#       6
#     8   4   4   8   4   8
#     4  10  23  43  63  92 131 177 216 263 325 392
#     4  12  24  41  69 103 124 166 227 269 321 381
#     4  10  24  43  65  91 132 172 219 267 327 379
#     4  11  22  41  68 100 134 172 214 264 328 392
#     4  10  24  44  66  92 136 170 210 268 328 384
#     4  11  24  42  66  98 130 171 217 269 325 387
#
# _framework density 21.093174999999999
#
# number of rings (size 3 to 8) (size 9 to 14) (size 15 to 20)
#    0.000    1.333    2.222    2.667    1.556    8.000 
#    2.000    0.000    0.000    0.000    0.000    0.000 
#    0.000    0.000    0.000    0.000    0.000    0.000 
#
# Total GULP energy -446123.747829 kJ/mol
# GULP energy per Si atom -12392.326329 kJ/mol
# Density = 2.104517 g / cm^3
# Si number density = 21.093175 Si / 1000 Ang^3
#
#
#
# Elastic Constant Matrix: (Units=GPa)
#
#
# Indices 1 2 3 4 5 6 
#
# 1 103.2097 33.0074 28.8639 0.0000 0.0000 0.0000
# 2 33.0074 161.0612 39.9257 0.0000 0.0000 0.0000
# 3 28.8639 39.9257 127.4740 0.0000 0.0000 0.0000
# 4 0.0000 0.0000 0.0000 -0.6414 0.0000 0.0000
# 5 0.0000 0.0000 0.0000 0.0000 12.7994 0.0000
# 6 0.0000 0.0000 0.0000 0.0000 0.0000 30.3481
#
#
#
# Elastic Compliance Matrix: (Units=1/GPa)
#
#
# Indices 1 2 3 4 5 6 
#
# 1 0.010775 -0.001738 -0.001895 0.000000 0.000000 0.000000
# 2 -0.001738 0.007012 -0.001803 0.000000 0.000000 0.000000
# 3 -0.001895 -0.001803 0.008838 0.000000 0.000000 0.000000
# 4 0.000000 0.000000 0.000000 -1.559127 0.000000 0.000000
# 5 0.000000 0.000000 0.000000 0.000000 0.078129 0.000000
# 6 0.000000 0.000000 0.000000 0.000000 0.000000 0.032951
#
#
# Mechanical properties :
#
#
# Convention : Reuss Voigt Hill
#
# Bulk Modulus (GPa) = 63.48035 66.14877 64.81456
# Shear Modulus (GPa) = -3.55796 27.83107 12.13655
#
# Velocity S-wave (km/s) = -1.30017 3.63634 2.40131
# Velocity P-wave (km/s) = 5.28267 7.00421 6.20345
#
# Compressibility (1/GPa) = 0.01575291
#
# Stress axis : x y z
#
# Youngs Moduli (GPa) = 92.80731 142.61438 113.14181
#
# Poissons Ratio (x) = 0.24792 0.21444
# Poissons Ratio (y) = 0.16133 0.20394
# Poissons Ratio (z) = 0.17590 0.25707
#
# Static dielectric constant tensor:
#      x y z
#    x 3.899520 0.000000 0.000000 
#    y 0.000000 4.010850 0.000000 
#    z 0.000000 0.000000 3.845750 
# 
# 
# High freq. dielectric constant tensor:
#      x y z
#    x 1.827250 0.000000 0.000000 
#    y 0.000000 1.838050 0.000000 
#    z 0.000000 0.000000 1.823960 
# 
# From -- ./inp_files/12573.got.cif
#   From: 2010.03.12/outbox.cif.g09.slc.cpg/sg57_7_cif.got.tgz:12573.got - 2010.04.16 15:48:40.
