data_PCOD8234556
_publ_section_title
;
Structure prediction by ZEFSAII (Michael W. Deem and Ramdas Pophale) SiO2 
 PCOD8234556
Probable space group: P B C M
;
_chemical_formula_sum "Si O2"
_cell_formula_units_Z 48
_cell_length_a 12.388988
_cell_length_b 8.116137
_cell_length_c 23.070737
_cell_angle_alpha 90.000000
_cell_angle_beta 90.000000
_cell_angle_gamma 90.000000
_cell_volume 2319.779306
_symmetry_space_group_name_H-M "P B C M"
_symmetry_group_IT_number 57
_symmetry_cell_setting 'orthorhombic'
loop_
_space_group_symop_operation_xyz
x,y,z
-x,-y,1/2+z
x,1/2-y,-z
-x,1/2+y,1/2-z
-x,-y,-z
x,y,1/2-z
-x,1/2+y,z
x,1/2-y,1/2+z
loop_
_atom_site_type_symbol
_atom_site_label
_atom_site_fract_x
_atom_site_fract_y
_atom_site_fract_z
Si Si1 0.343449 0.630355 0.625692
Si Si2 0.854769 0.213531 0.435714
Si Si3 0.582880 0.404058 0.250000
Si Si4 0.912920 0.667885 0.937815
Si Si5 0.540738 0.869638 0.453758
Si Si6 0.287994 0.249575 0.126200
Si Si7 0.647497 0.778549 0.250000
O O1 0.234853 0.727133 0.609587
O O2 0.368103 0.680262 0.692218
O O3 0.439673 0.695715 0.584261
O O4 0.339617 0.432104 0.618742
O O5 0.811573 0.250000 0.500000
O O6 0.962540 0.315364 0.419846
O O7 0.880751 0.021659 0.433950
O O8 0.606476 0.594361 0.250000
O O9 0.454281 0.398089 0.250000
O O10 0.835151 0.764127 0.894088
O O11 0.895317 0.750000 0.000000
O O12 0.593486 0.750000 0.500000
O O13 0.641727 0.889621 0.409044
O O14 0.500000 0.000000 0.500000
O O15 0.282173 0.309380 0.192625
#
# Coordination Sequence:
#
# PCOD8234556 Si02
#       7
#     8   8   4   8   8   8   4
#     4  11  23  40  61  88 126 164 211 254 310 366
#     4  11  23  40  64  93 123 162 200 251 309 371
#     4  10  22  40  61  86 121 170 209 257 301 369
#     4  11  23  40  65  92 126 159 202 251 311 369
#     4  12  24  35  57  90 126 162 198 252 312 370
#     4  11  23  40  60  87 125 163 208 258 306 369
#     4  10  22  40  61  84 119 168 211 255 305 361
#
# _framework density 20.691623
#
# number of rings (size 3 to 8) (size 9 to 14) (size 15 to 20)
#    0.000    1.000    3.333    5.000    4.667    1.333 
#    0.000    0.833    0.000    0.000    0.000    0.000 
#    0.000    0.000    0.000    0.000    0.000    0.000 
#
# Total GULP energy -594738.488149 kJ/mol
# GULP energy per Si atom -12390.385170 kJ/mol
# Density = 2.064453 g / cm^3
# Si number density = 20.691623 Si / 1000 Ang^3
#
#
#
# Elastic Constant Matrix: (Units=GPa)
#
#
# Indices 1 2 3 4 5 6 
#
# 1 113.6475 5.9261 72.4917 0.0000 0.0000 0.0000
# 2 5.9261 41.9450 18.3360 0.0000 0.0000 0.0000
# 3 72.4917 18.3360 160.4762 0.0000 0.0000 0.0000
# 4 0.0000 0.0000 0.0000 21.7495 0.0000 0.0000
# 5 0.0000 0.0000 0.0000 0.0000 28.9888 0.0000
# 6 0.0000 0.0000 0.0000 0.0000 0.0000 32.7410
#
#
#
# Elastic Compliance Matrix: (Units=1/GPa)
#
#
# Indices 1 2 3 4 5 6 
#
# 1 0.012382 0.000732 -0.005677 0.000000 0.000000 0.000000
# 2 0.000732 0.025137 -0.003203 0.000000 0.000000 0.000000
# 3 -0.005677 -0.003203 0.009162 0.000000 0.000000 0.000000
# 4 0.000000 0.000000 0.000000 0.045978 0.000000 0.000000
# 5 0.000000 0.000000 0.000000 0.000000 0.034496 0.000000
# 6 0.000000 0.000000 0.000000 0.000000 0.000000 0.030543
#
#
# Mechanical properties :
#
#
# Convention : Reuss Voigt Hill
#
# Bulk Modulus (GPa) = 32.90991 56.61961 44.76476
# Shear Modulus (GPa) = 27.15582 31.31685 29.23634
#
# Velocity S-wave (km/s) = 3.62665 3.89460 3.76301
# Velocity P-wave (km/s) = 5.78586 6.90267 6.36879
#
# Compressibility (1/GPa) = 0.03038598
#
# Stress axis : x y z
#
# Youngs Moduli (GPa) = 80.76159 39.78131 109.14760
#
# Poissons Ratio (x) = -0.02913 0.61963
# Poissons Ratio (y) = -0.05914 0.34960
# Poissons Ratio (z) = 0.45849 0.12742
#
# Static dielectric constant tensor:
#      x y z
#    x 3.932680 0.000000 0.000000 
#    y 0.000000 3.608390 0.000000 
#    z 0.000000 0.000000 4.222750 
# 
# 
# High freq. dielectric constant tensor:
#      x y z
#    x 1.806690 0.000000 0.000000 
#    y 0.000000 1.807890 0.000000 
#    z 0.000000 0.000000 1.813270 
# 
# From -- ./inp_files/27140.got.cif
#   From: 2010.03.12/outbox.cif.g09.slc.cpg/sg57_14_cif.got.tgz:27140.got - 2010.04.16 15:48:40.
