data_PCOD8234604
_publ_section_title
;
Structure prediction by ZEFSAII (Michael W. Deem and Ramdas Pophale) SiO2 
 PCOD8234604
Probable space group: P B C M
;
_chemical_formula_sum "Si O2"
_cell_formula_units_Z 56
_cell_length_a 20.987705
_cell_length_b 15.324483
_cell_length_c 8.798798
_cell_angle_alpha 90.000000
_cell_angle_beta 90.000000
_cell_angle_gamma 90.000000
_cell_volume 2829.919817
_symmetry_space_group_name_H-M "P B C M"
_symmetry_group_IT_number 57
_symmetry_cell_setting 'orthorhombic'
loop_
_space_group_symop_operation_xyz
x,y,z
-x,-y,1/2+z
x,1/2-y,-z
-x,1/2+y,1/2-z
-x,-y,-z
x,y,1/2-z
-x,1/2+y,z
x,1/2-y,1/2+z
loop_
_atom_site_type_symbol
_atom_site_label
_atom_site_fract_x
_atom_site_fract_y
_atom_site_fract_z
Si Si1 0.864745 0.338863 0.927833
Si Si2 0.006025 0.904517 0.431126
Si Si3 0.409304 0.836843 0.924230
Si Si4 0.535376 0.579885 0.075350
Si Si5 0.204803 0.483605 0.073691
Si Si6 0.650223 0.984917 0.070811
Si Si7 0.880032 0.837905 0.569854
O O1 0.879457 0.326301 0.750000
O O2 0.813851 0.415837 0.954117
O O3 0.836195 0.250000 0.000000
O O4 0.929093 0.360367 0.016671
O O5 0.002954 0.910528 0.250000
O O6 0.948954 0.845828 0.493302
O O7 0.000000 0.000000 0.500000
O O8 0.390135 0.831878 0.750000
O O9 0.486543 0.839424 0.945957
O O10 0.374398 0.921912 0.994339
O O11 0.381936 0.750000 0.000000
O O12 0.547330 0.559165 0.250000
O O13 0.500000 0.500000 0.000000
O O14 0.604831 0.591942 0.997055
O O15 0.194719 0.458614 0.250000
O O16 0.277360 0.469599 0.020850
O O17 0.162189 0.421626 0.970182
O O18 0.642870 0.982410 0.250000
O O19 0.848502 0.750000 0.500000
O O20 0.886407 0.830632 0.750000
#
# Coordination Sequence:
#
# PCOD8234604 Si02
#       7
#     8   8   8   8   8   8   8
#     4  11  23  39  60  87 122 160 200 246 298 355
#     4  12  23  39  63  91 121 153 195 245 303 360
#     4   9  18  31  50  79 112 142 180 225 275 330
#     4   9  17  31  51  76 104 137 178 223 270 324
#     4  10  22  41  62  84 118 160 200 244 297 354
#     4   9  19  36  56  79 109 147 187 231 282 337
#     4  12  25  42  65  90 118 153 198 249 302 359
#
# _framework density 19.788547999999999
#
# number of rings (size 3 to 8) (size 9 to 14) (size 15 to 20)
#    0.000    1.714    1.429    4.714    0.000    4.571 
#    0.000    0.714    0.000    1.714    0.000    0.000 
#    0.000    0.000    0.000    0.000    0.000    0.000 
#
# Total GULP energy -694290.262832 kJ/mol
# GULP energy per Si atom -12398.040408 kJ/mol
# Density = 1.974351 g / cm^3
# Si number density = 19.788548 Si / 1000 Ang^3
#
#
#
# Elastic Constant Matrix: (Units=GPa)
#
#
# Indices 1 2 3 4 5 6 
#
# 1 88.6189 -2.7431 33.6930 0.0000 0.0000 0.0000
# 2 -2.7431 67.8786 31.6229 0.0000 0.0000 0.0000
# 3 33.6930 31.6229 109.9004 0.0000 0.0000 0.0000
# 4 0.0000 0.0000 0.0000 34.6295 0.0000 0.0000
# 5 0.0000 0.0000 0.0000 0.0000 26.3001 0.0000
# 6 0.0000 0.0000 0.0000 0.0000 0.0000 15.4989
#
#
#
# Elastic Compliance Matrix: (Units=1/GPa)
#
#
# Indices 1 2 3 4 5 6 
#
# 1 0.013217 0.002797 -0.004857 0.000000 0.000000 0.000000
# 2 0.002797 0.017605 -0.005923 0.000000 0.000000 0.000000
# 3 -0.004857 -0.005923 0.012292 0.000000 0.000000 0.000000
# 4 0.000000 0.000000 0.000000 0.028877 0.000000 0.000000
# 5 0.000000 0.000000 0.000000 0.000000 0.038023 0.000000
# 6 0.000000 0.000000 0.000000 0.000000 0.000000 0.064521
#
#
# Mechanical properties :
#
#
# Convention : Reuss Voigt Hill
#
# Bulk Modulus (GPa) = 36.83466 43.50482 40.16974
# Shear Modulus (GPa) = 25.05629 28.87404 26.96517
#
# Velocity S-wave (km/s) = 3.56223 3.82400 3.69543
# Velocity P-wave (km/s) = 5.96438 6.44437 6.20902
#
# Compressibility (1/GPa) = 0.02714834
#
# Stress axis : x y z
#
# Youngs Moduli (GPa) = 75.65744 56.80329 81.35050
#
# Poissons Ratio (x) = -0.15887 0.39512
# Poissons Ratio (y) = -0.21161 0.48184
# Poissons Ratio (z) = 0.36747 0.33645
#
# Static dielectric constant tensor:
#      x y z
#    x 3.827200 0.000000 0.000000 
#    y 0.000000 3.847420 0.000000 
#    z 0.000000 0.000000 3.588480 
# 
# 
# High freq. dielectric constant tensor:
#      x y z
#    x 1.766960 0.000000 0.000000 
#    y 0.000000 1.763620 0.000000 
#    z 0.000000 0.000000 1.775330 
# 
# From -- ./inp_files/8203.got.cif
#   From: 2010.03.12/outbox.cif.g09.slc.cpg/sg57_5_cif.got.tgz:8203.got - 2010.04.16 15:48:40.
