data_PCOD8234779
_publ_section_title
;
Structure prediction by ZEFSAII (Michael W. Deem and Ramdas Pophale) SiO2 
 PCOD8234779
Probable space group: P B C M
;
_chemical_formula_sum "Si O2"
_cell_formula_units_Z 64
_cell_length_a 9.636462
_cell_length_b 22.758886
_cell_length_c 14.287741
_cell_angle_alpha 90.000000
_cell_angle_beta 90.000000
_cell_angle_gamma 90.000000
_cell_volume 3133.517919
_symmetry_space_group_name_H-M "P B C M"
_symmetry_group_IT_number 57
_symmetry_cell_setting 'orthorhombic'
loop_
_space_group_symop_operation_xyz
x,y,z
-x,-y,1/2+z
x,1/2-y,-z
-x,1/2+y,1/2-z
-x,-y,-z
x,y,1/2-z
-x,1/2+y,z
x,1/2-y,1/2+z
loop_
_atom_site_type_symbol
_atom_site_label
_atom_site_fract_x
_atom_site_fract_y
_atom_site_fract_z
Si Si1 0.388765 0.471869 0.140500
Si Si2 0.717890 0.181702 0.491449
Si Si3 0.962331 0.817838 0.990831
Si Si4 0.461895 0.899128 0.861510
Si Si5 0.913109 0.491114 0.094034
Si Si6 0.220309 0.111331 0.144236
Si Si7 0.871988 0.594897 0.647400
Si Si8 0.675156 0.409831 0.139416
O O1 0.359149 0.477190 0.250000
O O2 0.404048 0.538067 0.101599
O O3 0.258676 0.436748 0.095129
O O4 0.522445 0.433240 0.120075
O O5 0.680321 0.250000 0.500000
O O6 0.622715 0.152519 0.411758
O O7 0.688060 0.154601 0.594166
O O8 0.877948 0.171705 0.462392
O O9 0.858635 0.838632 0.911260
O O10 0.929657 0.750000 0.000000
O O11 0.929266 0.851388 0.087006
O O12 0.445694 0.892387 0.750000
O O13 0.622883 0.897176 0.892454
O O14 0.869809 0.552303 0.138824
O O15 0.774851 0.452746 0.080660
O O16 0.011226 0.454552 0.163352
O O17 0.000000 0.500000 0.000000
O O18 0.226424 0.133045 0.250000
O O19 0.831113 0.619735 0.750000
O O20 0.710791 0.407925 0.250000
#
# Coordination Sequence:
#
# PCOD8234779 Si02
#       8
#     8   8   8   8   8   8   8   8
#     4   9  21  38  61  96 127 160 202 251 319 384
#     4  11  26  43  63  91 123 169 223 265 314 373
#     4  11  26  45  62  89 126 168 222 265 310 373
#     4  10  23  43  66  94 129 164 207 264 325 385
#     4  12  22  37  63  97 130 161 205 256 319 382
#     4  11  23  42  66  94 128 168 209 259 324 384
#     4  11  23  40  64  95 130 166 209 260 317 382
#     4  11  22  41  65  92 129 169 208 257 321 388
#
# _framework density 20.424327999999999
#
# number of rings (size 3 to 8) (size 9 to 14) (size 15 to 20)
#    0.000    1.250    3.750    1.125    5.250    2.500 
#    0.000    2.500    0.000    0.000    0.000    0.000 
#    0.000    0.000    0.000    0.000    0.000    0.000 
#
# Total GULP energy -793573.665603 kJ/mol
# GULP energy per Si atom -12399.588525 kJ/mol
# Density = 2.037784 g / cm^3
# Si number density = 20.424328 Si / 1000 Ang^3
#
#
#
# Elastic Constant Matrix: (Units=GPa)
#
#
# Indices 1 2 3 4 5 6 
#
# 1 140.1933 72.7916 38.6738 0.0000 0.0000 0.0000
# 2 72.7916 151.9984 47.3180 0.0000 0.0000 0.0000
# 3 38.6738 47.3180 72.0596 0.0000 0.0000 0.0000
# 4 0.0000 0.0000 0.0000 16.6084 0.0000 0.0000
# 5 0.0000 0.0000 0.0000 0.0000 31.0983 0.0000
# 6 0.0000 0.0000 0.0000 0.0000 0.0000 32.7372
#
#
#
# Elastic Compliance Matrix: (Units=1/GPa)
#
#
# Indices 1 2 3 4 5 6 
#
# 1 0.009915 -0.003886 -0.002769 0.000000 0.000000 0.000000
# 2 -0.003886 0.009793 -0.004345 0.000000 0.000000 0.000000
# 3 -0.002769 -0.004345 0.018217 0.000000 0.000000 0.000000
# 4 0.000000 0.000000 0.000000 0.060211 0.000000 0.000000
# 5 0.000000 0.000000 0.000000 0.000000 0.032156 0.000000
# 6 0.000000 0.000000 0.000000 0.000000 0.000000 0.030546
#
#
# Mechanical properties :
#
#
# Convention : Reuss Voigt Hill
#
# Bulk Modulus (GPa) = 62.79940 75.75758 69.27849
# Shear Modulus (GPa) = 26.57524 29.78661 28.18093
#
# Velocity S-wave (km/s) = 3.61107 3.82303 3.71856
# Velocity P-wave (km/s) = 6.94266 7.52727 7.24087
#
# Compressibility (1/GPa) = 0.01592372
#
# Stress axis : x y z
#
# Youngs Moduli (GPa) = 100.86064 102.11857 54.89477
#
# Poissons Ratio (x) = 0.39683 0.15203
# Poissons Ratio (y) = 0.39194 0.23850
# Poissons Ratio (z) = 0.27932 0.44368
#
# Static dielectric constant tensor:
#      x y z
#    x 4.143040 0.000000 0.000000 
#    y 0.000000 3.719760 0.000000 
#    z 0.000000 0.000000 3.487780 
# 
# 
# High freq. dielectric constant tensor:
#      x y z
#    x 1.818710 0.000000 0.000000 
#    y 0.000000 1.786790 0.000000 
#    z 0.000000 0.000000 1.799540 
# 
# From -- ./inp_files/16952.got.cif
#   From: 2010.03.12/outbox.cif.g09.slc.cpg/sg57_9_cif.got.tgz:16952.got - 2010.04.16 15:48:40.
