data_PCOD8234675
_publ_section_title
;
Structure prediction by ZEFSAII (Michael W. Deem and Ramdas Pophale) SiO2 
 PCOD8234675
Probable space group: P B C M
;
_chemical_formula_sum "Si O2"
_cell_formula_units_Z 48
_cell_length_a 7.735151
_cell_length_b 18.731206
_cell_length_c 14.942530
_cell_angle_alpha 90.000000
_cell_angle_beta 90.000000
_cell_angle_gamma 90.000000
_cell_volume 2165.003848
_symmetry_space_group_name_H-M "P B C M"
_symmetry_group_IT_number 57
_symmetry_cell_setting 'orthorhombic'
loop_
_space_group_symop_operation_xyz
x,y,z
-x,-y,1/2+z
x,1/2-y,-z
-x,1/2+y,1/2-z
-x,-y,-z
x,y,1/2-z
-x,1/2+y,z
x,1/2-y,1/2+z
loop_
_atom_site_type_symbol
_atom_site_label
_atom_site_fract_x
_atom_site_fract_y
_atom_site_fract_z
Si Si1 0.679536 0.096875 0.152823
Si Si2 0.789229 0.791573 0.645323
Si Si3 0.867759 0.441768 0.026490
Si Si4 0.694151 0.551349 0.148715
Si Si5 0.914886 0.315566 0.149059
Si Si6 0.426338 0.748960 0.397157
O O1 0.774411 0.083810 0.250000
O O2 0.512505 0.047432 0.147116
O O3 0.609801 0.176589 0.154292
O O4 0.798506 0.086850 0.067583
O O5 0.770737 0.799582 0.750000
O O6 0.770602 0.873289 0.607289
O O7 0.633434 0.738314 0.612554
O O8 0.973319 0.754905 0.619269
O O9 0.732153 0.481812 0.089675
O O10 0.961871 0.378747 0.081050
O O11 0.000000 0.500000 0.000000
O O12 0.764388 0.540857 0.250000
O O13 0.969094 0.336701 0.250000
O O14 0.706247 0.305396 0.146702
O O15 0.373568 0.750000 0.500000
#
# Coordination Sequence:
#
# PCOD8234675 Si02
#       6
#     8   8   8   8   8   8
#     4  10  22  43  67  91 124 172 224 268 324 390
#     4   9  21  41  68 100 132 172 219 267 325 393
#     4  12  26  41  62  96 135 171 214 267 326 392
#     4   9  20  42  69  94 128 174 218 265 324 390
#     4  11  24  43  67  97 135 172 217 273 329 387
#     4  11  21  39  69  98 128 167 215 277 331 383
#
# _framework density 22.170860000000001
#
# number of rings (size 3 to 8) (size 9 to 14) (size 15 to 20)
#    0.000    1.667    1.667    3.500    2.333    4.667 
#    3.000    0.000    0.000    0.000    0.000    0.000 
#    0.000    0.000    0.000    0.000    0.000    0.000 
#
# Total GULP energy -594727.573705 kJ/mol
# GULP energy per Si atom -12390.157786 kJ/mol
# Density = 2.212040 g / cm^3
# Si number density = 22.170860 Si / 1000 Ang^3
#
#
#
# Elastic Constant Matrix: (Units=GPa)
#
#
# Indices 1 2 3 4 5 6 
#
# 1 63.0930 8.5438 22.9590 0.0000 0.0000 0.0000
# 2 8.5438 60.0234 32.3431 0.0000 0.0000 0.0000
# 3 22.9590 32.3431 127.8492 0.0000 0.0000 0.0000
# 4 0.0000 0.0000 0.0000 31.1474 0.0000 0.0000
# 5 0.0000 0.0000 0.0000 0.0000 25.1241 0.0000
# 6 0.0000 0.0000 0.0000 0.0000 0.0000 29.4860
#
#
#
# Elastic Compliance Matrix: (Units=1/GPa)
#
#
# Indices 1 2 3 4 5 6 
#
# 1 0.016999 -0.000897 -0.002826 0.000000 0.000000 0.000000
# 2 -0.000897 0.019337 -0.004731 0.000000 0.000000 0.000000
# 3 -0.002826 -0.004731 0.009526 0.000000 0.000000 0.000000
# 4 0.000000 0.000000 0.000000 0.032105 0.000000 0.000000
# 5 0.000000 0.000000 0.000000 0.000000 0.039802 0.000000
# 6 0.000000 0.000000 0.000000 0.000000 0.000000 0.033914
#
#
# Mechanical properties :
#
#
# Convention : Reuss Voigt Hill
#
# Bulk Modulus (GPa) = 34.53625 42.07306 38.30466
# Shear Modulus (GPa) = 28.05155 29.62616 28.83885
#
# Velocity S-wave (km/s) = 3.56089 3.65946 3.61051
# Velocity P-wave (km/s) = 5.70243 6.07235 5.89030
#
# Compressibility (1/GPa) = 0.02895508
#
# Stress axis : x y z
#
# Youngs Moduli (GPa) = 58.82568 51.71443 104.97645
#
# Poissons Ratio (x) = 0.04639 0.29664
# Poissons Ratio (y) = 0.05277 0.49662
# Poissons Ratio (z) = 0.16623 0.24465
#
# Static dielectric constant tensor:
#      x y z
#    x 3.861810 0.000000 0.000000 
#    y 0.000000 -66.318340 0.000000 
#    z 0.000000 0.000000 4.014740 
# 
# 
# High freq. dielectric constant tensor:
#      x y z
#    x 1.866820 0.000000 0.000000 
#    y 0.000000 1.852920 0.000000 
#    z 0.000000 0.000000 1.885930 
# 
# From -- ./inp_files/16347.got.cif
#   From: 2010.03.12/outbox.cif.g09.slc.cpg/sg57_9_cif.got.tgz:16347.got - 2010.04.16 15:48:40.
