data_PCOD8234590
_publ_section_title
;
Structure prediction by ZEFSAII (Michael W. Deem and Ramdas Pophale) SiO2 
 PCOD8234590
Probable space group: P B C M
;
_chemical_formula_sum "Si O2"
_cell_formula_units_Z 48
_cell_length_a 10.741026
_cell_length_b 11.405115
_cell_length_c 18.579436
_cell_angle_alpha 90.000000
_cell_angle_beta 90.000000
_cell_angle_gamma 90.000000
_cell_volume 2276.029899
_symmetry_space_group_name_H-M "P B C M"
_symmetry_group_IT_number 57
_symmetry_cell_setting 'orthorhombic'
loop_
_space_group_symop_operation_xyz
x,y,z
-x,-y,1/2+z
x,1/2-y,-z
-x,1/2+y,1/2-z
-x,-y,-z
x,y,1/2-z
-x,1/2+y,z
x,1/2-y,1/2+z
loop_
_atom_site_type_symbol
_atom_site_label
_atom_site_fract_x
_atom_site_fract_y
_atom_site_fract_z
Si Si1 0.140781 0.156534 0.669823
Si Si2 0.957375 0.827137 0.934362
Si Si3 0.268051 0.487900 0.573558
Si Si4 0.392767 0.200298 0.167223
Si Si5 0.790758 0.444763 0.576527
Si Si6 0.372515 0.735590 0.915386
O O1 0.093333 0.137933 0.750000
O O2 0.036270 0.237017 0.632279
O O3 0.274043 0.217253 0.665029
O O4 0.153058 0.028751 0.636124
O O5 0.092027 0.874515 0.957748
O O6 0.869337 0.936212 0.911333
O O7 0.900156 0.750000 0.000000
O O8 0.371678 0.412245 0.615620
O O9 0.282709 0.484734 0.486382
O O10 0.285556 0.622191 0.598660
O O11 0.420932 0.161996 0.250000
O O12 0.504715 0.275547 0.133240
O O13 0.699676 0.350543 0.612913
O O14 0.404838 0.750000 0.000000
#
# Coordination Sequence:
#
# PCOD8234590 Si02
#       6
#     8   8   8   8   8   8
#     4  10  24  42  61  92 129 169 213 260 321 387
#     4  11  21  39  72  93 126 167 213 263 319 383
#     4  10  22  40  65  96 126 165 213 265 318 376
#     4  10  24  43  64  89 126 174 214 257 323 385
#     4  11  23  38  67  98 127 164 215 268 320 375
#     4  10  24  38  62  98 130 158 219 269 312 370
#
# _framework density 21.089355000000001
#
# number of rings (size 3 to 8) (size 9 to 14) (size 15 to 20)
#    0.000    1.667    1.667    2.000    7.000    3.333 
#    0.000    0.000    0.000    0.000    0.000    0.000 
#    0.000    0.000    0.000    0.000    0.000    0.000 
#
# Total GULP energy -595059.890806 kJ/mol
# GULP energy per Si atom -12397.081058 kJ/mol
# Density = 2.104135 g / cm^3
# Si number density = 21.089355 Si / 1000 Ang^3
#
#
#
# Elastic Constant Matrix: (Units=GPa)
#
#
# Indices 1 2 3 4 5 6 
#
# 1 59.6082 15.8430 30.9327 0.0000 0.0000 0.0000
# 2 15.8430 101.0065 59.2362 0.0000 0.0000 0.0000
# 3 30.9327 59.2362 125.5412 0.0000 0.0000 0.0000
# 4 0.0000 0.0000 0.0000 23.5832 0.0000 0.0000
# 5 0.0000 0.0000 0.0000 0.0000 18.5047 0.0000
# 6 0.0000 0.0000 0.0000 0.0000 0.0000 25.9163
#
#
#
# Elastic Compliance Matrix: (Units=1/GPa)
#
#
# Indices 1 2 3 4 5 6 
#
# 1 0.019244 -0.000329 -0.004586 0.000000 0.000000 0.000000
# 2 -0.000329 0.013694 -0.006380 0.000000 0.000000 0.000000
# 3 -0.004586 -0.006380 0.012106 0.000000 0.000000 0.000000
# 4 0.000000 0.000000 0.000000 0.042403 0.000000 0.000000
# 5 0.000000 0.000000 0.000000 0.000000 0.054040 0.000000
# 6 0.000000 0.000000 0.000000 0.000000 0.000000 0.038586
#
#
# Mechanical properties :
#
#
# Convention : Reuss Voigt Hill
#
# Bulk Modulus (GPa) = 44.53828 55.35331 49.94579
# Shear Modulus (GPa) = 23.79280 25.61046 24.70163
#
# Velocity S-wave (km/s) = 3.36250 3.48857 3.42612
# Velocity P-wave (km/s) = 6.01996 6.52157 6.27578
#
# Compressibility (1/GPa) = 0.02245260
#
# Stress axis : x y z
#
# Youngs Moduli (GPa) = 51.96524 73.02619 82.60266
#
# Poissons Ratio (x) = 0.02400 0.37886
# Poissons Ratio (y) = 0.01708 0.52704
# Poissons Ratio (z) = 0.23834 0.46593
#
# Static dielectric constant tensor:
#      x y z
#    x 3.580720 0.000000 0.000000 
#    y 0.000000 3.968270 0.000000 
#    z 0.000000 0.000000 3.851120 
# 
# 
# High freq. dielectric constant tensor:
#      x y z
#    x 1.813300 0.000000 0.000000 
#    y 0.000000 1.839170 0.000000 
#    z 0.000000 0.000000 1.811980 
# 
# From -- ./inp_files/21801.got.cif
#   From: 2010.03.12/outbox.cif.g09.slc.cpg/sg57_11_cif.got.tgz:21801.got - 2010.04.16 15:48:40.
