data_PCOD8234249
_publ_section_title
;
Structure prediction by ZEFSAII (Michael W. Deem and Ramdas Pophale) SiO2 
 PCOD8234249
Probable space group: P B C M
;
_chemical_formula_sum "Si O2"
_cell_formula_units_Z 32
_cell_length_a 12.234754
_cell_length_b 14.814472
_cell_length_c 8.623593
_cell_angle_alpha 90.000000
_cell_angle_beta 90.000000
_cell_angle_gamma 90.000000
_cell_volume 1563.038482
_symmetry_space_group_name_H-M "P B C M"
_symmetry_group_IT_number 57
_symmetry_cell_setting 'orthorhombic'
loop_
_space_group_symop_operation_xyz
x,y,z
-x,-y,1/2+z
x,1/2-y,-z
-x,1/2+y,1/2-z
-x,-y,-z
x,y,1/2-z
-x,1/2+y,z
x,1/2-y,1/2+z
loop_
_atom_site_type_symbol
_atom_site_label
_atom_site_fract_x
_atom_site_fract_y
_atom_site_fract_z
Si Si1 0.776875 0.149532 0.567224
Si Si2 0.005760 0.652253 0.070746
Si Si3 0.764479 0.849589 0.931073
Si Si4 0.620079 0.003628 0.432769
O O1 0.768382 0.250000 0.500000
O O2 0.767754 0.152079 0.750000
O O3 0.678430 0.091134 0.501794
O O4 0.893508 0.103617 0.517801
O O5 0.038027 0.658902 0.250000
O O6 0.886536 0.607279 0.046992
O O7 0.993333 0.750000 0.000000
O O8 0.734214 0.846561 0.750000
O O9 0.754832 0.750000 0.000000
O O10 0.681266 0.912287 0.021705
O O11 0.615577 0.012879 0.250000
O O12 0.500000 0.000000 0.500000
#
# Coordination Sequence:
#
# PCOD8234249 Si02
#       4
#     8   8   8   8
#     4  11  22  39  63  91 123 158 197 243 297 354
#     4   9  17  32  57  89 123 156 193 238 290 351
#     4  10  21  39  63  92 124 159 198 242 296 353
#     4  12  26  44  63  86 117 155 203 252 298 351
#
# _framework density 20.472944999999999
#
# number of rings (size 3 to 8) (size 9 to 14) (size 15 to 20)
#    0.000    1.500    0.000    7.500    0.000    5.000 
#    0.000    5.000    0.000    0.000    0.000    0.000 
#    0.000    0.000    0.000    0.000    0.000    0.000 
#
# Total GULP energy -396701.325581 kJ/mol
# GULP energy per Si atom -12396.916424 kJ/mol
# Density = 2.042635 g / cm^3
# Si number density = 20.472945 Si / 1000 Ang^3
#
#
#
# Elastic Constant Matrix: (Units=GPa)
#
#
# Indices 1 2 3 4 5 6 
#
# 1 177.4056 62.9902 85.4003 0.0000 0.0000 0.0000
# 2 62.9902 90.9958 52.5618 0.0000 0.0000 0.0000
# 3 85.4003 52.5618 204.2795 0.0000 0.0000 0.0000
# 4 0.0000 0.0000 0.0000 34.2504 0.0000 0.0000
# 5 0.0000 0.0000 0.0000 0.0000 -6.9794 0.0000
# 6 0.0000 0.0000 0.0000 0.0000 0.0000 41.6792
#
#
#
# Elastic Compliance Matrix: (Units=1/GPa)
#
#
# Indices 1 2 3 4 5 6 
#
# 1 0.008334 -0.004412 -0.002349 0.000000 0.000000 0.000000
# 2 -0.004412 0.015244 -0.002078 0.000000 0.000000 0.000000
# 3 -0.002349 -0.002078 0.006412 0.000000 0.000000 0.000000
# 4 0.000000 0.000000 0.000000 0.029197 0.000000 0.000000
# 5 0.000000 0.000000 0.000000 0.000000 -0.143279 0.000000
# 6 0.000000 0.000000 0.000000 0.000000 0.000000 0.023993
#
#
# Mechanical properties :
#
#
# Convention : Reuss Voigt Hill
#
# Bulk Modulus (GPa) = 81.22071 97.17617 89.19844
# Shear Modulus (GPa) = -130.49070 31.90526 -49.29272
#
# Velocity S-wave (km/s) = -7.99228 3.95195 -4.91216
# Velocity P-wave (km/s) = 6.73872 8.26998 3.38986
#
# Compressibility (1/GPa) = 0.01231213
#
# Stress axis : x y z
#
# Youngs Moduli (GPa) = 119.98782 65.59919 155.96259
#
# Poissons Ratio (x) = 0.28945 0.36633
# Poissons Ratio (y) = 0.52944 0.32405
# Poissons Ratio (z) = 0.28183 0.13630
#
# Static dielectric constant tensor:
#      x y z
#    x 4.262930 0.000000 0.000000 
#    y 0.000000 3.480840 0.000000 
#    z 0.000000 0.000000 3.844960 
# 
# 
# High freq. dielectric constant tensor:
#      x y z
#    x 1.813610 0.000000 0.000000 
#    y 0.000000 1.786960 0.000000 
#    z 0.000000 0.000000 1.822150 
# 
# From -- ./inp_files/2371.got.cif
#   From: 2010.03.12/outbox.cif.g09.slc.cpg/sg57_2_cif.got.tgz:2371.got - 2010.04.16 15:48:40.
