data_PCOD8234518
_publ_section_title
;
Structure prediction by ZEFSAII (Michael W. Deem and Ramdas Pophale) SiO2 
 PCOD8234518
Probable space group: P B C M
;
_chemical_formula_sum "Si O2"
_cell_formula_units_Z 64
_cell_length_a 16.558284
_cell_length_b 12.243541
_cell_length_c 13.889784
_cell_angle_alpha 90.000000
_cell_angle_beta 90.000000
_cell_angle_gamma 90.000000
_cell_volume 2815.904093
_symmetry_space_group_name_H-M "P B C M"
_symmetry_group_IT_number 57
_symmetry_cell_setting 'orthorhombic'
loop_
_space_group_symop_operation_xyz
x,y,z
-x,-y,1/2+z
x,1/2-y,-z
-x,1/2+y,1/2-z
-x,-y,-z
x,y,1/2-z
-x,1/2+y,z
x,1/2-y,1/2+z
loop_
_atom_site_type_symbol
_atom_site_label
_atom_site_fract_x
_atom_site_fract_y
_atom_site_fract_z
Si Si1 0.243293 0.879831 0.634360
Si Si2 0.114756 0.702232 0.863319
Si Si3 0.410347 0.630100 0.024867
Si Si4 0.068156 0.260012 0.605822
Si Si5 0.211303 0.117038 0.644763
Si Si6 0.295996 0.177401 0.363629
Si Si7 0.157090 0.030735 0.141814
Si Si8 0.443618 0.463780 0.636645
O O1 0.255567 0.871153 0.750000
O O2 0.178554 0.790520 0.597967
O O3 0.325552 0.856344 0.578064
O O4 0.210059 0.997536 0.596611
O O5 0.117590 0.696422 0.750000
O O6 0.133785 0.583177 0.910053
O O7 0.025742 0.736471 0.893091
O O8 0.467886 0.566469 0.099610
O O9 0.444296 0.750000 0.000000
O O10 0.406235 0.564296 0.923828
O O11 0.103391 0.250000 0.500000
O O12 0.121915 0.168991 0.659939
O O13 0.082717 0.383207 0.643357
O O14 0.247549 0.094081 0.750000
O O15 0.273963 0.202552 0.592530
O O16 0.275486 0.183145 0.250000
O O17 0.234510 0.087536 0.409425
O O18 0.387877 0.143008 0.381774
O O19 0.180926 0.999008 0.250000
O O20 0.445679 0.495530 0.750000
#
# Coordination Sequence:
#
# PCOD8234518 Si02
#       8
#     8   8   8   8   8   8   8   8
#     4  10  23  42  65  96 133 175 222 276 348 415
#     4  10  22  39  61  85 119 172 223 269 329 403
#     4  11  26  44  66 103 140 177 218 277 340 400
#     4  11  23  37  55  88 124 163 213 278 341 393
#     4   9  19  39  64  88 121 162 215 275 329 394
#     4   8  16  34  63  93 116 156 213 267 321 383
#     4   9  19  37  61  86 116 158 215 269 321 398
#     4  10  23  44  70  99 134 178 228 272 328 403
#
# _framework density 22.728048000000001
#
# number of rings (size 3 to 8) (size 9 to 14) (size 15 to 20)
#    0.000    2.250    0.000    2.250    3.500    6.000 
#    0.000    1.875    0.000    0.000    0.000    0.000 
#    0.000    0.000    0.000    0.000    0.000    0.000 
#
# Total GULP energy -793140.630134 kJ/mol
# GULP energy per Si atom -12392.822346 kJ/mol
# Density = 2.267632 g / cm^3
# Si number density = 22.728048 Si / 1000 Ang^3
#
#
#
# Elastic Constant Matrix: (Units=GPa)
#
#
# Indices 1 2 3 4 5 6 
#
# 1 99.0269 30.5586 18.1154 0.0000 0.0000 0.0000
# 2 30.5586 153.7514 34.1754 0.0000 0.0000 0.0000
# 3 18.1154 34.1754 63.3830 0.0000 0.0000 0.0000
# 4 0.0000 0.0000 0.0000 21.1054 0.0000 0.0000
# 5 0.0000 0.0000 0.0000 0.0000 16.6914 0.0000
# 6 0.0000 0.0000 0.0000 0.0000 0.0000 29.0457
#
#
#
# Elastic Compliance Matrix: (Units=1/GPa)
#
#
# Indices 1 2 3 4 5 6 
#
# 1 0.011031 -0.001695 -0.002239 0.000000 0.000000 0.000000
# 2 -0.001695 0.007650 -0.003640 0.000000 0.000000 0.000000
# 3 -0.002239 -0.003640 0.018380 0.000000 0.000000 0.000000
# 4 0.000000 0.000000 0.000000 0.047381 0.000000 0.000000
# 5 0.000000 0.000000 0.000000 0.000000 0.059911 0.000000
# 6 0.000000 0.000000 0.000000 0.000000 0.000000 0.034428
#
#
# Mechanical properties :
#
#
# Convention : Reuss Voigt Hill
#
# Bulk Modulus (GPa) = 45.63597 53.54001 49.58799
# Shear Modulus (GPa) = 24.84670 28.92263 26.88466
#
# Velocity S-wave (km/s) = 3.30997 3.57116 3.44304
# Velocity P-wave (km/s) = 5.89327 6.37277 6.13770
#
# Compressibility (1/GPa) = 0.02191254
#
# Stress axis : x y z
#
# Youngs Moduli (GPa) = 90.65510 130.71851 54.40734
#
# Poissons Ratio (x) = 0.22154 0.12181
# Poissons Ratio (y) = 0.15364 0.19807
# Poissons Ratio (z) = 0.20297 0.47587
#
# Static dielectric constant tensor:
#      x y z
#    x 3.867830 0.000000 0.000000 
#    y 0.000000 4.403660 0.000000 
#    z 0.000000 0.000000 4.005060 
# 
# 
# High freq. dielectric constant tensor:
#      x y z
#    x 1.882280 0.000000 0.000000 
#    y 0.000000 1.905000 0.000000 
#    z 0.000000 0.000000 1.901330 
# 
# From -- ./inp_files/19160.got.cif
#   From: 2010.03.12/outbox.cif.g09.slc.cpg/sg57_10_cif.got.tgz:19160.got - 2010.04.16 15:48:40.
