data_PCOD8234168
_publ_section_title
;
Structure prediction by ZEFSAII (Michael W. Deem and Ramdas Pophale) SiO2 
 PCOD8234168
Probable space group: P B C M
;
_chemical_formula_sum "Si O2"
_cell_formula_units_Z 52
_cell_length_a 20.686306
_cell_length_b 8.649879
_cell_length_c 13.722700
_cell_angle_alpha 90.000000
_cell_angle_beta 90.000000
_cell_angle_gamma 90.000000
_cell_volume 2455.458204
_symmetry_space_group_name_H-M "P B C M"
_symmetry_group_IT_number 57
_symmetry_cell_setting 'orthorhombic'
loop_
_space_group_symop_operation_xyz
x,y,z
-x,-y,1/2+z
x,1/2-y,-z
-x,1/2+y,1/2-z
-x,-y,-z
x,y,1/2-z
-x,1/2+y,z
x,1/2-y,1/2+z
loop_
_atom_site_type_symbol
_atom_site_label
_atom_site_fract_x
_atom_site_fract_y
_atom_site_fract_z
Si Si1 0.927655 0.922823 0.136398
Si Si2 0.591382 0.632826 0.577742
Si Si3 0.643476 0.360195 0.250000
Si Si4 0.308587 0.579719 0.960417
Si Si5 0.941109 0.929339 0.863723
Si Si6 0.164428 0.568528 0.507334
Si Si7 0.412010 0.171650 0.250000
Si Si8 0.549921 0.418620 0.750000
O O1 0.919925 0.944256 0.250000
O O2 0.933987 0.746506 0.104064
O O3 0.990812 0.009132 0.094561
O O4 0.863240 0.993397 0.090681
O O5 0.554107 0.750000 0.500000
O O6 0.642050 0.535830 0.514350
O O7 0.623278 0.752278 0.655835
O O8 0.548801 0.520483 0.648737
O O9 0.685572 0.401017 0.344469
O O10 0.586766 0.486571 0.250000
O O11 0.614952 0.186766 0.250000
O O12 0.237645 0.510261 0.980222
O O13 0.320577 0.750000 0.000000
O O14 0.941308 0.954560 0.750000
O O15 0.880176 0.023532 0.902133
O O16 0.164740 0.750000 0.500000
O O17 0.489961 0.200522 0.250000
#
# Coordination Sequence:
#
# PCOD8234168 Si02
#       8
#     8   8   4   8   8   8   4   4
#     4  10  21  40  61  93 126 164 215 277 337 389
#     4  11  23  45  68 101 141 176 224 277 341 390
#     4  12  22  46  72  96 146 174 228 276 338 404
#     4  11  25  46  66  95 133 187 225 276 340 404
#     4  10  21  38  64  91 128 165 212 277 339 391
#     4  11  24  40  61  90 124 174 225 262 325 399
#     4  11  25  45  69 109 131 178 222 279 334 402
#     4  11  25  45  73 103 143 174 228 275 336 412
#
# _framework density 21.177309999999999
#
# number of rings (size 3 to 8) (size 9 to 14) (size 15 to 20)
#    0.000    1.231    3.077    2.769    1.077    3.692 
#    9.692    0.000    0.000    0.000    0.000    0.000 
#    0.000    0.000    0.000    0.000    0.000    0.000 
#
# Total GULP energy -644227.596367 kJ/mol
# GULP energy per Si atom -12388.992238 kJ/mol
# Density = 2.112911 g / cm^3
# Si number density = 21.177310 Si / 1000 Ang^3
#
#
#
# Elastic Constant Matrix: (Units=GPa)
#
#
# Indices 1 2 3 4 5 6 
#
# 1 103.8491 43.8413 39.4682 0.0000 0.0000 0.0000
# 2 43.8413 88.3989 42.4379 0.0000 0.0000 0.0000
# 3 39.4682 42.4379 142.2380 0.0000 0.0000 0.0000
# 4 0.0000 0.0000 0.0000 46.7031 0.0000 0.0000
# 5 0.0000 0.0000 0.0000 0.0000 28.3671 0.0000
# 6 0.0000 0.0000 0.0000 0.0000 0.0000 29.5899
#
#
#
# Elastic Compliance Matrix: (Units=1/GPa)
#
#
# Indices 1 2 3 4 5 6 
#
# 1 0.012607 -0.005338 -0.001906 0.000000 0.000000 0.000000
# 2 -0.005338 0.015463 -0.003133 0.000000 0.000000 0.000000
# 3 -0.001906 -0.003133 0.008494 0.000000 0.000000 0.000000
# 4 0.000000 0.000000 0.000000 0.021412 0.000000 0.000000
# 5 0.000000 0.000000 0.000000 0.000000 0.035252 0.000000
# 6 0.000000 0.000000 0.000000 0.000000 0.000000 0.033795
#
#
# Mechanical properties :
#
#
# Convention : Reuss Voigt Hill
#
# Bulk Modulus (GPa) = 63.24058 65.10900 64.17479
# Shear Modulus (GPa) = 32.66996 34.84793 33.75894
#
# Velocity S-wave (km/s) = 3.93197 4.06092 3.99696
# Velocity P-wave (km/s) = 7.10922 7.26633 7.18820
#
# Compressibility (1/GPa) = 0.01581263
#
# Stress axis : x y z
#
# Youngs Moduli (GPa) = 79.32148 64.66895 117.73175
#
# Poissons Ratio (x) = 0.34517 0.22436
# Poissons Ratio (y) = 0.42338 0.36880
# Poissons Ratio (z) = 0.15116 0.20258
#
# Static dielectric constant tensor:
#      x y z
#    x 3.734840 0.000000 0.000000 
#    y 0.000000 4.094060 0.000000 
#    z 0.000000 0.000000 4.057000 
# 
# 
# High freq. dielectric constant tensor:
#      x y z
#    x 1.800460 0.000000 0.000000 
#    y 0.000000 1.852580 0.000000 
#    z 0.000000 0.000000 1.855750 
# 
# From -- ./inp_files/19307.got.cif
#   From: 2010.03.12/outbox.cif.g09.slc.cpg/sg57_10_cif.got.tgz:19307.got - 2010.04.16 15:48:40.
