data_PCOD8234433
_publ_section_title
;
Structure prediction by ZEFSAII (Michael W. Deem and Ramdas Pophale) SiO2 
 PCOD8234433
Probable space group: P B C M
;
_chemical_formula_sum "Si O2"
_cell_formula_units_Z 40
_cell_length_a 14.234097
_cell_length_b 8.731727
_cell_length_c 15.478523
_cell_angle_alpha 90.000000
_cell_angle_beta 90.000000
_cell_angle_gamma 90.000000
_cell_volume 1923.798522
_symmetry_space_group_name_H-M "P B C M"
_symmetry_group_IT_number 57
_symmetry_cell_setting 'orthorhombic'
loop_
_space_group_symop_operation_xyz
x,y,z
-x,-y,1/2+z
x,1/2-y,-z
-x,1/2+y,1/2-z
-x,-y,-z
x,y,1/2-z
-x,1/2+y,z
x,1/2-y,1/2+z
loop_
_atom_site_type_symbol
_atom_site_label
_atom_site_fract_x
_atom_site_fract_y
_atom_site_fract_z
Si Si1 0.407873 0.970745 0.345321
Si Si2 0.777326 0.424621 0.594646
Si Si3 0.572887 0.342377 0.588178
Si Si4 0.797953 0.068723 0.600532
Si Si5 0.081585 0.425299 0.750000
Si Si6 0.881906 0.930861 0.250000
O O1 0.420350 0.040286 0.250000
O O2 0.429305 0.789216 0.339020
O O3 0.303274 0.003413 0.378322
O O4 0.480358 0.053782 0.409741
O O5 0.664649 0.449750 0.597115
O O6 0.799445 0.249454 0.619187
O O7 0.819808 0.464975 0.500184
O O8 0.821809 0.537401 0.664246
O O9 0.583151 0.250000 0.500000
O O10 0.874172 0.991938 0.662340
O O11 0.972162 0.461619 0.750000
O O12 0.089521 0.244291 0.750000
#
# Coordination Sequence:
#
# PCOD8234433 Si02
#       6
#     8   8   8   8   4   4
#     4  11  22  37  59  94 129 180 215 267 318 381
#     4  10  22  43  69  98 127 182 218 277 328 398
#     4  11  22  39  61  93 133 177 225 262 324 381
#     4  10  21  43  69  93 135 173 222 269 339 385
#     4  12  26  48  69 100 131 168 213 284 332 412
#     4  12  28  44  71 100 127 168 219 274 346 400
#
# _framework density 20.792197000000002
#
# number of rings (size 3 to 8) (size 9 to 14) (size 15 to 20)
#    0.000    1.200    5.000    3.000    5.600    3.200 
#    0.000    0.000    0.000    0.000    0.000    0.000 
#    0.000    0.000    0.000    0.000    0.000    0.000 
#
# Total GULP energy -496062.338473 kJ/mol
# GULP energy per Si atom -12401.558462 kJ/mol
# Density = 2.074487 g / cm^3
# Si number density = 20.792197 Si / 1000 Ang^3
#
#
#
# Elastic Constant Matrix: (Units=GPa)
#
#
# Indices 1 2 3 4 5 6 
#
# 1 118.3606 33.0815 55.1525 0.0000 0.0000 0.0000
# 2 33.0815 64.6109 38.4538 0.0000 0.0000 0.0000
# 3 55.1525 38.4538 131.5544 0.0000 0.0000 0.0000
# 4 0.0000 0.0000 0.0000 34.2473 0.0000 0.0000
# 5 0.0000 0.0000 0.0000 0.0000 21.8134 0.0000
# 6 0.0000 0.0000 0.0000 0.0000 0.0000 38.5961
#
#
#
# Elastic Compliance Matrix: (Units=1/GPa)
#
#
# Indices 1 2 3 4 5 6 
#
# 1 0.011130 -0.003537 -0.003632 0.000000 0.000000 0.000000
# 2 -0.003537 0.019861 -0.004323 0.000000 0.000000 0.000000
# 3 -0.003632 -0.004323 0.010388 0.000000 0.000000 0.000000
# 4 0.000000 0.000000 0.000000 0.029199 0.000000 0.000000
# 5 0.000000 0.000000 0.000000 0.000000 0.045843 0.000000
# 6 0.000000 0.000000 0.000000 0.000000 0.000000 0.025909
#
#
# Mechanical properties :
#
#
# Convention : Reuss Voigt Hill
#
# Bulk Modulus (GPa) = 54.36259 63.10015 58.73137
# Shear Modulus (GPa) = 29.16383 31.45391 30.30887
#
# Velocity S-wave (km/s) = 3.74924 3.89366 3.82213
# Velocity P-wave (km/s) = 6.70409 7.11534 6.91277
#
# Compressibility (1/GPa) = 0.01839500
#
# Stress axis : x y z
#
# Youngs Moduli (GPa) = 89.84902 50.35043 96.26790
#
# Poissons Ratio (x) = 0.17808 0.34966
# Poissons Ratio (y) = 0.31778 0.41613
# Poissons Ratio (z) = 0.32635 0.21764
#
# Static dielectric constant tensor:
#      x y z
#    x 3.709310 0.000000 0.000000 
#    y 0.000000 3.639280 0.000000 
#    z 0.000000 0.000000 3.990600 
# 
# 
# High freq. dielectric constant tensor:
#      x y z
#    x 1.810310 0.000000 0.000000 
#    y 0.000000 1.796990 0.000000 
#    z 0.000000 0.000000 1.832650 
# 
# From -- ./inp_files/18292.got.cif
#   From: 2010.03.12/outbox.cif.g09.slc.cpg/sg57_10_cif.got.tgz:18292.got - 2010.04.16 15:48:40.
