data_PCOD8234361
_publ_section_title
;
Structure prediction by ZEFSAII (Michael W. Deem and Ramdas Pophale) SiO2 
 PCOD8234361
Probable space group: P B C M
;
_chemical_formula_sum "Si O2"
_cell_formula_units_Z 64
_cell_length_a 5.183558
_cell_length_b 30.947407
_cell_length_c 18.251352
_cell_angle_alpha 90.000000
_cell_angle_beta 90.000000
_cell_angle_gamma 90.000000
_cell_volume 2927.839529
_symmetry_space_group_name_H-M "P B C M"
_symmetry_group_IT_number 57
_symmetry_cell_setting 'orthorhombic'
loop_
_space_group_symop_operation_xyz
x,y,z
-x,-y,1/2+z
x,1/2-y,-z
-x,1/2+y,1/2-z
-x,-y,-z
x,y,1/2-z
-x,1/2+y,z
x,1/2-y,1/2+z
loop_
_atom_site_type_symbol
_atom_site_label
_atom_site_fract_x
_atom_site_fract_y
_atom_site_fract_z
Si Si1 0.372573 0.756065 0.668176
Si Si2 0.472967 0.206469 0.533962
Si Si3 0.793774 0.947818 0.165141
Si Si4 0.196541 0.855749 0.947032
Si Si5 0.161950 0.376199 0.435536
Si Si6 0.492497 0.934147 0.537297
Si Si7 0.129224 0.188119 0.331307
Si Si8 0.709865 0.483319 0.092989
O O1 0.430545 0.737506 0.750000
O O2 0.370286 0.718295 0.607791
O O3 0.087419 0.775248 0.667108
O O4 0.589839 0.792649 0.650147
O O5 0.342922 0.250000 0.500000
O O6 0.646297 0.187848 0.466848
O O7 0.262929 0.172660 0.561379
O O8 0.838433 0.953726 0.250000
O O9 0.850105 0.896988 0.145349
O O10 0.503141 0.961157 0.145058
O O11 0.002653 0.977616 0.123809
O O12 0.358729 0.895968 0.913694
O O13 0.951934 0.846496 0.893986
O O14 0.117933 0.873853 0.027330
O O15 0.324724 0.410344 0.480770
O O16 0.295691 0.963810 0.489615
O O17 0.653704 0.965184 0.591016
O O18 0.134024 0.166598 0.250000
#
# Coordination Sequence:
#
# PCOD8234361 Si02
#       8
#     8   8   8   8   8   8   8   8
#     4  10  22  41  60  83 115 161 209 253 312 377
#     4  11  22  37  59  94 120 165 214 274 309 365
#     4  11  23  42  64  94 135 170 204 257 318 381
#     4  11  21  37  61  93 123 162 209 267 316 368
#     4  10  23  37  61  92 128 165 213 259 320 373
#     4   9  21  37  63  93 123 158 209 262 308 374
#     4  10  22  40  61  82 117 162 204 257 324 375
#     4  10  21  40  67  93 121 168 211 248 309 383
#
# _framework density 21.859120999999998
#
# number of rings (size 3 to 8) (size 9 to 14) (size 15 to 20)
#    0.000    1.750    2.500    1.125    5.250    2.500 
#    0.000    1.875    0.000    0.000    0.000    0.000 
#    0.000    0.000    0.000    0.000    0.000    0.000 
#
# Total GULP energy -793133.788756 kJ/mol
# GULP energy per Si atom -12392.715449 kJ/mol
# Density = 2.180937 g / cm^3
# Si number density = 21.859121 Si / 1000 Ang^3
#
#
#
# Elastic Constant Matrix: (Units=GPa)
#
#
# Indices 1 2 3 4 5 6 
#
# 1 41.4024 -9.4639 -9.1100 0.0000 0.0000 0.0000
# 2 -9.4639 98.5987 10.6561 0.0000 0.0000 0.0000
# 3 -9.1100 10.6561 73.6364 0.0000 0.0000 0.0000
# 4 0.0000 0.0000 0.0000 19.0951 0.0000 0.0000
# 5 0.0000 0.0000 0.0000 0.0000 27.6229 0.0000
# 6 0.0000 0.0000 0.0000 0.0000 0.0000 17.6862
#
#
#
# Elastic Compliance Matrix: (Units=1/GPa)
#
#
# Indices 1 2 3 4 5 6 
#
# 1 0.025258 0.002120 0.002818 0.000000 0.000000 0.000000
# 2 0.002120 0.010481 -0.001255 0.000000 0.000000 0.000000
# 3 0.002818 -0.001255 0.014110 0.000000 0.000000 0.000000
# 4 0.000000 0.000000 0.000000 0.052369 0.000000 0.000000
# 5 0.000000 0.000000 0.000000 0.000000 0.036202 0.000000
# 6 0.000000 0.000000 0.000000 0.000000 0.000000 0.056541
#
#
# Mechanical properties :
#
#
# Convention : Reuss Voigt Hill
#
# Bulk Modulus (GPa) = 17.47763 21.97800 19.72782
# Shear Modulus (GPa) = 24.19350 27.65122 25.92236
#
# Velocity S-wave (km/s) = 3.33046 3.56051 3.44740
# Velocity P-wave (km/s) = 4.77516 5.19415 4.98906
#
# Compressibility (1/GPa) = 0.05721599
#
# Stress axis : x y z
#
# Youngs Moduli (GPa) = 39.59177 95.40925 70.86961
#
# Poissons Ratio (x) = -0.20225 -0.19971
# Poissons Ratio (y) = -0.08393 0.08891
# Poissons Ratio (z) = -0.11157 0.11969
#
# Static dielectric constant tensor:
#      x y z
#    x 3.858110 0.000000 0.000000 
#    y 0.000000 4.142500 0.000000 
#    z 0.000000 0.000000 4.069160 
# 
# 
# High freq. dielectric constant tensor:
#      x y z
#    x 1.861700 0.000000 0.000000 
#    y 0.000000 1.851280 0.000000 
#    z 0.000000 0.000000 1.844760 
# 
# From -- ./inp_files/20355.got.cif
#   From: 2010.03.12/outbox.cif.g09.slc.cpg/sg57_11_cif.got.tgz:20355.got - 2010.04.16 15:48:40.
