data_PCOD8234079
_publ_section_title
;
Structure prediction by ZEFSAII (Michael W. Deem and Ramdas Pophale) SiO2 
 PCOD8234079
Probable space group: P B C M
;
_chemical_formula_sum "Si O2"
_cell_formula_units_Z 64
_cell_length_a 11.964276
_cell_length_b 31.561907
_cell_length_c 8.447998
_cell_angle_alpha 90.000000
_cell_angle_beta 90.000000
_cell_angle_gamma 90.000000
_cell_volume 3190.093860
_symmetry_space_group_name_H-M "P B C M"
_symmetry_group_IT_number 57
_symmetry_cell_setting 'orthorhombic'
loop_
_space_group_symop_operation_xyz
x,y,z
-x,-y,1/2+z
x,1/2-y,-z
-x,1/2+y,1/2-z
-x,-y,-z
x,y,1/2-z
-x,1/2+y,z
x,1/2-y,1/2+z
loop_
_atom_site_type_symbol
_atom_site_label
_atom_site_fract_x
_atom_site_fract_y
_atom_site_fract_z
Si Si1 0.478685 0.547272 0.936640
Si Si2 0.243018 0.947148 0.935514
Si Si3 0.912694 0.130929 0.063524
Si Si4 0.760175 0.206118 0.062700
Si Si5 0.620063 0.622490 0.065111
Si Si6 0.146232 0.389247 0.432653
Si Si7 0.508000 0.294628 0.562604
Si Si8 0.111772 0.020184 0.065549
O O1 0.464966 0.544701 0.750000
O O2 0.500000 0.500000 0.000000
O O3 0.367229 0.567006 0.015924
O O4 0.578171 0.579754 0.978623
O O5 0.238690 0.957376 0.750000
O O6 0.152177 0.911907 0.981290
O O7 0.215009 0.988759 0.037252
O O8 0.930816 0.134091 0.250000
O O9 0.838274 0.169108 0.995949
O O10 0.032149 0.134097 0.980300
O O11 0.759458 0.205222 0.250000
O O12 0.634364 0.199976 0.998086
O O13 0.810863 0.250000 0.000000
O O14 0.596443 0.616754 0.250000
O O15 0.560267 0.664852 0.998350
O O16 0.751330 0.629033 0.034179
O O17 0.171477 0.380994 0.250000
O O18 0.134834 0.438655 0.464447
O O19 0.457472 0.250000 0.500000
O O20 0.503292 0.293467 0.750000
O O21 0.099526 0.031786 0.250000
O O22 0.000000 0.000000 0.000000
#
# Coordination Sequence:
#
# PCOD8234079 Si02
#       8
#     8   8   8   8   8   8   8   8
#     4  12  25  41  60  86 121 159 202 251 303 360
#     4  11  22  38  61  87 116 152 195 244 296 348
#     4  10  21  38  60  84 115 152 193 237 287 347
#     4   9  18  35  59  89 119 149 184 230 291 352
#     4  11  23  42  64  87 120 162 206 251 307 367
#     4  12  25  40  59  85 118 156 201 249 298 352
#     4   9  19  37  64  94 122 154 192 244 302 364
#     4  12  23  38  58  84 116 155 199 244 294 347
#
# _framework density 20.062107000000001
#
# number of rings (size 3 to 8) (size 9 to 14) (size 15 to 20)
#    0.000    1.250    1.250    5.625    0.000    4.000 
#    0.000    3.125    0.000    0.000    0.000    0.000 
#    0.000    0.000    0.000    0.000    0.000    0.000 
#
# Total GULP energy -793848.283031 kJ/mol
# GULP energy per Si atom -12403.879422 kJ/mol
# Density = 2.001644 g / cm^3
# Si number density = 20.062107 Si / 1000 Ang^3
#
#
#
# Elastic Constant Matrix: (Units=GPa)
#
#
# Indices 1 2 3 4 5 6 
#
# 1 117.2178 51.0002 19.7690 0.0000 0.0000 0.0000
# 2 51.0002 133.7128 24.5295 0.0000 0.0000 0.0000
# 3 19.7690 24.5295 57.3831 0.0000 0.0000 0.0000
# 4 0.0000 0.0000 0.0000 30.3699 0.0000 0.0000
# 5 0.0000 0.0000 0.0000 0.0000 32.4849 0.0000
# 6 0.0000 0.0000 0.0000 0.0000 0.0000 101.7381
#
#
#
# Elastic Compliance Matrix: (Units=1/GPa)
#
#
# Indices 1 2 3 4 5 6 
#
# 1 0.010448 -0.003608 -0.002057 0.000000 0.000000 0.000000
# 2 -0.003608 0.009361 -0.002759 0.000000 0.000000 0.000000
# 3 -0.002057 -0.002759 0.019315 0.000000 0.000000 0.000000
# 4 0.000000 0.000000 0.000000 0.032927 0.000000 0.000000
# 5 0.000000 0.000000 0.000000 0.000000 0.030784 0.000000
# 6 0.000000 0.000000 0.000000 0.000000 0.000000 0.009829
#
#
# Mechanical properties :
#
#
# Convention : Reuss Voigt Hill
#
# Bulk Modulus (GPa) = 44.89053 55.43458 50.16256
# Shear Modulus (GPa) = 36.51360 47.11959 41.81659
#
# Velocity S-wave (km/s) = 4.27081 4.85158 4.57043
# Velocity P-wave (km/s) = 6.83696 7.68604 7.27390
#
# Compressibility (1/GPa) = 0.02227641
#
# Stress axis : x y z
#
# Youngs Moduli (GPa) = 95.71511 106.82919 51.77412
#
# Poissons Ratio (x) = 0.38539 0.10651
# Poissons Ratio (y) = 0.34529 0.14282
# Poissons Ratio (z) = 0.19691 0.29470
#
# Static dielectric constant tensor:
#      x y z
#    x 3.788910 0.000000 0.000000 
#    y 0.000000 3.761710 0.000000 
#    z 0.000000 0.000000 3.554370 
# 
# 
# High freq. dielectric constant tensor:
#      x y z
#    x 1.788900 0.000000 0.000000 
#    y 0.000000 1.779850 0.000000 
#    z 0.000000 0.000000 1.781630 
# 
# From -- ./inp_files/3767.got.cif
#   From: 2010.03.12/outbox.cif.g09.slc.cpg/sg57_2_cif.got.tgz:3767.got - 2010.04.16 15:48:40.
