data_PCOD8234574
_publ_section_title
;
Structure prediction by ZEFSAII (Michael W. Deem and Ramdas Pophale) SiO2 
 PCOD8234574
Probable space group: P B C M
;
_chemical_formula_sum "Si O2"
_cell_formula_units_Z 64
_cell_length_a 16.441702
_cell_length_b 12.015049
_cell_length_c 14.243801
_cell_angle_alpha 90.000000
_cell_angle_beta 90.000000
_cell_angle_gamma 90.000000
_cell_volume 2813.832337
_symmetry_space_group_name_H-M "P B C M"
_symmetry_group_IT_number 57
_symmetry_cell_setting 'orthorhombic'
loop_
_space_group_symop_operation_xyz
x,y,z
-x,-y,1/2+z
x,1/2-y,-z
-x,1/2+y,1/2-z
-x,-y,-z
x,y,1/2-z
-x,1/2+y,z
x,1/2-y,1/2+z
loop_
_atom_site_type_symbol
_atom_site_label
_atom_site_fract_x
_atom_site_fract_y
_atom_site_fract_z
Si Si1 0.256935 0.871243 0.643983
Si Si2 0.117861 0.706334 0.897834
Si Si3 0.413672 0.630661 0.022136
Si Si4 0.056730 0.252804 0.610279
Si Si5 0.210352 0.109369 0.644286
Si Si6 0.297379 0.181840 0.360379
Si Si7 0.155250 0.035334 0.144607
Si Si8 0.445097 0.465324 0.638752
O O1 0.291855 0.884152 0.750000
O O2 0.191905 0.771433 0.650260
O O3 0.327332 0.843297 0.569883
O O4 0.215815 0.984871 0.602974
O O5 0.133836 0.575592 0.910763
O O6 0.031714 0.726198 0.844413
O O7 0.105287 0.750000 0.000000
O O8 0.466130 0.561740 0.098206
O O9 0.454449 0.750000 0.000000
O O10 0.406672 0.565502 0.922636
O O11 0.053873 0.250000 0.500000
O O12 0.119447 0.157319 0.641902
O O13 0.082464 0.375150 0.644558
O O14 0.239442 0.096123 0.750000
O O15 0.275634 0.196158 0.595762
O O16 0.276020 0.186465 0.250000
O O17 0.234740 0.091287 0.403899
O O18 0.389875 0.144861 0.377087
O O19 0.173985 0.996071 0.250000
O O20 0.449077 0.497546 0.750000
#
# Coordination Sequence:
#
# PCOD8234574 Si02
#       8
#     8   8   8   8   8   8   8   8
#     4  11  25  42  64  97 137 182 229 283 351 419
#     4  11  26  40  61  89 133 178 229 282 349 418
#     4  11  26  45  67 102 143 180 221 278 344 405
#     4  10  23  39  62  92 126 169 224 289 352 405
#     4   9  20  39  63  91 125 163 218 285 340 401
#     4   8  17  36  63  93 121 161 216 273 332 391
#     4  10  22  40  63  91 126 169 222 279 339 414
#     4  10  23  44  72 101 133 177 231 277 331 406
#
# _framework density 22.744782000000001
#
# number of rings (size 3 to 8) (size 9 to 14) (size 15 to 20)
#    0.000    2.000    0.000    2.250    7.000    7.000 
#    0.000    1.875    0.000    0.000    0.000    0.000 
#    0.000    0.000    0.000    0.000    0.000    0.000 
#
# Total GULP energy -793192.208313 kJ/mol
# GULP energy per Si atom -12393.628255 kJ/mol
# Density = 2.269301 g / cm^3
# Si number density = 22.744782 Si / 1000 Ang^3
#
#
#
# Elastic Constant Matrix: (Units=GPa)
#
#
# Indices 1 2 3 4 5 6 
#
# 1 97.3675 28.7398 22.8025 0.0000 0.0000 0.0000
# 2 28.7398 124.3799 22.1868 0.0000 0.0000 0.0000
# 3 22.8025 22.1868 88.2158 0.0000 0.0000 0.0000
# 4 0.0000 0.0000 0.0000 28.6270 0.0000 0.0000
# 5 0.0000 0.0000 0.0000 0.0000 25.5753 0.0000
# 6 0.0000 0.0000 0.0000 0.0000 0.0000 27.2990
#
#
#
# Elastic Compliance Matrix: (Units=1/GPa)
#
#
# Indices 1 2 3 4 5 6 
#
# 1 0.011492 -0.002225 -0.002411 0.000000 0.000000 0.000000
# 2 -0.002225 0.008848 -0.001650 0.000000 0.000000 0.000000
# 3 -0.002411 -0.001650 0.012374 0.000000 0.000000 0.000000
# 4 0.000000 0.000000 0.000000 0.034932 0.000000 0.000000
# 5 0.000000 0.000000 0.000000 0.000000 0.039100 0.000000
# 6 0.000000 0.000000 0.000000 0.000000 0.000000 0.036631
#
#
# Mechanical properties :
#
#
# Convention : Reuss Voigt Hill
#
# Bulk Modulus (GPa) = 49.64841 50.82458 50.23649
# Shear Modulus (GPa) = 30.73815 32.04922 31.39369
#
# Velocity S-wave (km/s) = 3.68018 3.75784 3.71921
# Velocity P-wave (km/s) = 6.31935 6.42049 6.37012
#
# Compressibility (1/GPa) = 0.02014163
#
# Stress axis : x y z
#
# Youngs Moduli (GPa) = 87.01868 113.01424 80.81443
#
# Poissons Ratio (x) = 0.25149 0.19483
# Poissons Ratio (y) = 0.19364 0.13336
# Poissons Ratio (z) = 0.20978 0.18650
#
# Static dielectric constant tensor:
#      x y z
#    x 4.164710 0.000000 0.000000 
#    y 0.000000 4.265780 0.000000 
#    z 0.000000 0.000000 3.990230 
# 
# 
# High freq. dielectric constant tensor:
#      x y z
#    x 1.886490 0.000000 0.000000 
#    y 0.000000 1.901440 0.000000 
#    z 0.000000 0.000000 1.900820 
# 
# From -- ./inp_files/19159.got.cif
#   From: 2010.03.12/outbox.cif.g09.slc.cpg/sg57_10_cif.got.tgz:19159.got - 2010.04.16 15:48:40.
