data_PCOD8234164
_publ_section_title
;
Structure prediction by ZEFSAII (Michael W. Deem and Ramdas Pophale) SiO2 
 PCOD8234164
Probable space group: P B C M
;
_chemical_formula_sum "Si O2"
_cell_formula_units_Z 64
_cell_length_a 21.391026
_cell_length_b 10.017144
_cell_length_c 14.819209
_cell_angle_alpha 90.000000
_cell_angle_beta 90.000000
_cell_angle_gamma 90.000000
_cell_volume 3175.415465
_symmetry_space_group_name_H-M "P B C M"
_symmetry_group_IT_number 57
_symmetry_cell_setting 'orthorhombic'
loop_
_space_group_symop_operation_xyz
x,y,z
-x,-y,1/2+z
x,1/2-y,-z
-x,1/2+y,1/2-z
-x,-y,-z
x,y,1/2-z
-x,1/2+y,z
x,1/2-y,1/2+z
loop_
_atom_site_type_symbol
_atom_site_label
_atom_site_fract_x
_atom_site_fract_y
_atom_site_fract_z
Si Si1 0.782710 0.476233 0.346029
Si Si2 0.235688 0.392354 0.471249
Si Si3 0.875240 0.547853 0.650664
Si Si4 0.127438 0.758843 0.397378
Si Si5 0.336821 0.936429 0.642391
Si Si6 0.650484 0.364524 0.151524
Si Si7 0.558834 0.404896 0.994141
Si Si8 0.996511 0.871292 0.437676
O O1 0.799771 0.549620 0.250000
O O2 0.796956 0.550760 0.438318
O O3 0.819299 0.335888 0.342800
O O4 0.708486 0.461835 0.345894
O O5 0.265492 0.250000 0.500000
O O6 0.175201 0.376307 0.409718
O O7 0.287179 0.479820 0.417387
O O8 0.853032 0.582103 0.750000
O O9 0.878487 0.389019 0.640158
O O10 0.943920 0.608198 0.637162
O O11 0.149415 0.750000 0.500000
O O12 0.062205 0.839665 0.388829
O O13 0.336410 0.976467 0.750000
O O14 0.321377 0.780940 0.627157
O O15 0.406024 0.949376 0.598380
O O16 0.617124 0.358555 0.250000
O O17 0.603650 0.427629 0.079493
O O18 0.537527 0.250000 0.000000
O O19 0.500000 0.500000 0.000000
O O20 0.975767 0.750000 0.500000
O O21 0.000000 0.000000 0.500000
#
# Coordination Sequence:
#
# PCOD8234164 Si02
#       8
#     8   8   8   8   8   8   8   8
#     4  11  22  38  64  93 119 155 204 258 317 375
#     4  12  25  42  63  88 129 167 208 263 327 391
#     4  12  25  41  64  95 126 165 211 264 326 393
#     4  11  21  39  67  90 122 161 210 261 322 386
#     4  10  21  39  65  93 123 165 213 260 311 377
#     4   9  19  37  63  95 125 159 208 264 316 368
#     4  10  21  38  63  93 131 171 217 261 312 366
#     4  11  21  42  63  87 123 167 214 266 326 385
#
# _framework density 20.154844000000001
#
# number of rings (size 3 to 8) (size 9 to 14) (size 15 to 20)
#    0.000    1.250    5.000    1.875    0.000    4.000 
#    0.000    0.000    0.000    0.000    0.000    0.000 
#    0.000    0.000    0.000    0.000    0.000    0.000 
#
# Total GULP energy -793033.656386 kJ/mol
# GULP energy per Si atom -12391.150881 kJ/mol
# Density = 2.010897 g / cm^3
# Si number density = 20.154844 Si / 1000 Ang^3
#
#
#
# Elastic Constant Matrix: (Units=GPa)
#
#
# Indices 1 2 3 4 5 6 
#
# 1 94.4907 30.3284 49.7266 0.0000 0.0000 0.0000
# 2 30.3284 78.9788 38.0539 0.0000 0.0000 0.0000
# 3 49.7266 38.0539 163.4965 0.0000 0.0000 0.0000
# 4 0.0000 0.0000 0.0000 10.6658 0.0000 0.0000
# 5 0.0000 0.0000 0.0000 0.0000 20.7039 0.0000
# 6 0.0000 0.0000 0.0000 0.0000 0.0000 31.0147
#
#
#
# Elastic Compliance Matrix: (Units=1/GPa)
#
#
# Indices 1 2 3 4 5 6 
#
# 1 0.013450 -0.003597 -0.003253 0.000000 0.000000 0.000000
# 2 -0.003597 0.015223 -0.002449 0.000000 0.000000 0.000000
# 3 -0.003253 -0.002449 0.007676 0.000000 0.000000 0.000000
# 4 0.000000 0.000000 0.000000 0.093758 0.000000 0.000000
# 5 0.000000 0.000000 0.000000 0.000000 0.048300 0.000000
# 6 0.000000 0.000000 0.000000 0.000000 0.000000 0.032243
#
#
# Mechanical properties :
#
#
# Convention : Reuss Voigt Hill
#
# Bulk Modulus (GPa) = 56.34059 63.68709 60.01384
# Shear Modulus (GPa) = 21.26164 27.06734 24.16449
#
# Velocity S-wave (km/s) = 3.25147 3.66863 3.46633
# Velocity P-wave (km/s) = 6.48927 7.04362 6.77212
#
# Compressibility (1/GPa) = 0.01774919
#
# Stress axis : x y z
#
# Youngs Moduli (GPa) = 74.35057 65.69004 130.27827
#
# Poissons Ratio (x) = 0.23630 0.42385
# Poissons Ratio (y) = 0.26746 0.31906
# Poissons Ratio (z) = 0.24189 0.16088
#
# Static dielectric constant tensor:
#      x y z
#    x 3.620350 0.000000 0.000000 
#    y 0.000000 0.668840 0.000000 
#    z 0.000000 0.000000 4.217090 
# 
# 
# High freq. dielectric constant tensor:
#      x y z
#    x 1.777770 0.000000 0.000000 
#    y 0.000000 1.772530 0.000000 
#    z 0.000000 0.000000 1.805440 
# 
# From -- ./inp_files/19524.got.cif
#   From: 2010.03.12/outbox.cif.g09.slc.cpg/sg57_10_cif.got.tgz:19524.got - 2010.04.16 15:48:40.
