data_PCOD8234927
_publ_section_title
;
Structure prediction by ZEFSAII (Michael W. Deem and Ramdas Pophale) SiO2 
 PCOD8234927
Probable space group: P B C M
;
_chemical_formula_sum "Si O2"
_cell_formula_units_Z 32
_cell_length_a 7.067173
_cell_length_b 15.057247
_cell_length_c 15.120642
_cell_angle_alpha 90.000000
_cell_angle_beta 90.000000
_cell_angle_gamma 90.000000
_cell_volume 1609.020319
_symmetry_space_group_name_H-M "P B C M"
_symmetry_group_IT_number 57
_symmetry_cell_setting 'orthorhombic'
loop_
_space_group_symop_operation_xyz
x,y,z
-x,-y,1/2+z
x,1/2-y,-z
-x,1/2+y,1/2-z
-x,-y,-z
x,y,1/2-z
-x,1/2+y,z
x,1/2-y,1/2+z
loop_
_atom_site_type_symbol
_atom_site_label
_atom_site_fract_x
_atom_site_fract_y
_atom_site_fract_z
Si Si1 0.024555 0.154529 0.518248
Si Si2 0.773410 0.609799 0.152479
Si Si3 0.274357 0.914599 0.151799
Si Si4 0.415146 0.281495 0.091230
O O1 0.929372 0.250000 0.500000
O O2 0.063306 0.110488 0.422390
O O3 0.221589 0.166554 0.570063
O O4 0.885094 0.097216 0.577570
O O5 0.869668 0.613702 0.250000
O O6 0.657426 0.516993 0.142823
O O7 0.628446 0.692337 0.146558
O O8 0.188742 0.897858 0.250000
O O9 0.449956 0.848375 0.142500
O O10 0.513193 0.250000 0.000000
#
# Coordination Sequence:
#
# PCOD8234927 Si02
#       4
#     8   8   8   8
#     4   9  20  36  56  79 109 145 180 224 272 321
#     4   9  19  36  57  82 112 146 181 223 273 321
#     4  11  21  34  57  84 110 144 185 223 267 327
#     4   9  20  37  55  78 111 145 178 224 274 319
#
# _framework density 19.887877
#
# number of rings (size 3 to 8) (size 9 to 14) (size 15 to 20)
#    0.000    3.000    0.000    2.250    0.000    9.000 
#    0.000    5.000    0.000   13.500    0.000    0.000 
#    0.000    0.000    0.000    0.000    0.000    0.000 
#
# Total GULP energy -396483.246472 kJ/mol
# GULP energy per Si atom -12390.101452 kJ/mol
# Density = 1.984261 g / cm^3
# Si number density = 19.887877 Si / 1000 Ang^3
#
#
#
# Elastic Constant Matrix: (Units=GPa)
#
#
# Indices 1 2 3 4 5 6 
#
# 1 68.1551 56.1456 54.0616 0.0000 0.0000 0.0000
# 2 56.1456 139.2108 76.5102 0.0000 0.0000 0.0000
# 3 54.0616 76.5102 155.6772 0.0000 0.0000 0.0000
# 4 0.0000 0.0000 0.0000 30.8447 0.0000 0.0000
# 5 0.0000 0.0000 0.0000 0.0000 18.2093 0.0000
# 6 0.0000 0.0000 0.0000 0.0000 0.0000 12.9309
#
#
#
# Elastic Compliance Matrix: (Units=1/GPa)
#
#
# Indices 1 2 3 4 5 6 
#
# 1 0.024526 -0.007139 -0.005009 0.000000 0.000000 0.000000
# 2 -0.007139 0.011920 -0.003379 0.000000 0.000000 0.000000
# 3 -0.005009 -0.003379 0.009824 0.000000 0.000000 0.000000
# 4 0.000000 0.000000 0.000000 0.032421 0.000000 0.000000
# 5 0.000000 0.000000 0.000000 0.000000 0.054917 0.000000
# 6 0.000000 0.000000 0.000000 0.000000 0.000000 0.077334
#
#
# Mechanical properties :
#
#
# Convention : Reuss Voigt Hill
#
# Bulk Modulus (GPa) = 65.71888 81.83088 73.77488
# Shear Modulus (GPa) = 20.23743 24.15202 22.19472
#
# Velocity S-wave (km/s) = 3.19341 3.48862 3.34427
# Velocity P-wave (km/s) = 6.83473 7.58042 7.21721
#
# Compressibility (1/GPa) = 0.01521633
#
# Stress axis : x y z
#
# Youngs Moduli (GPa) = 40.77232 83.89446 101.79658
#
# Poissons Ratio (x) = 0.59893 0.50986
# Poissons Ratio (y) = 0.29108 0.34397
# Poissons Ratio (z) = 0.20421 0.28348
#
# Static dielectric constant tensor:
#      x y z
#    x 3.074590 0.000000 0.000000 
#    y 0.000000 3.781240 0.000000 
#    z 0.000000 0.000000 3.822140 
# 
# 
# High freq. dielectric constant tensor:
#      x y z
#    x 1.726620 0.000000 0.000000 
#    y 0.000000 1.792490 0.000000 
#    z 0.000000 0.000000 1.792460 
# 
# From -- ./inp_files/15674.got.cif
#   From: 2010.03.12/outbox.cif.g09.slc.cpg/sg57_8_cif.got.tgz:15674.got - 2010.04.16 15:48:40.
