data_PCOD8234290
_publ_section_title
;
Structure prediction by ZEFSAII (Michael W. Deem and Ramdas Pophale) SiO2 
 PCOD8234290
Probable space group: P B C M
;
_chemical_formula_sum "Si O2"
_cell_formula_units_Z 64
_cell_length_a 8.533770
_cell_length_b 9.939383
_cell_length_c 29.624183
_cell_angle_alpha 90.000000
_cell_angle_beta 90.000000
_cell_angle_gamma 90.000000
_cell_volume 2512.735302
_symmetry_space_group_name_H-M "P B C M"
_symmetry_group_IT_number 57
_symmetry_cell_setting 'orthorhombic'
loop_
_space_group_symop_operation_xyz
x,y,z
-x,-y,1/2+z
x,1/2-y,-z
-x,1/2+y,1/2-z
-x,-y,-z
x,y,1/2-z
-x,1/2+y,z
x,1/2-y,1/2+z
loop_
_atom_site_type_symbol
_atom_site_label
_atom_site_fract_x
_atom_site_fract_y
_atom_site_fract_z
Si Si1 0.320863 0.544826 0.010943
Si Si2 0.571043 0.242002 0.359112
Si Si3 0.028327 0.400919 0.699760
Si Si4 0.162361 0.045308 0.427714
Si Si5 0.689672 0.690040 0.921992
Si Si6 0.047004 0.353113 0.141955
Si Si7 0.841220 0.192264 0.082144
Si Si8 0.662466 0.980240 0.666366
O O1 0.267076 0.435455 0.047484
O O2 0.276382 0.684122 0.038194
O O3 0.500000 0.500000 0.000000
O O4 0.208729 0.559723 0.967141
O O5 0.490125 0.297403 0.405705
O O6 0.731542 0.169037 0.374210
O O7 0.598377 0.368397 0.325381
O O8 0.475877 0.127481 0.333225
O O9 0.954842 0.408267 0.750000
O O10 0.994865 0.253871 0.679633
O O11 0.213204 0.436125 0.704257
O O12 0.949158 0.502870 0.664769
O O13 0.251463 0.177534 0.448038
O O14 0.242714 0.010890 0.380451
O O15 0.976587 0.077370 0.421243
O O16 0.779576 0.682157 0.873887
O O17 0.931904 0.336481 0.095761
#
# Coordination Sequence:
#
# PCOD8234290 Si02
#       8
#     8   8   8   8   8   8   8   8
#     4  12  23  38  58  99 145 192 251 297 357 413
#     4  11  21  41  69  96 134 194 235 283 358 437
#     4  12  24  46  78 113 144 179 235 310 368 452
#     4  10  22  39  60  94 139 185 238 307 346 421
#     4  10  21  39  66  91 137 192 234 292 354 426
#     4  11  23  47  76 109 141 190 242 293 381 440
#     4  11  22  38  66  95 135 189 241 293 353 424
#     4  11  23  44  68  99 142 186 235 288 368 436
#
# _framework density 25.470253
#
# number of rings (size 3 to 8) (size 9 to 14) (size 15 to 20)
#    0.000    1.000    5.000    4.875    0.000    0.000 
#    0.000    8.750    0.000    0.000    0.000    0.000 
#    0.000    0.000    0.000    0.000    0.000    0.000 
#
# Total GULP energy -792855.455101 kJ/mol
# GULP energy per Si atom -12388.366486 kJ/mol
# Density = 2.541228 g / cm^3
# Si number density = 25.470253 Si / 1000 Ang^3
#
#
#
# Elastic Constant Matrix: (Units=GPa)
#
#
# Indices 1 2 3 4 5 6 
#
# 1 98.3289 -1.5198 -0.1419 0.0000 0.0000 0.0000
# 2 -1.5198 65.7540 5.0261 0.0000 0.0000 0.0000
# 3 -0.1419 5.0261 95.5889 0.0000 0.0000 0.0000
# 4 0.0000 0.0000 0.0000 30.1802 0.0000 0.0000
# 5 0.0000 0.0000 0.0000 0.0000 26.3817 0.0000
# 6 0.0000 0.0000 0.0000 0.0000 0.0000 36.1349
#
#
#
# Elastic Compliance Matrix: (Units=1/GPa)
#
#
# Indices 1 2 3 4 5 6 
#
# 1 0.010174 0.000235 0.000003 0.000000 0.000000 0.000000
# 2 0.000235 0.015275 -0.000803 0.000000 0.000000 0.000000
# 3 0.000003 -0.000803 0.010504 0.000000 0.000000 0.000000
# 4 0.000000 0.000000 0.000000 0.033134 0.000000 0.000000
# 5 0.000000 0.000000 0.000000 0.000000 0.037905 0.000000
# 6 0.000000 0.000000 0.000000 0.000000 0.000000 0.027674
#
#
# Mechanical properties :
#
#
# Convention : Reuss Voigt Hill
#
# Bulk Modulus (GPa) = 28.71746 29.60006 29.15876
# Shear Modulus (GPa) = 33.92053 35.62651 34.77352
#
# Velocity S-wave (km/s) = 3.65330 3.74404 3.69895
# Velocity P-wave (km/s) = 5.39397 5.50792 5.45124
#
# Compressibility (1/GPa) = 0.03482202
#
# Stress axis : x y z
#
# Youngs Moduli (GPa) = 98.29378 65.46643 95.20466
#
# Poissons Ratio (x) = -0.01538 -0.00026
# Poissons Ratio (y) = -0.02309 0.07643
# Poissons Ratio (z) = -0.00027 0.05256
#
# Static dielectric constant tensor:
#      x y z
#    x 4.858600 0.000000 0.000000 
#    y 0.000000 5.072740 0.000000 
#    z 0.000000 0.000000 4.190700 
# 
# 
# High freq. dielectric constant tensor:
#      x y z
#    x 2.027730 0.000000 0.000000 
#    y 0.000000 2.045890 0.000000 
#    z 0.000000 0.000000 1.974020 
# 
# From -- ./inp_files/29615.got.cif
#   From: 2010.03.12/outbox.cif.g09.slc.cpg/sg57_15_cif.got.tgz:29615.got - 2010.04.16 15:48:40.
