data_PCOD8234063
_publ_section_title
;
Structure prediction by ZEFSAII (Michael W. Deem and Ramdas Pophale) SiO2 
 PCOD8234063
Probable space group: P B C M
;
_chemical_formula_sum "Si O2"
_cell_formula_units_Z 48
_cell_length_a 5.179526
_cell_length_b 20.595925
_cell_length_c 21.706440
_cell_angle_alpha 90.000000
_cell_angle_beta 90.000000
_cell_angle_gamma 90.000000
_cell_volume 2315.580701
_symmetry_space_group_name_H-M "P B C M"
_symmetry_group_IT_number 57
_symmetry_cell_setting 'orthorhombic'
loop_
_space_group_symop_operation_xyz
x,y,z
-x,-y,1/2+z
x,1/2-y,-z
-x,1/2+y,1/2-z
-x,-y,-z
x,y,1/2-z
-x,1/2+y,z
x,1/2-y,1/2+z
loop_
_atom_site_type_symbol
_atom_site_label
_atom_site_fract_x
_atom_site_fract_y
_atom_site_fract_z
Si Si1 0.825888 0.634178 0.130430
Si Si2 0.531301 0.959892 0.098201
Si Si3 0.288730 0.855419 0.320723
Si Si4 0.208070 0.227320 0.820833
Si Si5 0.315146 0.932402 0.679478
Si Si6 0.796662 0.554001 0.481964
O O1 0.830482 0.711852 0.134371
O O2 0.545042 0.610408 0.151252
O O3 0.898091 0.613993 0.059587
O O4 0.045332 0.605029 0.174408
O O5 0.323202 0.916312 0.133827
O O6 0.714668 0.996531 0.147500
O O7 0.410292 0.019326 0.061050
O O8 0.684139 0.917713 0.046631
O O9 0.300400 0.879378 0.250000
O O10 0.513356 0.803524 0.333525
O O11 0.011182 0.825387 0.336248
O O12 0.184242 0.250515 0.750000
O O13 0.379030 0.945431 0.750000
O O14 0.000000 0.500000 0.500000
#
# Coordination Sequence:
#
# PCOD8234063 Si02
#       6
#     8   8   8   8   8   8
#     4  11  22  38  61  86 121 158 201 245 298 354
#     4  10  22  38  60  87 120 155 200 242 303 355
#     4  10  22  39  62  89 122 158 194 242 298 355
#     4  10  21  38  59  86 119 158 195 240 298 354
#     4  11  21  34  59  92 118 149 194 253 306 357
#     4  10  21  40  62  84 116 161 196 248 296 346
#
# _framework density 20.729140999999998
#
# number of rings (size 3 to 8) (size 9 to 14) (size 15 to 20)
#    0.000    1.667    1.667    3.000    2.333    1.333 
#    0.000    4.167    0.000    0.000    0.000    0.000 
#    0.000    0.000    0.000    0.000    0.000    0.000 
#
# Total GULP energy -595065.362922 kJ/mol
# GULP energy per Si atom -12397.195061 kJ/mol
# Density = 2.068196 g / cm^3
# Si number density = 20.729141 Si / 1000 Ang^3
#
#
#
# Elastic Constant Matrix: (Units=GPa)
#
#
# Indices 1 2 3 4 5 6 
#
# 1 57.6003 -8.2447 -0.5333 0.0000 0.0000 0.0000
# 2 -8.2447 53.8438 30.5763 0.0000 0.0000 0.0000
# 3 -0.5333 30.5763 98.6397 0.0000 0.0000 0.0000
# 4 0.0000 0.0000 0.0000 39.5605 0.0000 0.0000
# 5 0.0000 0.0000 0.0000 0.0000 22.4216 0.0000
# 6 0.0000 0.0000 0.0000 0.0000 0.0000 25.2462
#
#
#
# Elastic Compliance Matrix: (Units=1/GPa)
#
#
# Indices 1 2 3 4 5 6 
#
# 1 0.017817 0.003245 -0.000909 0.000000 0.000000 0.000000
# 2 0.003245 0.023131 -0.007153 0.000000 0.000000 0.000000
# 3 -0.000909 -0.007153 0.012350 0.000000 0.000000 0.000000
# 4 0.000000 0.000000 0.000000 0.025278 0.000000 0.000000
# 5 0.000000 0.000000 0.000000 0.000000 0.044600 0.000000
# 6 0.000000 0.000000 0.000000 0.000000 0.000000 0.039610
#
#
# Mechanical properties :
#
#
# Convention : Reuss Voigt Hill
#
# Bulk Modulus (GPa) = 22.90255 28.18670 25.54463
# Shear Modulus (GPa) = 26.74161 29.99802 28.36981
#
# Velocity S-wave (km/s) = 3.59562 3.80826 3.70347
# Velocity P-wave (km/s) = 5.32076 5.74145 5.53510
#
# Compressibility (1/GPa) = 0.04366327
#
# Stress axis : x y z
#
# Youngs Moduli (GPa) = 56.12607 43.23249 80.97085
#
# Poissons Ratio (x) = -0.14027 0.07364
# Poissons Ratio (y) = -0.18211 0.57915
# Poissons Ratio (z) = 0.05104 0.30922
#
# Static dielectric constant tensor:
#      x y z
#    x 2.384590 0.000000 0.000000 
#    y 0.000000 3.521940 0.000000 
#    z 0.000000 0.000000 3.814230 
# 
# 
# High freq. dielectric constant tensor:
#      x y z
#    x 1.817500 0.000000 0.000000 
#    y 0.000000 1.789280 0.000000 
#    z 0.000000 0.000000 1.816770 
# 
# From -- ./inp_files/23675.got.cif
#   From: 2010.03.12/outbox.cif.g09.slc.cpg/sg57_12_cif.got.tgz:23675.got - 2010.04.16 15:48:40.
