data_PCOD8234588
_publ_section_title
;
Structure prediction by ZEFSAII (Michael W. Deem and Ramdas Pophale) SiO2 
 PCOD8234588
Probable space group: P B C M
;
_chemical_formula_sum "Si O2"
_cell_formula_units_Z 56
_cell_length_a 12.639117
_cell_length_b 14.156024
_cell_length_c 14.107065
_cell_angle_alpha 90.000000
_cell_angle_beta 90.000000
_cell_angle_gamma 90.000000
_cell_volume 2524.031042
_symmetry_space_group_name_H-M "P B C M"
_symmetry_group_IT_number 57
_symmetry_cell_setting 'orthorhombic'
loop_
_space_group_symop_operation_xyz
x,y,z
-x,-y,1/2+z
x,1/2-y,-z
-x,1/2+y,1/2-z
-x,-y,-z
x,y,1/2-z
-x,1/2+y,z
x,1/2-y,1/2+z
loop_
_atom_site_type_symbol
_atom_site_label
_atom_site_fract_x
_atom_site_fract_y
_atom_site_fract_z
Si Si1 0.064419 0.284844 0.895035
Si Si2 0.511743 0.745007 0.644643
Si Si3 0.286627 0.168653 0.076578
Si Si4 0.674228 0.117263 0.142141
Si Si5 0.887655 0.421955 0.949760
Si Si6 0.588249 0.555315 0.946734
Si Si7 0.001178 0.415299 0.143827
O O1 0.175858 0.335157 0.865065
O O2 0.972534 0.361832 0.889164
O O3 0.038473 0.191815 0.834480
O O4 0.075515 0.250000 0.000000
O O5 0.487047 0.709946 0.750000
O O6 0.615403 0.811613 0.646825
O O7 0.411929 0.805908 0.606735
O O8 0.534019 0.653998 0.581168
O O9 0.277943 0.250000 0.000000
O O10 0.311967 0.072570 0.017980
O O11 0.708895 0.137338 0.250000
O O12 0.773674 0.123388 0.071145
O O13 0.627983 0.010199 0.139301
O O14 0.901002 0.526631 0.904009
O O15 0.906962 0.420097 0.064305
O O16 0.500000 0.500000 0.000000
O O17 0.968546 0.453523 0.250000
#
# Coordination Sequence:
#
# PCOD8234588 Si02
#       7
#     8   8   8   8   8   8   8
#     4   9  20  40  62  90 127 170 217 273 332 393
#     4  10  22  41  63  95 129 165 221 277 327 396
#     4   9  19  36  62  91 120 162 212 264 332 382
#     4  11  24  42  68  99 133 178 226 274 341 412
#     4  10  23  42  65  97 138 177 222 280 333 403
#     4  11  22  40  65  96 130 174 222 271 334 400
#     4  10  22  40  65  95 130 180 232 273 335 407
#
# _framework density 22.186731000000002
#
# number of rings (size 3 to 8) (size 9 to 14) (size 15 to 20)
#    0.000    2.000    1.429    0.857   10.000    1.714 
#    7.714    0.000    0.000    0.857    0.000    0.000 
#    0.000    0.000    0.000    0.000    0.000    0.000 
#
# Total GULP energy -693779.591871 kJ/mol
# GULP energy per Si atom -12388.921283 kJ/mol
# Density = 2.213623 g / cm^3
# Si number density = 22.186731 Si / 1000 Ang^3
#
#
#
# Elastic Constant Matrix: (Units=GPa)
#
#
# Indices 1 2 3 4 5 6 
#
# 1 153.2246 42.4919 40.6517 0.0000 0.0000 0.0000
# 2 42.4919 94.2083 27.1191 0.0000 0.0000 0.0000
# 3 40.6517 27.1191 112.7979 0.0000 0.0000 0.0000
# 4 0.0000 0.0000 0.0000 22.5503 0.0000 0.0000
# 5 0.0000 0.0000 0.0000 0.0000 36.1069 0.0000
# 6 0.0000 0.0000 0.0000 0.0000 0.0000 27.5565
#
#
#
# Elastic Compliance Matrix: (Units=1/GPa)
#
#
# Indices 1 2 3 4 5 6 
#
# 1 0.007914 -0.002953 -0.002142 0.000000 0.000000 0.000000
# 2 -0.002953 0.012506 -0.001943 0.000000 0.000000 0.000000
# 3 -0.002142 -0.001943 0.010104 0.000000 0.000000 0.000000
# 4 0.000000 0.000000 0.000000 0.044345 0.000000 0.000000
# 5 0.000000 0.000000 0.000000 0.000000 0.027696 0.000000
# 6 0.000000 0.000000 0.000000 0.000000 0.000000 0.036289
#
#
# Mechanical properties :
#
#
# Convention : Reuss Voigt Hill
#
# Bulk Modulus (GPa) = 60.79370 64.52847 62.66109
# Shear Modulus (GPa) = 31.56340 33.90728 32.73534
#
# Velocity S-wave (km/s) = 3.77586 3.91355 3.84532
# Velocity P-wave (km/s) = 6.81689 7.04049 6.92959
#
# Compressibility (1/GPa) = 0.01644907
#
# Stress axis : x y z
#
# Youngs Moduli (GPa) = 126.36601 79.96321 98.96640
#
# Poissons Ratio (x) = 0.23611 0.21199
# Poissons Ratio (y) = 0.37312 0.19224
# Poissons Ratio (z) = 0.27069 0.15533
#
# Static dielectric constant tensor:
#      x y z
#    x 4.533010 0.000000 0.000000 
#    y 0.000000 5.009090 0.000000 
#    z 0.000000 0.000000 1.842450 
# 
# 
# High freq. dielectric constant tensor:
#      x y z
#    x 1.868020 0.000000 0.000000 
#    y 0.000000 1.871850 0.000000 
#    z 0.000000 0.000000 1.860350 
# 
# From -- ./inp_files/17747.got.cif
#   From: 2010.03.12/outbox.cif.g09.slc.cpg/sg57_9_cif.got.tgz:17747.got - 2010.04.16 15:48:40.
