data_PCOD8234919
_publ_section_title
;
Structure prediction by ZEFSAII (Michael W. Deem and Ramdas Pophale) SiO2 
 PCOD8234919
Probable space group: P B C M
;
_chemical_formula_sum "Si O2"
_cell_formula_units_Z 56
_cell_length_a 20.340547
_cell_length_b 19.172797
_cell_length_c 9.400986
_cell_angle_alpha 90.000000
_cell_angle_beta 90.000000
_cell_angle_gamma 90.000000
_cell_volume 3666.245203
_symmetry_space_group_name_H-M "P B C M"
_symmetry_group_IT_number 57
_symmetry_cell_setting 'orthorhombic'
loop_
_space_group_symop_operation_xyz
x,y,z
-x,-y,1/2+z
x,1/2-y,-z
-x,1/2+y,1/2-z
-x,-y,-z
x,y,1/2-z
-x,1/2+y,z
x,1/2-y,1/2+z
loop_
_atom_site_type_symbol
_atom_site_label
_atom_site_fract_x
_atom_site_fract_y
_atom_site_fract_z
Si Si1 0.614448 0.679739 0.087395
Si Si2 0.819970 0.964044 0.083682
Si Si3 0.938147 0.467740 0.418235
Si Si4 0.696059 0.552473 0.410838
Si Si5 0.977437 0.185585 0.587237
Si Si6 0.551470 0.956871 0.911405
Si Si7 0.873099 0.813838 0.087479
O O1 0.608108 0.702597 0.250000
O O2 0.682303 0.635750 0.064053
O O3 0.612341 0.750000 0.000000
O O4 0.554394 0.626131 0.047434
O O5 0.825581 0.984813 0.250000
O O6 0.831117 0.882378 0.059606
O O7 0.871645 0.006416 0.990274
O O8 0.747201 0.979208 0.024024
O O9 0.941927 0.487035 0.250000
O O10 0.000000 0.500000 0.500000
O O11 0.936728 0.384559 0.439303
O O12 0.722754 0.541166 0.250000
O O13 0.625893 0.512575 0.430159
O O14 0.946356 0.250000 0.500000
O O15 0.975126 0.208307 0.750000
O O16 0.052271 0.171118 0.537578
O O17 0.528518 0.964480 0.750000
O O18 0.500000 0.000000 0.000000
O O19 0.871192 0.791113 0.250000
O O20 0.841981 0.750000 0.000000
#
# Coordination Sequence:
#
# PCOD8234919 Si02
#       7
#     8   8   8   8   8   8   8
#     4   8  16  29  45  68 100 132 165 198 230 278
#     4  11  21  33  47  69  96 125 165 201 236 287
#     4  11  21  34  51  70  94 123 158 202 247 290
#     4   8  18  33  45  65  97 128 159 194 234 280
#     4   9  18  33  49  67  90 116 152 197 243 291
#     4   8  16  30  48  70  96 125 162 199 233 276
#     4   9  18  31  43  61  89 120 159 197 232 283
#
# _framework density 15.274482000000001
#
# number of rings (size 3 to 8) (size 9 to 14) (size 15 to 20)
#    0.857    2.000    1.429    0.857    0.000    4.571 
#    0.000    2.857    0.000    0.000    0.000    1.000 
#    0.000    6.857    0.000    0.000    0.000    0.000 
#
# Total GULP energy -693746.735830 kJ/mol
# GULP energy per Si atom -12388.334568 kJ/mol
# Density = 1.523972 g / cm^3
# Si number density = 15.274482 Si / 1000 Ang^3
#
#
#
# Elastic Constant Matrix: (Units=GPa)
#
#
# Indices 1 2 3 4 5 6 
#
# 1 74.6279 36.4257 49.2473 0.0000 0.0000 0.0000
# 2 36.4257 56.3583 48.9120 0.0000 0.0000 0.0000
# 3 49.2473 48.9120 94.1905 0.0000 0.0000 0.0000
# 4 0.0000 0.0000 0.0000 31.5449 0.0000 0.0000
# 5 0.0000 0.0000 0.0000 0.0000 26.2437 0.0000
# 6 0.0000 0.0000 0.0000 0.0000 0.0000 15.9418
#
#
#
# Elastic Compliance Matrix: (Units=1/GPa)
#
#
# Indices 1 2 3 4 5 6 
#
# 1 0.022185 -0.007777 -0.007561 0.000000 0.000000 0.000000
# 2 -0.007777 0.035027 -0.014123 0.000000 0.000000 0.000000
# 3 -0.007561 -0.014123 0.021904 0.000000 0.000000 0.000000
# 4 0.000000 0.000000 0.000000 0.031701 0.000000 0.000000
# 5 0.000000 0.000000 0.000000 0.000000 0.038104 0.000000
# 6 0.000000 0.000000 0.000000 0.000000 0.000000 0.062728
#
#
# Mechanical properties :
#
#
# Convention : Reuss Voigt Hill
#
# Bulk Modulus (GPa) = 49.51862 54.92741 52.22302
# Shear Modulus (GPa) = 18.03082 20.78553 19.40817
#
# Velocity S-wave (km/s) = 3.43950 3.69291 3.56845
# Velocity P-wave (km/s) = 6.94717 7.36354 7.15838
#
# Compressibility (1/GPa) = 0.02019442
#
# Stress axis : x y z
#
# Youngs Moduli (GPa) = 45.07498 28.54947 45.65370
#
# Poissons Ratio (x) = 0.22202 0.34519
# Poissons Ratio (y) = 0.35054 0.64477
# Poissons Ratio (z) = 0.34082 0.40320
#
# Static dielectric constant tensor:
#      x y z
#    x 2.703600 0.000000 0.000000 
#    y 0.000000 2.808520 0.000000 
#    z 0.000000 0.000000 2.942670 
# 
# 
# High freq. dielectric constant tensor:
#      x y z
#    x 1.557910 0.000000 0.000000 
#    y 0.000000 1.566890 0.000000 
#    z 0.000000 0.000000 1.595140 
# 
# From -- ./inp_files/8300.got.cif
#   From: 2010.03.12/outbox.cif.g09.slc.cpg/sg57_5_cif.got.tgz:8300.got - 2010.04.16 15:48:40.
