data_PCOD8234448
_publ_section_title
;
Structure prediction by ZEFSAII (Michael W. Deem and Ramdas Pophale) SiO2 
 PCOD8234448
Probable space group: P B C M
;
_chemical_formula_sum "Si O2"
_cell_formula_units_Z 64
_cell_length_a 8.990167
_cell_length_b 14.099576
_cell_length_c 22.930502
_cell_angle_alpha 90.000000
_cell_angle_beta 90.000000
_cell_angle_gamma 90.000000
_cell_volume 2906.614090
_symmetry_space_group_name_H-M "P B C M"
_symmetry_group_IT_number 57
_symmetry_cell_setting 'orthorhombic'
loop_
_space_group_symop_operation_xyz
x,y,z
-x,-y,1/2+z
x,1/2-y,-z
-x,1/2+y,1/2-z
-x,-y,-z
x,y,1/2-z
-x,1/2+y,z
x,1/2-y,1/2+z
loop_
_atom_site_type_symbol
_atom_site_label
_atom_site_fract_x
_atom_site_fract_y
_atom_site_fract_z
Si Si1 0.796482 0.812383 0.081089
Si Si2 0.687121 0.034549 0.547350
Si Si3 0.579158 0.426868 0.926752
Si Si4 0.242149 0.715965 0.683772
Si Si5 0.456174 0.786487 0.415332
Si Si6 0.133982 0.901219 0.633302
Si Si7 0.905008 0.619728 0.458708
Si Si8 0.026645 0.090101 0.817923
O O1 0.619078 0.833926 0.078267
O O2 0.812874 0.698680 0.077484
O O3 0.858452 0.851793 0.141763
O O4 0.890929 0.858846 0.027675
O O5 0.644273 0.013453 0.480587
O O6 0.674410 0.146977 0.557637
O O7 0.574489 0.977845 0.590792
O O8 0.847985 0.986975 0.556084
O O9 0.547753 0.316929 0.945220
O O10 0.695752 0.435921 0.873853
O O11 0.290072 0.719137 0.750000
O O12 0.400896 0.721903 0.651350
O O13 0.133030 0.803940 0.669105
O O14 0.143709 0.622176 0.669289
O O15 0.072218 0.880987 0.567152
O O16 0.038159 0.978279 0.668305
O O17 0.066331 0.109262 0.750000
#
# Coordination Sequence:
#
# PCOD8234448 Si02
#       8
#     8   8   8   8   8   8   8   8
#     4  11  23  41  60  94 129 169 208 261 322 380
#     4  11  20  36  57  89 121 166 203 251 307 385
#     4  10  22  36  57  88 124 166 205 252 316 370
#     4  10  23  42  62  89 122 162 213 272 317 368
#     4  11  22  38  63  86 126 164 213 260 313 379
#     4  11  22  41  62  93 122 169 208 258 321 387
#     4  11  23  38  63  90 136 166 204 260 321 388
#     4  11  23  42  68  92 122 167 216 266 319 377
#
# _framework density 22.018746
#
# number of rings (size 3 to 8) (size 9 to 14) (size 15 to 20)
#    0.000    1.250    2.500    4.500    1.750    3.500 
#    2.250    0.000    0.000    0.750    0.000    0.000 
#    0.000    0.000    0.000    0.000    0.000    0.000 
#
# Total GULP energy -793265.146293 kJ/mol
# GULP energy per Si atom -12394.767911 kJ/mol
# Density = 2.196863 g / cm^3
# Si number density = 22.018746 Si / 1000 Ang^3
#
#
#
# Elastic Constant Matrix: (Units=GPa)
#
#
# Indices 1 2 3 4 5 6 
#
# 1 46.8369 1.5140 10.3154 0.0000 0.0000 0.0000
# 2 1.5140 82.2964 12.2405 0.0000 0.0000 0.0000
# 3 10.3154 12.2405 73.9814 0.0000 0.0000 0.0000
# 4 0.0000 0.0000 0.0000 27.6730 0.0000 0.0000
# 5 0.0000 0.0000 0.0000 0.0000 26.9245 0.0000
# 6 0.0000 0.0000 0.0000 0.0000 0.0000 27.9559
#
#
#
# Elastic Compliance Matrix: (Units=1/GPa)
#
#
# Indices 1 2 3 4 5 6 
#
# 1 0.022027 0.000053 -0.003080 0.000000 0.000000 0.000000
# 2 0.000053 0.012458 -0.002069 0.000000 0.000000 0.000000
# 3 -0.003080 -0.002069 0.014289 0.000000 0.000000 0.000000
# 4 0.000000 0.000000 0.000000 0.036136 0.000000 0.000000
# 5 0.000000 0.000000 0.000000 0.000000 0.037141 0.000000
# 6 0.000000 0.000000 0.000000 0.000000 0.000000 0.035771
#
#
# Mechanical properties :
#
#
# Convention : Reuss Voigt Hill
#
# Bulk Modulus (GPa) = 25.91860 27.91717 26.91788
# Shear Modulus (GPa) = 27.64356 28.44700 28.04528
#
# Velocity S-wave (km/s) = 3.54708 3.59826 3.57277
# Velocity P-wave (km/s) = 5.34532 5.47446 5.41027
#
# Compressibility (1/GPa) = 0.03858233
#
# Stress axis : x y z
#
# Youngs Moduli (GPa) = 45.39812 80.27034 69.98575
#
# Poissons Ratio (x) = -0.00425 0.21556
# Poissons Ratio (y) = -0.00240 0.14477
# Poissons Ratio (z) = 0.13983 0.16605
#
# Static dielectric constant tensor:
#      x y z
#    x 3.816710 0.000000 0.000000 
#    y 0.000000 4.154080 0.000000 
#    z 0.000000 0.000000 3.714960 
# 
# 
# High freq. dielectric constant tensor:
#      x y z
#    x 1.857520 0.000000 0.000000 
#    y 0.000000 1.885680 0.000000 
#    z 0.000000 0.000000 1.837510 
# 
# From -- ./inp_files/26913.got.cif
#   From: 2010.03.12/outbox.cif.g09.slc.cpg/sg57_14_cif.got.tgz:26913.got - 2010.04.16 15:48:40.
