data_PCOD8234531
_publ_section_title
;
Structure prediction by ZEFSAII (Michael W. Deem and Ramdas Pophale) SiO2 
 PCOD8234531
Probable space group: P B C M
;
_chemical_formula_sum "Si O2"
_cell_formula_units_Z 60
_cell_length_a 18.635196
_cell_length_b 9.344769
_cell_length_c 17.166375
_cell_angle_alpha 90.000000
_cell_angle_beta 90.000000
_cell_angle_gamma 90.000000
_cell_volume 2989.380041
_symmetry_space_group_name_H-M "P B C M"
_symmetry_group_IT_number 57
_symmetry_cell_setting 'orthorhombic'
loop_
_space_group_symop_operation_xyz
x,y,z
-x,-y,1/2+z
x,1/2-y,-z
-x,1/2+y,1/2-z
-x,-y,-z
x,y,1/2-z
-x,1/2+y,z
x,1/2-y,1/2+z
loop_
_atom_site_type_symbol
_atom_site_label
_atom_site_fract_x
_atom_site_fract_y
_atom_site_fract_z
Si Si1 0.542525 0.436878 0.927834
Si Si2 0.825838 0.876736 0.443427
Si Si3 0.337441 0.750000 0.500000
Si Si4 0.950132 0.001386 0.340131
Si Si5 0.277504 0.295279 0.840028
Si Si6 0.776812 0.429186 0.077362
Si Si7 0.914182 0.322451 0.160234
Si Si8 0.560993 0.724420 0.840587
O O1 0.559754 0.559068 0.865328
O O2 0.497538 0.310802 0.888695
O O3 0.500000 0.500000 0.000000
O O4 0.616511 0.371587 0.957927
O O5 0.851715 0.750000 0.500000
O O6 0.892293 0.918185 0.390463
O O7 0.759740 0.828437 0.389822
O O8 0.797811 0.010105 0.492969
O O9 0.289288 0.678282 0.567185
O O10 0.933534 0.967450 0.250000
O O11 0.029004 0.944980 0.362793
O O12 0.949593 0.169413 0.358029
O O13 0.262118 0.264326 0.750000
O O14 0.245271 0.448773 0.861847
O O15 0.361842 0.293419 0.858700
O O16 0.843464 0.339903 0.109487
O O17 0.891870 0.334362 0.250000
O O18 0.541775 0.733526 0.750000
#
# Coordination Sequence:
#
# PCOD8234531 Si02
#       8
#     8   8   4   8   8   8   8   8
#     4  12  23  43  67  95 129 172 216 262 322 392
#     4  10  22  39  61  94 126 166 211 262 319 378
#     4  12  24  40  66  92 128 170 214 262 326 390
#     4  10  22  41  64  90 123 169 216 262 315 381
#     4  10  22  40  65  91 129 170 211 261 320 383
#     4  11  23  40  61  96 130 166 210 267 324 379
#     4  10  23  41  64  92 127 170 217 263 319 383
#     4  11  24  42  64  97 129 167 213 269 320 378
#
# _framework density 20.071051000000001
#
# number of rings (size 3 to 8) (size 9 to 14) (size 15 to 20)
#    0.000    1.333    1.333    3.600    3.733    2.667 
#    1.200    3.333    0.000    0.000    0.000    0.000 
#    0.000    0.000    0.000    0.000    0.000    0.000 
#
# Total GULP energy -744408.975353 kJ/mol
# GULP energy per Si atom -12406.816256 kJ/mol
# Density = 2.002537 g / cm^3
# Si number density = 20.071051 Si / 1000 Ang^3
#
#
#
# Elastic Constant Matrix: (Units=GPa)
#
#
# Indices 1 2 3 4 5 6 
#
# 1 139.3834 64.4584 64.6056 0.0000 0.0000 0.0000
# 2 64.4584 112.2102 46.3497 0.0000 0.0000 0.0000
# 3 64.6056 46.3497 93.2116 0.0000 0.0000 0.0000
# 4 0.0000 0.0000 0.0000 35.6519 0.0000 0.0000
# 5 0.0000 0.0000 0.0000 0.0000 41.5695 0.0000
# 6 0.0000 0.0000 0.0000 0.0000 0.0000 42.8724
#
#
#
# Elastic Compliance Matrix: (Units=1/GPa)
#
#
# Indices 1 2 3 4 5 6 
#
# 1 0.012066 -0.004375 -0.006187 0.000000 0.000000 0.000000
# 2 -0.004375 0.012802 -0.003333 0.000000 0.000000 0.000000
# 3 -0.006187 -0.003333 0.016674 0.000000 0.000000 0.000000
# 4 0.000000 0.000000 0.000000 0.028049 0.000000 0.000000
# 5 0.000000 0.000000 0.000000 0.000000 0.024056 0.000000
# 6 0.000000 0.000000 0.000000 0.000000 0.000000 0.023325
#
#
# Mechanical properties :
#
#
# Convention : Reuss Voigt Hill
#
# Bulk Modulus (GPa) = 72.72564 77.29251 75.00907
# Shear Modulus (GPa) = 33.47910 35.31154 34.39532
#
# Velocity S-wave (km/s) = 4.08858 4.19898 4.14415
# Velocity P-wave (km/s) = 7.65516 7.88046 7.76863
#
# Compressibility (1/GPa) = 0.01375031
#
# Stress axis : x y z
#
# Youngs Moduli (GPa) = 82.87989 78.11226 59.97333
#
# Poissons Ratio (x) = 0.34177 0.37106
# Poissons Ratio (y) = 0.36263 0.19991
# Poissons Ratio (z) = 0.51279 0.26037
#
# Static dielectric constant tensor:
#      x y z
#    x 3.672930 0.000000 0.000000 
#    y 0.000000 3.773550 0.000000 
#    z 0.000000 0.000000 3.659390 
# 
# 
# High freq. dielectric constant tensor:
#      x y z
#    x 1.791500 0.000000 0.000000 
#    y 0.000000 1.794980 0.000000 
#    z 0.000000 0.000000 1.790250 
# 
# From -- ./inp_files/22872.got.cif
#   From: 2010.03.12/outbox.cif.g09.slc.cpg/sg57_12_cif.got.tgz:22872.got - 2010.04.16 15:48:40.
