data_PCOD8234895
_publ_section_title
;
Structure prediction by ZEFSAII (Michael W. Deem and Ramdas Pophale) SiO2 
 PCOD8234895
Probable space group: P B C M
;
_chemical_formula_sum "Si O2"
_cell_formula_units_Z 48
_cell_length_a 15.371089
_cell_length_b 20.132201
_cell_length_c 8.562516
_cell_angle_alpha 90.000000
_cell_angle_beta 90.000000
_cell_angle_gamma 90.000000
_cell_volume 2649.703570
_symmetry_space_group_name_H-M "P B C M"
_symmetry_group_IT_number 57
_symmetry_cell_setting 'orthorhombic'
loop_
_space_group_symop_operation_xyz
x,y,z
-x,-y,1/2+z
x,1/2-y,-z
-x,1/2+y,1/2-z
-x,-y,-z
x,y,1/2-z
-x,1/2+y,z
x,1/2-y,1/2+z
loop_
_atom_site_type_symbol
_atom_site_label
_atom_site_fract_x
_atom_site_fract_y
_atom_site_fract_z
Si Si1 0.924909 0.575751 0.567502
Si Si2 0.282020 0.961160 0.568476
Si Si3 0.245424 0.105268 0.066215
Si Si4 0.111814 0.935812 0.071931
Si Si5 0.594555 0.820659 0.065716
Si Si6 0.540391 0.066777 0.933940
O O1 0.915523 0.556154 0.750000
O O2 0.846914 0.624903 0.516413
O O3 0.912466 0.512205 0.457211
O O4 0.022409 0.605755 0.536736
O O5 0.291816 0.975535 0.750000
O O6 0.195088 0.916936 0.534671
O O7 0.364760 0.920525 0.507180
O O8 0.276924 0.031883 0.482477
O O9 0.233965 0.108816 0.250000
O O10 0.314623 0.159424 0.012208
O O11 0.140971 0.926079 0.250000
O O12 0.607017 0.818364 0.250000
O O13 0.519909 0.872135 0.015917
O O14 0.564747 0.750000 0.000000
O O15 0.548816 0.060298 0.750000
O O16 0.500000 0.000000 0.000000
#
# Coordination Sequence:
#
# PCOD8234895 Si02
#       6
#     8   8   8   8   8   8
#     4   9  16  26  42  65  97 133 169 208 253 306
#     4  11  20  30  48  74 105 138 175 219 265 316
#     4  11  20  31  50  73 102 138 175 215 261 316
#     4   9  16  26  41  65  98 134 169 209 256 306
#     4  11  24  40  57  78 106 139 178 222 270 323
#     4  11  22  36  56  79 105 139 179 222 269 324
#
# _framework density 18.115234999999998
#
# number of rings (size 3 to 8) (size 9 to 14) (size 15 to 20)
#    0.000    1.667    1.667    7.000    0.000    4.000 
#    0.000    0.000    0.000    0.000    0.000    1.167 
#    0.000    5.333    0.000    0.000    0.000    0.000 
#
# Total GULP energy -594973.887689 kJ/mol
# GULP energy per Si atom -12395.289327 kJ/mol
# Density = 1.807400 g / cm^3
# Si number density = 18.115235 Si / 1000 Ang^3
#
#
#
# Elastic Constant Matrix: (Units=GPa)
#
#
# Indices 1 2 3 4 5 6 
#
# 1 173.7303 47.7923 48.5689 0.0000 0.0000 0.0000
# 2 47.7923 63.8960 28.5040 0.0000 0.0000 0.0000
# 3 48.5689 28.5040 83.9098 0.0000 0.0000 0.0000
# 4 0.0000 0.0000 0.0000 19.3338 0.0000 0.0000
# 5 0.0000 0.0000 0.0000 0.0000 34.3441 0.0000
# 6 0.0000 0.0000 0.0000 0.0000 0.0000 -32.5197
#
#
#
# Elastic Compliance Matrix: (Units=1/GPa)
#
#
# Indices 1 2 3 4 5 6 
#
# 1 0.007840 -0.004525 -0.003001 0.000000 0.000000 0.000000
# 2 -0.004525 0.021058 -0.004534 0.000000 0.000000 0.000000
# 3 -0.003001 -0.004534 0.015195 0.000000 0.000000 0.000000
# 4 0.000000 0.000000 0.000000 0.051723 0.000000 0.000000
# 5 0.000000 0.000000 0.000000 0.000000 0.029117 0.000000
# 6 0.000000 0.000000 0.000000 0.000000 0.000000 -0.030751
#
#
# Mechanical properties :
#
#
# Convention : Reuss Voigt Hill
#
# Bulk Modulus (GPa) = 50.06908 63.47406 56.77157
# Shear Modulus (GPa) = 40.01318 17.34304 28.67811
#
# Velocity S-wave (km/s) = 4.70490 3.09750 3.98313
# Velocity P-wave (km/s) = 7.56399 6.92155 7.24989
#
# Compressibility (1/GPa) = 0.01997241
#
# Stress axis : x y z
#
# Youngs Moduli (GPa) = 127.55399 47.48821 65.81310
#
# Poissons Ratio (x) = 0.21490 0.19748
# Poissons Ratio (y) = 0.57723 0.29839
# Poissons Ratio (z) = 0.38274 0.21531
#
# Static dielectric constant tensor:
#      x y z
#    x 4.273110 0.000000 0.000000 
#    y 0.000000 2.764180 0.000000 
#    z 0.000000 0.000000 3.440370 
# 
# 
# High freq. dielectric constant tensor:
#      x y z
#    x 1.732510 0.000000 0.000000 
#    y 0.000000 1.620560 0.000000 
#    z 0.000000 0.000000 1.721370 
# 
# From -- ./inp_files/4892.got.cif
#   From: 2010.03.12/outbox.cif.g09.slc.cpg/sg57_3_cif.got.tgz:4892.got - 2010.04.16 15:48:40.
