data_PCOD8234486
_publ_section_title
;
Structure prediction by ZEFSAII (Michael W. Deem and Ramdas Pophale) SiO2 
 PCOD8234486
Probable space group: P B C M
;
_chemical_formula_sum "Si O2"
_cell_formula_units_Z 40
_cell_length_a 14.376552
_cell_length_b 15.608152
_cell_length_c 8.982847
_cell_angle_alpha 90.000000
_cell_angle_beta 90.000000
_cell_angle_gamma 90.000000
_cell_volume 2015.673694
_symmetry_space_group_name_H-M "P B C M"
_symmetry_group_IT_number 57
_symmetry_cell_setting 'orthorhombic'
loop_
_space_group_symop_operation_xyz
x,y,z
-x,-y,1/2+z
x,1/2-y,-z
-x,1/2+y,1/2-z
-x,-y,-z
x,y,1/2-z
-x,1/2+y,z
x,1/2-y,1/2+z
loop_
_atom_site_type_symbol
_atom_site_label
_atom_site_fract_x
_atom_site_fract_y
_atom_site_fract_z
Si Si1 0.397141 0.591360 0.424441
Si Si2 0.398368 0.413653 0.921286
Si Si3 0.205710 0.337657 0.575688
Si Si4 0.099986 0.005120 0.926994
Si Si5 0.209522 0.834512 0.924173
O O1 0.385332 0.581719 0.250000
O O2 0.500473 0.624965 0.469376
O O3 0.376602 0.497733 0.486413
O O4 0.316411 0.654765 0.481941
O O5 0.402336 0.441791 0.750000
O O6 0.317111 0.345095 0.949319
O O7 0.171698 0.250000 0.500000
O O8 0.179984 0.336811 0.750000
O O9 0.154772 0.415667 0.496528
O O10 0.093038 0.017014 0.750000
O O11 0.151811 0.917770 0.971633
O O12 0.000000 0.000000 0.000000
O O13 0.203517 0.819684 0.750000
O O14 0.166666 0.750000 0.000000
#
# Coordination Sequence:
#
# PCOD8234486 Si02
#       5
#     8   8   8   8   8
#     4   9  17  33  55  83 119 157 196 240 289 346
#     4   9  18  32  55  85 118 157 199 239 287 346
#     4  11  23  39  61  91 123 159 201 246 297 356
#     4  11  24  44  66  89 117 154 196 250 308 362
#     4  10  22  38  60  88 120 155 194 238 292 351
#
# _framework density 19.844481999999999
#
# number of rings (size 3 to 8) (size 9 to 14) (size 15 to 20)
#    0.000    2.000    2.000    1.200    0.000    4.800 
#    0.000    2.000    0.000    0.000    0.000    0.000 
#    0.000    0.000    0.000    0.000    0.000    0.000 
#
# Total GULP energy -495883.829844 kJ/mol
# GULP energy per Si atom -12397.095746 kJ/mol
# Density = 1.979932 g / cm^3
# Si number density = 19.844482 Si / 1000 Ang^3
#
#
#
# Elastic Constant Matrix: (Units=GPa)
#
#
# Indices 1 2 3 4 5 6 
#
# 1 123.3486 70.6483 52.6199 0.0000 0.0000 0.0000
# 2 70.6483 153.8115 61.2957 0.0000 0.0000 0.0000
# 3 52.6199 61.2957 70.0079 0.0000 0.0000 0.0000
# 4 0.0000 0.0000 0.0000 35.5928 0.0000 0.0000
# 5 0.0000 0.0000 0.0000 0.0000 29.2069 0.0000
# 6 0.0000 0.0000 0.0000 0.0000 0.0000 8.1367
#
#
#
# Elastic Compliance Matrix: (Units=1/GPa)
#
#
# Indices 1 2 3 4 5 6 
#
# 1 0.012859 -0.003156 -0.006902 0.000000 0.000000 0.000000
# 2 -0.003156 0.010760 -0.007049 0.000000 0.000000 0.000000
# 3 -0.006902 -0.007049 0.025644 0.000000 0.000000 0.000000
# 4 0.000000 0.000000 0.000000 0.028096 0.000000 0.000000
# 5 0.000000 0.000000 0.000000 0.000000 0.034239 0.000000
# 6 0.000000 0.000000 0.000000 0.000000 0.000000 0.122900
#
#
# Mechanical properties :
#
#
# Convention : Reuss Voigt Hill
#
# Bulk Modulus (GPa) = 66.45001 79.58845 73.01923
# Shear Modulus (GPa) = 18.26638 25.42755 21.84697
#
# Velocity S-wave (km/s) = 3.03723 3.58347 3.32159
# Velocity P-wave (km/s) = 6.77183 7.57065 7.18236
#
# Compressibility (1/GPa) = 0.01504891
#
# Stress axis : x y z
#
# Youngs Moduli (GPa) = 77.76649 92.93573 38.99578
#
# Poissons Ratio (x) = 0.29329 0.26915
# Poissons Ratio (y) = 0.24541 0.27488
# Poissons Ratio (z) = 0.53675 0.65511
#
# Static dielectric constant tensor:
#      x y z
#    x 4.188850 0.000000 0.000000 
#    y 0.000000 3.632660 0.000000 
#    z 0.000000 0.000000 3.485430 
# 
# 
# High freq. dielectric constant tensor:
#      x y z
#    x 1.784280 0.000000 0.000000 
#    y 0.000000 1.763920 0.000000 
#    z 0.000000 0.000000 1.773770 
# 
# From -- ./inp_files/4259.got.cif
#   From: 2010.03.12/outbox.cif.g09.slc.cpg/sg57_3_cif.got.tgz:4259.got - 2010.04.16 15:48:40.
