data_PCOD8234130
_publ_section_title
;
Structure prediction by ZEFSAII (Michael W. Deem and Ramdas Pophale) SiO2 
 PCOD8234130
Probable space group: P B C M
;
_chemical_formula_sum "Si O2"
_cell_formula_units_Z 64
_cell_length_a 11.955035
_cell_length_b 31.175534
_cell_length_c 8.752853
_cell_angle_alpha 90.000000
_cell_angle_beta 90.000000
_cell_angle_gamma 90.000000
_cell_volume 3262.228577
_symmetry_space_group_name_H-M "P B C M"
_symmetry_group_IT_number 57
_symmetry_cell_setting 'orthorhombic'
loop_
_space_group_symop_operation_xyz
x,y,z
-x,-y,1/2+z
x,1/2-y,-z
-x,1/2+y,1/2-z
-x,-y,-z
x,y,1/2-z
-x,1/2+y,z
x,1/2-y,1/2+z
loop_
_atom_site_type_symbol
_atom_site_label
_atom_site_fract_x
_atom_site_fract_y
_atom_site_fract_z
Si Si1 0.977690 0.546666 0.429914
Si Si2 0.635082 0.102736 0.077248
Si Si3 0.746206 0.556161 0.568751
Si Si4 0.993665 0.705649 0.929214
Si Si5 0.879446 0.128055 0.424652
Si Si6 0.259467 0.293879 0.070278
Si Si7 0.384821 0.515132 0.928523
Si Si8 0.392507 0.369745 0.925727
O O1 0.961581 0.540774 0.250000
O O2 0.867683 0.567935 0.503970
O O3 0.000000 0.500000 0.500000
O O4 0.076628 0.580327 0.468780
O O5 0.636487 0.083525 0.250000
O O6 0.746373 0.130369 0.048155
O O7 0.526605 0.132745 0.056203
O O8 0.630875 0.065382 0.952868
O O9 0.746608 0.560682 0.750000
O O10 0.717006 0.508038 0.516244
O O11 0.651319 0.586188 0.497378
O O12 0.997683 0.711419 0.750000
O O13 0.866957 0.697133 0.986982
O O14 0.040405 0.750000 0.000000
O O15 0.067742 0.665027 0.973235
O O16 0.911475 0.137819 0.250000
O O17 0.263918 0.290401 0.250000
O O18 0.305536 0.250000 0.000000
O O19 0.340862 0.330953 0.017663
O O20 0.382168 0.503914 0.750000
O O21 0.500000 0.500000 0.000000
O O22 0.355370 0.367309 0.750000
#
# Coordination Sequence:
#
# PCOD8234130 Si02
#       8
#     8   8   8   8   8   8   8   8
#     4  11  23  39  60  87 121 160 202 250 306 364
#     4  10  22  40  60  84 118 158 200 246 295 351
#     4  12  24  38  58  84 117 154 198 247 295 348
#     4  10  21  38  63  92 119 151 191 243 299 360
#     4  10  22  40  61  86 119 159 200 248 303 359
#     4  10  21  38  61  89 120 150 187 235 294 356
#     4  12  23  37  58  84 115 154 200 248 298 352
#     4  11  22  37  59  86 117 151 192 239 292 350
#
# _framework density 19.618490000000001
#
# number of rings (size 3 to 8) (size 9 to 14) (size 15 to 20)
#    0.000    1.250    1.250    5.250    0.000    6.500 
#    0.000    0.625    0.000    0.000    0.000    0.000 
#    0.000    0.000    0.000    0.000    0.000    0.000 
#
# Total GULP energy -793880.391163 kJ/mol
# GULP energy per Si atom -12404.381112 kJ/mol
# Density = 1.957384 g / cm^3
# Si number density = 19.618490 Si / 1000 Ang^3
#
#
#
# Elastic Constant Matrix: (Units=GPa)
#
#
# Indices 1 2 3 4 5 6 
#
# 1 105.8475 32.2641 27.2024 0.0000 0.0000 0.0000
# 2 32.2641 97.8730 18.7386 0.0000 0.0000 0.0000
# 3 27.2024 18.7386 77.1762 0.0000 0.0000 0.0000
# 4 0.0000 0.0000 0.0000 38.9722 0.0000 0.0000
# 5 0.0000 0.0000 0.0000 0.0000 27.4686 0.0000
# 6 0.0000 0.0000 0.0000 0.0000 0.0000 34.1892
#
#
#
# Elastic Compliance Matrix: (Units=1/GPa)
#
#
# Indices 1 2 3 4 5 6 
#
# 1 0.011210 -0.003082 -0.003203 0.000000 0.000000 0.000000
# 2 -0.003082 0.011563 -0.001721 0.000000 0.000000 0.000000
# 3 -0.003203 -0.001721 0.014504 0.000000 0.000000 0.000000
# 4 0.000000 0.000000 0.000000 0.025659 0.000000 0.000000
# 5 0.000000 0.000000 0.000000 0.000000 0.036405 0.000000
# 6 0.000000 0.000000 0.000000 0.000000 0.000000 0.029249
#
#
# Mechanical properties :
#
#
# Convention : Reuss Voigt Hill
#
# Bulk Modulus (GPa) = 47.02608 48.58965 47.80786
# Shear Modulus (GPa) = 32.96160 33.63876 33.30018
#
# Velocity S-wave (km/s) = 4.10338 4.14532 4.12441
# Velocity P-wave (km/s) = 6.81709 6.90888 6.86314
#
# Compressibility (1/GPa) = 0.02126480
#
# Stress axis : x y z
#
# Youngs Moduli (GPa) = 89.20437 86.48333 68.94563
#
# Poissons Ratio (x) = 0.26656 0.22083
# Poissons Ratio (y) = 0.27495 0.11866
# Poissons Ratio (z) = 0.28571 0.14885
#
# Static dielectric constant tensor:
#      x y z
#    x 3.641640 0.000000 0.000000 
#    y 0.000000 3.490890 0.000000 
#    z 0.000000 0.000000 3.599670 
# 
# 
# High freq. dielectric constant tensor:
#      x y z
#    x 1.768390 0.000000 0.000000 
#    y 0.000000 1.755540 0.000000 
#    z 0.000000 0.000000 1.774970 
# 
# From -- ./inp_files/3786.got.cif
#   From: 2010.03.12/outbox.cif.g09.slc.cpg/sg57_2_cif.got.tgz:3786.got - 2010.04.16 15:48:40.
