data_PCOD8234846
_publ_section_title
;
Structure prediction by ZEFSAII (Michael W. Deem and Ramdas Pophale) SiO2 
 PCOD8234846
Probable space group: P B C M
;
_chemical_formula_sum "Si O2"
_cell_formula_units_Z 48
_cell_length_a 9.240712
_cell_length_b 10.184359
_cell_length_c 23.789050
_cell_angle_alpha 90.000000
_cell_angle_beta 90.000000
_cell_angle_gamma 90.000000
_cell_volume 2238.804824
_symmetry_space_group_name_H-M "P B C M"
_symmetry_group_IT_number 57
_symmetry_cell_setting 'orthorhombic'
loop_
_space_group_symop_operation_xyz
x,y,z
-x,-y,1/2+z
x,1/2-y,-z
-x,1/2+y,1/2-z
-x,-y,-z
x,y,1/2-z
-x,1/2+y,z
x,1/2-y,1/2+z
loop_
_atom_site_type_symbol
_atom_site_label
_atom_site_fract_x
_atom_site_fract_y
_atom_site_fract_z
Si Si1 0.880090 0.022078 0.686278
Si Si2 0.539223 0.824983 0.367277
Si Si3 0.806512 0.525290 0.631940
Si Si4 0.133977 0.403436 0.006677
Si Si5 0.656015 0.559467 0.094681
Si Si6 0.280895 0.782097 0.810781
O O1 0.875900 0.964352 0.750000
O O2 0.843496 0.174633 0.686261
O O3 0.040813 0.021028 0.662122
O O4 0.769057 0.941697 0.647121
O O5 0.687889 0.878915 0.339534
O O6 0.570048 0.696846 0.405304
O O7 0.437507 0.785192 0.315480
O O8 0.455955 0.937585 0.403542
O O9 0.805470 0.574036 0.568431
O O10 0.743467 0.378803 0.637115
O O11 0.088987 0.250000 0.000000
O O12 0.255696 0.448198 0.963035
O O13 0.000000 0.500000 0.000000
O O14 0.273856 0.854037 0.750000
#
# Coordination Sequence:
#
# PCOD8234846 Si02
#       6
#     8   8   8   8   8   8
#     4  10  24  44  72 102 139 182 234 298 353 421
#     4  11  24  45  71  98 141 182 233 286 347 426
#     4  12  24  43  71 102 139 180 244 285 357 419
#     4  12  27  46  75 104 142 187 233 297 356 422
#     4  11  24  49  69 105 140 183 235 287 355 424
#     4  10  24  45  67 101 140 184 236 289 354 423
#
# _framework density 21.440011999999999
#
# number of rings (size 3 to 8) (size 9 to 14) (size 15 to 20)
#    0.000    1.000    5.000    0.500    4.667    2.667 
#    3.000    0.000    0.000    0.000    0.000    0.000 
#    0.000    0.000    0.000    0.000    0.000    0.000 
#
# Total GULP energy -594955.065723 kJ/mol
# GULP energy per Si atom -12394.897203 kJ/mol
# Density = 2.139121 g / cm^3
# Si number density = 21.440012 Si / 1000 Ang^3
#
#
#
# Elastic Constant Matrix: (Units=GPa)
#
#
# Indices 1 2 3 4 5 6 
#
# 1 136.8759 70.0233 43.9403 0.0000 0.0000 0.0000
# 2 70.0233 143.7457 48.9117 0.0000 0.0000 0.0000
# 3 43.9403 48.9117 108.2673 0.0000 0.0000 0.0000
# 4 0.0000 0.0000 0.0000 28.5160 0.0000 0.0000
# 5 0.0000 0.0000 0.0000 0.0000 17.7548 0.0000
# 6 0.0000 0.0000 0.0000 0.0000 0.0000 38.5508
#
#
#
# Elastic Compliance Matrix: (Units=1/GPa)
#
#
# Indices 1 2 3 4 5 6 
#
# 1 0.010168 -0.004194 -0.002232 0.000000 0.000000 0.000000
# 2 -0.004194 0.009950 -0.002793 0.000000 0.000000 0.000000
# 3 -0.002232 -0.002793 0.011404 0.000000 0.000000 0.000000
# 4 0.000000 0.000000 0.000000 0.035068 0.000000 0.000000
# 5 0.000000 0.000000 0.000000 0.000000 0.056323 0.000000
# 6 0.000000 0.000000 0.000000 0.000000 0.000000 0.025940
#
#
# Mechanical properties :
#
#
# Convention : Reuss Voigt Hill
#
# Bulk Modulus (GPa) = 76.42714 79.40438 77.91576
# Shear Modulus (GPa) = 29.12878 32.03188 30.58033
#
# Velocity S-wave (km/s) = 3.68994 3.86945 3.78076
# Velocity P-wave (km/s) = 7.34020 7.55510 7.44843
#
# Compressibility (1/GPa) = 0.01308436
#
# Stress axis : x y z
#
# Youngs Moduli (GPa) = 98.34973 100.50288 87.68751
#
# Poissons Ratio (x) = 0.42147 0.19573
# Poissons Ratio (y) = 0.41244 0.24492
# Poissons Ratio (z) = 0.21952 0.28072
#
# Static dielectric constant tensor:
#      x y z
#    x 4.214200 0.000000 0.000000 
#    y 0.000000 4.090330 0.000000 
#    z 0.000000 0.000000 4.193550 
# 
# 
# High freq. dielectric constant tensor:
#      x y z
#    x 1.862980 0.000000 0.000000 
#    y 0.000000 1.849970 0.000000 
#    z 0.000000 0.000000 1.828740 
# 
# From -- ./inp_files/26676.got.cif
#   From: 2010.03.12/outbox.cif.g09.slc.cpg/sg57_14_cif.got.tgz:26676.got - 2010.04.16 15:48:40.
