data_PCOD8234662
_publ_section_title
;
Structure prediction by ZEFSAII (Michael W. Deem and Ramdas Pophale) SiO2 
 PCOD8234662
Probable space group: P B C M
;
_chemical_formula_sum "Si O2"
_cell_formula_units_Z 40
_cell_length_a 15.711389
_cell_length_b 11.701393
_cell_length_c 10.016500
_cell_angle_alpha 90.000000
_cell_angle_beta 90.000000
_cell_angle_gamma 90.000000
_cell_volume 1841.484817
_symmetry_space_group_name_H-M "P B C M"
_symmetry_group_IT_number 57
_symmetry_cell_setting 'orthorhombic'
loop_
_space_group_symop_operation_xyz
x,y,z
-x,-y,1/2+z
x,1/2-y,-z
-x,1/2+y,1/2-z
-x,-y,-z
x,y,1/2-z
-x,1/2+y,z
x,1/2-y,1/2+z
loop_
_atom_site_type_symbol
_atom_site_label
_atom_site_fract_x
_atom_site_fract_y
_atom_site_fract_z
Si Si1 0.324435 0.328725 0.608922
Si Si2 0.117469 0.487303 0.250000
Si Si3 0.077796 0.967437 0.250000
Si Si4 0.428315 0.547903 0.901798
Si Si5 0.809831 0.234606 0.250000
Si Si6 0.861211 0.628401 0.020073
Si Si7 0.686338 0.250000 0.500000
O O1 0.371322 0.250000 0.500000
O O2 0.345924 0.269916 0.750000
O O3 0.354589 0.456508 0.607054
O O4 0.224078 0.332487 0.592270
O O5 0.126712 0.625379 0.250000
O O6 0.161175 0.435118 0.381656
O O7 0.021470 0.439196 0.250000
O O8 0.135001 0.852040 0.250000
O O9 0.090526 0.040687 0.383998
O O10 0.462212 0.574664 0.750000
O O11 0.380575 0.651504 0.969916
O O12 0.500000 0.500000 0.000000
O O13 0.748075 0.226105 0.376422
O O14 0.912432 0.750000 0.000000
#
# Coordination Sequence:
#
# PCOD8234662 Si02
#       7
#     8   4   4   8   4   8   4
#     4  10  22  42  68  97 133 178 225 279 338 417
#     4  12  27  42  69 106 138 185 244 302 366 428
#     4  12  25  46  69 102 146 181 238 310 362 422
#     4  11  26  46  72 105 147 181 232 294 354 421
#     4  12  26  46  78 102 146 200 256 296 366 450
#     4  11  24  43  70  97 138 183 233 289 363 435
#     4  12  26  50  74 106 142 200 242 294 358 446
#
# _framework density 21.721602000000001
#
# number of rings (size 3 to 8) (size 9 to 14) (size 15 to 20)
#    0.000    0.800    2.000    4.800    9.800    0.800 
#    0.000    0.000    0.000    0.000    0.000    0.000 
#    0.000    0.000    0.000    0.000    0.000    0.000 
#
# Total GULP energy -495712.197742 kJ/mol
# GULP energy per Si atom -12392.804944 kJ/mol
# Density = 2.167216 g / cm^3
# Si number density = 21.721602 Si / 1000 Ang^3
#
#
#
# Elastic Constant Matrix: (Units=GPa)
#
#
# Indices 1 2 3 4 5 6 
#
# 1 78.2347 39.2245 41.2266 0.0000 0.0000 0.0000
# 2 39.2245 153.8003 83.1414 0.0000 0.0000 0.0000
# 3 41.2266 83.1414 187.9596 0.0000 0.0000 0.0000
# 4 0.0000 0.0000 0.0000 42.1947 0.0000 0.0000
# 5 0.0000 0.0000 0.0000 0.0000 33.1166 0.0000
# 6 0.0000 0.0000 0.0000 0.0000 0.0000 40.3462
#
#
#
# Elastic Compliance Matrix: (Units=1/GPa)
#
#
# Indices 1 2 3 4 5 6 
#
# 1 0.015284 -0.002741 -0.002140 0.000000 0.000000 0.000000
# 2 -0.002741 0.009037 -0.003396 0.000000 0.000000 0.000000
# 3 -0.002140 -0.003396 0.007292 0.000000 0.000000 0.000000
# 4 0.000000 0.000000 0.000000 0.023700 0.000000 0.000000
# 5 0.000000 0.000000 0.000000 0.000000 0.030196 0.000000
# 6 0.000000 0.000000 0.000000 0.000000 0.000000 0.024785
#
#
# Mechanical properties :
#
#
# Convention : Reuss Voigt Hill
#
# Bulk Modulus (GPa) = 66.40765 83.01995 74.71380
# Shear Modulus (GPa) = 37.91670 40.22497 39.07084
#
# Velocity S-wave (km/s) = 4.18254 4.30797 4.24572
# Velocity P-wave (km/s) = 7.34598 7.94026 7.64890
#
# Compressibility (1/GPa) = 0.01505851
#
# Stress axis : x y z
#
# Youngs Moduli (GPa) = 65.42781 110.65720 137.13918
#
# Poissons Ratio (x) = 0.30334 0.29345
# Poissons Ratio (y) = 0.17935 0.46574
# Poissons Ratio (z) = 0.14000 0.37580
#
# Static dielectric constant tensor:
#      x y z
#    x 3.739210 0.000000 0.000000 
#    y 0.000000 4.671720 0.000000 
#    z 0.000000 0.000000 4.661000 
# 
# 
# High freq. dielectric constant tensor:
#      x y z
#    x 1.837450 0.000000 0.000000 
#    y 0.000000 1.870280 0.000000 
#    z 0.000000 0.000000 1.881910 
# 
# From -- ./inp_files/6320.got.cif
#   From: 2010.03.12/outbox.cif.g09.slc.cpg/sg57_4_cif.got.tgz:6320.got - 2010.04.16 15:48:40.
