data_PCOD8234732
_publ_section_title
;
Structure prediction by ZEFSAII (Michael W. Deem and Ramdas Pophale) SiO2 
 PCOD8234732
Probable space group: P B C M
;
_chemical_formula_sum "Si O2"
_cell_formula_units_Z 64
_cell_length_a 8.817019
_cell_length_b 13.710215
_cell_length_c 25.793833
_cell_angle_alpha 90.000000
_cell_angle_beta 90.000000
_cell_angle_gamma 90.000000
_cell_volume 3118.041748
_symmetry_space_group_name_H-M "P B C M"
_symmetry_group_IT_number 57
_symmetry_cell_setting 'orthorhombic'
loop_
_space_group_symop_operation_xyz
x,y,z
-x,-y,1/2+z
x,1/2-y,-z
-x,1/2+y,1/2-z
-x,-y,-z
x,y,1/2-z
-x,1/2+y,z
x,1/2-y,1/2+z
loop_
_atom_site_type_symbol
_atom_site_label
_atom_site_fract_x
_atom_site_fract_y
_atom_site_fract_z
Si Si1 0.671307 0.123864 0.368239
Si Si2 0.022107 0.127167 0.395228
Si Si3 0.157556 0.140592 0.496953
Si Si4 0.707881 0.933143 0.190654
Si Si5 0.073462 0.150167 0.892634
Si Si6 0.560843 0.944572 0.549109
Si Si7 0.218325 0.955902 0.373735
Si Si8 0.593726 0.180773 0.808784
O O1 0.848144 0.125449 0.380839
O O2 0.574610 0.107561 0.420228
O O3 0.620866 0.226126 0.344565
O O4 0.640241 0.036822 0.327819
O O5 0.044429 0.089411 0.455074
O O6 0.095801 0.233850 0.388209
O O7 0.120880 0.053213 0.359300
O O8 0.097971 0.250000 0.500000
O O9 0.149505 0.100869 0.555918
O O10 0.326409 0.137348 0.473426
O O11 0.761410 0.943016 0.250000
O O12 0.852102 0.901726 0.156767
O O13 0.580254 0.850734 0.184697
O O14 0.895284 0.126413 0.895782
O O15 0.500000 0.000000 0.500000
O O16 0.650976 0.021693 0.584567
O O17 0.298201 0.910251 0.323349
O O18 0.631385 0.209549 0.750000
#
# Coordination Sequence:
#
# PCOD8234732 Si02
#       8
#     8   8   8   8   8   8   8   8
#     4  12  23  44  68  96 135 172 225 273 326 399
#     4  10  23  41  63  99 130 178 212 268 329 391
#     4   9  22  39  60  91 130 173 210 261 318 389
#     4  11  25  44  69  95 128 172 218 275 338 389
#     4  11  22  43  68  93 137 171 219 267 328 397
#     4  11  25  38  64  97 135 177 220 267 328 398
#     4  11  23  42  66  95 133 171 215 275 328 389
#     4  11  26  46  68  96 130 172 222 280 335 392
#
# _framework density 20.525703
#
# number of rings (size 3 to 8) (size 9 to 14) (size 15 to 20)
#    0.000    1.250    3.750    1.125    7.000    1.500 
#    0.000    0.625    0.000    0.000    0.000    0.000 
#    0.000    0.000    0.000    0.000    0.000    0.000 
#
# Total GULP energy -793437.779241 kJ/mol
# GULP energy per Si atom -12397.465301 kJ/mol
# Density = 2.047899 g / cm^3
# Si number density = 20.525703 Si / 1000 Ang^3
#
#
#
# Elastic Constant Matrix: (Units=GPa)
#
#
# Indices 1 2 3 4 5 6 
#
# 1 85.5470 28.6737 41.3490 0.0000 0.0000 0.0000
# 2 28.6737 100.8401 40.6493 0.0000 0.0000 0.0000
# 3 41.3490 40.6493 113.3921 0.0000 0.0000 0.0000
# 4 0.0000 0.0000 0.0000 29.7078 0.0000 0.0000
# 5 0.0000 0.0000 0.0000 0.0000 26.7019 0.0000
# 6 0.0000 0.0000 0.0000 0.0000 0.0000 35.4255
#
#
#
# Elastic Compliance Matrix: (Units=1/GPa)
#
#
# Indices 1 2 3 4 5 6 
#
# 1 0.014653 -0.002353 -0.004500 0.000000 0.000000 0.000000
# 2 -0.002353 0.011970 -0.003433 0.000000 0.000000 0.000000
# 3 -0.004500 -0.003433 0.011691 0.000000 0.000000 0.000000
# 4 0.000000 0.000000 0.000000 0.033661 0.000000 0.000000
# 5 0.000000 0.000000 0.000000 0.000000 0.037450 0.000000
# 6 0.000000 0.000000 0.000000 0.000000 0.000000 0.028228
#
#
# Mechanical properties :
#
#
# Convention : Reuss Voigt Hill
#
# Bulk Modulus (GPa) = 56.36331 57.90259 57.13295
# Shear Modulus (GPa) = 30.46214 30.97419 30.71817
#
# Velocity S-wave (km/s) = 3.85658 3.88886 3.87275
# Velocity P-wave (km/s) = 6.88116 6.95955 6.92047
#
# Compressibility (1/GPa) = 0.01774204
#
# Stress axis : x y z
#
# Youngs Moduli (GPa) = 68.24504 83.54560 85.53917
#
# Poissons Ratio (x) = 0.19655 0.38492
# Poissons Ratio (y) = 0.16056 0.29365
# Poissons Ratio (z) = 0.30710 0.28681
#
# Static dielectric constant tensor:
#      x y z
#    x 3.892020 0.000000 0.000000 
#    y 0.000000 3.861580 0.000000 
#    z 0.000000 0.000000 3.839010 
# 
# 
# High freq. dielectric constant tensor:
#      x y z
#    x 1.808340 0.000000 0.000000 
#    y 0.000000 1.809230 0.000000 
#    z 0.000000 0.000000 1.797520 
# 
# From -- ./inp_files/26888.got.cif
#   From: 2010.03.12/outbox.cif.g09.slc.cpg/sg57_14_cif.got.tgz:26888.got - 2010.04.16 15:48:40.
