data_PCOD8234759
_publ_section_title
;
Structure prediction by ZEFSAII (Michael W. Deem and Ramdas Pophale) SiO2 
 PCOD8234759
Probable space group: P B C M
;
_chemical_formula_sum "Si O2"
_cell_formula_units_Z 40
_cell_length_a 9.971338
_cell_length_b 22.590513
_cell_length_c 8.686221
_cell_angle_alpha 90.000000
_cell_angle_beta 90.000000
_cell_angle_gamma 90.000000
_cell_volume 1956.637649
_symmetry_space_group_name_H-M "P B C M"
_symmetry_group_IT_number 57
_symmetry_cell_setting 'orthorhombic'
loop_
_space_group_symop_operation_xyz
x,y,z
-x,-y,1/2+z
x,1/2-y,-z
-x,1/2+y,1/2-z
-x,-y,-z
x,y,1/2-z
-x,1/2+y,z
x,1/2-y,1/2+z
loop_
_atom_site_type_symbol
_atom_site_label
_atom_site_fract_x
_atom_site_fract_y
_atom_site_fract_z
Si Si1 0.530150 0.689825 0.928202
Si Si2 0.352626 0.005286 0.569578
Si Si3 0.768277 0.877319 0.931878
Si Si4 0.724229 0.111256 0.573459
Si Si5 0.018681 0.815028 0.431347
O O1 0.564301 0.698953 0.750000
O O2 0.421371 0.639056 0.952992
O O3 0.472297 0.750000 0.000000
O O4 0.664385 0.673176 0.018370
O O5 0.367262 0.014679 0.750000
O O6 0.272508 0.060027 0.501157
O O7 0.500000 0.000000 0.500000
O O8 0.266193 0.946716 0.532602
O O9 0.772466 0.882257 0.750000
O O10 0.913060 0.859806 0.994919
O O11 0.744003 0.091818 0.750000
O O12 0.835726 0.159005 0.525688
O O13 0.004326 0.750000 0.500000
O O14 0.995309 0.811247 0.250000
#
# Coordination Sequence:
#
# PCOD8234759 Si02
#       5
#     8   8   8   8   8
#     4  11  22  38  62  92 126 164 213 267 319 382
#     4  12  24  41  67  97 131 168 212 267 324 383
#     4  12  25  42  65  93 127 171 217 266 322 381
#     4  10  23  42  66  94 128 170 215 264 320 382
#     4  11  24  44  67  95 132 173 216 266 321 383
#
# _framework density 20.443235000000001
#
# number of rings (size 3 to 8) (size 9 to 14) (size 15 to 20)
#    0.000    0.800    2.000    6.000    0.000    3.200 
#    0.000    0.000    0.000    0.000    0.000    0.000 
#    0.000    0.000    0.000    0.000    0.000    0.000 
#
# Total GULP energy -496290.942801 kJ/mol
# GULP energy per Si atom -12407.273570 kJ/mol
# Density = 2.039671 g / cm^3
# Si number density = 20.443235 Si / 1000 Ang^3
#
#
#
# Elastic Constant Matrix: (Units=GPa)
#
#
# Indices 1 2 3 4 5 6 
#
# 1 79.3615 16.4772 44.8452 0.0000 0.0000 0.0000
# 2 16.4772 119.4458 54.9266 0.0000 0.0000 0.0000
# 3 44.8452 54.9266 155.6205 0.0000 0.0000 0.0000
# 4 0.0000 0.0000 0.0000 42.1656 0.0000 0.0000
# 5 0.0000 0.0000 0.0000 0.0000 30.4901 0.0000
# 6 0.0000 0.0000 0.0000 0.0000 0.0000 35.5390
#
#
#
# Elastic Compliance Matrix: (Units=1/GPa)
#
#
# Indices 1 2 3 4 5 6 
#
# 1 0.015052 -0.000098 -0.004303 0.000000 0.000000 0.000000
# 2 -0.000098 0.009995 -0.003500 0.000000 0.000000 0.000000
# 3 -0.004303 -0.003500 0.008901 0.000000 0.000000 0.000000
# 4 0.000000 0.000000 0.000000 0.023716 0.000000 0.000000
# 5 0.000000 0.000000 0.000000 0.000000 0.032798 0.000000
# 6 0.000000 0.000000 0.000000 0.000000 0.000000 0.028138
#
#
# Mechanical properties :
#
#
# Convention : Reuss Voigt Hill
#
# Bulk Modulus (GPa) = 55.10382 65.21398 60.15890
# Shear Modulus (GPa) = 35.59988 37.51752 36.55870
#
# Velocity S-wave (km/s) = 4.17754 4.28858 4.23342
# Velocity P-wave (km/s) = 7.09099 7.51610 7.30664
#
# Compressibility (1/GPa) = 0.01814756
#
# Stress axis : x y z
#
# Youngs Moduli (GPa) = 66.43424 100.05300 112.34548
#
# Poissons Ratio (x) = 0.00977 0.48345
# Poissons Ratio (y) = 0.00649 0.39316
# Poissons Ratio (z) = 0.28588 0.35014
#
# Static dielectric constant tensor:
#      x y z
#    x 3.759910 0.000000 0.000000 
#    y 0.000000 3.835410 0.000000 
#    z 0.000000 0.000000 4.051770 
# 
# 
# High freq. dielectric constant tensor:
#      x y z
#    x 1.801020 0.000000 0.000000 
#    y 0.000000 1.815880 0.000000 
#    z 0.000000 0.000000 1.810890 
# 
# From -- ./inp_files/1511.got.cif
#   From: 2010.03.12/outbox.cif.g09.slc.cpg/sg57_1_cif.got.tgz:1511.got - 2010.04.16 15:48:40.
