data_PCOD8234101
_publ_section_title
;
Structure prediction by ZEFSAII (Michael W. Deem and Ramdas Pophale) SiO2 
 PCOD8234101
Probable space group: P B C M
;
_chemical_formula_sum "Si O2"
_cell_formula_units_Z 40
_cell_length_a 6.385284
_cell_length_b 22.747069
_cell_length_c 14.249393
_cell_angle_alpha 90.000000
_cell_angle_beta 90.000000
_cell_angle_gamma 90.000000
_cell_volume 2069.674400
_symmetry_space_group_name_H-M "P B C M"
_symmetry_group_IT_number 57
_symmetry_cell_setting 'orthorhombic'
loop_
_space_group_symop_operation_xyz
x,y,z
-x,-y,1/2+z
x,1/2-y,-z
-x,1/2+y,1/2-z
-x,-y,-z
x,y,1/2-z
-x,1/2+y,z
x,1/2-y,1/2+z
loop_
_atom_site_type_symbol
_atom_site_label
_atom_site_fract_x
_atom_site_fract_y
_atom_site_fract_z
Si Si1 0.691814 0.880639 0.854082
Si Si2 0.537690 0.319067 0.492487
Si Si3 0.074827 0.892951 0.513553
Si Si4 0.251222 0.102925 0.856408
Si Si5 0.404344 0.981053 0.595634
O O1 0.735873 0.857749 0.750000
O O2 0.583493 0.944838 0.849717
O O3 0.906992 0.874242 0.909523
O O4 0.524886 0.839461 0.904118
O O5 0.513831 0.250000 0.500000
O O6 0.778260 0.338782 0.481491
O O7 0.396757 0.349269 0.410591
O O8 0.197561 0.945158 0.565700
O O9 0.958617 0.910080 0.416466
O O10 0.204088 0.125743 0.750000
O O11 0.358629 0.039249 0.844495
O O12 0.500000 0.000000 0.500000
#
# Coordination Sequence:
#
# PCOD8234101 Si02
#       5
#     8   8   8   8   8
#     4  10  22  38  62  89 116 151 194 239 289 347
#     4  10  23  43  61  79 116 158 197 246 294 340
#     4  10  21  38  60  88 121 153 194 236 293 345
#     4  11  23  38  61  91 120 152 195 241 291 348
#     4  11  19  39  60  87 124 156 185 228 291 354
#
# _framework density 19.326712000000001
#
# number of rings (size 3 to 8) (size 9 to 14) (size 15 to 20)
#    0.000    1.600    6.000    1.200    0.000    8.800 
#    0.000    0.000    0.000    0.000    0.000    0.000 
#    0.000    0.000    0.000    0.000    0.000    0.000 
#
# Total GULP energy -495562.147462 kJ/mol
# GULP energy per Si atom -12389.053687 kJ/mol
# Density = 1.928272 g / cm^3
# Si number density = 19.326712 Si / 1000 Ang^3
#
#
#
# Elastic Constant Matrix: (Units=GPa)
#
#
# Indices 1 2 3 4 5 6 
#
# 1 83.6902 11.2903 24.1249 0.0000 0.0000 0.0000
# 2 11.2903 105.3755 10.8409 0.0000 0.0000 0.0000
# 3 24.1249 10.8409 144.4218 0.0000 0.0000 0.0000
# 4 0.0000 0.0000 0.0000 12.8686 0.0000 0.0000
# 5 0.0000 0.0000 0.0000 0.0000 4.2990 0.0000
# 6 0.0000 0.0000 0.0000 0.0000 0.0000 13.9835
#
#
#
# Elastic Compliance Matrix: (Units=1/GPa)
#
#
# Indices 1 2 3 4 5 6 
#
# 1 0.012690 -0.001150 -0.002033 0.000000 0.000000 0.000000
# 2 -0.001150 0.009668 -0.000534 0.000000 0.000000 0.000000
# 3 -0.002033 -0.000534 0.007304 0.000000 0.000000 0.000000
# 4 0.000000 0.000000 0.000000 0.077708 0.000000 0.000000
# 5 0.000000 0.000000 0.000000 0.000000 0.232614 0.000000
# 6 0.000000 0.000000 0.000000 0.000000 0.000000 0.071513
#
#
# Mechanical properties :
#
#
# Convention : Reuss Voigt Hill
#
# Bulk Modulus (GPa) = 44.98999 47.33329 46.16164
# Shear Modulus (GPa) = 11.72770 25.37897 18.55334
#
# Velocity S-wave (km/s) = 2.46603 3.62768 3.10172
# Velocity P-wave (km/s) = 5.60692 6.48776 6.06336
#
# Compressibility (1/GPa) = 0.02222717
#
# Stress axis : x y z
#
# Youngs Moduli (GPa) = 78.80084 103.43372 136.91326
#
# Poissons Ratio (x) = 0.11900 0.27841
# Poissons Ratio (y) = 0.09066 0.07305
# Poissons Ratio (z) = 0.16024 0.05519
#
# Static dielectric constant tensor:
#      x y z
#    x 3.492830 0.000000 0.000000 
#    y 0.000000 3.267220 0.000000 
#    z 0.000000 0.000000 3.369960 
# 
# 
# High freq. dielectric constant tensor:
#      x y z
#    x 1.761680 0.000000 0.000000 
#    y 0.000000 1.735890 0.000000 
#    z 0.000000 0.000000 1.753840 
# 
# From -- ./inp_files/14935.got.cif
#   From: 2010.03.12/outbox.cif.g09.slc.cpg/sg57_8_cif.got.tgz:14935.got - 2010.04.16 15:48:40.
