data_PCOD8234792
_publ_section_title
;
Structure prediction by ZEFSAII (Michael W. Deem and Ramdas Pophale) SiO2 
 PCOD8234792
Probable space group: P B C M
;
_chemical_formula_sum "Si O2"
_cell_formula_units_Z 64
_cell_length_a 9.444171
_cell_length_b 17.583586
_cell_length_c 17.961920
_cell_angle_alpha 90.000000
_cell_angle_beta 90.000000
_cell_angle_gamma 90.000000
_cell_volume 2982.799418
_symmetry_space_group_name_H-M "P B C M"
_symmetry_group_IT_number 57
_symmetry_cell_setting 'orthorhombic'
loop_
_space_group_symop_operation_xyz
x,y,z
-x,-y,1/2+z
x,1/2-y,-z
-x,1/2+y,1/2-z
-x,-y,-z
x,y,1/2-z
-x,1/2+y,z
x,1/2-y,1/2+z
loop_
_atom_site_type_symbol
_atom_site_label
_atom_site_fract_x
_atom_site_fract_y
_atom_site_fract_z
Si Si1 0.446890 0.461530 0.924423
Si Si2 0.532855 0.817701 0.337504
Si Si3 0.680575 0.525756 0.838429
Si Si4 0.304204 0.299220 0.926800
Si Si5 0.053040 0.968063 0.578203
Si Si6 0.196402 0.524156 0.665265
Si Si7 0.780889 0.306141 0.334249
Si Si8 0.974373 0.298781 0.573129
O O1 0.575892 0.457933 0.864828
O O2 0.382832 0.378773 0.939175
O O3 0.329889 0.515444 0.888021
O O4 0.500000 0.500000 0.000000
O O5 0.517743 0.824019 0.250000
O O6 0.626663 0.744886 0.357910
O O7 0.375109 0.808527 0.373186
O O8 0.610419 0.894746 0.364151
O O9 0.712139 0.520082 0.750000
O O10 0.821968 0.518597 0.887506
O O11 0.139363 0.310149 0.907851
O O12 0.327959 0.250000 0.000000
O O13 0.098725 0.881084 0.564518
O O14 0.000000 0.000000 0.500000
O O15 0.928340 0.969263 0.638876
O O16 0.239018 0.503381 0.750000
O O17 0.145495 0.611393 0.658809
O O18 0.755483 0.282416 0.250000
O O19 0.889953 0.244193 0.363281
O O20 0.952117 0.250000 0.500000
#
# Coordination Sequence:
#
# PCOD8234792 Si02
#       8
#     8   8   8   8   8   8   8   8
#     4  12  24  44  72 100 136 184 231 288 347 407
#     4  10  23  44  68  98 136 178 224 277 339 413
#     4  11  25  45  72 104 139 180 231 290 349 412
#     4  11  26  44  65  99 136 178 228 283 339 410
#     4  12  26  45  71 101 136 182 236 288 343 409
#     4  11  23  44  70  99 135 179 229 286 346 413
#     4  10  23  44  68  97 135 179 223 274 342 417
#     4  11  26  46  66  97 139 180 226 281 341 406
#
# _framework density 21.456356
#
# number of rings (size 3 to 8) (size 9 to 14) (size 15 to 20)
#    0.000    1.000    2.500    3.000    7.000    3.000 
#    0.000    0.000    0.000    0.000    0.000    0.000 
#    0.000    0.000    0.000    0.000    0.000    0.000 
#
# Total GULP energy -793613.230333 kJ/mol
# GULP energy per Si atom -12400.206724 kJ/mol
# Density = 2.140752 g / cm^3
# Si number density = 21.456356 Si / 1000 Ang^3
#
#
#
# Elastic Constant Matrix: (Units=GPa)
#
#
# Indices 1 2 3 4 5 6 
#
# 1 130.8053 55.2924 65.2554 0.0000 0.0000 0.0000
# 2 55.2924 134.9742 72.9470 0.0000 0.0000 0.0000
# 3 65.2554 72.9470 90.6756 0.0000 0.0000 0.0000
# 4 0.0000 0.0000 0.0000 34.1325 0.0000 0.0000
# 5 0.0000 0.0000 0.0000 0.0000 -31.7050 0.0000
# 6 0.0000 0.0000 0.0000 0.0000 0.0000 40.9785
#
#
#
# Elastic Compliance Matrix: (Units=1/GPa)
#
#
# Indices 1 2 3 4 5 6 
#
# 1 0.011942 -0.000438 -0.008242 0.000000 0.000000 0.000000
# 2 -0.000438 0.013124 -0.010243 0.000000 0.000000 0.000000
# 3 -0.008242 -0.010243 0.025200 0.000000 0.000000 0.000000
# 4 0.000000 0.000000 0.000000 0.029298 0.000000 0.000000
# 5 0.000000 0.000000 0.000000 0.000000 -0.031541 0.000000
# 6 0.000000 0.000000 0.000000 0.000000 0.000000 0.024403
#
#
# Mechanical properties :
#
#
# Convention : Reuss Voigt Hill
#
# Bulk Modulus (GPa) = 80.51172 82.60496 81.55834
# Shear Modulus (GPa) = 43.70225 19.54521 31.62373
#
# Velocity S-wave (km/s) = 4.51799 3.02143 3.84326
# Velocity P-wave (km/s) = 8.05116 7.12424 7.60184
#
# Compressibility (1/GPa) = 0.01242055
#
# Stress axis : x y z
#
# Youngs Moduli (GPa) = 83.74122 76.19644 39.68253
#
# Poissons Ratio (x) = 0.03334 0.32706
# Poissons Ratio (y) = 0.03664 0.40647
# Poissons Ratio (z) = 0.69018 0.78049
#
# Static dielectric constant tensor:
#      x y z
#    x 4.174310 0.000000 0.000000 
#    y 0.000000 3.995740 0.000000 
#    z 0.000000 0.000000 3.859580 
# 
# 
# High freq. dielectric constant tensor:
#      x y z
#    x 1.853800 0.000000 0.000000 
#    y 0.000000 1.845700 0.000000 
#    z 0.000000 0.000000 1.843490 
# 
# From -- ./inp_files/24585.got.cif
#   From: 2010.03.12/outbox.cif.g09.slc.cpg/sg57_13_cif.got.tgz:24585.got - 2010.04.16 15:48:40.
