data_PCOD8234869
_publ_section_title
;
Structure prediction by ZEFSAII (Michael W. Deem and Ramdas Pophale) SiO2 
 PCOD8234869
Probable space group: P B C M
;
_chemical_formula_sum "Si O2"
_cell_formula_units_Z 32
_cell_length_a 5.068273
_cell_length_b 8.963774
_cell_length_c 26.329784
_cell_angle_alpha 90.000000
_cell_angle_beta 90.000000
_cell_angle_gamma 90.000000
_cell_volume 1196.184566
_symmetry_space_group_name_H-M "P B C M"
_symmetry_group_IT_number 57
_symmetry_cell_setting 'orthorhombic'
loop_
_space_group_symop_operation_xyz
x,y,z
-x,-y,1/2+z
x,1/2-y,-z
-x,1/2+y,1/2-z
-x,-y,-z
x,y,1/2-z
-x,1/2+y,z
x,1/2-y,1/2+z
loop_
_atom_site_type_symbol
_atom_site_label
_atom_site_fract_x
_atom_site_fract_y
_atom_site_fract_z
Si Si1 0.991649 0.819802 0.131954
Si Si2 0.746657 0.913161 0.979582
Si Si3 0.704568 0.571763 0.309669
Si Si4 0.640766 0.073848 0.394116
O O1 0.846326 0.723591 0.174489
O O2 0.165328 0.714637 0.092853
O O3 0.795217 0.917420 0.094990
O O4 0.171194 0.926158 0.165385
O O5 0.656929 0.912345 0.919445
O O6 0.765652 0.750000 0.000000
O O7 0.500000 0.000000 0.000000
O O8 0.000000 0.000000 0.000000
O O9 0.683629 0.555336 0.250000
O O10 0.407923 0.580200 0.333262
#
# Coordination Sequence:
#
# PCOD8234869 Si02
#       4
#     8   8   8   8
#     4  10  25  46  73 110 161 211 270 330 425 492
#     4  12  32  56  87 123 165 215 280 344 424 499
#     4  11  24  43  74 113 158 209 272 340 418 502
#     4  11  27  47  78 111 162 211 274 344 413 502
#
# _framework density 26.751722000000001
#
# number of rings (size 3 to 8) (size 9 to 14) (size 15 to 20)
#    0.000    1.000    0.000    3.000   14.000    8.000 
#    0.000    0.000    0.000    0.000    0.000    0.000 
#    0.000    0.000    0.000    0.000    0.000    0.000 
#
# Total GULP energy -396495.387456 kJ/mol
# GULP energy per Si atom -12390.480858 kJ/mol
# Density = 2.669083 g / cm^3
# Si number density = 26.751722 Si / 1000 Ang^3
#
#
#
# Elastic Constant Matrix: (Units=GPa)
#
#
# Indices 1 2 3 4 5 6 
#
# 1 169.8041 72.7096 45.4355 0.0000 0.0000 0.0000
# 2 72.7096 208.1477 62.1635 0.0000 0.0000 0.0000
# 3 45.4355 62.1635 135.6829 0.0000 0.0000 0.0000
# 4 0.0000 0.0000 0.0000 19.2766 0.0000 0.0000
# 5 0.0000 0.0000 0.0000 0.0000 40.9922 0.0000
# 6 0.0000 0.0000 0.0000 0.0000 0.0000 17.5586
#
#
#
# Elastic Compliance Matrix: (Units=1/GPa)
#
#
# Indices 1 2 3 4 5 6 
#
# 1 0.007163 -0.002069 -0.001451 0.000000 0.000000 0.000000
# 2 -0.002069 0.006163 -0.002131 0.000000 0.000000 0.000000
# 3 -0.001451 -0.002131 0.008832 0.000000 0.000000 0.000000
# 4 0.000000 0.000000 0.000000 0.051876 0.000000 0.000000
# 5 0.000000 0.000000 0.000000 0.000000 0.024395 0.000000
# 6 0.000000 0.000000 0.000000 0.000000 0.000000 0.056952
#
#
# Mechanical properties :
#
#
# Convention : Reuss Voigt Hill
#
# Bulk Modulus (GPa) = 92.10272 97.13909 94.62090
# Shear Modulus (GPa) = 29.35944 37.78722 33.57333
#
# Velocity S-wave (km/s) = 3.31642 3.76242 3.54644
# Velocity P-wave (km/s) = 7.01201 7.43402 7.22609
#
# Compressibility (1/GPa) = 0.01085744
#
# Stress axis : x y z
#
# Youngs Moduli (GPa) = 139.60107 162.24761 113.22127
#
# Poissons Ratio (x) = 0.33568 0.16426
# Poissons Ratio (y) = 0.28883 0.24127
# Poissons Ratio (z) = 0.20254 0.34574
#
# Static dielectric constant tensor:
#      x y z
#    x 4.873140 0.000000 0.000000 
#    y 0.000000 5.241210 0.000000 
#    z 0.000000 0.000000 5.009380 
# 
# 
# High freq. dielectric constant tensor:
#      x y z
#    x 2.093590 0.000000 0.000000 
#    y 0.000000 2.105580 0.000000 
#    z 0.000000 0.000000 2.070980 
# 
# From -- ./inp_files/29009.got.cif
#   From: 2010.03.12/outbox.cif.g09.slc.cpg/sg57_15_cif.got.tgz:29009.got - 2010.04.16 15:48:40.
