data_PCOD8234705
_publ_section_title
;
Structure prediction by ZEFSAII (Michael W. Deem and Ramdas Pophale) SiO2 
 PCOD8234705
Probable space group: P B C M
;
_chemical_formula_sum "Si O2"
_cell_formula_units_Z 64
_cell_length_a 8.848590
_cell_length_b 19.791104
_cell_length_c 17.525282
_cell_angle_alpha 90.000000
_cell_angle_beta 90.000000
_cell_angle_gamma 90.000000
_cell_volume 3069.086355
_symmetry_space_group_name_H-M "P B C M"
_symmetry_group_IT_number 57
_symmetry_cell_setting 'orthorhombic'
loop_
_space_group_symop_operation_xyz
x,y,z
-x,-y,1/2+z
x,1/2-y,-z
-x,1/2+y,1/2-z
-x,-y,-z
x,y,1/2-z
-x,1/2+y,z
x,1/2-y,1/2+z
loop_
_atom_site_type_symbol
_atom_site_label
_atom_site_fract_x
_atom_site_fract_y
_atom_site_fract_z
Si Si1 0.880617 0.851011 0.433071
Si Si2 0.557181 0.683667 0.951854
Si Si3 0.603811 0.061931 0.478506
Si Si4 0.352904 0.750170 0.167047
Si Si5 0.155525 0.389449 0.891976
Si Si6 0.091575 0.532109 0.566367
Si Si7 0.507720 0.890923 0.834818
Si Si8 0.012762 0.733190 0.163296
O O1 0.702264 0.852601 0.412269
O O2 0.889663 0.861703 0.524012
O O3 0.934806 0.779475 0.400653
O O4 0.988588 0.908992 0.394731
O O5 0.431460 0.697068 0.888466
O O6 0.606034 0.750000 0.000000
O O7 0.479594 0.632481 0.009039
O O8 0.757139 0.061156 0.526721
O O9 0.611080 0.063552 0.385343
O O10 0.500000 0.000000 0.500000
O O11 0.341504 0.785454 0.250000
O O12 0.451975 0.684365 0.173996
O O13 0.186954 0.729457 0.138226
O O14 0.120769 0.469333 0.876582
O O15 0.331936 0.383532 0.876647
O O16 0.058819 0.342017 0.836032
O O17 0.000000 0.500000 0.500000
O O18 0.521718 0.923750 0.750000
O O19 0.993238 0.761425 0.250000
#
# Coordination Sequence:
#
# PCOD8234705 Si02
#       8
#     8   8   8   8   8   8   8   8
#     4  11  22  39  63  96 126 168 219 269 335 392
#     4  12  22  39  66  95 126 165 223 268 321 392
#     4  12  22  41  66  95 131 169 216 272 324 383
#     4  10  23  40  60  93 131 170 216 272 332 388
#     4  11  21  42  64  95 125 170 218 270 328 398
#     4  10  23  39  63  95 130 166 213 272 325 390
#     4  11  22  40  65  95 129 169 213 265 327 387
#     4  11  24  40  62  93 131 171 217 276 329 391
#
# _framework density 20.853110999999998
#
# number of rings (size 3 to 8) (size 9 to 14) (size 15 to 20)
#    0.000    1.000    3.750    3.750    3.500    2.500 
#    0.000    1.875    0.000    6.000    0.000    0.000 
#    0.000    0.000    0.000    0.000    0.000    0.000 
#
# Total GULP energy -792893.289037 kJ/mol
# GULP energy per Si atom -12388.957641 kJ/mol
# Density = 2.080565 g / cm^3
# Si number density = 20.853111 Si / 1000 Ang^3
#
#
#
# Elastic Constant Matrix: (Units=GPa)
#
#
# Indices 1 2 3 4 5 6 
#
# 1 123.8305 54.7325 21.3744 0.0000 0.0000 0.0000
# 2 54.7325 107.5261 40.0496 0.0000 0.0000 0.0000
# 3 21.3744 40.0496 86.4397 0.0000 0.0000 0.0000
# 4 0.0000 0.0000 0.0000 23.7646 0.0000 0.0000
# 5 0.0000 0.0000 0.0000 0.0000 25.3495 0.0000
# 6 0.0000 0.0000 0.0000 0.0000 0.0000 34.2210
#
#
#
# Elastic Compliance Matrix: (Units=1/GPa)
#
#
# Indices 1 2 3 4 5 6 
#
# 1 0.010421 -0.005251 -0.000144 0.000000 0.000000 0.000000
# 2 -0.005251 0.013886 -0.005135 0.000000 0.000000 0.000000
# 3 -0.000144 -0.005135 0.013984 0.000000 0.000000 0.000000
# 4 0.000000 0.000000 0.000000 0.042079 0.000000 0.000000
# 5 0.000000 0.000000 0.000000 0.000000 0.039449 0.000000
# 6 0.000000 0.000000 0.000000 0.000000 0.000000 0.029222
#
#
# Mechanical properties :
#
#
# Convention : Reuss Voigt Hill
#
# Bulk Modulus (GPa) = 58.03737 61.12327 59.58032
# Shear Modulus (GPa) = 28.43433 30.10966 29.27199
#
# Velocity S-wave (km/s) = 3.69664 3.80398 3.75069
# Velocity P-wave (km/s) = 6.79059 6.97629 6.88407
#
# Compressibility (1/GPa) = 0.01723028
#
# Stress axis : x y z
#
# Youngs Moduli (GPa) = 95.95710 72.01743 71.51246
#
# Poissons Ratio (x) = 0.37816 0.01030
# Poissons Ratio (y) = 0.50387 0.36722
# Poissons Ratio (z) = 0.01382 0.36981
#
# Static dielectric constant tensor:
#      x y z
#    x 3.836830 0.000000 0.000000 
#    y 0.000000 74.345480 0.000000 
#    z 0.000000 0.000000 3.596810 
# 
# 
# High freq. dielectric constant tensor:
#      x y z
#    x 1.832530 0.000000 0.000000 
#    y 0.000000 1.810520 0.000000 
#    z 0.000000 0.000000 1.799690 
# 
# From -- ./inp_files/21417.got.cif
#   From: 2010.03.12/outbox.cif.g09.slc.cpg/sg57_11_cif.got.tgz:21417.got - 2010.04.16 15:48:40.
