data_PCOD8234503
_publ_section_title
;
Structure prediction by ZEFSAII (Michael W. Deem and Ramdas Pophale) SiO2 
 PCOD8234503
Probable space group: P B C M
;
_chemical_formula_sum "Si O2"
_cell_formula_units_Z 40
_cell_length_a 11.877141
_cell_length_b 9.075220
_cell_length_c 16.103389
_cell_angle_alpha 90.000000
_cell_angle_beta 90.000000
_cell_angle_gamma 90.000000
_cell_volume 1735.746740
_symmetry_space_group_name_H-M "P B C M"
_symmetry_group_IT_number 57
_symmetry_cell_setting 'orthorhombic'
loop_
_space_group_symop_operation_xyz
x,y,z
-x,-y,1/2+z
x,1/2-y,-z
-x,1/2+y,1/2-z
-x,-y,-z
x,y,1/2-z
-x,1/2+y,z
x,1/2-y,1/2+z
loop_
_atom_site_type_symbol
_atom_site_label
_atom_site_fract_x
_atom_site_fract_y
_atom_site_fract_z
Si Si1 0.980630 0.776372 0.844850
Si Si2 0.409293 0.925366 0.595360
Si Si3 0.617657 0.398548 0.400496
Si Si4 0.129919 0.951379 0.415238
Si Si5 0.791812 0.878792 0.063499
O O1 0.017082 0.755252 0.750000
O O2 0.866355 0.689008 0.864096
O O3 0.081400 0.714455 0.904156
O O4 0.955489 0.947377 0.862295
O O5 0.389595 0.766170 0.637970
O O6 0.411912 0.896205 0.497462
O O7 0.522986 0.992125 0.636594
O O8 0.309703 0.042230 0.611513
O O9 0.741867 0.460768 0.381412
O O10 0.132547 0.003272 0.511334
O O11 0.749108 0.750000 0.000000
#
# Coordination Sequence:
#
# PCOD8234503 Si02
#       5
#     8   8   8   8   8
#     4  11  23  39  60  82 116 161 202 243 297 359
#     4   9  18  31  56  87 123 149 189 242 305 352
#     4   9  19  32  55  88 121 150 190 244 298 357
#     4  10  22  39  58  89 119 156 198 251 298 356
#     4   9  20  36  60  89 122 155 200 250 299 354
#
# _framework density 23.044836
#
# number of rings (size 3 to 8) (size 9 to 14) (size 15 to 20)
#    0.000    2.400    0.000    1.200   14.000    0.000 
#    7.200    0.000    0.000    2.400    0.000    0.000 
#    0.000    0.000    0.000    0.000    0.000    0.000 
#
# Total GULP energy -495758.110647 kJ/mol
# GULP energy per Si atom -12393.952766 kJ/mol
# Density = 2.299239 g / cm^3
# Si number density = 23.044836 Si / 1000 Ang^3
#
#
#
# Elastic Constant Matrix: (Units=GPa)
#
#
# Indices 1 2 3 4 5 6 
#
# 1 97.4257 50.1749 -0.5698 0.0000 0.0000 0.0000
# 2 50.1749 118.4294 8.4038 0.0000 0.0000 0.0000
# 3 -0.5698 8.4038 30.3546 0.0000 0.0000 0.0000
# 4 0.0000 0.0000 0.0000 14.1519 0.0000 0.0000
# 5 0.0000 0.0000 0.0000 0.0000 4.9747 0.0000
# 6 0.0000 0.0000 0.0000 0.0000 0.0000 52.7768
#
#
#
# Elastic Compliance Matrix: (Units=1/GPa)
#
#
# Indices 1 2 3 4 5 6 
#
# 1 0.013228 -0.005735 0.001836 0.000000 0.000000 0.000000
# 2 -0.005735 0.011099 -0.003180 0.000000 0.000000 0.000000
# 3 0.001836 -0.003180 0.033859 0.000000 0.000000 0.000000
# 4 0.000000 0.000000 0.000000 0.070662 0.000000 0.000000
# 5 0.000000 0.000000 0.000000 0.000000 0.201019 0.000000
# 6 0.000000 0.000000 0.000000 0.000000 0.000000 0.018948
#
#
# Mechanical properties :
#
#
# Convention : Reuss Voigt Hill
#
# Bulk Modulus (GPa) = 22.71282 40.24750 31.48016
# Shear Modulus (GPa) = 13.23980 26.92738 20.08359
#
# Velocity S-wave (km/s) = 2.39952 3.42201 2.95532
# Velocity P-wave (km/s) = 4.18978 5.75468 5.03342
#
# Compressibility (1/GPa) = 0.04402799
#
# Stress axis : x y z
#
# Youngs Moduli (GPa) = 75.59482 90.09674 29.53434
#
# Poissons Ratio (x) = 0.51668 -0.05423
# Poissons Ratio (y) = 0.43352 0.09393
# Poissons Ratio (z) = -0.13879 0.28655
#
# Static dielectric constant tensor:
#      x y z
#    x 4.180870 0.000000 0.000000 
#    y 0.000000 4.611540 0.000000 
#    z 0.000000 0.000000 3.328580 
# 
# 
# High freq. dielectric constant tensor:
#      x y z
#    x 1.915280 0.000000 0.000000 
#    y 0.000000 1.931960 0.000000 
#    z 0.000000 0.000000 1.832670 
# 
# From -- ./inp_files/21617.got.cif
#   From: 2010.03.12/outbox.cif.g09.slc.cpg/sg57_11_cif.got.tgz:21617.got - 2010.04.16 15:48:40.
