data_PCOD8234474
_publ_section_title
;
Structure prediction by ZEFSAII (Michael W. Deem and Ramdas Pophale) SiO2 
 PCOD8234474
Probable space group: P B C M
;
_chemical_formula_sum "Si O2"
_cell_formula_units_Z 64
_cell_length_a 19.933481
_cell_length_b 9.298541
_cell_length_c 18.516763
_cell_angle_alpha 90.000000
_cell_angle_beta 90.000000
_cell_angle_gamma 90.000000
_cell_volume 3432.124432
_symmetry_space_group_name_H-M "P B C M"
_symmetry_group_IT_number 57
_symmetry_cell_setting 'orthorhombic'
loop_
_space_group_symop_operation_xyz
x,y,z
-x,-y,1/2+z
x,1/2-y,-z
-x,1/2+y,1/2-z
-x,-y,-z
x,y,1/2-z
-x,1/2+y,z
x,1/2-y,1/2+z
loop_
_atom_site_type_symbol
_atom_site_label
_atom_site_fract_x
_atom_site_fract_y
_atom_site_fract_z
Si Si1 0.335181 0.376280 0.555371
Si Si2 0.808001 0.879763 0.586248
Si Si3 0.679413 0.112112 0.047226
Si Si4 0.064033 0.444965 0.335204
Si Si5 0.064891 0.388540 0.833684
Si Si6 0.424868 0.912287 0.832855
Si Si7 0.439085 0.252794 0.167153
Si Si8 0.186981 0.057146 0.574177
O O1 0.312869 0.250000 0.500000
O O2 0.267813 0.441415 0.593314
O O3 0.363183 0.503730 0.504538
O O4 0.387178 0.326326 0.614959
O O5 0.863453 0.949560 0.638608
O O6 0.837194 0.914747 0.507277
O O7 0.797391 0.712920 0.607840
O O8 0.633820 0.148142 0.116370
O O9 0.747808 0.043472 0.077689
O O10 0.697697 0.250000 0.000000
O O11 0.075390 0.469986 0.250000
O O12 0.056102 0.277547 0.354870
O O13 0.127203 0.512676 0.378396
O O14 0.997705 0.523218 0.365579
O O15 0.065213 0.415616 0.750000
O O16 0.401727 0.894870 0.750000
O O17 0.488910 0.814204 0.849085
O O18 0.441741 0.078315 0.850004
O O19 0.417523 0.224019 0.250000
#
# Coordination Sequence:
#
# PCOD8234474 Si02
#       8
#     8   8   8   8   8   8   8   8
#     4  11  19  38  59  80 111 143 184 231 274 323
#     4   9  16  32  56  74 101 138 174 223 263 311
#     4  11  23  38  57  85 113 147 185 230 279 330
#     4   9  18  33  53  76 104 137 175 219 263 319
#     4   9  18  32  51  76 104 137 177 217 265 320
#     4  10  22  40  59  83 114 147 185 228 275 328
#     4  10  22  38  59  85 113 147 185 228 277 328
#     4   9  17  34  53  75 105 136 176 216 267 317
#
# _framework density 18.647342999999999
#
# number of rings (size 3 to 8) (size 9 to 14) (size 15 to 20)
#    0.000    2.250    3.750    0.000    1.750    2.500 
#    4.500    2.500    0.000    0.750    0.000    0.000 
#    0.000    0.000    0.000    0.000    0.000    0.000 
#
# Total GULP energy -793221.293652 kJ/mol
# GULP energy per Si atom -12394.082713 kJ/mol
# Density = 1.860490 g / cm^3
# Si number density = 18.647343 Si / 1000 Ang^3
#
#
#
# Elastic Constant Matrix: (Units=GPa)
#
#
# Indices 1 2 3 4 5 6 
#
# 1 128.0163 29.1209 65.4934 0.0000 0.0000 0.0000
# 2 29.1209 40.9125 27.9911 0.0000 0.0000 0.0000
# 3 65.4934 27.9911 59.6979 0.0000 0.0000 0.0000
# 4 0.0000 0.0000 0.0000 22.8524 0.0000 0.0000
# 5 0.0000 0.0000 0.0000 0.0000 35.8290 0.0000
# 6 0.0000 0.0000 0.0000 0.0000 0.0000 29.8513
#
#
#
# Elastic Compliance Matrix: (Units=1/GPa)
#
#
# Indices 1 2 3 4 5 6 
#
# 1 0.017834 0.001019 -0.020043 0.000000 0.000000 0.000000
# 2 0.001019 0.036045 -0.018018 0.000000 0.000000 0.000000
# 3 -0.020043 -0.018018 0.047188 0.000000 0.000000 0.000000
# 4 0.000000 0.000000 0.000000 0.043759 0.000000 0.000000
# 5 0.000000 0.000000 0.000000 0.000000 0.027910 0.000000
# 6 0.000000 0.000000 0.000000 0.000000 0.000000 0.033499
#
#
# Mechanical properties :
#
#
# Convention : Reuss Voigt Hill
#
# Bulk Modulus (GPa) = 37.06187 52.64859 44.85523
# Shear Modulus (GPa) = 17.28232 24.77464 21.02848
#
# Velocity S-wave (km/s) = 3.04764 3.64893 3.36176
# Velocity P-wave (km/s) = 5.68352 6.78587 6.25901
#
# Compressibility (1/GPa) = 0.02698191
#
# Stress axis : x y z
#
# Youngs Moduli (GPa) = 56.07413 27.74321 21.19196
#
# Poissons Ratio (x) = -0.02827 0.42474
# Poissons Ratio (y) = -0.05713 0.38185
# Poissons Ratio (z) = 1.12387 0.49989
#
# Static dielectric constant tensor:
#      x y z
#    x 3.483360 0.000000 0.000000 
#    y 0.000000 3.376150 0.000000 
#    z 0.000000 0.000000 3.420940 
# 
# 
# High freq. dielectric constant tensor:
#      x y z
#    x 1.725660 0.000000 0.000000 
#    y 0.000000 1.707410 0.000000 
#    z 0.000000 0.000000 1.718330 
# 
# From -- ./inp_files/23049.got.cif
#   From: 2010.03.12/outbox.cif.g09.slc.cpg/sg57_12_cif.got.tgz:23049.got - 2010.04.16 15:48:40.
