data_PCOD8234775
_publ_section_title
;
Structure prediction by ZEFSAII (Michael W. Deem and Ramdas Pophale) SiO2 
 PCOD8234775
Probable space group: P B C M
;
_chemical_formula_sum "Si O2"
_cell_formula_units_Z 40
_cell_length_a 5.970662
_cell_length_b 14.012056
_cell_length_c 22.280527
_cell_angle_alpha 90.000000
_cell_angle_beta 90.000000
_cell_angle_gamma 90.000000
_cell_volume 1864.016746
_symmetry_space_group_name_H-M "P B C M"
_symmetry_group_IT_number 57
_symmetry_cell_setting 'orthorhombic'
loop_
_space_group_symop_operation_xyz
x,y,z
-x,-y,1/2+z
x,1/2-y,-z
-x,1/2+y,1/2-z
-x,-y,-z
x,y,1/2-z
-x,1/2+y,z
x,1/2-y,1/2+z
loop_
_atom_site_type_symbol
_atom_site_label
_atom_site_fract_x
_atom_site_fract_y
_atom_site_fract_z
Si Si1 0.809227 0.295683 0.911417
Si Si2 0.183294 0.285133 0.680037
Si Si3 0.130047 0.401606 0.994594
Si Si4 0.442776 0.148370 0.601787
Si Si5 0.439435 0.437082 0.886869
O O1 0.640061 0.210029 0.930177
O O2 0.684005 0.390556 0.888194
O O3 0.954261 0.262608 0.854435
O O4 0.966106 0.320875 0.968093
O O5 0.136885 0.278409 0.750000
O O6 0.365358 0.206443 0.660285
O O7 0.278423 0.390339 0.663282
O O8 0.342274 0.417951 0.952627
O O9 0.230084 0.364978 0.057639
O O10 0.000000 0.500000 0.000000
O O11 0.541670 0.049122 0.625435
#
# Coordination Sequence:
#
# PCOD8234775 Si02
#       5
#     8   8   8   8   8
#     4  10  24  42  63  95 137 172 216 268 332 384
#     4  10  25  45  66  94 128 173 232 279 326 384
#     4  11  23  41  67  98 140 172 210 264 329 408
#     4  11  24  41  69 101 134 173 224 264 336 394
#     4  10  23  43  65  96 132 174 214 272 329 395
#
# _framework density 21.459033999999999
#
# number of rings (size 3 to 8) (size 9 to 14) (size 15 to 20)
#    0.000    1.600    2.000    0.600    2.800   12.800 
#    0.000    2.000    0.000    0.000    0.000    0.000 
#    0.000    0.000    0.000    0.000    0.000    0.000 
#
# Total GULP energy -496110.774271 kJ/mol
# GULP energy per Si atom -12402.769357 kJ/mol
# Density = 2.141019 g / cm^3
# Si number density = 21.459034 Si / 1000 Ang^3
#
#
#
# Elastic Constant Matrix: (Units=GPa)
#
#
# Indices 1 2 3 4 5 6 
#
# 1 106.5959 53.4518 34.5520 0.0000 0.0000 0.0000
# 2 53.4518 165.6160 42.8628 0.0000 0.0000 0.0000
# 3 34.5520 42.8628 108.3671 0.0000 0.0000 0.0000
# 4 0.0000 0.0000 0.0000 20.8651 0.0000 0.0000
# 5 0.0000 0.0000 0.0000 0.0000 22.1442 0.0000
# 6 0.0000 0.0000 0.0000 0.0000 0.0000 41.8075
#
#
#
# Elastic Compliance Matrix: (Units=1/GPa)
#
#
# Indices 1 2 3 4 5 6 
#
# 1 0.011774 -0.003151 -0.002508 0.000000 0.000000 0.000000
# 2 -0.003151 0.007570 -0.001989 0.000000 0.000000 0.000000
# 3 -0.002508 -0.001989 0.010814 0.000000 0.000000 0.000000
# 4 0.000000 0.000000 0.000000 0.047927 0.000000 0.000000
# 5 0.000000 0.000000 0.000000 0.000000 0.045158 0.000000
# 6 0.000000 0.000000 0.000000 0.000000 0.000000 0.023919
#
#
# Mechanical properties :
#
#
# Convention : Reuss Voigt Hill
#
# Bulk Modulus (GPa) = 67.28599 71.36802 69.32701
# Shear Modulus (GPa) = 29.86617 33.61086 31.73851
#
# Velocity S-wave (km/s) = 3.73470 3.96192 3.84999
# Velocity P-wave (km/s) = 7.07255 7.36608 7.22080
#
# Compressibility (1/GPa) = 0.01486193
#
# Stress axis : x y z
#
# Youngs Moduli (GPa) = 84.93185 132.10155 92.46949
#
# Poissons Ratio (x) = 0.41625 0.23189
# Poissons Ratio (y) = 0.26762 0.18397
# Poissons Ratio (z) = 0.21299 0.26281
#
# Static dielectric constant tensor:
#      x y z
#    x 3.992050 0.000000 0.000000 
#    y 0.000000 3.745030 0.000000 
#    z 0.000000 0.000000 3.449480 
# 
# 
# High freq. dielectric constant tensor:
#      x y z
#    x 1.861420 0.000000 0.000000 
#    y 0.000000 1.856100 0.000000 
#    z 0.000000 0.000000 1.807070 
# 
# From -- ./inp_files/26110.got.cif
#   From: 2010.03.12/outbox.cif.g09.slc.cpg/sg57_14_cif.got.tgz:26110.got - 2010.04.16 15:48:40.
