data_PCOD8234366
_publ_section_title
;
Structure prediction by ZEFSAII (Michael W. Deem and Ramdas Pophale) SiO2 
 PCOD8234366
Probable space group: P B C M
;
_chemical_formula_sum "Si O2"
_cell_formula_units_Z 56
_cell_length_a 13.624491
_cell_length_b 11.074620
_cell_length_c 17.826186
_cell_angle_alpha 90.000000
_cell_angle_beta 90.000000
_cell_angle_gamma 90.000000
_cell_volume 2689.722980
_symmetry_space_group_name_H-M "P B C M"
_symmetry_group_IT_number 57
_symmetry_cell_setting 'orthorhombic'
loop_
_space_group_symop_operation_xyz
x,y,z
-x,-y,1/2+z
x,1/2-y,-z
-x,1/2+y,1/2-z
-x,-y,-z
x,y,1/2-z
-x,1/2+y,z
x,1/2-y,1/2+z
loop_
_atom_site_type_symbol
_atom_site_label
_atom_site_fract_x
_atom_site_fract_y
_atom_site_fract_z
Si Si1 0.633373 0.501724 0.338354
Si Si2 0.887910 0.139581 0.165316
Si Si3 0.754402 0.686275 0.071607
Si Si4 0.409470 0.945272 0.837095
Si Si5 0.038216 0.122098 0.039867
Si Si6 0.770180 0.598329 0.832712
Si Si7 0.703227 0.258571 0.089030
O O1 0.659164 0.494350 0.250000
O O2 0.675785 0.622998 0.375138
O O3 0.517355 0.504774 0.351509
O O4 0.679892 0.393007 0.384418
O O5 0.905238 0.187598 0.250000
O O6 0.990066 0.137880 0.121548
O O7 0.806498 0.222079 0.125410
O O8 0.852592 0.002538 0.166719
O O9 0.807907 0.793594 0.116495
O O10 0.844412 0.599984 0.047005
O O11 0.701811 0.750000 0.000000
O O12 0.391038 0.912591 0.750000
O O13 0.387243 0.824565 0.883956
O O14 0.333664 0.047730 0.863966
O O15 0.014732 0.250000 0.000000
O O16 0.000000 0.000000 0.000000
O O17 0.752390 0.649712 0.750000
O O18 0.713054 0.250000 0.000000
#
# Coordination Sequence:
#
# PCOD8234366 Si02
#       7
#     8   8   8   8   8   8   8
#     4  11  25  42  64  96 132 171 219 273 325 383
#     4  10  21  40  68  94 125 169 217 265 324 403
#     4  11  25  40  63  93 129 166 212 270 322 393
#     4   9  21  41  65  89 127 175 215 261 325 393
#     4  11  25  44  68  95 131 170 213 267 339 398
#     4   9  19  40  64  88 124 170 211 255 322 390
#     4  11  24  39  65  95 131 168 219 272 324 390
#
# _framework density 20.819987999999999
#
# number of rings (size 3 to 8) (size 9 to 14) (size 15 to 20)
#    0.000    1.714    0.000    4.714   10.000    2.286 
#    0.000    0.714    0.000    0.000    0.000    0.000 
#    0.000    0.000    0.000    0.000    0.000    0.000 
#
# Total GULP energy -694311.056761 kJ/mol
# GULP energy per Si atom -12398.411728 kJ/mol
# Density = 2.077260 g / cm^3
# Si number density = 20.819988 Si / 1000 Ang^3
#
#
#
# Elastic Constant Matrix: (Units=GPa)
#
#
# Indices 1 2 3 4 5 6 
#
# 1 60.3849 6.7712 28.9318 0.0000 0.0000 0.0000
# 2 6.7712 79.0101 42.4123 0.0000 0.0000 0.0000
# 3 28.9318 42.4123 135.6639 0.0000 0.0000 0.0000
# 4 0.0000 0.0000 0.0000 39.5087 0.0000 0.0000
# 5 0.0000 0.0000 0.0000 0.0000 31.1797 0.0000
# 6 0.0000 0.0000 0.0000 0.0000 0.0000 21.4297
#
#
#
# Elastic Compliance Matrix: (Units=1/GPa)
#
#
# Indices 1 2 3 4 5 6 
#
# 1 0.018472 0.000639 -0.004139 0.000000 0.000000 0.000000
# 2 0.000639 0.015231 -0.004898 0.000000 0.000000 0.000000
# 3 -0.004139 -0.004898 0.009785 0.000000 0.000000 0.000000
# 4 0.000000 0.000000 0.000000 0.025311 0.000000 0.000000
# 5 0.000000 0.000000 0.000000 0.000000 0.032072 0.000000
# 6 0.000000 0.000000 0.000000 0.000000 0.000000 0.046664
#
#
# Mechanical properties :
#
#
# Convention : Reuss Voigt Hill
#
# Bulk Modulus (GPa) = 37.46478 47.92105 42.69292
# Shear Modulus (GPa) = 28.86355 31.55318 30.20836
#
# Velocity S-wave (km/s) = 3.72740 3.89720 3.81324
# Velocity P-wave (km/s) = 6.04635 6.58162 6.31965
#
# Compressibility (1/GPa) = 0.02669173
#
# Stress axis : x y z
#
# Youngs Moduli (GPa) = 54.13622 65.65550 102.19657
#
# Poissons Ratio (x) = -0.04194 0.42300
# Poissons Ratio (y) = -0.03458 0.50054
# Poissons Ratio (z) = 0.22407 0.32157
#
# Static dielectric constant tensor:
#      x y z
#    x 3.667430 0.000000 0.000000 
#    y 0.000000 3.750410 0.000000 
#    z 0.000000 0.000000 4.196890 
# 
# 
# High freq. dielectric constant tensor:
#      x y z
#    x 1.808680 0.000000 0.000000 
#    y 0.000000 1.816640 0.000000 
#    z 0.000000 0.000000 1.828300 
# 
# From -- ./inp_files/18510.got.cif
#   From: 2010.03.12/outbox.cif.g09.slc.cpg/sg57_10_cif.got.tgz:18510.got - 2010.04.16 15:48:40.
