data_PCOD8234107
_publ_section_title
;
Structure prediction by ZEFSAII (Michael W. Deem and Ramdas Pophale) SiO2 
 PCOD8234107
Probable space group: P B C M
;
_chemical_formula_sum "Si O2"
_cell_formula_units_Z 48
_cell_length_a 9.927731
_cell_length_b 28.752934
_cell_length_c 8.798922
_cell_angle_alpha 90.000000
_cell_angle_beta 90.000000
_cell_angle_gamma 90.000000
_cell_volume 2511.664552
_symmetry_space_group_name_H-M "P B C M"
_symmetry_group_IT_number 57
_symmetry_cell_setting 'orthorhombic'
loop_
_space_group_symop_operation_xyz
x,y,z
-x,-y,1/2+z
x,1/2-y,-z
-x,1/2+y,1/2-z
-x,-y,-z
x,y,1/2-z
-x,1/2+y,z
x,1/2-y,1/2+z
loop_
_atom_site_type_symbol
_atom_site_label
_atom_site_fract_x
_atom_site_fract_y
_atom_site_fract_z
Si Si1 0.775741 0.800044 0.430086
Si Si2 0.497795 0.699877 0.070274
Si Si3 0.887790 0.969225 0.927428
Si Si4 0.289290 0.880239 0.572318
Si Si5 0.979486 0.631220 0.428642
Si Si6 0.371533 0.976631 0.429220
O O1 0.801560 0.750000 0.500000
O O2 0.761482 0.797106 0.250000
O O3 0.636693 0.820349 0.500044
O O4 0.905633 0.829702 0.474572
O O5 0.516129 0.705263 0.250000
O O6 0.377814 0.664646 0.028847
O O7 0.461801 0.750000 0.000000
O O8 0.906028 0.974046 0.750000
O O9 0.905440 0.916123 0.977344
O O10 0.746046 0.988865 0.983231
O O11 0.000000 0.000000 0.000000
O O12 0.297050 0.891337 0.750000
O O13 0.347947 0.924560 0.486285
O O14 0.135853 0.870415 0.522536
O O15 0.964830 0.641681 0.250000
O O16 0.386131 0.974810 0.250000
O O17 0.500000 0.000000 0.500000
#
# Coordination Sequence:
#
# PCOD8234107 Si02
#       6
#     8   8   8   8   8   8
#     4  11  23  40  62  89 118 153 195 240 291 347
#     4  10  21  39  62  87 116 151 192 237 292 350
#     4  10  21  38  61  85 117 156 196 239 290 344
#     4  10  22  40  62  87 118 156 194 240 297 348
#     4  10  21  39  61  87 119 156 193 240 295 349
#     4  11  24  39  58  88 120 157 200 244 292 347
#
# _framework density 19.110831999999998
#
# number of rings (size 3 to 8) (size 9 to 14) (size 15 to 20)
#    0.000    1.667    1.667    3.500    2.333    4.000 
#    0.000    1.667    0.000    0.000    0.000    0.000 
#    0.000    0.000    0.000    0.000    0.000    0.000 
#
# Total GULP energy -595289.592629 kJ/mol
# GULP energy per Si atom -12401.866513 kJ/mol
# Density = 1.906734 g / cm^3
# Si number density = 19.110832 Si / 1000 Ang^3
#
#
#
# Elastic Constant Matrix: (Units=GPa)
#
#
# Indices 1 2 3 4 5 6 
#
# 1 174.5556 95.0026 64.5277 0.0000 0.0000 0.0000
# 2 95.0026 116.9929 57.3998 0.0000 0.0000 0.0000
# 3 64.5277 57.3998 83.1803 0.0000 0.0000 0.0000
# 4 0.0000 0.0000 0.0000 33.8951 0.0000 0.0000
# 5 0.0000 0.0000 0.0000 0.0000 30.8131 0.0000
# 6 0.0000 0.0000 0.0000 0.0000 0.0000 44.1955
#
#
#
# Elastic Compliance Matrix: (Units=1/GPa)
#
#
# Indices 1 2 3 4 5 6 
#
# 1 0.010920 -0.007123 -0.003556 0.000000 0.000000 0.000000
# 2 -0.007123 0.017569 -0.006598 0.000000 0.000000 0.000000
# 3 -0.003556 -0.006598 0.019334 0.000000 0.000000 0.000000
# 4 0.000000 0.000000 0.000000 0.029503 0.000000 0.000000
# 5 0.000000 0.000000 0.000000 0.000000 0.032454 0.000000
# 6 0.000000 0.000000 0.000000 0.000000 0.000000 0.022627
#
#
# Mechanical properties :
#
#
# Convention : Reuss Voigt Hill
#
# Bulk Modulus (GPa) = 75.36503 89.84322 82.60412
# Shear Modulus (GPa) = 29.17459 32.30066 30.73763
#
# Velocity S-wave (km/s) = 3.91141 4.11563 4.01482
# Velocity P-wave (km/s) = 7.74082 8.34855 8.05042
#
# Compressibility (1/GPa) = 0.01326875
#
# Stress axis : x y z
#
# Youngs Moduli (GPa) = 91.57530 56.91993 51.72299
#
# Poissons Ratio (x) = 0.40542 0.18393
# Poissons Ratio (y) = 0.65226 0.34127
# Poissons Ratio (z) = 0.32565 0.37555
#
# Static dielectric constant tensor:
#      x y z
#    x 3.754100 0.000000 0.000000 
#    y 0.000000 3.426420 0.000000 
#    z 0.000000 0.000000 3.524540 
# 
# 
# High freq. dielectric constant tensor:
#      x y z
#    x 1.756750 0.000000 0.000000 
#    y 0.000000 1.750760 0.000000 
#    z 0.000000 0.000000 1.746030 
# 
# From -- ./inp_files/2069.got.cif
#   From: 2010.03.12/outbox.cif.g09.slc.cpg/sg57_2_cif.got.tgz:2069.got - 2010.04.16 15:48:40.
