data_PCOD8234309
_publ_section_title
;
Structure prediction by ZEFSAII (Michael W. Deem and Ramdas Pophale) SiO2 
 PCOD8234309
Probable space group: P B C M
;
_chemical_formula_sum "Si O2"
_cell_formula_units_Z 64
_cell_length_a 16.931166
_cell_length_b 11.029430
_cell_length_c 16.796962
_cell_angle_alpha 90.000000
_cell_angle_beta 90.000000
_cell_angle_gamma 90.000000
_cell_volume 3136.683332
_symmetry_space_group_name_H-M "P B C M"
_symmetry_group_IT_number 57
_symmetry_cell_setting 'orthorhombic'
loop_
_space_group_symop_operation_xyz
x,y,z
-x,-y,1/2+z
x,1/2-y,-z
-x,1/2+y,1/2-z
-x,-y,-z
x,y,1/2-z
-x,1/2+y,z
x,1/2-y,1/2+z
loop_
_atom_site_type_symbol
_atom_site_label
_atom_site_fract_x
_atom_site_fract_y
_atom_site_fract_z
Si Si1 0.419231 0.628883 0.552429
Si Si2 0.177047 0.894006 0.896340
Si Si3 0.048149 0.729277 0.840702
Si Si4 0.401753 0.119392 0.540870
Si Si5 0.260358 0.380813 0.161106
Si Si6 0.721545 0.174692 0.657077
Si Si7 0.873378 0.802263 0.658572
Si Si8 0.849266 0.040341 0.576781
O O1 0.407215 0.750000 0.500000
O O2 0.390841 0.501169 0.513425
O O3 0.510426 0.616356 0.577728
O O4 0.368588 0.651148 0.631854
O O5 0.090039 0.856423 0.864901
O O6 0.237707 0.781676 0.893657
O O7 0.210971 0.995660 0.838616
O O8 0.174612 0.944538 0.985530
O O9 0.072773 0.697573 0.750000
O O10 0.079657 0.629696 0.901596
O O11 0.954442 0.728466 0.849643
O O12 0.387725 0.250000 0.500000
O O13 0.338769 0.109092 0.610070
O O14 0.288880 0.353346 0.250000
O O15 0.201235 0.276762 0.131306
O O16 0.723978 0.204099 0.750000
O O17 0.773306 0.057299 0.634403
O O18 0.864770 0.848041 0.750000
O O19 0.880221 0.906923 0.593752
#
# Coordination Sequence:
#
# PCOD8234309 Si02
#       8
#     8   8   8   8   8   8   8   8
#     4  10  21  41  66  93 126 165 211 253 310 375
#     4  11  23  39  62  90 121 157 203 260 310 372
#     4  10  21  40  62  84 117 158 203 256 312 360
#     4  10  23  41  64  94 129 167 203 256 316 375
#     4  11  24  41  61  89 125 164 204 247 313 379
#     4  11  21  36  64  94 121 157 207 257 308 365
#     4  10  24  40  59  85 118 163 207 252 310 378
#     4  11  22  39  59  88 121 157 204 256 310 368
#
# _framework density 20.403717
#
# number of rings (size 3 to 8) (size 9 to 14) (size 15 to 20)
#    0.000    1.500    0.000    6.750    5.250    1.000 
#    2.250    0.000    0.000    4.500    0.000    0.000 
#    0.000    0.000    0.000    0.000    0.000    0.000 
#
# Total GULP energy -793466.259548 kJ/mol
# GULP energy per Si atom -12397.910305 kJ/mol
# Density = 2.035728 g / cm^3
# Si number density = 20.403717 Si / 1000 Ang^3
#
#
#
# Elastic Constant Matrix: (Units=GPa)
#
#
# Indices 1 2 3 4 5 6 
#
# 1 112.3462 27.0892 57.4348 0.0000 0.0000 0.0000
# 2 27.0892 85.9874 16.8808 0.0000 0.0000 0.0000
# 3 57.4348 16.8808 85.4094 0.0000 0.0000 0.0000
# 4 0.0000 0.0000 0.0000 28.5280 0.0000 0.0000
# 5 0.0000 0.0000 0.0000 0.0000 34.3535 0.0000
# 6 0.0000 0.0000 0.0000 0.0000 0.0000 20.5000
#
#
#
# Elastic Compliance Matrix: (Units=1/GPa)
#
#
# Indices 1 2 3 4 5 6 
#
# 1 0.014139 -0.002692 -0.008976 0.000000 0.000000 0.000000
# 2 -0.002692 0.012612 -0.000682 0.000000 0.000000 0.000000
# 3 -0.008976 -0.000682 0.017879 0.000000 0.000000 0.000000
# 4 0.000000 0.000000 0.000000 0.035053 0.000000 0.000000
# 5 0.000000 0.000000 0.000000 0.000000 0.029109 0.000000
# 6 0.000000 0.000000 0.000000 0.000000 0.000000 0.048781
#
#
# Mechanical properties :
#
#
# Convention : Reuss Voigt Hill
#
# Bulk Modulus (GPa) = 50.17769 54.06141 52.11955
# Shear Modulus (GPa) = 26.46675 28.83217 27.64946
#
# Velocity S-wave (km/s) = 3.60551 3.76318 3.68519
# Velocity P-wave (km/s) = 6.47910 6.74058 6.61113
#
# Compressibility (1/GPa) = 0.01992917
#
# Stress axis : x y z
#
# Youngs Moduli (GPa) = 70.72673 79.29161 55.93120
#
# Poissons Ratio (x) = 0.21347 0.50203
# Poissons Ratio (y) = 0.19041 0.03816
# Poissons Ratio (z) = 0.63483 0.05410
#
# Static dielectric constant tensor:
#      x y z
#    x 3.801530 0.000000 0.000000 
#    y 0.000000 3.888360 0.000000 
#    z 0.000000 0.000000 3.506470 
# 
# 
# High freq. dielectric constant tensor:
#      x y z
#    x 1.807370 0.000000 0.000000 
#    y 0.000000 1.802720 0.000000 
#    z 0.000000 0.000000 1.787390 
# 
# From -- ./inp_files/19152.got.cif
#   From: 2010.03.12/outbox.cif.g09.slc.cpg/sg57_10_cif.got.tgz:19152.got - 2010.04.16 15:48:40.
