data_PCOD8234628
_publ_section_title
;
Structure prediction by ZEFSAII (Michael W. Deem and Ramdas Pophale) SiO2 
 PCOD8234628
Probable space group: P B C M
;
_chemical_formula_sum "Si O2"
_cell_formula_units_Z 64
_cell_length_a 8.973056
_cell_length_b 21.068448
_cell_length_c 14.262686
_cell_angle_alpha 90.000000
_cell_angle_beta 90.000000
_cell_angle_gamma 90.000000
_cell_volume 2696.337451
_symmetry_space_group_name_H-M "P B C M"
_symmetry_group_IT_number 57
_symmetry_cell_setting 'orthorhombic'
loop_
_space_group_symop_operation_xyz
x,y,z
-x,-y,1/2+z
x,1/2-y,-z
-x,1/2+y,1/2-z
-x,-y,-z
x,y,1/2-z
-x,1/2+y,z
x,1/2-y,1/2+z
loop_
_atom_site_type_symbol
_atom_site_label
_atom_site_fract_x
_atom_site_fract_y
_atom_site_fract_z
Si Si1 0.016646 0.757671 0.897024
Si Si2 0.445478 0.384034 0.861554
Si Si3 0.841302 0.863431 0.352548
Si Si4 0.180885 0.433995 0.969839
Si Si5 0.507248 0.135121 0.645589
Si Si6 0.350846 0.768795 0.854506
Si Si7 0.671455 0.065221 0.478104
Si Si8 0.933804 0.104329 0.144882
O O1 0.926586 0.703827 0.840211
O O2 0.195904 0.749399 0.902743
O O3 0.983437 0.827159 0.854672
O O4 0.949954 0.750000 0.000000
O O5 0.420398 0.386337 0.750000
O O6 0.289571 0.384329 0.916472
O O7 0.544976 0.324208 0.898618
O O8 0.538309 0.444797 0.901729
O O9 0.860442 0.896412 0.250000
O O10 0.905208 0.904026 0.439396
O O11 0.666691 0.863269 0.379546
O O12 0.048072 0.448219 0.895990
O O13 0.262446 0.497468 0.998780
O O14 0.535937 0.106706 0.750000
O O15 0.546622 0.208285 0.644707
O O16 0.608381 0.096424 0.572819
O O17 0.307871 0.792033 0.750000
O O18 0.792156 0.109531 0.424239
O O19 0.886122 0.084674 0.250000
#
# Coordination Sequence:
#
# PCOD8234628 Si02
#       8
#     8   8   8   8   8   8   8   8
#     4  12  23  41  70 101 141 183 229 295 363 428
#     4  11  24  43  72 105 139 182 239 304 367 430
#     4  11  25  44  66 101 143 186 231 288 360 427
#     4  12  27  47  68 104 145 194 242 301 365 440
#     4  10  24  43  68 101 140 184 231 294 361 430
#     4  10  22  41  66 100 135 177 233 290 353 426
#     4  12  25  48  71 102 142 191 248 300 362 440
#     4  12  26  47  73 103 141 187 245 305 369 438
#
# _framework density 23.735899
#
# number of rings (size 3 to 8) (size 9 to 14) (size 15 to 20)
#    0.000    0.750    3.750    3.375    1.750    2.000 
#    0.000    0.000    0.000    0.000    0.000    0.000 
#    0.000    0.000    0.000    0.000    0.000    0.000 
#
# Total GULP energy -792971.300381 kJ/mol
# GULP energy per Si atom -12390.176568 kJ/mol
# Density = 2.368188 g / cm^3
# Si number density = 23.735899 Si / 1000 Ang^3
#
#
#
# Elastic Constant Matrix: (Units=GPa)
#
#
# Indices 1 2 3 4 5 6 
#
# 1 88.2231 14.1958 48.1207 0.0000 0.0000 0.0000
# 2 14.1958 60.1680 36.6112 0.0000 0.0000 0.0000
# 3 48.1207 36.6112 169.8240 0.0000 0.0000 0.0000
# 4 0.0000 0.0000 0.0000 16.1367 0.0000 0.0000
# 5 0.0000 0.0000 0.0000 0.0000 35.0213 0.0000
# 6 0.0000 0.0000 0.0000 0.0000 0.0000 33.8913
#
#
#
# Elastic Compliance Matrix: (Units=1/GPa)
#
#
# Indices 1 2 3 4 5 6 
#
# 1 0.013457 -0.000984 -0.003601 0.000000 0.000000 0.000000
# 2 -0.000984 0.019201 -0.003861 0.000000 0.000000 0.000000
# 3 -0.003601 -0.003861 0.007741 0.000000 0.000000 0.000000
# 4 0.000000 0.000000 0.000000 0.061971 0.000000 0.000000
# 5 0.000000 0.000000 0.000000 0.000000 0.028554 0.000000
# 6 0.000000 0.000000 0.000000 0.000000 0.000000 0.029506
#
#
# Mechanical properties :
#
#
# Convention : Reuss Voigt Hill
#
# Bulk Modulus (GPa) = 42.53764 57.34114 49.93939
# Shear Modulus (GPa) = 27.00389 31.62901 29.31645
#
# Velocity S-wave (km/s) = 3.37661 3.65436 3.51823
# Velocity P-wave (km/s) = 5.75866 6.48199 6.13100
#
# Compressibility (1/GPa) = 0.02350859
#
# Stress axis : x y z
#
# Youngs Moduli (GPa) = 74.30846 52.07940 129.17953
#
# Poissons Ratio (x) = 0.05124 0.46519
# Poissons Ratio (y) = 0.07311 0.49873
# Poissons Ratio (z) = 0.26760 0.20106
#
# Static dielectric constant tensor:
#      x y z
#    x 4.383050 0.000000 0.000000 
#    y 0.000000 3.995820 0.000000 
#    z 0.000000 0.000000 4.681020 
# 
# 
# High freq. dielectric constant tensor:
#      x y z
#    x 1.950040 0.000000 0.000000 
#    y 0.000000 1.918350 0.000000 
#    z 0.000000 0.000000 1.960400 
# 
# From -- ./inp_files/16937.got.cif
#   From: 2010.03.12/outbox.cif.g09.slc.cpg/sg57_9_cif.got.tgz:16937.got - 2010.04.16 15:48:40.
