data_PCOD8234663
_publ_section_title
;
Structure prediction by ZEFSAII (Michael W. Deem and Ramdas Pophale) SiO2 
 PCOD8234663
Probable space group: P B C M
;
_chemical_formula_sum "Si O2"
_cell_formula_units_Z 40
_cell_length_a 8.525699
_cell_length_b 11.822202
_cell_length_c 19.020148
_cell_angle_alpha 90.000000
_cell_angle_beta 90.000000
_cell_angle_gamma 90.000000
_cell_volume 1917.088948
_symmetry_space_group_name_H-M "P B C M"
_symmetry_group_IT_number 57
_symmetry_cell_setting 'orthorhombic'
loop_
_space_group_symop_operation_xyz
x,y,z
-x,-y,1/2+z
x,1/2-y,-z
-x,1/2+y,1/2-z
-x,-y,-z
x,y,1/2-z
-x,1/2+y,z
x,1/2-y,1/2+z
loop_
_atom_site_type_symbol
_atom_site_label
_atom_site_fract_x
_atom_site_fract_y
_atom_site_fract_z
Si Si1 0.715134 0.355084 0.669976
Si Si2 0.199871 0.422579 0.108759
Si Si3 0.677335 0.001966 0.528525
Si Si4 0.885706 0.305367 0.075020
Si Si5 0.419375 0.218273 0.079135
O O1 0.695378 0.315216 0.750000
O O2 0.756033 0.489205 0.670275
O O3 0.857344 0.290708 0.632546
O O4 0.560121 0.322578 0.627453
O O5 0.326935 0.322253 0.113121
O O6 0.024218 0.376994 0.110388
O O7 0.207781 0.495214 0.037438
O O8 0.728547 0.115600 0.569518
O O9 0.500000 0.000000 0.500000
O O10 0.699329 0.889211 0.575607
O O11 0.932483 0.250000 0.000000
O O12 0.478637 0.250000 0.000000
#
# Coordination Sequence:
#
# PCOD8234663 Si02
#       5
#     8   8   8   8   8
#     4  12  27  44  63  92 134 181 220 265 330 400
#     4  11  24  40  69  99 130 164 217 281 337 386
#     4  11  19  38  69 102 128 163 213 279 329 382
#     4  12  23  41  71  99 132 171 220 278 331 386
#     4  10  22  42  68  99 125 165 222 280 328 385
#
# _framework density 20.864968999999999
#
# number of rings (size 3 to 8) (size 9 to 14) (size 15 to 20)
#    0.000    0.800    4.000    5.400    2.800    1.600 
#    0.000    0.000    0.000    0.000    0.000    0.000 
#    0.000    0.000    0.000    0.000    0.000    0.000 
#
# Total GULP energy -495866.520071 kJ/mol
# GULP energy per Si atom -12396.663002 kJ/mol
# Density = 2.081748 g / cm^3
# Si number density = 20.864969 Si / 1000 Ang^3
#
#
#
# Elastic Constant Matrix: (Units=GPa)
#
#
# Indices 1 2 3 4 5 6 
#
# 1 114.6111 42.4294 32.0226 0.0000 0.0000 0.0000
# 2 42.4294 135.4164 39.1765 0.0000 0.0000 0.0000
# 3 32.0226 39.1765 104.9235 0.0000 0.0000 0.0000
# 4 0.0000 0.0000 0.0000 22.1827 0.0000 0.0000
# 5 0.0000 0.0000 0.0000 0.0000 2.9176 0.0000
# 6 0.0000 0.0000 0.0000 0.0000 0.0000 41.0031
#
#
#
# Elastic Compliance Matrix: (Units=1/GPa)
#
#
# Indices 1 2 3 4 5 6 
#
# 1 0.010293 -0.002597 -0.002172 0.000000 0.000000 0.000000
# 2 -0.002597 0.008934 -0.002543 0.000000 0.000000 0.000000
# 3 -0.002172 -0.002543 0.011143 0.000000 0.000000 0.000000
# 4 0.000000 0.000000 0.000000 0.045080 0.000000 0.000000
# 5 0.000000 0.000000 0.000000 0.000000 0.342748 0.000000
# 6 0.000000 0.000000 0.000000 0.000000 0.000000 0.024388
#
#
# Mechanical properties :
#
#
# Convention : Reuss Voigt Hill
#
# Bulk Modulus (GPa) = 63.50567 64.68977 64.09772
# Shear Modulus (GPa) = 10.81175 29.30884 20.06029
#
# Velocity S-wave (km/s) = 2.27882 3.75199 3.10406
# Velocity P-wave (km/s) = 6.11773 7.05983 6.60560
#
# Compressibility (1/GPa) = 0.01574663
#
# Stress axis : x y z
#
# Youngs Moduli (GPa) = 97.15013 111.93125 89.74054
#
# Poissons Ratio (x) = 0.29067 0.19491
# Poissons Ratio (y) = 0.25228 0.22823
# Poissons Ratio (z) = 0.21100 0.28467
#
# Static dielectric constant tensor:
#      x y z
#    x 3.620590 0.000000 0.000000 
#    y 0.000000 5.704180 0.000000 
#    z 0.000000 0.000000 3.450540 
# 
# 
# High freq. dielectric constant tensor:
#      x y z
#    x 1.813610 0.000000 0.000000 
#    y 0.000000 1.851090 0.000000 
#    z 0.000000 0.000000 1.766990 
# 
# From -- ./inp_files/20509.got.cif
#   From: 2010.03.12/outbox.cif.g09.slc.cpg/sg57_11_cif.got.tgz:20509.got - 2010.04.16 15:48:40.
