data_PCOD8234631
_publ_section_title
;
Structure prediction by ZEFSAII (Michael W. Deem and Ramdas Pophale) SiO2 
 PCOD8234631
Probable space group: P B C M
;
_chemical_formula_sum "Si O2"
_cell_formula_units_Z 64
_cell_length_a 11.884821
_cell_length_b 15.167718
_cell_length_c 16.863532
_cell_angle_alpha 90.000000
_cell_angle_beta 90.000000
_cell_angle_gamma 90.000000
_cell_volume 3039.914940
_symmetry_space_group_name_H-M "P B C M"
_symmetry_group_IT_number 57
_symmetry_cell_setting 'orthorhombic'
loop_
_space_group_symop_operation_xyz
x,y,z
-x,-y,1/2+z
x,1/2-y,-z
-x,1/2+y,1/2-z
-x,-y,-z
x,y,1/2-z
-x,1/2+y,z
x,1/2-y,1/2+z
loop_
_atom_site_type_symbol
_atom_site_label
_atom_site_fract_x
_atom_site_fract_y
_atom_site_fract_z
Si Si1 0.882871 0.718368 0.656409
Si Si2 0.275604 0.378621 0.843751
Si Si3 0.864859 0.267109 0.159262
Si Si4 0.510318 0.375540 0.158581
Si Si5 0.742350 0.068634 0.898053
Si Si6 0.270089 0.063110 0.843649
Si Si7 0.507712 0.801558 0.580956
Si Si8 0.731810 0.384332 0.925941
O O1 0.888249 0.708876 0.750000
O O2 0.813938 0.804698 0.631534
O O3 0.821379 0.631617 0.620774
O O4 0.009403 0.725414 0.623722
O O5 0.301123 0.377623 0.750000
O O6 0.221760 0.471139 0.870795
O O7 0.389842 0.363006 0.892342
O O8 0.864752 0.232698 0.250000
O O9 0.806148 0.362418 0.158193
O O10 0.797171 0.201526 0.102906
O O11 0.524625 0.400936 0.250000
O O12 0.608156 0.422603 0.109829
O O13 0.392665 0.410548 0.122853
O O14 0.516362 0.269911 0.149605
O O15 0.777170 0.087458 0.988265
O O16 0.272405 0.072155 0.750000
O O17 0.239974 0.964034 0.866972
O O18 0.535363 0.750000 0.500000
O O19 0.400412 0.864136 0.570641
#
# Coordination Sequence:
#
# PCOD8234631 Si02
#       8
#     8   8   8   8   8   8   8   8
#     4   9  21  43  67  92 120 160 214 273 314 363
#     4  11  24  42  67  96 127 165 216 261 311 381
#     4  11  23  43  69  89 119 165 216 265 319 374
#     4  11  21  38  65  92 123 162 207 254 307 373
#     4  12  25  41  61  93 132 165 205 260 317 379
#     4  10  22  41  66  94 126 162 210 263 316 377
#     4  12  23  39  65  94 132 172 204 255 322 378
#     4  12  25  41  61  94 132 169 206 256 316 386
#
# _framework density 21.053218999999999
#
# number of rings (size 3 to 8) (size 9 to 14) (size 15 to 20)
#    0.000    1.000    3.750    3.000    1.750    4.500 
#    0.000    8.750    0.000    0.000    0.000    0.000 
#    0.000    0.000    0.000    0.000    0.000    0.000 
#
# Total GULP energy -793911.160054 kJ/mol
# GULP energy per Si atom -12404.861876 kJ/mol
# Density = 2.100530 g / cm^3
# Si number density = 21.053219 Si / 1000 Ang^3
#
#
#
# Elastic Constant Matrix: (Units=GPa)
#
#
# Indices 1 2 3 4 5 6 
#
# 1 127.2807 48.8651 36.9967 0.0000 0.0000 0.0000
# 2 48.8651 150.5403 26.8920 0.0000 0.0000 0.0000
# 3 36.9967 26.8920 65.4017 0.0000 0.0000 0.0000
# 4 0.0000 0.0000 0.0000 33.9864 0.0000 0.0000
# 5 0.0000 0.0000 0.0000 0.0000 7.1901 0.0000
# 6 0.0000 0.0000 0.0000 0.0000 0.0000 9.7583
#
#
#
# Elastic Compliance Matrix: (Units=1/GPa)
#
#
# Indices 1 2 3 4 5 6 
#
# 1 0.010180 -0.002456 -0.004749 0.000000 0.000000 0.000000
# 2 -0.002456 0.007762 -0.001802 0.000000 0.000000 0.000000
# 3 -0.004749 -0.001802 0.018717 0.000000 0.000000 0.000000
# 4 0.000000 0.000000 0.000000 0.029424 0.000000 0.000000
# 5 0.000000 0.000000 0.000000 0.000000 0.139081 0.000000
# 6 0.000000 0.000000 0.000000 0.000000 0.000000 0.102476
#
#
# Mechanical properties :
#
#
# Convention : Reuss Voigt Hill
#
# Bulk Modulus (GPa) = 53.63292 63.19226 58.41259
# Shear Modulus (GPa) = 15.06618 25.55155 20.30887
#
# Velocity S-wave (km/s) = 2.67802 3.48755 3.10924
# Velocity P-wave (km/s) = 5.92390 6.80426 6.37929
#
# Compressibility (1/GPa) = 0.01864526
#
# Stress axis : x y z
#
# Youngs Moduli (GPa) = 98.23288 128.83421 53.42612
#
# Poissons Ratio (x) = 0.31643 0.25371
# Poissons Ratio (y) = 0.24127 0.09628
# Poissons Ratio (z) = 0.46648 0.23218
#
# Static dielectric constant tensor:
#      x y z
#    x 3.938310 0.000000 0.000000 
#    y 0.000000 3.886340 0.000000 
#    z 0.000000 0.000000 3.610200 
# 
# 
# High freq. dielectric constant tensor:
#      x y z
#    x 1.819420 0.000000 0.000000 
#    y 0.000000 1.834550 0.000000 
#    z 0.000000 0.000000 1.816490 
# 
# From -- ./inp_files/22074.got.cif
#   From: 2010.03.12/outbox.cif.g09.slc.cpg/sg57_12_cif.got.tgz:22074.got - 2010.04.16 15:48:40.
