data_PCOD8234880
_publ_section_title
;
Structure prediction by ZEFSAII (Michael W. Deem and Ramdas Pophale) SiO2 
 PCOD8234880
Probable space group: P B C M
;
_chemical_formula_sum "Si O2"
_cell_formula_units_Z 48
_cell_length_a 9.287327
_cell_length_b 15.777713
_cell_length_c 19.322417
_cell_angle_alpha 90.000000
_cell_angle_beta 90.000000
_cell_angle_gamma 90.000000
_cell_volume 2831.367478
_symmetry_space_group_name_H-M "P B C M"
_symmetry_group_IT_number 57
_symmetry_cell_setting 'orthorhombic'
loop_
_space_group_symop_operation_xyz
x,y,z
-x,-y,1/2+z
x,1/2-y,-z
-x,1/2+y,1/2-z
-x,-y,-z
x,y,1/2-z
-x,1/2+y,z
x,1/2-y,1/2+z
loop_
_atom_site_type_symbol
_atom_site_label
_atom_site_fract_x
_atom_site_fract_y
_atom_site_fract_z
Si Si1 0.163054 0.512519 0.917661
Si Si2 0.161264 0.452671 0.425921
Si Si3 0.582487 0.443883 0.594442
Si Si4 0.676886 0.781941 0.076575
Si Si5 0.326254 0.377545 0.669644
Si Si6 0.419322 0.611906 0.550876
O O1 0.219524 0.449283 0.858988
O O2 0.257889 0.599795 0.918573
O O3 0.001101 0.538385 0.899684
O O4 0.176325 0.466156 0.991651
O O5 0.255921 0.525192 0.386268
O O6 0.217055 0.359711 0.406465
O O7 0.494061 0.403462 0.657940
O O8 0.501091 0.525530 0.566416
O O9 0.585786 0.374682 0.532374
O O10 0.709603 0.710472 0.132478
O O11 0.508637 0.810445 0.083524
O O12 0.712367 0.750000 0.000000
O O13 0.297169 0.365866 0.750000
#
# Coordination Sequence:
#
# PCOD8234880 Si02
#       6
#     8   8   8   8   8   8
#     4   9  17  33  52  80 102 131 172 216 256 308
#     4   9  17  31  57  79 102 128 176 218 250 303
#     4   8  14  29  49  73  92 125 168 207 241 295
#     4  11  17  31  51  76 104 135 170 219 260 301
#     4  11  21  33  50  74 104 136 171 215 269 315
#     4   8  14  27  51  72  96 124 166 209 248 284
#
# _framework density 16.952938
#
# number of rings (size 3 to 8) (size 9 to 14) (size 15 to 20)
#    0.000    2.667    3.333    2.000    0.000    0.000 
#    0.000   11.667    0.000    0.000    0.000    0.000 
#    0.000    0.000    0.000    0.000    0.000    0.000 
#
# Total GULP energy -594825.047477 kJ/mol
# GULP energy per Si atom -12392.188489 kJ/mol
# Density = 1.691435 g / cm^3
# Si number density = 16.952938 Si / 1000 Ang^3
#
#
#
# Elastic Constant Matrix: (Units=GPa)
#
#
# Indices 1 2 3 4 5 6 
#
# 1 138.7624 39.5121 33.3101 0.0000 0.0000 0.0000
# 2 39.5121 71.5360 39.3477 0.0000 0.0000 0.0000
# 3 33.3101 39.3477 90.6237 0.0000 0.0000 0.0000
# 4 0.0000 0.0000 0.0000 18.6255 0.0000 0.0000
# 5 0.0000 0.0000 0.0000 0.0000 13.5118 0.0000
# 6 0.0000 0.0000 0.0000 0.0000 0.0000 19.6283
#
#
#
# Elastic Compliance Matrix: (Units=1/GPa)
#
#
# Indices 1 2 3 4 5 6 
#
# 1 0.008696 -0.004000 -0.001459 0.000000 0.000000 0.000000
# 2 -0.004000 0.020205 -0.007302 0.000000 0.000000 0.000000
# 3 -0.001459 -0.007302 0.014742 0.000000 0.000000 0.000000
# 4 0.000000 0.000000 0.000000 0.053690 0.000000 0.000000
# 5 0.000000 0.000000 0.000000 0.000000 0.074009 0.000000
# 6 0.000000 0.000000 0.000000 0.000000 0.000000 0.050947
#
#
# Mechanical properties :
#
#
# Convention : Reuss Voigt Hill
#
# Bulk Modulus (GPa) = 55.19259 58.36243 56.77751
# Shear Modulus (GPa) = 19.69647 22.93662 21.31655
#
# Velocity S-wave (km/s) = 3.41226 3.68225 3.54982
# Velocity P-wave (km/s) = 6.93915 7.25117 7.09687
#
# Compressibility (1/GPa) = 0.01811837
#
# Stress axis : x y z
#
# Youngs Moduli (GPa) = 114.99546 49.49230 67.83481
#
# Poissons Ratio (x) = 0.19799 0.09900
# Poissons Ratio (y) = 0.46003 0.49536
# Poissons Ratio (z) = 0.16783 0.36141
#
# Static dielectric constant tensor:
#      x y z
#    x 3.586820 0.000000 0.000000 
#    y 0.000000 3.122070 0.000000 
#    z 0.000000 0.000000 2.744580 
# 
# 
# High freq. dielectric constant tensor:
#      x y z
#    x 1.654730 0.000000 0.000000 
#    y 0.000000 1.645150 0.000000 
#    z 0.000000 0.000000 1.607690 
# 
# From -- ./inp_files/21116.got.cif
#   From: 2010.03.12/outbox.cif.g09.slc.cpg/sg57_11_cif.got.tgz:21116.got - 2010.04.16 15:48:40.
