data_PCOD8234298
_publ_section_title
;
Structure prediction by ZEFSAII (Michael W. Deem and Ramdas Pophale) SiO2 
 PCOD8234298
Probable space group: P B C M
;
_chemical_formula_sum "Si O2"
_cell_formula_units_Z 40
_cell_length_a 7.568669
_cell_length_b 8.965690
_cell_length_c 26.817736
_cell_angle_alpha 90.000000
_cell_angle_beta 90.000000
_cell_angle_gamma 90.000000
_cell_volume 1819.807047
_symmetry_space_group_name_H-M "P B C M"
_symmetry_group_IT_number 57
_symmetry_cell_setting 'orthorhombic'
loop_
_space_group_symop_operation_xyz
x,y,z
-x,-y,1/2+z
x,1/2-y,-z
-x,1/2+y,1/2-z
-x,-y,-z
x,y,1/2-z
-x,1/2+y,z
x,1/2-y,1/2+z
loop_
_atom_site_type_symbol
_atom_site_label
_atom_site_fract_x
_atom_site_fract_y
_atom_site_fract_z
Si Si1 0.205334 0.683056 0.897780
Si Si2 0.547823 0.627873 0.962996
Si Si3 0.354129 0.986887 0.193617
Si Si4 0.281107 0.173224 0.693952
Si Si5 0.132268 0.474018 0.396078
O O1 0.374863 0.683385 0.933459
O O2 0.243749 0.615654 0.843524
O O3 0.049119 0.581855 0.922360
O O4 0.131810 0.849106 0.891146
O O5 0.695020 0.581052 0.924285
O O6 0.627080 0.750000 0.000000
O O7 0.500000 0.500000 0.000000
O O8 0.284170 0.961683 0.250000
O O9 0.557498 0.941604 0.189853
O O10 0.340096 0.160321 0.177542
O O11 0.205243 0.176425 0.750000
O O12 0.131005 0.107191 0.657960
#
# Coordination Sequence:
#
# PCOD8234298 Si02
#       5
#     8   8   8   8   8
#     4  12  27  45  72 105 138 181 228 282 344 406
#     4  12  28  50  73  99 134 178 228 286 347 406
#     4  10  21  39  67 101 140 183 227 274 334 405
#     4  10  21  39  67 101 140 184 226 275 334 403
#     4  12  27  45  72 104 140 179 228 284 339 413
#
# _framework density 21.980353999999998
#
# number of rings (size 3 to 8) (size 9 to 14) (size 15 to 20)
#    0.000    0.800    4.000    2.400    5.600    4.800 
#    0.000    0.000    0.000    0.000    0.000    0.000 
#    0.000    0.000    0.000    0.000    0.000    0.000 
#
# Total GULP energy -496020.216466 kJ/mol
# GULP energy per Si atom -12400.505412 kJ/mol
# Density = 2.193033 g / cm^3
# Si number density = 21.980354 Si / 1000 Ang^3
#
#
#
# Elastic Constant Matrix: (Units=GPa)
#
#
# Indices 1 2 3 4 5 6 
#
# 1 79.1115 3.4078 19.1495 0.0000 0.0000 0.0000
# 2 3.4078 117.6579 35.2925 0.0000 0.0000 0.0000
# 3 19.1495 35.2925 89.4412 0.0000 0.0000 0.0000
# 4 0.0000 0.0000 0.0000 34.7485 0.0000 0.0000
# 5 0.0000 0.0000 0.0000 0.0000 1.9088 0.0000
# 6 0.0000 0.0000 0.0000 0.0000 0.0000 39.5265
#
#
#
# Elastic Compliance Matrix: (Units=1/GPa)
#
#
# Indices 1 2 3 4 5 6 
#
# 1 0.013361 0.000534 -0.003071 0.000000 0.000000 0.000000
# 2 0.000534 0.009662 -0.003927 0.000000 0.000000 0.000000
# 3 -0.003071 -0.003927 0.013388 0.000000 0.000000 0.000000
# 4 0.000000 0.000000 0.000000 0.028778 0.000000 0.000000
# 5 0.000000 0.000000 0.000000 0.000000 0.523900 0.000000
# 6 0.000000 0.000000 0.000000 0.000000 0.000000 0.025299
#
#
# Mechanical properties :
#
#
# Convention : Reuss Voigt Hill
#
# Bulk Modulus (GPa) = 42.58524 44.65667 43.62095
# Shear Modulus (GPa) = 7.87225 30.46081 19.16653
#
# Velocity S-wave (km/s) = 1.89454 3.72670 2.95614
# Velocity P-wave (km/s) = 4.91955 6.23526 5.61607
#
# Compressibility (1/GPa) = 0.02348232
#
# Stress axis : x y z
#
# Youngs Moduli (GPa) = 74.84569 103.50244 74.69613
#
# Poissons Ratio (x) = -0.05530 0.22942
# Poissons Ratio (y) = -0.03999 0.29331
# Poissons Ratio (z) = 0.22988 0.40643
#
# Static dielectric constant tensor:
#      x y z
#    x 3.945680 0.000000 0.000000 
#    y 0.000000 4.094040 0.000000 
#    z 0.000000 0.000000 4.101510 
# 
# 
# High freq. dielectric constant tensor:
#      x y z
#    x 1.860520 0.000000 0.000000 
#    y 0.000000 1.883670 0.000000 
#    z 0.000000 0.000000 1.868330 
# 
# From -- ./inp_files/28240.got.cif
#   From: 2010.03.12/outbox.cif.g09.slc.cpg/sg57_15_cif.got.tgz:28240.got - 2010.04.16 15:48:40.
