data_PCOD8234517
_publ_section_title
;
Structure prediction by ZEFSAII (Michael W. Deem and Ramdas Pophale) SiO2 
 PCOD8234517
Probable space group: P B C M
;
_chemical_formula_sum "Si O2"
_cell_formula_units_Z 64
_cell_length_a 17.269672
_cell_length_b 9.507085
_cell_length_c 20.415773
_cell_angle_alpha 90.000000
_cell_angle_beta 90.000000
_cell_angle_gamma 90.000000
_cell_volume 3351.948166
_symmetry_space_group_name_H-M "P B C M"
_symmetry_group_IT_number 57
_symmetry_cell_setting 'orthorhombic'
loop_
_space_group_symop_operation_xyz
x,y,z
-x,-y,1/2+z
x,1/2-y,-z
-x,1/2+y,1/2-z
-x,-y,-z
x,y,1/2-z
-x,1/2+y,z
x,1/2-y,1/2+z
loop_
_atom_site_type_symbol
_atom_site_label
_atom_site_fract_x
_atom_site_fract_y
_atom_site_fract_z
Si Si1 0.419940 0.707950 0.676571
Si Si2 0.888444 0.904491 0.998950
Si Si3 0.001942 0.500566 0.894781
Si Si4 0.747565 0.297810 0.824171
Si Si5 0.494496 0.971689 0.605797
Si Si6 0.921240 0.247588 0.823739
Si Si7 0.250237 0.599361 0.465740
Si Si8 0.387054 0.095427 0.992963
O O1 0.444178 0.744111 0.750000
O O2 0.326403 0.694172 0.669693
O O3 0.451997 0.834732 0.633191
O O4 0.456811 0.557748 0.659153
O O5 0.922445 0.930524 0.926793
O O6 0.849605 0.750000 0.000000
O O7 0.828682 0.024660 0.016126
O O8 0.957789 0.906549 0.051366
O O9 0.031302 0.607006 0.839325
O O10 0.945435 0.380861 0.867155
O O11 0.745557 0.368843 0.750000
O O12 0.829178 0.216541 0.832739
O O13 0.740963 0.403806 0.886230
O O14 0.551018 0.920653 0.549690
O O15 0.429399 0.075867 0.576773
O O16 0.940983 0.289448 0.750000
O O17 0.248527 0.750000 0.500000
O O18 0.320376 0.519047 0.500259
O O19 0.350072 0.250000 0.000000
#
# Coordination Sequence:
#
# PCOD8234517 Si02
#       8
#     8   8   8   8   8   8   8   8
#     4  11  22  40  63  88 122 164 210 256 310 378
#     4  11  23  38  60  88 128 160 199 260 316 365
#     4  11  22  38  61  89 121 160 207 255 314 367
#     4  10  22  39  60  89 124 160 202 257 310 372
#     4  11  22  38  61  89 121 160 207 255 314 367
#     4  11  22  40  63  88 122 164 210 256 310 378
#     4  12  23  39  66  95 121 166 216 257 314 383
#     4  11  23  38  60  88 128 160 199 260 316 365
#
# _framework density 19.093374000000001
#
# number of rings (size 3 to 8) (size 9 to 14) (size 15 to 20)
#    0.000    1.000    5.000    2.625    0.000    0.000 
#    0.000    0.000    0.000    0.000    0.000    7.000 
#    0.000    0.000    0.000    0.000    0.000    0.000 
#
# Total GULP energy -793399.099695 kJ/mol
# GULP energy per Si atom -12396.860933 kJ/mol
# Density = 1.904992 g / cm^3
# Si number density = 19.093374 Si / 1000 Ang^3
#
#
#
# Elastic Constant Matrix: (Units=GPa)
#
#
# Indices 1 2 3 4 5 6 
#
# 1 95.7032 37.1999 26.1672 0.0000 0.0000 0.0000
# 2 37.1999 109.3170 23.7382 0.0000 0.0000 0.0000
# 3 26.1672 23.7382 90.9897 0.0000 0.0000 0.0000
# 4 0.0000 0.0000 0.0000 26.2387 0.0000 0.0000
# 5 0.0000 0.0000 0.0000 0.0000 27.6194 0.0000
# 6 0.0000 0.0000 0.0000 0.0000 0.0000 29.1799
#
#
#
# Elastic Compliance Matrix: (Units=1/GPa)
#
#
# Indices 1 2 3 4 5 6 
#
# 1 0.012621 -0.003717 -0.002660 0.000000 0.000000 0.000000
# 2 -0.003717 0.010792 -0.001746 0.000000 0.000000 0.000000
# 3 -0.002660 -0.001746 0.012211 0.000000 0.000000 0.000000
# 4 0.000000 0.000000 0.000000 0.038112 0.000000 0.000000
# 5 0.000000 0.000000 0.000000 0.000000 0.036206 0.000000
# 6 0.000000 0.000000 0.000000 0.000000 0.000000 0.034270
#
#
# Mechanical properties :
#
#
# Convention : Reuss Voigt Hill
#
# Bulk Modulus (GPa) = 51.60842 52.24672 51.92757
# Shear Modulus (GPa) = 29.95479 30.53458 30.24469
#
# Velocity S-wave (km/s) = 3.96518 4.00337 3.98432
# Velocity P-wave (km/s) = 6.93193 6.98516 6.95860
#
# Compressibility (1/GPa) = 0.01937668
#
# Stress axis : x y z
#
# Youngs Moduli (GPa) = 79.23210 92.66180 81.89462
#
# Poissons Ratio (x) = 0.34445 0.21783
# Poissons Ratio (y) = 0.29453 0.14303
# Poissons Ratio (z) = 0.21074 0.16183
#
# Static dielectric constant tensor:
#      x y z
#    x 3.623230 0.000000 0.000000 
#    y 0.000000 3.345530 0.000000 
#    z 0.000000 0.000000 3.716770 
# 
# 
# High freq. dielectric constant tensor:
#      x y z
#    x 1.753730 0.000000 0.000000 
#    y 0.000000 1.726380 0.000000 
#    z 0.000000 0.000000 1.751460 
# 
# From -- ./inp_files/25583.got.cif
#   From: 2010.03.12/outbox.cif.g09.slc.cpg/sg57_13_cif.got.tgz:25583.got - 2010.04.16 15:48:40.
