data_PCOD8234408
_publ_section_title
;
Structure prediction by ZEFSAII (Michael W. Deem and Ramdas Pophale) SiO2 
 PCOD8234408
Probable space group: P B C M
;
_chemical_formula_sum "Si O2"
_cell_formula_units_Z 40
_cell_length_a 14.374982
_cell_length_b 8.632835
_cell_length_c 15.667183
_cell_angle_alpha 90.000000
_cell_angle_beta 90.000000
_cell_angle_gamma 90.000000
_cell_volume 1944.248023
_symmetry_space_group_name_H-M "P B C M"
_symmetry_group_IT_number 57
_symmetry_cell_setting 'orthorhombic'
loop_
_space_group_symop_operation_xyz
x,y,z
-x,-y,1/2+z
x,1/2-y,-z
-x,1/2+y,1/2-z
-x,-y,-z
x,y,1/2-z
-x,1/2+y,z
x,1/2-y,1/2+z
loop_
_atom_site_type_symbol
_atom_site_label
_atom_site_fract_x
_atom_site_fract_y
_atom_site_fract_z
Si Si1 0.417051 0.799818 0.406442
Si Si2 0.888238 0.831724 0.750000
Si Si3 0.227401 0.202219 0.593911
Si Si4 0.762385 0.367974 0.844299
Si Si5 0.091186 0.696299 0.750000
Si Si6 0.591647 0.858712 0.653431
O O1 0.449218 0.750000 0.500000
O O2 0.314622 0.737562 0.387973
O O3 0.492835 0.728439 0.342280
O O4 0.415669 0.984166 0.399892
O O5 0.834346 0.785847 0.835291
O O6 0.984763 0.742285 0.750000
O O7 0.903551 0.013230 0.750000
O O8 0.192791 0.250000 0.500000
O O9 0.334730 0.247329 0.607433
O O10 0.216849 0.017187 0.598629
O O11 0.727804 0.422976 0.750000
O O12 0.856468 0.265281 0.834029
O O13 0.623532 0.896556 0.750000
#
# Coordination Sequence:
#
# PCOD8234408 Si02
#       6
#     8   4   8   8   4   8
#     4  12  24  39  60  93 134 172 226 275 324 389
#     4  12  22  48  67 102 127 174 214 270 334 390
#     4  12  24  42  69  99 134 173 220 271 327 389
#     4  10  21  42  63  93 128 175 213 264 326 385
#     4  10  24  42  77  92 135 170 216 270 330 394
#     4  12  23  39  61  92 128 181 223 266 329 388
#
# _framework density 20.573505999999998
#
# number of rings (size 3 to 8) (size 9 to 14) (size 15 to 20)
#    0.600    0.000    2.000    7.800    0.000    0.000 
#    0.000    5.000    0.000    0.000    0.000    0.000 
#    0.000    0.000    0.000    0.000    0.000    0.000 
#
# Total GULP energy -496178.641575 kJ/mol
# GULP energy per Si atom -12404.466039 kJ/mol
# Density = 2.052668 g / cm^3
# Si number density = 20.573506 Si / 1000 Ang^3
#
#
#
# Elastic Constant Matrix: (Units=GPa)
#
#
# Indices 1 2 3 4 5 6 
#
# 1 86.9390 21.6691 28.3442 0.0000 0.0000 0.0000
# 2 21.6691 87.6164 5.3889 0.0000 0.0000 0.0000
# 3 28.3442 5.3889 104.8467 0.0000 0.0000 0.0000
# 4 0.0000 0.0000 0.0000 27.5902 0.0000 0.0000
# 5 0.0000 0.0000 0.0000 0.0000 2.0063 0.0000
# 6 0.0000 0.0000 0.0000 0.0000 0.0000 61.3792
#
#
#
# Elastic Compliance Matrix: (Units=1/GPa)
#
#
# Indices 1 2 3 4 5 6 
#
# 1 0.013405 -0.003102 -0.003464 0.000000 0.000000 0.000000
# 2 -0.003102 0.012168 0.000213 0.000000 0.000000 0.000000
# 3 -0.003464 0.000213 0.010463 0.000000 0.000000 0.000000
# 4 0.000000 0.000000 0.000000 0.036245 0.000000 0.000000
# 5 0.000000 0.000000 0.000000 0.000000 0.498430 0.000000
# 6 0.000000 0.000000 0.000000 0.000000 0.000000 0.016292
#
#
# Mechanical properties :
#
#
# Convention : Reuss Voigt Hill
#
# Bulk Modulus (GPa) = 42.86500 43.35629 43.11065
# Shear Modulus (GPa) = 8.23064 33.12846 20.67955
#
# Velocity S-wave (km/s) = 2.00232 4.01714 3.17386
# Velocity P-wave (km/s) = 5.12113 6.52964 5.86780
#
# Compressibility (1/GPa) = 0.02332906
#
# Stress axis : x y z
#
# Youngs Moduli (GPa) = 74.59887 82.18611 95.57169
#
# Poissons Ratio (x) = 0.25496 0.33110
# Poissons Ratio (y) = 0.23142 -0.02038
# Poissons Ratio (z) = 0.25844 -0.01753
#
# Static dielectric constant tensor:
#      x y z
#    x 4.437560 0.000000 0.000000 
#    y 0.000000 3.750570 0.000000 
#    z 0.000000 0.000000 3.682060 
# 
# 
# High freq. dielectric constant tensor:
#      x y z
#    x 1.800780 0.000000 0.000000 
#    y 0.000000 1.820650 0.000000 
#    z 0.000000 0.000000 1.801180 
# 
# From -- ./inp_files/21657.got.cif
#   From: 2010.03.12/outbox.cif.g09.slc.cpg/sg57_11_cif.got.tgz:21657.got - 2010.04.16 15:48:40.
