data_PCOD8234180
_publ_section_title
;
Structure prediction by ZEFSAII (Michael W. Deem and Ramdas Pophale) SiO2 
 PCOD8234180
Probable space group: P B C M
;
_chemical_formula_sum "Si O2"
_cell_formula_units_Z 64
_cell_length_a 16.507351
_cell_length_b 22.021324
_cell_length_c 8.704555
_cell_angle_alpha 90.000000
_cell_angle_beta 90.000000
_cell_angle_gamma 90.000000
_cell_volume 3164.225210
_symmetry_space_group_name_H-M "P B C M"
_symmetry_group_IT_number 57
_symmetry_cell_setting 'orthorhombic'
loop_
_space_group_symop_operation_xyz
x,y,z
-x,-y,1/2+z
x,1/2-y,-z
-x,1/2+y,1/2-z
-x,-y,-z
x,y,1/2-z
-x,1/2+y,z
x,1/2-y,1/2+z
loop_
_atom_site_type_symbol
_atom_site_label
_atom_site_fract_x
_atom_site_fract_y
_atom_site_fract_z
Si Si1 0.050822 0.814950 0.429973
Si Si2 0.695070 0.690491 0.924730
Si Si3 0.376202 0.608523 0.069363
Si Si4 0.220135 0.431512 0.427015
Si Si5 0.464539 0.370818 0.431826
Si Si6 0.375071 0.480458 0.929191
Si Si7 0.238396 0.686242 0.569219
Si Si8 0.964072 0.561565 0.568195
O O1 0.021274 0.750000 0.500000
O O2 0.036249 0.808866 0.250000
O O3 0.144833 0.826201 0.470396
O O4 0.003773 0.874965 0.494294
O O5 0.680325 0.705039 0.750000
O O6 0.761612 0.639179 0.950189
O O7 0.607389 0.672567 0.993735
O O8 0.731835 0.750000 0.000000
O O9 0.372147 0.596450 0.250000
O O10 0.454103 0.649601 0.022954
O O11 0.395698 0.548615 0.973333
O O12 0.291243 0.635479 0.014395
O O13 0.232777 0.451085 0.250000
O O14 0.280321 0.470690 0.531030
O O15 0.129042 0.440890 0.482732
O O16 0.478580 0.365986 0.250000
O O17 0.434824 0.438760 0.471569
O O18 0.390204 0.468845 0.750000
O O19 0.266571 0.750000 0.500000
O O20 0.255091 0.685271 0.750000
O O21 0.975316 0.560115 0.750000
O O22 0.000000 0.500000 0.500000
#
# Coordination Sequence:
#
# PCOD8234180 Si02
#       8
#     8   8   8   8   8   8   8   8
#     4   9  20  39  62  87 119 157 200 248 299 359
#     4   9  19  35  57  81 111 149 188 232 283 338
#     4  12  24  37  57  84 113 150 193 238 291 348
#     4   9  20  39  57  81 117 154 190 236 291 348
#     4  10  21  39  57  80 115 152 191 238 291 346
#     4  11  22  37  58  83 113 149 192 239 288 348
#     4  10  21  39  59  83 114 150 194 244 292 345
#     4  10  22  39  60  90 125 158 197 250 304 360
#
# _framework density 20.226119000000001
#
# number of rings (size 3 to 8) (size 9 to 14) (size 15 to 20)
#    0.000    2.000    0.000    4.125    1.750    5.000 
#    0.000    1.250    0.000    0.000    0.000    0.000 
#    0.000    0.000    0.000    0.000    0.000    0.000 
#
# Total GULP energy -793482.391495 kJ/mol
# GULP energy per Si atom -12398.162367 kJ/mol
# Density = 2.018008 g / cm^3
# Si number density = 20.226119 Si / 1000 Ang^3
#
#
#
# Elastic Constant Matrix: (Units=GPa)
#
#
# Indices 1 2 3 4 5 6 
#
# 1 95.4368 22.7886 31.2912 0.0000 0.0000 0.0000
# 2 22.7886 83.2102 22.8493 0.0000 0.0000 0.0000
# 3 31.2912 22.8493 57.0735 0.0000 0.0000 0.0000
# 4 0.0000 0.0000 0.0000 36.6702 0.0000 0.0000
# 5 0.0000 0.0000 0.0000 0.0000 26.4030 0.0000
# 6 0.0000 0.0000 0.0000 0.0000 0.0000 17.9650
#
#
#
# Elastic Compliance Matrix: (Units=1/GPa)
#
#
# Indices 1 2 3 4 5 6 
#
# 1 0.013011 -0.001803 -0.006412 0.000000 0.000000 0.000000
# 2 -0.001803 0.013752 -0.004517 0.000000 0.000000 0.000000
# 3 -0.006412 -0.004517 0.022845 0.000000 0.000000 0.000000
# 4 0.000000 0.000000 0.000000 0.027270 0.000000 0.000000
# 5 0.000000 0.000000 0.000000 0.000000 0.037874 0.000000
# 6 0.000000 0.000000 0.000000 0.000000 0.000000 0.055664
#
#
# Mechanical properties :
#
#
# Convention : Reuss Voigt Hill
#
# Bulk Modulus (GPa) = 41.41703 43.28651 42.35177
# Shear Modulus (GPa) = 24.51857 26.79374 25.65616
#
# Velocity S-wave (km/s) = 3.48548 3.64360 3.56542
# Velocity P-wave (km/s) = 6.05966 6.25691 6.15908
#
# Compressibility (1/GPa) = 0.02414466
#
# Stress axis : x y z
#
# Youngs Moduli (GPa) = 76.85938 72.71747 43.77329
#
# Poissons Ratio (x) = 0.13108 0.28066
# Poissons Ratio (y) = 0.13855 0.19773
# Poissons Ratio (z) = 0.49279 0.32848
#
# Static dielectric constant tensor:
#      x y z
#    x 3.815870 0.000000 0.000000 
#    y 0.000000 3.562890 0.000000 
#    z 0.000000 0.000000 3.323660 
# 
# 
# High freq. dielectric constant tensor:
#      x y z
#    x 1.797510 0.000000 0.000000 
#    y 0.000000 1.787500 0.000000 
#    z 0.000000 0.000000 1.783750 
# 
# From -- ./inp_files/5712.got.cif
#   From: 2010.03.12/outbox.cif.g09.slc.cpg/sg57_3_cif.got.tgz:5712.got - 2010.04.16 15:48:40.
