data_PCOD8234897
_publ_section_title
;
Structure prediction by ZEFSAII (Michael W. Deem and Ramdas Pophale) SiO2 
 PCOD8234897
Probable space group: P B C M
;
_chemical_formula_sum "Si O2"
_cell_formula_units_Z 48
_cell_length_a 14.887586
_cell_length_b 20.628767
_cell_length_c 8.461673
_cell_angle_alpha 90.000000
_cell_angle_beta 90.000000
_cell_angle_gamma 90.000000
_cell_volume 2598.685911
_symmetry_space_group_name_H-M "P B C M"
_symmetry_group_IT_number 57
_symmetry_cell_setting 'orthorhombic'
loop_
_space_group_symop_operation_xyz
x,y,z
-x,-y,1/2+z
x,1/2-y,-z
-x,1/2+y,1/2-z
-x,-y,-z
x,y,1/2-z
-x,1/2+y,z
x,1/2-y,1/2+z
loop_
_atom_site_type_symbol
_atom_site_label
_atom_site_fract_x
_atom_site_fract_y
_atom_site_fract_z
Si Si1 0.194212 0.146175 0.565919
Si Si2 0.237115 0.485742 0.932819
Si Si3 0.927909 0.050665 0.435679
Si Si4 0.574890 0.952522 0.065365
Si Si5 0.381089 0.316304 0.936977
Si Si6 0.012770 0.314281 0.564427
O O1 0.200222 0.128366 0.750000
O O2 0.283039 0.184334 0.515715
O O3 0.107187 0.188039 0.528123
O O4 0.184287 0.080999 0.462852
O O5 0.261543 0.493735 0.750000
O O6 0.170547 0.542506 0.987860
O O7 0.329119 0.485419 0.031292
O O8 0.920683 0.040584 0.250000
O O9 0.956073 0.122964 0.483608
O O10 0.000000 0.000000 0.500000
O O11 0.561820 0.943247 0.250000
O O12 0.565415 0.881322 0.986384
O O13 0.500000 0.000000 0.000000
O O14 0.372938 0.314914 0.750000
O O15 0.429107 0.250000 0.000000
O O16 0.961270 0.250000 0.500000
O O17 0.029640 0.311619 0.750000
#
# Coordination Sequence:
#
# PCOD8234897 Si02
#       6
#     8   8   8   8   8   8
#     4  11  20  32  51  76 109 146 184 225 275 332
#     4  11  21  35  56  83 112 145 186 231 279 332
#     4  11  22  36  56  80 109 147 190 232 275 330
#     4  11  22  39  61  87 116 148 187 232 286 340
#     4  11  21  35  54  80 114 149 185 226 278 338
#     4  11  23  36  51  74 107 146 189 233 281 331
#
# _framework density 18.470873999999998
#
# number of rings (size 3 to 8) (size 9 to 14) (size 15 to 20)
#    0.000    1.000    1.667    9.500    0.000    2.000 
#    0.000    0.000    0.000    1.000    0.000    4.667 
#    0.000    0.000    0.000    0.000    0.000    0.000 
#
# Total GULP energy -595272.015251 kJ/mol
# GULP energy per Si atom -12401.500318 kJ/mol
# Density = 1.842883 g / cm^3
# Si number density = 18.470874 Si / 1000 Ang^3
#
#
#
# Elastic Constant Matrix: (Units=GPa)
#
#
# Indices 1 2 3 4 5 6 
#
# 1 67.4287 55.9743 17.4949 0.0000 0.0000 0.0000
# 2 55.9743 143.3647 38.2672 0.0000 0.0000 0.0000
# 3 17.4949 38.2672 100.9798 0.0000 0.0000 0.0000
# 4 0.0000 0.0000 0.0000 32.9930 0.0000 0.0000
# 5 0.0000 0.0000 0.0000 0.0000 27.9375 0.0000
# 6 0.0000 0.0000 0.0000 0.0000 0.0000 14.6125
#
#
#
# Elastic Compliance Matrix: (Units=1/GPa)
#
#
# Indices 1 2 3 4 5 6 
#
# 1 0.021977 -0.008415 -0.000618 0.000000 0.000000 0.000000
# 2 -0.008415 0.010983 -0.002704 0.000000 0.000000 0.000000
# 3 -0.000618 -0.002704 0.011035 0.000000 0.000000 0.000000
# 4 0.000000 0.000000 0.000000 0.030309 0.000000 0.000000
# 5 0.000000 0.000000 0.000000 0.000000 0.035794 0.000000
# 6 0.000000 0.000000 0.000000 0.000000 0.000000 0.068435
#
#
# Mechanical properties :
#
#
# Convention : Reuss Voigt Hill
#
# Bulk Modulus (GPa) = 48.73626 59.47177 54.10402
# Shear Modulus (GPa) = 23.94092 28.44439 26.19265
#
# Velocity S-wave (km/s) = 3.60411 3.92849 3.76979
# Velocity P-wave (km/s) = 6.61530 7.26945 6.95007
#
# Compressibility (1/GPa) = 0.02051860
#
# Stress axis : x y z
#
# Youngs Moduli (GPa) = 45.50269 91.05318 90.62229
#
# Poissons Ratio (x) = 0.76624 0.05604
# Poissons Ratio (y) = 0.38292 0.24504
# Poissons Ratio (z) = 0.02814 0.24621
#
# Static dielectric constant tensor:
#      x y z
#    x 3.856990 0.000000 0.000000 
#    y 0.000000 3.629760 0.000000 
#    z 0.000000 0.000000 3.527720 
# 
# 
# High freq. dielectric constant tensor:
#      x y z
#    x 1.680090 0.000000 0.000000 
#    y 0.000000 1.722240 0.000000 
#    z 0.000000 0.000000 1.739110 
# 
# From -- ./inp_files/4873.got.cif
#   From: 2010.03.12/outbox.cif.g09.slc.cpg/sg57_3_cif.got.tgz:4873.got - 2010.04.16 15:48:40.
