data_PCOD8234030
_publ_section_title
;
Structure prediction by ZEFSAII (Michael W. Deem and Ramdas Pophale) SiO2 
 PCOD8234030
Probable space group: P B C M
;
_chemical_formula_sum "Si O2"
_cell_formula_units_Z 56
_cell_length_a 20.997150
_cell_length_b 14.929052
_cell_length_c 8.951123
_cell_angle_alpha 90.000000
_cell_angle_beta 90.000000
_cell_angle_gamma 90.000000
_cell_volume 2805.886545
_symmetry_space_group_name_H-M "P B C M"
_symmetry_group_IT_number 57
_symmetry_cell_setting 'orthorhombic'
loop_
_space_group_symop_operation_xyz
x,y,z
-x,-y,1/2+z
x,1/2-y,-z
-x,1/2+y,1/2-z
-x,-y,-z
x,y,1/2-z
-x,1/2+y,z
x,1/2-y,1/2+z
loop_
_atom_site_type_symbol
_atom_site_label
_atom_site_fract_x
_atom_site_fract_y
_atom_site_fract_z
Si Si1 0.723930 0.491278 0.072222
Si Si2 0.482756 0.149824 0.426812
Si Si3 0.849095 0.097906 0.587594
Si Si4 0.592355 0.007804 0.425707
Si Si5 0.211482 0.159654 0.573716
Si Si6 0.964565 0.164892 0.079323
Si Si7 0.094174 0.403588 0.913730
O O1 0.718153 0.504210 0.250000
O O2 0.776013 0.413800 0.033923
O O3 0.658071 0.460658 0.999674
O O4 0.745552 0.583141 0.997876
O O5 0.485643 0.250000 0.500000
O O6 0.470135 0.161187 0.250000
O O7 0.428126 0.086900 0.499073
O O8 0.546788 0.092788 0.457627
O O9 0.850706 0.145141 0.750000
O O10 0.892218 0.151376 0.473267
O O11 0.881014 0.002330 0.600345
O O12 0.599388 0.990098 0.250000
O O13 0.237738 0.250000 0.500000
O O14 0.221189 0.160577 0.750000
O O15 0.136477 0.148565 0.535416
O O16 0.956499 0.184825 0.250000
O O17 0.018817 0.090594 0.043896
O O18 0.994896 0.250000 0.000000
O O19 0.101750 0.356381 0.750000
#
# Coordination Sequence:
#
# PCOD8234030 Si02
#       7
#     8   8   8   8   8   8   8
#     4  10  21  38  58  80 109 145 183 225 273 325
#     4  10  21  38  62  92 125 158 193 234 278 327
#     4   9  19  36  55  75 102 134 172 218 268 322
#     4  10  21  38  61  90 122 156 194 234 278 330
#     4  11  21  33  51  76 107 142 181 226 276 333
#     4  11  22  34  51  74 101 133 173 221 272 324
#     4   9  19  35  53  75 101 132 171 218 274 332
#
# _framework density 19.95804
#
# number of rings (size 3 to 8) (size 9 to 14) (size 15 to 20)
#    0.000    2.000    0.000    4.714    0.000    7.429 
#    0.000    3.571    0.000    1.714    0.000    0.000 
#    0.000    0.000    0.000    0.000    0.000    0.000 
#
# Total GULP energy -693837.788060 kJ/mol
# GULP energy per Si atom -12389.960501 kJ/mol
# Density = 1.991261 g / cm^3
# Si number density = 19.958040 Si / 1000 Ang^3
#
#
#
# Elastic Constant Matrix: (Units=GPa)
#
#
# Indices 1 2 3 4 5 6 
#
# 1 130.3664 19.9654 51.4148 0.0000 0.0000 0.0000
# 2 19.9654 51.8276 25.5826 0.0000 0.0000 0.0000
# 3 51.4148 25.5826 115.6925 0.0000 0.0000 0.0000
# 4 0.0000 0.0000 0.0000 31.7886 0.0000 0.0000
# 5 0.0000 0.0000 0.0000 0.0000 36.1129 0.0000
# 6 0.0000 0.0000 0.0000 0.0000 0.0000 -212.9079
#
#
#
# Elastic Compliance Matrix: (Units=1/GPa)
#
#
# Indices 1 2 3 4 5 6 
#
# 1 0.009441 -0.001758 -0.003807 0.000000 0.000000 0.000000
# 2 -0.001758 0.021986 -0.004080 0.000000 0.000000 0.000000
# 3 -0.003807 -0.004080 0.011238 0.000000 0.000000 0.000000
# 4 0.000000 0.000000 0.000000 0.031458 0.000000 0.000000
# 5 0.000000 0.000000 0.000000 0.000000 0.027691 0.000000
# 6 0.000000 0.000000 0.000000 0.000000 0.000000 -0.004697
#
#
# Mechanical properties :
#
#
# Convention : Reuss Voigt Hill
#
# Bulk Modulus (GPa) = 42.78191 54.64577 48.71384
# Shear Modulus (GPa) = 40.25781 -15.60636 12.32573
#
# Velocity S-wave (km/s) = 4.49611 -2.79939 2.48782
# Velocity P-wave (km/s) = 6.95958 4.12202 5.71956
#
# Compressibility (1/GPa) = 0.02337437
#
# Stress axis : x y z
#
# Youngs Moduli (GPa) = 105.91676 45.48335 88.98520
#
# Poissons Ratio (x) = 0.07995 0.33878
# Poissons Ratio (y) = 0.18618 0.36310
# Poissons Ratio (z) = 0.40324 0.18559
#
# Static dielectric constant tensor:
#      x y z
#    x 3.881870 0.000000 0.000000 
#    y 0.000000 3.429180 0.000000 
#    z 0.000000 0.000000 3.826040 
# 
# 
# High freq. dielectric constant tensor:
#      x y z
#    x 1.780150 0.000000 0.000000 
#    y 0.000000 1.762160 0.000000 
#    z 0.000000 0.000000 1.789820 
# 
# From -- ./inp_files/8041.got.cif
#   From: 2010.03.12/outbox.cif.g09.slc.cpg/sg57_5_cif.got.tgz:8041.got - 2010.04.16 15:48:40.
