data_PCOD8234937
_publ_section_title
;
Structure prediction by ZEFSAII (Michael W. Deem and Ramdas Pophale) SiO2 
 PCOD8234937
Probable space group: P B C M
;
_chemical_formula_sum "Si O2"
_cell_formula_units_Z 48
_cell_length_a 15.028079
_cell_length_b 20.067220
_cell_length_c 9.101515
_cell_angle_alpha 90.000000
_cell_angle_beta 90.000000
_cell_angle_gamma 90.000000
_cell_volume 2744.759965
_symmetry_space_group_name_H-M "P B C M"
_symmetry_group_IT_number 57
_symmetry_cell_setting 'orthorhombic'
loop_
_space_group_symop_operation_xyz
x,y,z
-x,-y,1/2+z
x,1/2-y,-z
-x,1/2+y,1/2-z
-x,-y,-z
x,y,1/2-z
-x,1/2+y,z
x,1/2-y,1/2+z
loop_
_atom_site_type_symbol
_atom_site_label
_atom_site_fract_x
_atom_site_fract_y
_atom_site_fract_z
Si Si1 0.029307 0.432727 0.078039
Si Si2 0.082396 0.819791 0.923789
Si Si3 0.230194 0.456143 0.417600
Si Si4 0.568031 0.411271 0.084267
Si Si5 0.601303 0.931825 0.915597
Si Si6 0.739538 0.106482 0.419685
O O1 0.002926 0.435659 0.250000
O O2 0.134834 0.422567 0.058991
O O3 0.000000 0.500000 0.000000
O O4 0.984257 0.371475 0.997184
O O5 0.063758 0.816407 0.750000
O O6 0.183811 0.840714 0.956252
O O7 0.063726 0.750000 0.000000
O O8 0.262066 0.451312 0.250000
O O9 0.302864 0.416341 0.513143
O O10 0.223934 0.533644 0.464934
O O11 0.559297 0.385755 0.250000
O O12 0.584059 0.489784 0.075741
O O13 0.476878 0.392874 0.000707
O O14 0.651669 0.373882 0.010726
O O15 0.602118 0.905403 0.750000
O O16 0.712555 0.107861 0.250000
#
# Coordination Sequence:
#
# PCOD8234937 Si02
#       6
#     8   8   8   8   8   8
#     4  11  21  35  55  79 106 140 179 224 272 324
#     4  11  23  39  55  77 106 141 180 224 272 322
#     4   9  17  30  47  70 100 133 169 211 260 309
#     4   9  16  25  40  64  94 129 165 201 246 298
#     4   9  16  25  39  64  96 130 164 202 249 298
#     4   9  17  31  48  68  98 133 169 209 256 309
#
# _framework density 17.487867000000001
#
# number of rings (size 3 to 8) (size 9 to 14) (size 15 to 20)
#    0.000    2.333    1.667    2.000    0.000    6.667 
#    0.000    0.000    0.000    0.000    0.000    1.167 
#    0.000    2.667    0.000    0.000    0.000    0.000 
#
# Total GULP energy -595208.774912 kJ/mol
# GULP energy per Si atom -12400.182811 kJ/mol
# Density = 1.744806 g / cm^3
# Si number density = 17.487867 Si / 1000 Ang^3
#
#
#
# Elastic Constant Matrix: (Units=GPa)
#
#
# Indices 1 2 3 4 5 6 
#
# 1 125.1263 45.5896 83.4640 0.0000 0.0000 0.0000
# 2 45.5896 73.0353 47.0282 0.0000 0.0000 0.0000
# 3 83.4640 47.0282 137.6767 0.0000 0.0000 0.0000
# 4 0.0000 0.0000 0.0000 19.8689 0.0000 0.0000
# 5 0.0000 0.0000 0.0000 0.0000 38.3049 0.0000
# 6 0.0000 0.0000 0.0000 0.0000 0.0000 15.1305
#
#
#
# Elastic Compliance Matrix: (Units=1/GPa)
#
#
# Indices 1 2 3 4 5 6 
#
# 1 0.014408 -0.004319 -0.007259 0.000000 0.000000 0.000000
# 2 -0.004319 0.018848 -0.003820 0.000000 0.000000 0.000000
# 3 -0.007259 -0.003820 0.012969 0.000000 0.000000 0.000000
# 4 0.000000 0.000000 0.000000 0.050330 0.000000 0.000000
# 5 0.000000 0.000000 0.000000 0.000000 0.026106 0.000000
# 6 0.000000 0.000000 0.000000 0.000000 0.000000 0.066092
#
#
# Mechanical properties :
#
#
# Convention : Reuss Voigt Hill
#
# Bulk Modulus (GPa) = 64.81585 76.44464 70.63024
# Shear Modulus (GPa) = 22.25283 25.31128 23.78206
#
# Velocity S-wave (km/s) = 3.57104 3.80855 3.69171
# Velocity P-wave (km/s) = 7.35846 7.94657 7.65816
#
# Compressibility (1/GPa) = 0.01542833
#
# Stress axis : x y z
#
# Youngs Moduli (GPa) = 69.40737 53.05714 77.10857
#
# Poissons Ratio (x) = 0.22917 0.55973
# Poissons Ratio (y) = 0.29979 0.29452
# Poissons Ratio (z) = 0.50383 0.20265
#
# Static dielectric constant tensor:
#      x y z
#    x 3.473350 0.000000 0.000000 
#    y 0.000000 2.670030 0.000000 
#    z 0.000000 0.000000 3.407130 
# 
# 
# High freq. dielectric constant tensor:
#      x y z
#    x 1.689500 0.000000 0.000000 
#    y 0.000000 1.611500 0.000000 
#    z 0.000000 0.000000 1.690400 
# 
# From -- ./inp_files/4565.got.cif
#   From: 2010.03.12/outbox.cif.g09.slc.cpg/sg57_3_cif.got.tgz:4565.got - 2010.04.16 15:48:40.
