data_PCOD8234172
_publ_section_title
;
Structure prediction by ZEFSAII (Michael W. Deem and Ramdas Pophale) SiO2 
 PCOD8234172
Probable space group: P B C M
;
_chemical_formula_sum "Si O2"
_cell_formula_units_Z 32
_cell_length_a 6.452911
_cell_length_b 14.144193
_cell_length_c 17.428737
_cell_angle_alpha 90.000000
_cell_angle_beta 90.000000
_cell_angle_gamma 90.000000
_cell_volume 1590.742065
_symmetry_space_group_name_H-M "P B C M"
_symmetry_group_IT_number 57
_symmetry_cell_setting 'orthorhombic'
loop_
_space_group_symop_operation_xyz
x,y,z
-x,-y,1/2+z
x,1/2-y,-z
-x,1/2+y,1/2-z
-x,-y,-z
x,y,1/2-z
-x,1/2+y,z
x,1/2-y,1/2+z
loop_
_atom_site_type_symbol
_atom_site_label
_atom_site_fract_x
_atom_site_fract_y
_atom_site_fract_z
Si Si1 0.691792 0.842535 0.581408
Si Si2 0.524256 0.141908 0.936620
Si Si3 0.426527 0.974034 0.662668
Si Si4 0.891020 0.408853 0.964182
O O1 0.612211 0.901483 0.506334
O O2 0.568537 0.744038 0.584259
O O3 0.624759 0.903687 0.655303
O O4 0.939013 0.834981 0.570889
O O5 0.502955 0.078302 0.861357
O O6 0.760796 0.144672 0.968761
O O7 0.350105 0.977444 0.750000
O O8 0.242008 0.937368 0.609685
O O9 0.000000 0.500000 0.000000
#
# Coordination Sequence:
#
# PCOD8234172 Si02
#       4
#     8   8   8   8
#     4  10  21  38  65  91 122 161 212 262 306 370
#     4  10  21  38  65  94 118 162 212 265 306 370
#     4  11  23  39  58  92 133 163 200 259 319 373
#     4  11  19  41  68  88 119 166 218 251 309 375
#
# _framework density 20.116398
#
# number of rings (size 3 to 8) (size 9 to 14) (size 15 to 20)
#    0.000    1.500    5.000    1.500    0.000   10.000 
#    0.000    0.000    0.000    0.000    0.000    0.000 
#    0.000    0.000    0.000    0.000    0.000    0.000 
#
# Total GULP energy -396511.579966 kJ/mol
# GULP energy per Si atom -12390.986874 kJ/mol
# Density = 2.007061 g / cm^3
# Si number density = 20.116398 Si / 1000 Ang^3
#
#
#
# Elastic Constant Matrix: (Units=GPa)
#
#
# Indices 1 2 3 4 5 6 
#
# 1 145.9200 67.1151 38.2038 0.0000 0.0000 0.0000
# 2 67.1151 115.5630 51.4592 0.0000 0.0000 0.0000
# 3 38.2038 51.4592 116.2354 0.0000 0.0000 0.0000
# 4 0.0000 0.0000 0.0000 11.6338 0.0000 0.0000
# 5 0.0000 0.0000 0.0000 0.0000 21.8663 0.0000
# 6 0.0000 0.0000 0.0000 0.0000 0.0000 32.7401
#
#
#
# Elastic Compliance Matrix: (Units=1/GPa)
#
#
# Indices 1 2 3 4 5 6 
#
# 1 0.009416 -0.005095 -0.000839 0.000000 0.000000 0.000000
# 2 -0.005095 0.013535 -0.004317 0.000000 0.000000 0.000000
# 3 -0.000839 -0.004317 0.010791 0.000000 0.000000 0.000000
# 4 0.000000 0.000000 0.000000 0.085956 0.000000 0.000000
# 5 0.000000 0.000000 0.000000 0.000000 0.045732 0.000000
# 6 0.000000 0.000000 0.000000 0.000000 0.000000 0.030544
#
#
# Mechanical properties :
#
#
# Convention : Reuss Voigt Hill
#
# Bulk Modulus (GPa) = 75.53932 76.80830 76.17381
# Shear Modulus (GPa) = 22.63573 27.97739 25.30656
#
# Velocity S-wave (km/s) = 3.35810 3.73336 3.55069
# Velocity P-wave (km/s) = 7.25730 7.53981 7.39990
#
# Compressibility (1/GPa) = 0.01323814
#
# Stress axis : x y z
#
# Youngs Moduli (GPa) = 106.20033 73.88383 92.67400
#
# Poissons Ratio (x) = 0.37643 0.07778
# Poissons Ratio (y) = 0.54108 0.40012
# Poissons Ratio (z) = 0.08913 0.31899
#
# Static dielectric constant tensor:
#      x y z
#    x 4.009080 0.000000 0.000000 
#    y 0.000000 3.551110 0.000000 
#    z 0.000000 0.000000 3.407980 
# 
# 
# High freq. dielectric constant tensor:
#      x y z
#    x 1.794970 0.000000 0.000000 
#    y 0.000000 1.789970 0.000000 
#    z 0.000000 0.000000 1.747440 
# 
# From -- ./inp_files/19839.got.cif
#   From: 2010.03.12/outbox.cif.g09.slc.cpg/sg57_10_cif.got.tgz:19839.got - 2010.04.16 15:48:40.
