data_PCOD8234391
_publ_section_title
;
Structure prediction by ZEFSAII (Michael W. Deem and Ramdas Pophale) SiO2 
 PCOD8234391
Probable space group: P B C M
;
_chemical_formula_sum "Si O2"
_cell_formula_units_Z 64
_cell_length_a 20.078019
_cell_length_b 8.930047
_cell_length_c 16.743808
_cell_angle_alpha 90.000000
_cell_angle_beta 90.000000
_cell_angle_gamma 90.000000
_cell_volume 3002.125482
_symmetry_space_group_name_H-M "P B C M"
_symmetry_group_IT_number 57
_symmetry_cell_setting 'orthorhombic'
loop_
_space_group_symop_operation_xyz
x,y,z
-x,-y,1/2+z
x,1/2-y,-z
-x,1/2+y,1/2-z
-x,-y,-z
x,y,1/2-z
-x,1/2+y,z
x,1/2-y,1/2+z
loop_
_atom_site_type_symbol
_atom_site_label
_atom_site_fract_x
_atom_site_fract_y
_atom_site_fract_z
Si Si1 0.692850 0.214381 0.340190
Si Si2 0.942369 0.847173 0.342722
Si Si3 0.821807 0.872100 0.058863
Si Si4 0.076827 0.502866 0.842437
Si Si5 0.802443 0.123164 0.555783
Si Si6 0.564246 0.686873 0.588424
Si Si7 0.549766 0.371794 0.841916
Si Si8 0.297056 0.360175 0.159108
O O1 0.707552 0.269041 0.250000
O O2 0.736574 0.316115 0.399417
O O3 0.614300 0.232203 0.361293
O O4 0.709080 0.039001 0.348025
O O5 0.934111 0.888037 0.250000
O O6 0.883968 0.935798 0.389901
O O7 0.935193 0.671284 0.359289
O O8 0.013201 0.905129 0.374730
O O9 0.768864 0.792939 0.118105
O O10 0.852952 0.750000 0.000000
O O11 0.782067 0.994509 0.006864
O O12 0.087221 0.536153 0.750000
O O13 0.142721 0.562496 0.884106
O O14 0.834807 0.250000 0.500000
O O15 0.552491 0.750000 0.500000
O O16 0.516339 0.775343 0.648578
O O17 0.547329 0.511219 0.597003
O O18 0.640095 0.712181 0.614624
O O19 0.556084 0.430293 0.750000
O O20 0.299350 0.306282 0.250000
#
# Coordination Sequence:
#
# PCOD8234391 Si02
#       8
#     8   8   8   8   8   8   8   8
#     4   9  20  40  64  89 122 166 213 256 305 372
#     4  10  23  43  65  91 123 165 209 253 310 377
#     4  12  24  42  61  92 130 161 202 261 321 373
#     4  10  23  43  65  90 124 164 210 257 306 375
#     4  12  24  40  62  93 124 163 207 259 314 371
#     4  11  22  40  64  97 131 168 215 272 324 375
#     4  10  21  41  66  93 130 173 216 262 319 388
#     4  10  21  41  66  88 123 170 213 257 313 385
#
# _framework density 21.318228999999999
#
# number of rings (size 3 to 8) (size 9 to 14) (size 15 to 20)
#    0.000    1.500    2.500    3.375    1.750    1.500 
#    4.500    0.000    0.000    0.000    0.000    0.000 
#    0.000    0.000    0.000    0.000    0.000    0.000 
#
# Total GULP energy -793509.742990 kJ/mol
# GULP energy per Si atom -12398.589734 kJ/mol
# Density = 2.126971 g / cm^3
# Si number density = 21.318229 Si / 1000 Ang^3
#
#
#
# Elastic Constant Matrix: (Units=GPa)
#
#
# Indices 1 2 3 4 5 6 
#
# 1 140.3802 34.4159 60.3299 0.0000 0.0000 0.0000
# 2 34.4159 62.0865 44.3097 0.0000 0.0000 0.0000
# 3 60.3299 44.3097 104.5351 0.0000 0.0000 0.0000
# 4 0.0000 0.0000 0.0000 32.9010 0.0000 0.0000
# 5 0.0000 0.0000 0.0000 0.0000 19.3434 0.0000
# 6 0.0000 0.0000 0.0000 0.0000 0.0000 31.9172
#
#
#
# Elastic Compliance Matrix: (Units=1/GPa)
#
#
# Indices 1 2 3 4 5 6 
#
# 1 0.009638 -0.001968 -0.004728 0.000000 0.000000 0.000000
# 2 -0.001968 0.023494 -0.008823 0.000000 0.000000 0.000000
# 3 -0.004728 -0.008823 0.016035 0.000000 0.000000 0.000000
# 4 0.000000 0.000000 0.000000 0.030394 0.000000 0.000000
# 5 0.000000 0.000000 0.000000 0.000000 0.051697 0.000000
# 6 0.000000 0.000000 0.000000 0.000000 0.000000 0.031331
#
#
# Mechanical properties :
#
#
# Convention : Reuss Voigt Hill
#
# Bulk Modulus (GPa) = 55.16084 65.01252 60.08668
# Shear Modulus (GPa) = 25.04135 28.02875 26.53505
#
# Velocity S-wave (km/s) = 3.43103 3.62992 3.53187
# Velocity P-wave (km/s) = 6.45190 6.93764 6.69918
#
# Compressibility (1/GPa) = 0.01812880
#
# Stress axis : x y z
#
# Youngs Moduli (GPa) = 103.75627 42.56388 62.36549
#
# Poissons Ratio (x) = 0.08378 0.29487
# Poissons Ratio (y) = 0.20422 0.55023
# Poissons Ratio (z) = 0.49056 0.37552
#
# Static dielectric constant tensor:
#      x y z
#    x 3.879600 0.000000 0.000000 
#    y 0.000000 3.761740 0.000000 
#    z 0.000000 0.000000 3.961560 
# 
# 
# High freq. dielectric constant tensor:
#      x y z
#    x 1.844340 0.000000 0.000000 
#    y 0.000000 1.817940 0.000000 
#    z 0.000000 0.000000 1.848650 
# 
# From -- ./inp_files/23021.got.cif
#   From: 2010.03.12/outbox.cif.g09.slc.cpg/sg57_12_cif.got.tgz:23021.got - 2010.04.16 15:48:40.
