data_PCOD8234104
_publ_section_title
;
Structure prediction by ZEFSAII (Michael W. Deem and Ramdas Pophale) SiO2 
 PCOD8234104
Probable space group: P B C M
;
_chemical_formula_sum "Si O2"
_cell_formula_units_Z 40
_cell_length_a 11.285965
_cell_length_b 12.593611
_cell_length_c 13.631091
_cell_angle_alpha 90.000000
_cell_angle_beta 90.000000
_cell_angle_gamma 90.000000
_cell_volume 1937.401317
_symmetry_space_group_name_H-M "P B C M"
_symmetry_group_IT_number 57
_symmetry_cell_setting 'orthorhombic'
loop_
_space_group_symop_operation_xyz
x,y,z
-x,-y,1/2+z
x,1/2-y,-z
-x,1/2+y,1/2-z
-x,-y,-z
x,y,1/2-z
-x,1/2+y,z
x,1/2-y,1/2+z
loop_
_atom_site_type_symbol
_atom_site_label
_atom_site_fract_x
_atom_site_fract_y
_atom_site_fract_z
Si Si1 0.160661 0.651308 0.750000
Si Si2 0.319100 0.061195 0.957522
Si Si3 0.758254 0.987209 0.250000
Si Si4 0.024093 0.627145 0.250000
Si Si5 0.541597 0.346310 0.549763
Si Si6 0.617504 0.204110 0.250000
Si Si7 0.096773 0.018867 0.084531
O O1 0.300143 0.688670 0.750000
O O2 0.129716 0.584290 0.848435
O O3 0.084377 0.758684 0.750000
O O4 0.276949 0.082276 0.845559
O O5 0.377527 0.946794 0.962109
O O6 0.212266 0.063973 0.032568
O O7 0.415321 0.145224 0.994815
O O8 0.701367 0.102708 0.250000
O O9 0.896226 0.018523 0.250000
O O10 0.945922 0.616396 0.347847
O O11 0.613520 0.250000 0.500000
O O12 0.525975 0.306728 0.660781
O O13 0.000000 0.000000 0.000000
#
# Coordination Sequence:
#
# PCOD8234104 Si02
#       7
#     4   8   4   4   8   4   8
#     4  10  23  40  63  94 122 174 208 266 326 379
#     4  10  21  38  62  88 124 166 206 263 318 378
#     4   9  17  36  58  85 121 161 201 253 311 366
#     4  10  21  40  58  91 127 161 216 260 312 381
#     4  10  21  38  60  90 120 164 210 258 320 378
#     4   9  19  36  61  88 122 154 215 267 293 376
#     4  11  22  39  63  92 127 168 214 268 322 393
#
# _framework density 20.646212999999999
#
# number of rings (size 3 to 8) (size 9 to 14) (size 15 to 20)
#    0.000    2.000    2.000    1.200    0.000    3.200 
#    3.600    5.000    0.000    0.000    0.000    0.000 
#    0.000    0.000    0.000    0.000    0.000    0.000 
#
# Total GULP energy -495556.469341 kJ/mol
# GULP energy per Si atom -12388.911734 kJ/mol
# Density = 2.059922 g / cm^3
# Si number density = 20.646213 Si / 1000 Ang^3
#
#
#
# Elastic Constant Matrix: (Units=GPa)
#
#
# Indices 1 2 3 4 5 6 
#
# 1 84.2765 11.6792 48.6451 0.0000 0.0000 0.0000
# 2 11.6792 65.7793 31.4838 0.0000 0.0000 0.0000
# 3 48.6451 31.4838 154.7496 0.0000 0.0000 0.0000
# 4 0.0000 0.0000 0.0000 26.0512 0.0000 0.0000
# 5 0.0000 0.0000 0.0000 0.0000 50.9632 0.0000
# 6 0.0000 0.0000 0.0000 0.0000 0.0000 -39.5652
#
#
#
# Elastic Compliance Matrix: (Units=1/GPa)
#
#
# Indices 1 2 3 4 5 6 
#
# 1 0.014507 -0.000435 -0.004472 0.000000 0.000000 0.000000
# 2 -0.000435 0.016855 -0.003292 0.000000 0.000000 0.000000
# 3 -0.004472 -0.003292 0.008538 0.000000 0.000000 0.000000
# 4 0.000000 0.000000 0.000000 0.038386 0.000000 0.000000
# 5 0.000000 0.000000 0.000000 0.000000 0.019622 0.000000
# 6 0.000000 0.000000 0.000000 0.000000 0.000000 -0.025275
#
#
# Mechanical properties :
#
#
# Convention : Reuss Voigt Hill
#
# Bulk Modulus (GPa) = 42.55117 54.26908 48.41012
# Shear Modulus (GPa) = 51.61764 21.68966 36.65365
#
# Velocity S-wave (km/s) = 5.00553 3.24472 4.21803
# Velocity P-wave (km/s) = 7.35265 6.35452 6.87173
#
# Compressibility (1/GPa) = 0.02350112
#
# Stress axis : x y z
#
# Youngs Moduli (GPa) = 68.93158 59.32786 117.12978
#
# Poissons Ratio (x) = 0.02584 0.52377
# Poissons Ratio (y) = 0.03002 0.38563
# Poissons Ratio (z) = 0.30824 0.19533
#
# Static dielectric constant tensor:
#      x y z
#    x 3.855560 0.000000 0.000000 
#    y 0.000000 3.607410 0.000000 
#    z 0.000000 0.000000 4.185070 
# 
# 
# High freq. dielectric constant tensor:
#      x y z
#    x 1.804020 0.000000 0.000000 
#    y 0.000000 1.792810 0.000000 
#    z 0.000000 0.000000 1.829700 
# 
# From -- ./inp_files/12776.got.cif
#   From: 2010.03.12/outbox.cif.g09.slc.cpg/sg57_7_cif.got.tgz:12776.got - 2010.04.16 15:48:40.
