data_PCOD8234538
_publ_section_title
;
Structure prediction by ZEFSAII (Michael W. Deem and Ramdas Pophale) SiO2 
 PCOD8234538
Probable space group: P B C M
;
_chemical_formula_sum "Si O2"
_cell_formula_units_Z 48
_cell_length_a 8.530701
_cell_length_b 9.988116
_cell_length_c 27.093568
_cell_angle_alpha 90.000000
_cell_angle_beta 90.000000
_cell_angle_gamma 90.000000
_cell_volume 2308.524562
_symmetry_space_group_name_H-M "P B C M"
_symmetry_group_IT_number 57
_symmetry_cell_setting 'orthorhombic'
loop_
_space_group_symop_operation_xyz
x,y,z
-x,-y,1/2+z
x,1/2-y,-z
-x,1/2+y,1/2-z
-x,-y,-z
x,y,1/2-z
-x,1/2+y,z
x,1/2-y,1/2+z
loop_
_atom_site_type_symbol
_atom_site_label
_atom_site_fract_x
_atom_site_fract_y
_atom_site_fract_z
Si Si1 0.808667 0.921311 0.750000
Si Si2 0.674400 0.846702 0.646798
Si Si3 0.989740 0.835830 0.250000
Si Si4 0.358195 0.601241 0.005658
Si Si5 0.173611 0.918991 0.408602
Si Si6 0.142020 0.089983 0.854710
Si Si7 0.320880 0.649301 0.114699
O O1 0.701418 0.883694 0.703633
O O2 0.969896 0.827628 0.750000
O O3 0.843839 0.082629 0.750000
O O4 0.719498 0.694501 0.633374
O O5 0.496220 0.871281 0.632802
O O6 0.784915 0.938370 0.613588
O O7 0.912496 0.887273 0.299563
O O8 0.290064 0.588063 0.060354
O O9 0.430173 0.750000 0.000000
O O10 0.500000 0.500000 0.000000
O O11 0.215402 0.578857 0.966966
O O12 0.275714 0.804539 0.381498
O O13 0.991651 0.891509 0.396699
O O14 0.205905 0.938860 0.852012
#
# Coordination Sequence:
#
# PCOD8234538 Si02
#       7
#     4   8   4   8   8   8   8
#     4  10  22  39  63  95 127 168 212 260 316 381
#     4  11  22  40  64  93 129 166 214 262 318 375
#     4  10  22  39  63  93 131 166 206 260 322 375
#     4  10  22  39  64  92 126 165 210 256 320 376
#     4  11  22  40  64  92 126 167 215 257 314 379
#     4  11  24  41  64  96 127 169 215 262 316 382
#     4  11  24  41  64  93 129 166 212 267 318 377
#
# _framework density 20.792501000000001
#
# number of rings (size 3 to 8) (size 9 to 14) (size 15 to 20)
#    0.000    1.333    3.333    2.000    4.667    1.333 
#    0.000    5.000    0.000    0.000    0.000    0.000 
#    0.000    0.000    0.000    0.000    0.000    0.000 
#
# Total GULP energy -594937.392451 kJ/mol
# GULP energy per Si atom -12394.529009 kJ/mol
# Density = 2.074518 g / cm^3
# Si number density = 20.792501 Si / 1000 Ang^3
#
#
#
# Elastic Constant Matrix: (Units=GPa)
#
#
# Indices 1 2 3 4 5 6 
#
# 1 95.4219 14.1236 50.0089 0.0000 0.0000 0.0000
# 2 14.1236 65.0262 21.1803 0.0000 0.0000 0.0000
# 3 50.0089 21.1803 96.9051 0.0000 0.0000 0.0000
# 4 0.0000 0.0000 0.0000 9.3130 0.0000 0.0000
# 5 0.0000 0.0000 0.0000 0.0000 -174.5376 0.0000
# 6 0.0000 0.0000 0.0000 0.0000 0.0000 39.5358
#
#
#
# Elastic Compliance Matrix: (Units=1/GPa)
#
#
# Indices 1 2 3 4 5 6 
#
# 1 0.014400 -0.000761 -0.007265 0.000000 0.000000 0.000000
# 2 -0.000761 0.016597 -0.003235 0.000000 0.000000 0.000000
# 3 -0.007265 -0.003235 0.014775 0.000000 0.000000 0.000000
# 4 0.000000 0.000000 0.000000 0.107377 0.000000 0.000000
# 5 0.000000 0.000000 0.000000 0.000000 -0.005729 0.000000
# 6 0.000000 0.000000 0.000000 0.000000 0.000000 0.025294
#
#
# Mechanical properties :
#
#
# Convention : Reuss Voigt Hill
#
# Bulk Modulus (GPa) = 43.00904 47.55319 45.28111
# Shear Modulus (GPa) = 24.63230 -13.66841 5.48194
#
# Velocity S-wave (km/s) = 3.44564 -2.56671 1.62549
# Velocity P-wave (km/s) = 6.04646 3.75979 5.03467
#
# Compressibility (1/GPa) = 0.02325093
#
# Stress axis : x y z
#
# Youngs Moduli (GPa) = 69.44546 60.25036 67.67987
#
# Poissons Ratio (x) = 0.04587 0.49168
# Poissons Ratio (y) = 0.05287 0.21893
# Poissons Ratio (z) = 0.50450 0.19489
#
# Static dielectric constant tensor:
#      x y z
#    x 3.570780 0.000000 0.000000 
#    y 0.000000 4.226570 0.000000 
#    z 0.000000 0.000000 4.013860 
# 
# 
# High freq. dielectric constant tensor:
#      x y z
#    x 1.793130 0.000000 0.000000 
#    y 0.000000 1.831810 0.000000 
#    z 0.000000 0.000000 1.824480 
# 
# From -- ./inp_files/29508.got.cif
#   From: 2010.03.12/outbox.cif.g09.slc.cpg/sg57_15_cif.got.tgz:29508.got - 2010.04.16 15:48:40.
