data_PCOD8234499
_publ_section_title
;
Structure prediction by ZEFSAII (Michael W. Deem and Ramdas Pophale) SiO2 
 PCOD8234499
Probable space group: P B C M
;
_chemical_formula_sum "Si O2"
_cell_formula_units_Z 32
_cell_length_a 7.037301
_cell_length_b 14.294370
_cell_length_c 16.276322
_cell_angle_alpha 90.000000
_cell_angle_beta 90.000000
_cell_angle_gamma 90.000000
_cell_volume 1637.296824
_symmetry_space_group_name_H-M "P B C M"
_symmetry_group_IT_number 57
_symmetry_cell_setting 'orthorhombic'
loop_
_space_group_symop_operation_xyz
x,y,z
-x,-y,1/2+z
x,1/2-y,-z
-x,1/2+y,1/2-z
-x,-y,-z
x,y,1/2-z
-x,1/2+y,z
x,1/2-y,1/2+z
loop_
_atom_site_type_symbol
_atom_site_label
_atom_site_fract_x
_atom_site_fract_y
_atom_site_fract_z
Si Si1 0.304066 0.375872 0.657623
Si Si2 0.147884 0.199374 0.581000
Si Si3 0.122985 0.540598 0.926841
Si Si4 0.530581 0.354071 0.999878
O O1 0.383360 0.384277 0.750000
O O2 0.192076 0.277285 0.649518
O O3 0.158141 0.461115 0.640979
O O4 0.479359 0.381092 0.594083
O O5 0.063708 0.250000 0.500000
O O6 0.339127 0.144315 0.554620
O O7 0.991233 0.126651 0.614948
O O8 0.325220 0.571967 0.963038
O O9 0.000000 0.500000 0.000000
O O10 0.620233 0.250000 0.000000
#
# Coordination Sequence:
#
# PCOD8234499 Si02
#       4
#     8   8   8   8
#     4  10  22  39  57  88 126 152 190 251 298 335
#     4   9  19  37  58  85 112 154 194 241 285 351
#     4  12  20  34  67  88 111 155 205 236 283 358
#     4   9  20  37  62  81 112 155 202 232 283 359
#
# _framework density 19.544409999999999
#
# number of rings (size 3 to 8) (size 9 to 14) (size 15 to 20)
#    0.000    2.500    5.000    1.500    0.000    1.000 
#    0.000    6.250    0.000    0.000    0.000    0.000 
#    0.000    0.000    0.000    0.000    0.000    0.000 
#
# Total GULP energy -396692.845128 kJ/mol
# GULP energy per Si atom -12396.651410 kJ/mol
# Density = 1.949993 g / cm^3
# Si number density = 19.544410 Si / 1000 Ang^3
#
#
#
# Elastic Constant Matrix: (Units=GPa)
#
#
# Indices 1 2 3 4 5 6 
#
# 1 92.2721 59.1990 40.8288 0.0000 0.0000 0.0000
# 2 59.1990 110.4916 46.6703 0.0000 0.0000 0.0000
# 3 40.8288 46.6703 98.5585 0.0000 0.0000 0.0000
# 4 0.0000 0.0000 0.0000 18.8554 0.0000 0.0000
# 5 0.0000 0.0000 0.0000 0.0000 8.8956 0.0000
# 6 0.0000 0.0000 0.0000 0.0000 0.0000 40.9892
#
#
#
# Elastic Compliance Matrix: (Units=1/GPa)
#
#
# Indices 1 2 3 4 5 6 
#
# 1 0.017428 -0.007860 -0.003498 0.000000 0.000000 0.000000
# 2 -0.007860 0.014858 -0.003780 0.000000 0.000000 0.000000
# 3 -0.003498 -0.003780 0.013385 0.000000 0.000000 0.000000
# 4 0.000000 0.000000 0.000000 0.053035 0.000000 0.000000
# 5 0.000000 0.000000 0.000000 0.000000 0.112415 0.000000
# 6 0.000000 0.000000 0.000000 0.000000 0.000000 0.024397
#
#
# Mechanical properties :
#
#
# Convention : Reuss Voigt Hill
#
# Bulk Modulus (GPa) = 64.95111 66.07983 65.51547
# Shear Modulus (GPa) = 18.45530 24.05632 21.25581
#
# Velocity S-wave (km/s) = 3.07624 3.51216 3.30140
# Velocity P-wave (km/s) = 6.77661 7.09440 6.93732
#
# Compressibility (1/GPa) = 0.01539620
#
# Stress axis : x y z
#
# Youngs Moduli (GPa) = 57.37884 67.30271 74.71054
#
# Poissons Ratio (x) = 0.52901 0.26132
# Poissons Ratio (y) = 0.45101 0.28238
# Poissons Ratio (z) = 0.20069 0.25438
#
# Static dielectric constant tensor:
#      x y z
#    x 3.447800 0.000000 0.000000 
#    y 0.000000 4.113000 0.000000 
#    z 0.000000 0.000000 3.142070 
# 
# 
# High freq. dielectric constant tensor:
#      x y z
#    x 1.747560 0.000000 0.000000 
#    y 0.000000 1.788010 0.000000 
#    z 0.000000 0.000000 1.713850 
# 
# From -- ./inp_files/15536.got.cif
#   From: 2010.03.12/outbox.cif.g09.slc.cpg/sg57_8_cif.got.tgz:15536.got - 2010.04.16 15:48:40.
