data_PCOD8234109
_publ_section_title
;
Structure prediction by ZEFSAII (Michael W. Deem and Ramdas Pophale) SiO2 
 PCOD8234109
Probable space group: P B C M
;
_chemical_formula_sum "Si O2"
_cell_formula_units_Z 32
_cell_length_a 20.458375
_cell_length_b 5.037988
_cell_length_c 13.886952
_cell_angle_alpha 90.000000
_cell_angle_beta 90.000000
_cell_angle_gamma 90.000000
_cell_volume 1431.314919
_symmetry_space_group_name_H-M "P B C M"
_symmetry_group_IT_number 57
_symmetry_cell_setting 'orthorhombic'
loop_
_space_group_symop_operation_xyz
x,y,z
-x,-y,1/2+z
x,1/2-y,-z
-x,1/2+y,1/2-z
-x,-y,-z
x,y,1/2-z
-x,1/2+y,z
x,1/2-y,1/2+z
loop_
_atom_site_type_symbol
_atom_site_label
_atom_site_fract_x
_atom_site_fract_y
_atom_site_fract_z
Si Si1 0.657647 0.217428 0.385931
Si Si2 0.271869 0.214792 0.108016
Si Si3 0.456611 0.611239 0.250000
Si Si4 0.956749 0.095133 0.750000
Si Si5 0.130603 0.487525 0.935023
O O1 0.653696 0.250000 0.500000
O O2 0.684659 0.490534 0.340562
O O3 0.586164 0.153812 0.345844
O O4 0.710524 0.999797 0.346706
O O5 0.196088 0.133672 0.111909
O O6 0.296372 0.250000 0.000000
O O7 0.482941 0.312583 0.250000
O O8 0.916179 0.058196 0.652565
O O9 0.982634 0.394682 0.750000
O O10 0.144920 0.750000 0.000000
O O11 0.099230 0.250000 0.000000
#
# Coordination Sequence:
#
# PCOD8234109 Si02
#       5
#     8   8   4   4   8
#     4  10  21  38  61  86 117 151 189 248 305 356
#     4   9  18  37  63  92 117 145 193 247 314 376
#     4  12  26  40  56  84 118 160 210 240 282 364
#     4  12  28  44  62  94 130 176 230 256 298 384
#     4  11  23  42  68  96 130 166 207 270 327 374
#
# _framework density 22.357066
#
# number of rings (size 3 to 8) (size 9 to 14) (size 15 to 20)
#    0.000    1.500    0.000    6.750    0.000    6.000 
#    0.000    0.000    0.000    1.500    0.000    0.000 
#    0.000    0.000    0.000    0.000    0.000    0.000 
#
# Total GULP energy -396528.755775 kJ/mol
# GULP energy per Si atom -12391.523618 kJ/mol
# Density = 2.230618 g / cm^3
# Si number density = 22.357066 Si / 1000 Ang^3
#
#
#
# Elastic Constant Matrix: (Units=GPa)
#
#
# Indices 1 2 3 4 5 6 
#
# 1 104.2455 34.1686 38.6719 0.0000 0.0000 0.0000
# 2 34.1686 118.6416 20.3539 0.0000 0.0000 0.0000
# 3 38.6719 20.3539 98.7815 0.0000 0.0000 0.0000
# 4 0.0000 0.0000 0.0000 8.9148 0.0000 0.0000
# 5 0.0000 0.0000 0.0000 0.0000 62.8766 0.0000
# 6 0.0000 0.0000 0.0000 0.0000 0.0000 50.3525
#
#
#
# Elastic Compliance Matrix: (Units=1/GPa)
#
#
# Indices 1 2 3 4 5 6 
#
# 1 0.012033 -0.002755 -0.004143 0.000000 0.000000 0.000000
# 2 -0.002755 0.009368 -0.000852 0.000000 0.000000 0.000000
# 3 -0.004143 -0.000852 0.011921 0.000000 0.000000 0.000000
# 4 0.000000 0.000000 0.000000 0.112173 0.000000 0.000000
# 5 0.000000 0.000000 0.000000 0.000000 0.015904 0.000000
# 6 0.000000 0.000000 0.000000 0.000000 0.000000 0.019860
#
#
# Mechanical properties :
#
#
# Convention : Reuss Voigt Hill
#
# Bulk Modulus (GPa) = 56.10880 56.45084 56.27982
# Shear Modulus (GPa) = 24.66718 39.66039 32.16379
#
# Velocity S-wave (km/s) = 3.32524 4.21640 3.79706
# Velocity P-wave (km/s) = 6.31618 7.00061 6.66718
#
# Compressibility (1/GPa) = 0.01782252
#
# Stress axis : x y z
#
# Youngs Moduli (GPa) = 83.10786 106.74381 83.88665
#
# Poissons Ratio (x) = 0.29404 0.34755
# Poissons Ratio (y) = 0.22893 0.07147
# Poissons Ratio (z) = 0.34432 0.09094
#
# Static dielectric constant tensor:
#      x y z
#    x 3.736220 0.000000 0.000000 
#    y 0.000000 4.846460 0.000000 
#    z 0.000000 0.000000 3.506280 
# 
# 
# High freq. dielectric constant tensor:
#      x y z
#    x 1.864860 0.000000 0.000000 
#    y 0.000000 1.910730 0.000000 
#    z 0.000000 0.000000 1.883940 
# 
# From -- ./inp_files/18803.got.cif
#   From: 2010.03.12/outbox.cif.g09.slc.cpg/sg57_10_cif.got.tgz:18803.got - 2010.04.16 15:48:40.
