data_PCOD8234577
_publ_section_title
;
Structure prediction by ZEFSAII (Michael W. Deem and Ramdas Pophale) SiO2 
 PCOD8234577
Probable space group: P B C M
;
_chemical_formula_sum "Si O2"
_cell_formula_units_Z 40
_cell_length_a 8.726791
_cell_length_b 10.622832
_cell_length_c 19.993948
_cell_angle_alpha 90.000000
_cell_angle_beta 90.000000
_cell_angle_gamma 90.000000
_cell_volume 1853.503654
_symmetry_space_group_name_H-M "P B C M"
_symmetry_group_IT_number 57
_symmetry_cell_setting 'orthorhombic'
loop_
_space_group_symop_operation_xyz
x,y,z
-x,-y,1/2+z
x,1/2-y,-z
-x,1/2+y,1/2-z
-x,-y,-z
x,y,1/2-z
-x,1/2+y,z
x,1/2-y,1/2+z
loop_
_atom_site_type_symbol
_atom_site_label
_atom_site_fract_x
_atom_site_fract_y
_atom_site_fract_z
Si Si1 0.405260 0.315608 0.825365
Si Si2 0.172753 0.590553 0.431564
Si Si3 0.767026 0.129685 0.572275
Si Si4 0.903265 0.951950 0.672199
Si Si5 0.543435 0.551417 0.605650
O O1 0.446789 0.287827 0.750000
O O2 0.223888 0.343363 0.834247
O O3 0.447594 0.188059 0.861854
O O4 0.507149 0.436187 0.844855
O O5 0.259840 0.722182 0.420052
O O6 0.118775 0.593160 0.510113
O O7 0.292313 0.475677 0.426983
O O8 0.043109 0.584093 0.375658
O O9 0.601907 0.064412 0.555383
O O10 0.834626 0.081781 0.642918
O O11 0.953224 0.971761 0.750000
#
# Coordination Sequence:
#
# PCOD8234577 Si02
#       5
#     8   8   8   8   8
#     4  10  22  40  63  94 133 169 216 270 327 391
#     4  11  23  41  68  95 129 171 217 266 339 388
#     4  10  23  44  65  95 131 166 222 276 322 390
#     4  10  24  43  64  95 131 173 217 268 326 393
#     4  11  21  42  65  97 124 173 221 270 328 385
#
# _framework density 21.580749000000001
#
# number of rings (size 3 to 8) (size 9 to 14) (size 15 to 20)
#    0.000    1.600    2.000    1.800    2.800    3.200 
#    0.000    0.000    0.000    0.000    0.000    0.000 
#    0.000    0.000    0.000    0.000    0.000    0.000 
#
# Total GULP energy -495555.340815 kJ/mol
# GULP energy per Si atom -12388.883520 kJ/mol
# Density = 2.153163 g / cm^3
# Si number density = 21.580749 Si / 1000 Ang^3
#
#
#
# Elastic Constant Matrix: (Units=GPa)
#
#
# Indices 1 2 3 4 5 6 
#
# 1 53.2786 18.9246 26.0767 0.0000 0.0000 0.0000
# 2 18.9246 109.3124 40.6357 0.0000 0.0000 0.0000
# 3 26.0767 40.6357 128.3947 0.0000 0.0000 0.0000
# 4 0.0000 0.0000 0.0000 24.9416 0.0000 0.0000
# 5 0.0000 0.0000 0.0000 0.0000 31.7440 0.0000
# 6 0.0000 0.0000 0.0000 0.0000 0.0000 21.6853
#
#
#
# Elastic Compliance Matrix: (Units=1/GPa)
#
#
# Indices 1 2 3 4 5 6 
#
# 1 0.021367 -0.002364 -0.003591 0.000000 0.000000 0.000000
# 2 -0.002364 0.010629 -0.002884 0.000000 0.000000 0.000000
# 3 -0.003591 -0.002884 0.009431 0.000000 0.000000 0.000000
# 4 0.000000 0.000000 0.000000 0.040094 0.000000 0.000000
# 5 0.000000 0.000000 0.000000 0.000000 0.031502 0.000000
# 6 0.000000 0.000000 0.000000 0.000000 0.000000 0.046114
#
#
# Mechanical properties :
#
#
# Convention : Reuss Voigt Hill
#
# Bulk Modulus (GPa) = 42.10873 51.36221 46.73547
# Shear Modulus (GPa) = 27.06629 29.36407 28.21518
#
# Velocity S-wave (km/s) = 3.54529 3.69271 3.61975
# Velocity P-wave (km/s) = 6.02605 6.48330 6.25885
#
# Compressibility (1/GPa) = 0.02374804
#
# Stress axis : x y z
#
# Youngs Moduli (GPa) = 46.80175 94.07814 106.03742
#
# Poissons Ratio (x) = 0.22241 0.38082
# Poissons Ratio (y) = 0.11064 0.30581
# Poissons Ratio (z) = 0.16808 0.27132
#
# Static dielectric constant tensor:
#      x y z
#    x 3.841120 0.000000 0.000000 
#    y 0.000000 3.891150 0.000000 
#    z 0.000000 0.000000 3.999030 
# 
# 
# High freq. dielectric constant tensor:
#      x y z
#    x 1.842730 0.000000 0.000000 
#    y 0.000000 1.854620 0.000000 
#    z 0.000000 0.000000 1.847940 
# 
# From -- ./inp_files/20512.got.cif
#   From: 2010.03.12/outbox.cif.g09.slc.cpg/sg57_11_cif.got.tgz:20512.got - 2010.04.16 15:48:40.
