data_PCOD8234413
_publ_section_title
;
Structure prediction by ZEFSAII (Michael W. Deem and Ramdas Pophale) SiO2 
 PCOD8234413
Probable space group: P B C M
;
_chemical_formula_sum "Si O2"
_cell_formula_units_Z 56
_cell_length_a 5.597442
_cell_length_b 31.569234
_cell_length_c 14.753671
_cell_angle_alpha 90.000000
_cell_angle_beta 90.000000
_cell_angle_gamma 90.000000
_cell_volume 2607.076297
_symmetry_space_group_name_H-M "P B C M"
_symmetry_group_IT_number 57
_symmetry_cell_setting 'orthorhombic'
loop_
_space_group_symop_operation_xyz
x,y,z
-x,-y,1/2+z
x,1/2-y,-z
-x,1/2+y,1/2-z
-x,-y,-z
x,y,1/2-z
-x,1/2+y,z
x,1/2-y,1/2+z
loop_
_atom_site_type_symbol
_atom_site_label
_atom_site_fract_x
_atom_site_fract_y
_atom_site_fract_z
Si Si1 0.023111 0.351683 0.851078
Si Si2 0.084126 0.551926 0.586960
Si Si3 0.422188 0.487536 0.352402
Si Si4 0.217015 0.799992 0.001622
Si Si5 0.600802 0.636274 0.497252
Si Si6 0.023313 0.359470 0.354923
Si Si7 0.259509 0.925549 0.587916
O O1 0.087725 0.335751 0.750000
O O2 0.842222 0.391424 0.841252
O O3 0.252221 0.367873 0.904566
O O4 0.912702 0.313613 0.909079
O O5 0.332516 0.525482 0.597475
O O6 0.049469 0.556375 0.477789
O O7 0.835729 0.530568 0.617282
O O8 0.125084 0.596813 0.639173
O O9 0.461053 0.473714 0.250000
O O10 0.404760 0.538483 0.359932
O O11 0.487148 0.816728 0.999380
O O12 0.095806 0.820085 0.091595
O O13 0.213999 0.750000 0.000000
O O14 0.732060 0.629533 0.592686
O O15 0.411337 0.598806 0.489812
O O16 0.065517 0.346452 0.250000
#
# Coordination Sequence:
#
# PCOD8234413 Si02
#       7
#     8   8   8   8   8   8   8
#     4  10  22  41  68  96 130 170 220 277 337 407
#     4  12  24  44  65  96 136 186 231 285 342 403
#     4  12  27  41  63 100 138 183 239 292 338 401
#     4  10  23  44  67  94 132 169 214 274 345 418
#     4  10  21  42  66  98 130 173 224 272 348 404
#     4  11  23  42  68  96 132 176 223 275 340 409
#     4  11  23  42  65  92 131 180 227 276 346 402
#
# _framework density 21.48
#
# number of rings (size 3 to 8) (size 9 to 14) (size 15 to 20)
#    0.000    1.143    4.286    3.429    2.000    6.286 
#    0.000    0.000    0.000    0.000    0.000    0.000 
#    0.000    0.000    0.000    0.000    0.000    0.000 
#
# Total GULP energy -693864.880896 kJ/mol
# GULP energy per Si atom -12390.444302 kJ/mol
# Density = 2.143111 g / cm^3
# Si number density = 21.480000 Si / 1000 Ang^3
#
#
#
# Elastic Constant Matrix: (Units=GPa)
#
#
# Indices 1 2 3 4 5 6 
#
# 1 97.7256 31.4309 27.7784 0.0000 0.0000 0.0000
# 2 31.4309 124.9967 19.5487 0.0000 0.0000 0.0000
# 3 27.7784 19.5487 151.7792 0.0000 0.0000 0.0000
# 4 0.0000 0.0000 0.0000 16.5008 0.0000 0.0000
# 5 0.0000 0.0000 0.0000 0.0000 12.3036 0.0000
# 6 0.0000 0.0000 0.0000 0.0000 0.0000 13.0661
#
#
#
# Elastic Compliance Matrix: (Units=1/GPa)
#
#
# Indices 1 2 3 4 5 6 
#
# 1 0.011586 -0.002635 -0.001781 0.000000 0.000000 0.000000
# 2 -0.002635 0.008764 -0.000647 0.000000 0.000000 0.000000
# 3 -0.001781 -0.000647 0.006998 0.000000 0.000000 0.000000
# 4 0.000000 0.000000 0.000000 0.060603 0.000000 0.000000
# 5 0.000000 0.000000 0.000000 0.000000 0.081277 0.000000
# 6 0.000000 0.000000 0.000000 0.000000 0.000000 0.076534
#
#
# Mechanical properties :
#
#
# Convention : Reuss Voigt Hill
#
# Bulk Modulus (GPa) = 58.06210 59.11304 58.58757
# Shear Modulus (GPa) = 19.11107 28.09033 23.60070
#
# Velocity S-wave (km/s) = 2.98604 3.62020 3.31830
# Velocity P-wave (km/s) = 6.24324 6.71224 6.48199
#
# Compressibility (1/GPa) = 0.01722294
#
# Stress axis : x y z
#
# Youngs Moduli (GPa) = 86.30756 114.10469 142.90256
#
# Poissons Ratio (x) = 0.30065 0.25453
# Poissons Ratio (y) = 0.22741 0.09239
# Poissons Ratio (z) = 0.15373 0.07377
#
# Static dielectric constant tensor:
#      x y z
#    x 4.003450 0.000000 0.000000 
#    y 0.000000 3.733880 0.000000 
#    z 0.000000 0.000000 3.810190 
# 
# 
# High freq. dielectric constant tensor:
#      x y z
#    x 1.847410 0.000000 0.000000 
#    y 0.000000 1.833670 0.000000 
#    z 0.000000 0.000000 1.842560 
# 
# From -- ./inp_files/15247.got.cif
#   From: 2010.03.12/outbox.cif.g09.slc.cpg/sg57_8_cif.got.tgz:15247.got - 2010.04.16 15:48:40.
