data_PCOD8234218
_publ_section_title
;
Structure prediction by ZEFSAII (Michael W. Deem and Ramdas Pophale) SiO2 
 PCOD8234218
Probable space group: P B C M
;
_chemical_formula_sum "Si O2"
_cell_formula_units_Z 64
_cell_length_a 11.916551
_cell_length_b 30.888911
_cell_length_c 8.633573
_cell_angle_alpha 90.000000
_cell_angle_beta 90.000000
_cell_angle_gamma 90.000000
_cell_volume 3177.925698
_symmetry_space_group_name_H-M "P B C M"
_symmetry_group_IT_number 57
_symmetry_cell_setting 'orthorhombic'
loop_
_space_group_symop_operation_xyz
x,y,z
-x,-y,1/2+z
x,1/2-y,-z
-x,1/2+y,1/2-z
-x,-y,-z
x,y,1/2-z
-x,1/2+y,z
x,1/2-y,1/2+z
loop_
_atom_site_type_symbol
_atom_site_label
_atom_site_fract_x
_atom_site_fract_y
_atom_site_fract_z
Si Si1 0.877712 0.375826 0.066299
Si Si2 0.966274 0.954082 0.065711
Si Si3 0.492295 0.294663 0.568512
Si Si4 0.489648 0.046672 0.426663
Si Si5 0.750622 0.912604 0.926737
Si Si6 0.982322 0.794821 0.066959
Si Si7 0.264034 0.179176 0.930781
Si Si8 0.375887 0.624386 0.567049
O O1 0.877497 0.373593 0.250000
O O2 0.751098 0.375731 0.001971
O O3 0.940635 0.419261 0.012049
O O4 0.943535 0.334134 0.998704
O O5 0.953724 0.955316 0.250000
O O6 0.848849 0.942670 0.988542
O O7 0.000000 0.000000 0.000000
O O8 0.541643 0.250000 0.500000
O O9 0.508685 0.294310 0.750000
O O10 0.360908 0.297895 0.528662
O O11 0.558455 0.335188 0.501925
O O12 0.531466 0.046003 0.250000
O O13 0.360870 0.059532 0.437710
O O14 0.566658 0.079760 0.520425
O O15 0.500000 0.000000 0.500000
O O16 0.773095 0.897692 0.750000
O O17 0.738390 0.871726 0.038029
O O18 0.991535 0.794228 0.250000
O O19 0.853650 0.800674 0.014454
O O20 0.029989 0.750000 0.000000
O O21 0.287472 0.186881 0.750000
O O22 0.377836 0.628909 0.750000
#
# Coordination Sequence:
#
# PCOD8234218 Si02
#       8
#     8   8   8   8   8   8   8   8
#     4   9  21  42  63  86 123 164 203 252 308 366
#     4  11  23  42  65  93 127 164 208 258 311 374
#     4  12  25  42  63  92 128 164 209 261 312 376
#     4  11  25  43  64  93 128 165 210 261 312 372
#     4  11  23  40  64  94 128 164 206 258 313 369
#     4  10  21  39  61  90 123 159 201 248 303 363
#     4  11  21  38  65  93 126 165 205 254 316 374
#     4  11  23  42  67  91 123 166 210 259 315 372
#
# _framework density 20.138922000000001
#
# number of rings (size 3 to 8) (size 9 to 14) (size 15 to 20)
#    0.000    1.250    2.500    3.375    1.750    4.000 
#    0.000    4.375    0.000    0.000    0.000    0.000 
#    0.000    0.000    0.000    0.000    0.000    0.000 
#
# Total GULP energy -793896.153533 kJ/mol
# GULP energy per Si atom -12404.627399 kJ/mol
# Density = 2.009308 g / cm^3
# Si number density = 20.138922 Si / 1000 Ang^3
#
#
#
# Elastic Constant Matrix: (Units=GPa)
#
#
# Indices 1 2 3 4 5 6 
#
# 1 129.5343 60.3062 43.1858 0.0000 0.0000 0.0000
# 2 60.3062 170.2679 34.9048 0.0000 0.0000 0.0000
# 3 43.1858 34.9048 77.7494 0.0000 0.0000 0.0000
# 4 0.0000 0.0000 0.0000 37.7217 0.0000 0.0000
# 5 0.0000 0.0000 0.0000 0.0000 -106.0523 0.0000
# 6 0.0000 0.0000 0.0000 0.0000 0.0000 33.9743
#
#
#
# Elastic Compliance Matrix: (Units=1/GPa)
#
#
# Indices 1 2 3 4 5 6 
#
# 1 0.010558 -0.002794 -0.004610 0.000000 0.000000 0.000000
# 2 -0.002794 0.007208 -0.001684 0.000000 0.000000 0.000000
# 3 -0.004610 -0.001684 0.016178 0.000000 0.000000 0.000000
# 4 0.000000 0.000000 0.000000 0.026510 0.000000 0.000000
# 5 0.000000 0.000000 0.000000 0.000000 -0.009429 0.000000
# 6 0.000000 0.000000 0.000000 0.000000 0.000000 0.029434
#
#
# Mechanical properties :
#
#
# Convention : Reuss Voigt Hill
#
# Bulk Modulus (GPa) = 63.41935 72.70502 68.06218
# Shear Modulus (GPa) = 48.12746 9.07239 28.59992
#
# Velocity S-wave (km/s) = 4.89383 2.12478 3.77255
# Velocity P-wave (km/s) = 7.96819 6.49613 7.26952
#
# Compressibility (1/GPa) = 0.01576806
#
# Stress axis : x y z
#
# Youngs Moduli (GPa) = 94.71672 138.73450 61.81127
#
# Poissons Ratio (x) = 0.38768 0.28494
# Poissons Ratio (y) = 0.26468 0.10408
# Poissons Ratio (z) = 0.43662 0.23360
#
# Static dielectric constant tensor:
#      x y z
#    x 4.007450 0.000000 0.000000 
#    y 0.000000 3.834210 0.000000 
#    z 0.000000 0.000000 3.759300 
# 
# 
# High freq. dielectric constant tensor:
#      x y z
#    x 1.792450 0.000000 0.000000 
#    y 0.000000 1.802720 0.000000 
#    z 0.000000 0.000000 1.783710 
# 
# From -- ./inp_files/3911.got.cif
#   From: 2010.03.12/outbox.cif.g09.slc.cpg/sg57_2_cif.got.tgz:3911.got - 2010.04.16 15:48:40.
