data_PCOD8234268
_publ_section_title
;
Structure prediction by ZEFSAII (Michael W. Deem and Ramdas Pophale) SiO2 
 PCOD8234268
Probable space group: P B C M
;
_chemical_formula_sum "Si O2"
_cell_formula_units_Z 32
_cell_length_a 16.829488
_cell_length_b 4.837729
_cell_length_c 16.437637
_cell_angle_alpha 90.000000
_cell_angle_beta 90.000000
_cell_angle_gamma 90.000000
_cell_volume 1338.294908
_symmetry_space_group_name_H-M "P B C M"
_symmetry_group_IT_number 57
_symmetry_cell_setting 'orthorhombic'
loop_
_space_group_symop_operation_xyz
x,y,z
-x,-y,1/2+z
x,1/2-y,-z
-x,1/2+y,1/2-z
-x,-y,-z
x,y,1/2-z
-x,1/2+y,z
x,1/2-y,1/2+z
loop_
_atom_site_type_symbol
_atom_site_label
_atom_site_fract_x
_atom_site_fract_y
_atom_site_fract_z
Si Si1 0.446654 0.567607 0.843527
Si Si2 0.717704 0.120661 0.587972
Si Si3 0.952444 0.211815 0.404085
Si Si4 0.797636 0.900776 0.157724
O O1 0.419527 0.530680 0.750000
O O2 0.520159 0.369026 0.863632
O O3 0.371265 0.503926 0.901023
O O4 0.734211 0.250000 0.500000
O O5 0.726635 0.374799 0.651479
O O6 0.780427 0.870321 0.602830
O O7 0.947334 0.250000 0.500000
O O8 0.973819 0.518640 0.372573
O O9 0.872185 0.080355 0.371906
O O10 0.807274 0.799577 0.250000
#
# Coordination Sequence:
#
# PCOD8234268 Si02
#       4
#     8   8   8   8
#     4  10  21  39  64  93 128 169 214 269 334 401
#     4  12  26  43  66  97 134 175 222 277 335 398
#     4  10  22  41  66  97 133 171 213 267 329 390
#     4  12  25  43  68  97 133 176 225 277 331 398
#
# _framework density 23.911021000000002
#
# number of rings (size 3 to 8) (size 9 to 14) (size 15 to 20)
#    0.000    1.000    0.000    6.750    0.000    8.000 
#    0.000    0.000    0.000    0.000    0.000    0.000 
#    0.000    0.000    0.000    0.000    0.000    0.000 
#
# Total GULP energy -396685.477132 kJ/mol
# GULP energy per Si atom -12396.421160 kJ/mol
# Density = 2.385660 g / cm^3
# Si number density = 23.911021 Si / 1000 Ang^3
#
#
#
# Elastic Constant Matrix: (Units=GPa)
#
#
# Indices 1 2 3 4 5 6 
#
# 1 103.1696 20.0038 55.3116 0.0000 0.0000 0.0000
# 2 20.0038 82.7616 52.0579 0.0000 0.0000 0.0000
# 3 55.3116 52.0579 96.3126 0.0000 0.0000 0.0000
# 4 0.0000 0.0000 0.0000 30.0945 0.0000 0.0000
# 5 0.0000 0.0000 0.0000 0.0000 24.7000 0.0000
# 6 0.0000 0.0000 0.0000 0.0000 0.0000 30.0418
#
#
#
# Elastic Compliance Matrix: (Units=1/GPa)
#
#
# Indices 1 2 3 4 5 6 
#
# 1 0.014365 0.002602 -0.009656 0.000000 0.000000 0.000000
# 2 0.002602 0.018778 -0.011644 0.000000 0.000000 0.000000
# 3 -0.009656 -0.011644 0.022222 0.000000 0.000000 0.000000
# 4 0.000000 0.000000 0.000000 0.033229 0.000000 0.000000
# 5 0.000000 0.000000 0.000000 0.000000 0.040486 0.000000
# 6 0.000000 0.000000 0.000000 0.000000 0.000000 0.033287
#
#
# Mechanical properties :
#
#
# Convention : Reuss Voigt Hill
#
# Bulk Modulus (GPa) = 55.65244 59.66560 57.65902
# Shear Modulus (GPa) = 24.30103 27.29196 25.79650
#
# Velocity S-wave (km/s) = 3.19142 3.38212 3.28815
# Velocity P-wave (km/s) = 6.07500 6.34500 6.21146
#
# Compressibility (1/GPa) = 0.01796866
#
# Stress axis : x y z
#
# Youngs Moduli (GPa) = 69.61301 53.25332 45.00086
#
# Poissons Ratio (x) = -0.13854 0.43453
# Poissons Ratio (y) = -0.18110 0.52398
# Poissons Ratio (z) = 0.67218 0.62007
#
# Static dielectric constant tensor:
#      x y z
#    x 4.178420 0.000000 0.000000 
#    y 0.000000 4.825750 0.000000 
#    z 0.000000 0.000000 3.966410 
# 
# 
# High freq. dielectric constant tensor:
#      x y z
#    x 1.954300 0.000000 0.000000 
#    y 0.000000 1.973590 0.000000 
#    z 0.000000 0.000000 1.922010 
# 
# From -- ./inp_files/18763.got.cif
#   From: 2010.03.12/outbox.cif.g09.slc.cpg/sg57_10_cif.got.tgz:18763.got - 2010.04.16 15:48:40.
