data_PCOD8234452
_publ_section_title
;
Structure prediction by ZEFSAII (Michael W. Deem and Ramdas Pophale) SiO2 
 PCOD8234452
Probable space group: P B C M
;
_chemical_formula_sum "Si O2"
_cell_formula_units_Z 64
_cell_length_a 9.676633
_cell_length_b 18.965005
_cell_length_c 19.416870
_cell_angle_alpha 90.000000
_cell_angle_beta 90.000000
_cell_angle_gamma 90.000000
_cell_volume 3563.333367
_symmetry_space_group_name_H-M "P B C M"
_symmetry_group_IT_number 57
_symmetry_cell_setting 'orthorhombic'
loop_
_space_group_symop_operation_xyz
x,y,z
-x,-y,1/2+z
x,1/2-y,-z
-x,1/2+y,1/2-z
-x,-y,-z
x,y,1/2-z
-x,1/2+y,z
x,1/2-y,1/2+z
loop_
_atom_site_type_symbol
_atom_site_label
_atom_site_fract_x
_atom_site_fract_y
_atom_site_fract_z
Si Si1 0.518184 0.632685 0.326834
Si Si2 0.677100 0.241472 0.673440
Si Si3 0.179630 0.323712 0.671818
Si Si4 0.355825 0.675681 0.963897
Si Si5 0.982616 0.201159 0.671575
Si Si6 0.865716 0.932384 0.942102
Si Si7 0.917115 0.093109 0.943486
Si Si8 0.445600 0.429124 0.533236
O O1 0.517078 0.598464 0.250000
O O2 0.383603 0.680626 0.338132
O O3 0.654368 0.681850 0.335867
O O4 0.518433 0.571559 0.384707
O O5 0.637935 0.213589 0.750000
O O6 0.614565 0.187612 0.617376
O O7 0.842203 0.246763 0.664242
O O8 0.134908 0.339437 0.750000
O O9 0.121586 0.388115 0.627512
O O10 0.110595 0.250198 0.647941
O O11 0.223919 0.625626 0.972922
O O12 0.324704 0.750000 0.000000
O O13 0.488816 0.639185 0.997115
O O14 0.002346 0.174692 0.750000
O O15 0.976324 0.133242 0.622935
O O16 0.717310 0.924374 0.978145
O O17 0.893531 0.012795 0.921194
O O18 0.974548 0.901272 0.995261
O O19 0.500000 0.500000 0.500000
#
# Coordination Sequence:
#
# PCOD8234452 Si02
#       8
#     8   8   8   8   8   8   8   8
#     4   9  18  34  55  79 107 141 180 222 269 328
#     4   9  18  33  53  81 108 137 180 226 268 319
#     4   9  19  34  54  80 108 141 178 220 273 328
#     4  11  21  35  58  85 109 146 184 226 282 327
#     4   9  19  35  56  82 109 141 181 229 275 319
#     4  10  22  37  54  79 111 148 185 221 278 328
#     4  10  22  37  54  80 110 146 184 230 272 329
#     4  11  21  38  56  80 113 147 182 233 278 330
#
# _framework density 17.960711
#
# number of rings (size 3 to 8) (size 9 to 14) (size 15 to 20)
#    0.000    2.250    2.500    0.000    3.500    1.500 
#    0.000    0.625    0.000    0.750    0.000    0.000 
#    0.000    0.000    0.000    0.000    0.000    0.000 
#
# Total GULP energy -793570.473997 kJ/mol
# GULP energy per Si atom -12399.538656 kJ/mol
# Density = 1.791983 g / cm^3
# Si number density = 17.960711 Si / 1000 Ang^3
#
#
#
# Elastic Constant Matrix: (Units=GPa)
#
#
# Indices 1 2 3 4 5 6 
#
# 1 71.3397 41.0578 48.8920 0.0000 0.0000 0.0000
# 2 41.0578 84.8571 57.3606 0.0000 0.0000 0.0000
# 3 48.8920 57.3606 110.8397 0.0000 0.0000 0.0000
# 4 0.0000 0.0000 0.0000 34.7208 0.0000 0.0000
# 5 0.0000 0.0000 0.0000 0.0000 26.0847 0.0000
# 6 0.0000 0.0000 0.0000 0.0000 0.0000 30.5998
#
#
#
# Elastic Compliance Matrix: (Units=1/GPa)
#
#
# Indices 1 2 3 4 5 6 
#
# 1 0.022088 -0.006308 -0.006479 0.000000 0.000000 0.000000
# 2 -0.006308 0.019926 -0.007530 0.000000 0.000000 0.000000
# 3 -0.006479 -0.007530 0.015777 0.000000 0.000000 0.000000
# 4 0.000000 0.000000 0.000000 0.028801 0.000000 0.000000
# 5 0.000000 0.000000 0.000000 0.000000 0.038337 0.000000
# 6 0.000000 0.000000 0.000000 0.000000 0.000000 0.032680
#
#
# Mechanical properties :
#
#
# Convention : Reuss Voigt Hill
#
# Bulk Modulus (GPa) = 58.28057 62.40635 60.34346
# Shear Modulus (GPa) = 24.51459 26.26281 25.38870
#
# Velocity S-wave (km/s) = 3.69846 3.82807 3.76382
# Velocity P-wave (km/s) = 7.12443 7.37294 7.24975
#
# Compressibility (1/GPa) = 0.01715838
#
# Stress axis : x y z
#
# Youngs Moduli (GPa) = 45.27375 50.18500 63.38524
#
# Poissons Ratio (x) = 0.31655 0.41066
# Poissons Ratio (y) = 0.28557 0.47727
# Poissons Ratio (z) = 0.29332 0.37788
#
# Static dielectric constant tensor:
#      x y z
#    x 3.448540 0.000000 0.000000 
#    y 0.000000 3.146560 0.000000 
#    z 0.000000 0.000000 3.584850 
# 
# 
# High freq. dielectric constant tensor:
#      x y z
#    x 1.700320 0.000000 0.000000 
#    y 0.000000 1.673800 0.000000 
#    z 0.000000 0.000000 1.708080 
# 
# From -- ./inp_files/24589.got.cif
#   From: 2010.03.12/outbox.cif.g09.slc.cpg/sg57_13_cif.got.tgz:24589.got - 2010.04.16 15:48:40.
