data_PCOD8234430
_publ_section_title
;
Structure prediction by ZEFSAII (Michael W. Deem and Ramdas Pophale) SiO2 
 PCOD8234430
Probable space group: P B C M
;
_chemical_formula_sum "Si O2"
_cell_formula_units_Z 40
_cell_length_a 8.869772
_cell_length_b 8.839381
_cell_length_c 23.607225
_cell_angle_alpha 90.000000
_cell_angle_beta 90.000000
_cell_angle_gamma 90.000000
_cell_volume 1850.884204
_symmetry_space_group_name_H-M "P B C M"
_symmetry_group_IT_number 57
_symmetry_cell_setting 'orthorhombic'
loop_
_space_group_symop_operation_xyz
x,y,z
-x,-y,1/2+z
x,1/2-y,-z
-x,1/2+y,1/2-z
-x,-y,-z
x,y,1/2-z
-x,1/2+y,z
x,1/2-y,1/2+z
loop_
_atom_site_type_symbol
_atom_site_label
_atom_site_fract_x
_atom_site_fract_y
_atom_site_fract_z
Si Si1 0.625953 0.940330 0.149910
Si Si2 0.193478 0.203285 0.750000
Si Si3 0.796561 0.601416 0.535685
Si Si4 0.689781 0.286391 0.152928
Si Si5 0.124942 0.939941 0.250000
Si Si6 0.875253 0.136486 0.546589
O O1 0.711984 0.831422 0.193529
O O2 0.676707 0.911435 0.085818
O O3 0.451145 0.898125 0.151984
O O4 0.643592 0.115333 0.168791
O O5 0.149285 0.379768 0.750000
O O6 0.052127 0.091221 0.750000
O O7 0.767618 0.750000 0.500000
O O8 0.767984 0.480280 0.485931
O O9 0.960977 0.572687 0.566424
O O10 0.806345 0.359156 0.195843
O O11 0.777749 0.280863 0.093782
O O12 0.936418 0.250000 0.500000
#
# Coordination Sequence:
#
# PCOD8234430 Si02
#       6
#     8   4   8   8   4   8
#     4  12  26  45  66 100 136 181 220 279 332 401
#     4  12  27  48  75 100 132 168 226 268 337 392
#     4  10  23  39  69  96 134 174 228 274 335 392
#     4  12  26  44  69  96 140 175 226 273 339 393
#     4  12  27  48  75 102 128 174 216 280 327 402
#     4  10  21  43  65  97 131 177 222 277 327 398
#
# _framework density 21.611294000000001
#
# number of rings (size 3 to 8) (size 9 to 14) (size 15 to 20)
#    0.000    0.800    2.000    4.800    5.600    1.600 
#    0.000    0.000    0.000    0.000    0.000    0.000 
#    0.000    0.000    0.000    0.000    0.000    0.000 
#
# Total GULP energy -495856.889325 kJ/mol
# GULP energy per Si atom -12396.422233 kJ/mol
# Density = 2.156211 g / cm^3
# Si number density = 21.611294 Si / 1000 Ang^3
#
#
#
# Elastic Constant Matrix: (Units=GPa)
#
#
# Indices 1 2 3 4 5 6 
#
# 1 91.4992 -3.7865 26.0594 0.0000 0.0000 0.0000
# 2 -3.7865 110.9516 14.4457 0.0000 0.0000 0.0000
# 3 26.0594 14.4457 79.4191 0.0000 0.0000 0.0000
# 4 0.0000 0.0000 0.0000 25.1630 0.0000 0.0000
# 5 0.0000 0.0000 0.0000 0.0000 4.1252 0.0000
# 6 0.0000 0.0000 0.0000 0.0000 0.0000 37.6710
#
#
#
# Elastic Compliance Matrix: (Units=1/GPa)
#
#
# Indices 1 2 3 4 5 6 
#
# 1 0.012154 0.000957 -0.004162 0.000000 0.000000 0.000000
# 2 0.000957 0.009307 -0.002007 0.000000 0.000000 0.000000
# 3 -0.004162 -0.002007 0.014322 0.000000 0.000000 0.000000
# 4 0.000000 0.000000 0.000000 0.039741 0.000000 0.000000
# 5 0.000000 0.000000 0.000000 0.000000 0.242412 0.000000
# 6 0.000000 0.000000 0.000000 0.000000 0.000000 0.026546
#
#
# Mechanical properties :
#
#
# Convention : Reuss Voigt Hill
#
# Bulk Modulus (GPa) = 39.43411 39.47854 39.45633
# Shear Modulus (GPa) = 13.76051 29.73525 21.74788
#
# Velocity S-wave (km/s) = 2.52608 3.71335 3.17570
# Velocity P-wave (km/s) = 5.17636 6.05744 5.63415
#
# Compressibility (1/GPa) = 0.02535876
#
# Stress axis : x y z
#
# Youngs Moduli (GPa) = 82.27729 107.44753 69.82215
#
# Poissons Ratio (x) = -0.10279 0.29060
# Poissons Ratio (y) = -0.07871 0.14012
# Poissons Ratio (z) = 0.34244 0.21562
#
# Static dielectric constant tensor:
#      x y z
#    x 3.838920 0.000000 0.000000 
#    y 0.000000 3.944450 0.000000 
#    z 0.000000 0.000000 4.013790 
# 
# 
# High freq. dielectric constant tensor:
#      x y z
#    x 1.851600 0.000000 0.000000 
#    y 0.000000 1.865880 0.000000 
#    z 0.000000 0.000000 1.854650 
# 
# From -- ./inp_files/26528.got.cif
#   From: 2010.03.12/outbox.cif.g09.slc.cpg/sg57_14_cif.got.tgz:26528.got - 2010.04.16 15:48:40.
