data_PCOD8234685
_publ_section_title
;
Structure prediction by ZEFSAII (Michael W. Deem and Ramdas Pophale) SiO2 
 PCOD8234685
Probable space group: P B C M
;
_chemical_formula_sum "Si O2"
_cell_formula_units_Z 40
_cell_length_a 5.092222
_cell_length_b 23.243246
_cell_length_c 14.769224
_cell_angle_alpha 90.000000
_cell_angle_beta 90.000000
_cell_angle_gamma 90.000000
_cell_volume 1748.081936
_symmetry_space_group_name_H-M "P B C M"
_symmetry_group_IT_number 57
_symmetry_cell_setting 'orthorhombic'
loop_
_space_group_symop_operation_xyz
x,y,z
-x,-y,1/2+z
x,1/2-y,-z
-x,1/2+y,1/2-z
-x,-y,-z
x,y,1/2-z
-x,1/2+y,z
x,1/2-y,1/2+z
loop_
_atom_site_type_symbol
_atom_site_label
_atom_site_fract_x
_atom_site_fract_y
_atom_site_fract_z
Si Si1 0.145557 0.636091 0.471871
Si Si2 0.749783 0.487532 0.941288
Si Si3 0.820703 0.599330 0.650710
Si Si4 0.969290 0.766460 0.852831
Si Si5 0.522399 0.196249 0.899429
O O1 0.247249 0.580214 0.416426
O O2 0.972889 0.671640 0.401133
O O3 0.386268 0.678617 0.498832
O O4 0.001778 0.619669 0.566618
O O5 0.749910 0.531280 0.856502
O O6 0.500000 0.500000 0.000000
O O7 0.000000 0.500000 0.000000
O O8 0.954726 0.608725 0.750000
O O9 0.549398 0.636085 0.650906
O O10 0.878572 0.776033 0.750000
O O11 0.245215 0.732010 0.851640
O O12 0.749005 0.730891 0.905936
#
# Coordination Sequence:
#
# PCOD8234685 Si02
#       5
#     8   8   8   8   8
#     4  11  26  44  75  97 145 182 236 284 357 414
#     4  10  22  44  64  96 130 173 220 283 338 407
#     4  11  24  43  71 104 136 179 230 286 345 411
#     4  12  28  44  67 102 142 186 234 285 348 419
#     4  12  25  43  67 101 137 178 231 291 341 409
#
# _framework density 22.882221999999999
#
# number of rings (size 3 to 8) (size 9 to 14) (size 15 to 20)
#    0.000    0.800    4.000    2.400    5.600    2.400 
#    0.000    0.000    0.000    1.200    0.000    0.000 
#    0.000    0.000    0.000    0.000    0.000    0.000 
#
# Total GULP energy -495601.409505 kJ/mol
# GULP energy per Si atom -12390.035238 kJ/mol
# Density = 2.283014 g / cm^3
# Si number density = 22.882222 Si / 1000 Ang^3
#
#
#
# Elastic Constant Matrix: (Units=GPa)
#
#
# Indices 1 2 3 4 5 6 
#
# 1 118.4664 35.7837 17.1052 0.0000 0.0000 0.0000
# 2 35.7837 149.3248 64.8146 0.0000 0.0000 0.0000
# 3 17.1052 64.8146 100.6348 0.0000 0.0000 0.0000
# 4 0.0000 0.0000 0.0000 19.8397 0.0000 0.0000
# 5 0.0000 0.0000 0.0000 0.0000 22.0029 0.0000
# 6 0.0000 0.0000 0.0000 0.0000 0.0000 25.8106
#
#
#
# Elastic Compliance Matrix: (Units=1/GPa)
#
#
# Indices 1 2 3 4 5 6 
#
# 1 0.009103 -0.002096 -0.000198 0.000000 0.000000 0.000000
# 2 -0.002096 0.009778 -0.005941 0.000000 0.000000 0.000000
# 3 -0.000198 -0.005941 0.013797 0.000000 0.000000 0.000000
# 4 0.000000 0.000000 0.000000 0.050404 0.000000 0.000000
# 5 0.000000 0.000000 0.000000 0.000000 0.045449 0.000000
# 6 0.000000 0.000000 0.000000 0.000000 0.000000 0.038744
#
#
# Mechanical properties :
#
#
# Convention : Reuss Voigt Hill
#
# Bulk Modulus (GPa) = 61.69515 67.09257 64.39386
# Shear Modulus (GPa) = 26.43464 30.24546 28.34005
#
# Velocity S-wave (km/s) = 3.40258 3.63959 3.52308
# Velocity P-wave (km/s) = 6.51593 6.85905 6.68969
#
# Compressibility (1/GPa) = 0.01620873
#
# Stress axis : x y z
#
# Youngs Moduli (GPa) = 109.85720 102.27230 72.47944
#
# Poissons Ratio (x) = 0.21432 0.01432
# Poissons Ratio (y) = 0.23022 0.43062
# Poissons Ratio (z) = 0.02170 0.60763
#
# Static dielectric constant tensor:
#      x y z
#    x 4.109890 0.000000 0.000000 
#    y 0.000000 3.406600 0.000000 
#    z 0.000000 0.000000 3.822550 
# 
# 
# High freq. dielectric constant tensor:
#      x y z
#    x 1.905050 0.000000 0.000000 
#    y 0.000000 1.926080 0.000000 
#    z 0.000000 0.000000 1.873840 
# 
# From -- ./inp_files/20114.got.cif
#   From: 2010.03.12/outbox.cif.g09.slc.cpg/sg57_11_cif.got.tgz:20114.got - 2010.04.16 15:48:40.
