data_PCOD8234205
_publ_section_title
;
Structure prediction by ZEFSAII (Michael W. Deem and Ramdas Pophale) SiO2 
 PCOD8234205
Probable space group: P B C M
;
_chemical_formula_sum "Si O2"
_cell_formula_units_Z 40
_cell_length_a 7.680981
_cell_length_b 18.189972
_cell_length_c 13.695618
_cell_angle_alpha 90.000000
_cell_angle_beta 90.000000
_cell_angle_gamma 90.000000
_cell_volume 1913.508323
_symmetry_space_group_name_H-M "P B C M"
_symmetry_group_IT_number 57
_symmetry_cell_setting 'orthorhombic'
loop_
_space_group_symop_operation_xyz
x,y,z
-x,-y,1/2+z
x,1/2-y,-z
-x,1/2+y,1/2-z
-x,-y,-z
x,y,1/2-z
-x,1/2+y,z
x,1/2-y,1/2+z
loop_
_atom_site_type_symbol
_atom_site_label
_atom_site_fract_x
_atom_site_fract_y
_atom_site_fract_z
Si Si1 0.139250 0.133061 0.641034
Si Si2 0.565859 0.111598 0.446410
Si Si3 0.268617 0.206806 0.362836
Si Si4 0.529388 0.543698 0.640542
Si Si5 0.069376 0.668295 0.467360
O O1 0.060614 0.141218 0.750000
O O2 0.247423 0.206854 0.612665
O O3 0.266250 0.063420 0.634506
O O4 0.983816 0.121796 0.564095
O O5 0.430215 0.176715 0.425406
O O6 0.572680 0.093091 0.561967
O O7 0.760907 0.134352 0.416077
O O8 0.505707 0.041900 0.383176
O O9 0.309019 0.193059 0.250000
O O10 0.089755 0.165339 0.390978
O O11 0.457706 0.559775 0.750000
O O12 0.117702 0.750000 0.500000
#
# Coordination Sequence:
#
# PCOD8234205 Si02
#       5
#     8   8   8   8   8
#     4   9  19  39  62  84 122 161 193 244 299 351
#     4  11  23  38  64  89 119 159 200 247 300 352
#     4  10  21  39  61  87 122 160 199 245 301 353
#     4  10  22  40  59  87 123 159 202 244 295 360
#     4  10  22  37  62  91 118 148 201 248 292 352
#
# _framework density 20.904012000000002
#
# number of rings (size 3 to 8) (size 9 to 14) (size 15 to 20)
#    0.000    2.000    2.000    0.600    2.800    3.200 
#    0.000    0.000    0.000    0.000    0.000    0.000 
#    0.000    0.000    0.000    0.000    0.000    0.000 
#
# Total GULP energy -496022.483652 kJ/mol
# GULP energy per Si atom -12400.562091 kJ/mol
# Density = 2.085643 g / cm^3
# Si number density = 20.904012 Si / 1000 Ang^3
#
#
#
# Elastic Constant Matrix: (Units=GPa)
#
#
# Indices 1 2 3 4 5 6 
#
# 1 104.5678 17.5374 23.3788 0.0000 0.0000 0.0000
# 2 17.5374 32.4938 17.8720 0.0000 0.0000 0.0000
# 3 23.3788 17.8720 89.6345 0.0000 0.0000 0.0000
# 4 0.0000 0.0000 0.0000 21.3253 0.0000 0.0000
# 5 0.0000 0.0000 0.0000 0.0000 16.1945 0.0000
# 6 0.0000 0.0000 0.0000 0.0000 0.0000 21.9555
#
#
#
# Elastic Compliance Matrix: (Units=1/GPa)
#
#
# Indices 1 2 3 4 5 6 
#
# 1 0.010783 -0.004799 -0.001856 0.000000 0.000000 0.000000
# 2 -0.004799 0.036702 -0.006066 0.000000 0.000000 0.000000
# 3 -0.001856 -0.006066 0.012850 0.000000 0.000000 0.000000
# 4 0.000000 0.000000 0.000000 0.046893 0.000000 0.000000
# 5 0.000000 0.000000 0.000000 0.000000 0.061749 0.000000
# 6 0.000000 0.000000 0.000000 0.000000 0.000000 0.045547
#
#
# Mechanical properties :
#
#
# Convention : Reuss Voigt Hill
#
# Bulk Modulus (GPa) = 28.65911 38.25249 33.45580
# Shear Modulus (GPa) = 19.87317 23.08894 21.48105
#
# Velocity S-wave (km/s) = 3.08667 3.32704 3.20910
# Velocity P-wave (km/s) = 5.14227 5.75307 5.45622
#
# Compressibility (1/GPa) = 0.03489292
#
# Stress axis : x y z
#
# Youngs Moduli (GPa) = 92.73940 27.24669 77.82164
#
# Poissons Ratio (x) = 0.13076 0.14440
# Poissons Ratio (y) = 0.44507 0.47208
# Poissons Ratio (z) = 0.17208 0.16528
#
# Static dielectric constant tensor:
#      x y z
#    x 3.439220 0.000000 0.000000 
#    y 0.000000 3.605200 0.000000 
#    z 0.000000 0.000000 3.975250 
# 
# 
# High freq. dielectric constant tensor:
#      x y z
#    x 1.796510 0.000000 0.000000 
#    y 0.000000 1.806490 0.000000 
#    z 0.000000 0.000000 1.830660 
# 
# From -- ./inp_files/16102.got.cif
#   From: 2010.03.12/outbox.cif.g09.slc.cpg/sg57_9_cif.got.tgz:16102.got - 2010.04.16 15:48:40.
