data_PCOD8234877
_publ_section_title
;
Structure prediction by ZEFSAII (Michael W. Deem and Ramdas Pophale) SiO2 
 PCOD8234877
Probable space group: P B C M
;
_chemical_formula_sum "Si O2"
_cell_formula_units_Z 48
_cell_length_a 6.318706
_cell_length_b 14.274754
_cell_length_c 24.091528
_cell_angle_alpha 90.000000
_cell_angle_beta 90.000000
_cell_angle_gamma 90.000000
_cell_volume 2173.007010
_symmetry_space_group_name_H-M "P B C M"
_symmetry_group_IT_number 57
_symmetry_cell_setting 'orthorhombic'
loop_
_space_group_symop_operation_xyz
x,y,z
-x,-y,1/2+z
x,1/2-y,-z
-x,1/2+y,1/2-z
-x,-y,-z
x,y,1/2-z
-x,1/2+y,z
x,1/2-y,1/2+z
loop_
_atom_site_type_symbol
_atom_site_label
_atom_site_fract_x
_atom_site_fract_y
_atom_site_fract_z
Si Si1 0.009313 0.550126 0.750000
Si Si2 0.456644 0.826092 0.414673
Si Si3 0.681032 0.157590 0.341938
Si Si4 0.774509 0.750000 0.500000
Si Si5 0.959746 0.263626 0.750000
Si Si6 0.946524 0.408351 0.466685
Si Si7 0.218103 0.461012 0.366102
Si Si8 0.658196 0.879139 0.750000
O O1 0.855413 0.541161 0.802561
O O2 0.107624 0.654786 0.750000
O O3 0.197026 0.473268 0.750000
O O4 0.338468 0.751004 0.377557
O O5 0.630978 0.765082 0.446400
O O6 0.565277 0.903291 0.375137
O O7 0.299029 0.878792 0.458268
O O8 0.876878 0.180999 0.303066
O O9 0.478706 0.125574 0.305939
O O10 0.738408 0.069842 0.381689
O O11 0.931537 0.663316 0.493570
O O12 0.210486 0.281780 0.750000
O O13 0.037557 0.416780 0.404556
O O14 0.000000 0.500000 0.500000
#
# Coordination Sequence:
#
# PCOD8234877 Si02
#       8
#     4   8   8   4   4   8   8   4
#     4  12  23  46  71 101 151 185 244 290 358 427
#     4  11  26  45  71 101 140 187 232 305 360 430
#     4  11  25  42  68 100 136 183 233 279 363 418
#     4  10  26  46  70 104 134 182 236 288 362 438
#     4  11  23  43  65  95 139 183 231 289 338 429
#     4  11  27  47  75 107 141 190 239 303 369 426
#     4  11  26  44  68 109 139 186 243 291 358 437
#     4  11  24  43  64 100 138 190 225 293 346 416
#
# _framework density 22.089206000000001
#
# number of rings (size 3 to 8) (size 9 to 14) (size 15 to 20)
#    0.000    1.000    1.667    3.000   11.667    3.333 
#    0.000    0.000    0.000    0.000    0.000    0.000 
#    0.000    0.000    0.000    0.000    0.000    0.000 
#
# Total GULP energy -595039.643610 kJ/mol
# GULP energy per Si atom -12396.659242 kJ/mol
# Density = 2.203893 g / cm^3
# Si number density = 22.089206 Si / 1000 Ang^3
#
#
#
# Elastic Constant Matrix: (Units=GPa)
#
#
# Indices 1 2 3 4 5 6 
#
# 1 109.6130 42.1738 29.5320 0.0000 0.0000 0.0000
# 2 42.1738 156.3113 33.9282 0.0000 0.0000 0.0000
# 3 29.5320 33.9282 76.9674 0.0000 0.0000 0.0000
# 4 0.0000 0.0000 0.0000 42.2368 0.0000 0.0000
# 5 0.0000 0.0000 0.0000 0.0000 6.7086 0.0000
# 6 0.0000 0.0000 0.0000 0.0000 0.0000 41.6376
#
#
#
# Elastic Compliance Matrix: (Units=1/GPa)
#
#
# Indices 1 2 3 4 5 6 
#
# 1 0.010838 -0.002235 -0.003173 0.000000 0.000000 0.000000
# 2 -0.002235 0.007535 -0.002464 0.000000 0.000000 0.000000
# 3 -0.003173 -0.002464 0.015296 0.000000 0.000000 0.000000
# 4 0.000000 0.000000 0.000000 0.023676 0.000000 0.000000
# 5 0.000000 0.000000 0.000000 0.000000 0.149063 0.000000
# 6 0.000000 0.000000 0.000000 0.000000 0.000000 0.024017
#
#
# Mechanical properties :
#
#
# Convention : Reuss Voigt Hill
#
# Bulk Modulus (GPa) = 55.78927 61.57331 58.68129
# Shear Modulus (GPa) = 19.82986 33.93379 26.88182
#
# Velocity S-wave (km/s) = 2.99944 3.92371 3.49229
# Velocity P-wave (km/s) = 6.10792 6.96152 6.54864
#
# Compressibility (1/GPa) = 0.01792459
#
# Stress axis : x y z
#
# Youngs Moduli (GPa) = 92.26809 132.70619 65.37582
#
# Poissons Ratio (x) = 0.29665 0.20744
# Poissons Ratio (y) = 0.20626 0.16109
# Poissons Ratio (z) = 0.29277 0.32699
#
# Static dielectric constant tensor:
#      x y z
#    x 4.075820 0.000000 0.000000 
#    y 0.000000 4.257900 0.000000 
#    z 0.000000 0.000000 3.885930 
# 
# 
# High freq. dielectric constant tensor:
#      x y z
#    x 1.873940 0.000000 0.000000 
#    y 0.000000 1.892170 0.000000 
#    z 0.000000 0.000000 1.865750 
# 
# From -- ./inp_files/28004.got.cif
#   From: 2010.03.12/outbox.cif.g09.slc.cpg/sg57_15_cif.got.tgz:28004.got - 2010.04.16 15:48:40.
