data_PCOD8234599
_publ_section_title
;
Structure prediction by ZEFSAII (Michael W. Deem and Ramdas Pophale) SiO2 
 PCOD8234599
Probable space group: P B C M
;
_chemical_formula_sum "Si O2"
_cell_formula_units_Z 40
_cell_length_a 11.930593
_cell_length_b 9.063439
_cell_length_c 16.741903
_cell_angle_alpha 90.000000
_cell_angle_beta 90.000000
_cell_angle_gamma 90.000000
_cell_volume 1810.338835
_symmetry_space_group_name_H-M "P B C M"
_symmetry_group_IT_number 57
_symmetry_cell_setting 'orthorhombic'
loop_
_space_group_symop_operation_xyz
x,y,z
-x,-y,1/2+z
x,1/2-y,-z
-x,1/2+y,1/2-z
-x,-y,-z
x,y,1/2-z
-x,1/2+y,z
x,1/2-y,1/2+z
loop_
_atom_site_type_symbol
_atom_site_label
_atom_site_fract_x
_atom_site_fract_y
_atom_site_fract_z
Si Si1 0.454832 0.880914 0.441559
Si Si2 0.725026 0.538726 0.161917
Si Si3 0.083418 0.878776 0.400761
Si Si4 0.323898 0.363991 0.155742
Si Si5 0.865011 0.451232 0.579050
O O1 0.418064 0.750000 0.500000
O O2 0.549847 0.845596 0.376251
O O3 0.500000 0.000000 0.500000
O O4 0.345691 0.936208 0.396511
O O5 0.670705 0.533992 0.250000
O O6 0.849670 0.471129 0.165630
O O7 0.734018 0.708425 0.134249
O O8 0.097771 0.705072 0.383162
O O9 0.138219 0.931120 0.484305
O O10 0.952957 0.921279 0.396292
O O11 0.325918 0.398790 0.250000
O O12 0.256244 0.495604 0.111392
#
# Coordination Sequence:
#
# PCOD8234599 Si02
#       5
#     8   8   8   8   8
#     4  12  25  44  69  94 125 169 218 270 322 388
#     4  11  25  43  65  95 133 171 215 269 326 389
#     4  10  22  40  66  98 130 169 219 265 317 381
#     4  11  25  44  65  94 133 173 215 268 327 387
#     4  10  22  40  67  97 130 172 216 266 318 380
#
# _framework density 22.095310999999999
#
# number of rings (size 3 to 8) (size 9 to 14) (size 15 to 20)
#    0.000    1.200    2.000    3.000    5.600    3.200 
#    0.000    0.000    0.000    0.000    0.000    0.000 
#    0.000    0.000    0.000    0.000    0.000    0.000 
#
# Total GULP energy -496002.929114 kJ/mol
# GULP energy per Si atom -12400.073228 kJ/mol
# Density = 2.204502 g / cm^3
# Si number density = 22.095311 Si / 1000 Ang^3
#
#
#
# Elastic Constant Matrix: (Units=GPa)
#
#
# Indices 1 2 3 4 5 6 
#
# 1 75.5973 19.5679 22.9913 0.0000 0.0000 0.0000
# 2 19.5679 131.6027 30.0729 0.0000 0.0000 0.0000
# 3 22.9913 30.0729 72.9768 0.0000 0.0000 0.0000
# 4 0.0000 0.0000 0.0000 32.3803 0.0000 0.0000
# 5 0.0000 0.0000 0.0000 0.0000 22.3549 0.0000
# 6 0.0000 0.0000 0.0000 0.0000 0.0000 44.3150
#
#
#
# Elastic Compliance Matrix: (Units=1/GPa)
#
#
# Indices 1 2 3 4 5 6 
#
# 1 0.014815 -0.001254 -0.004151 0.000000 0.000000 0.000000
# 2 -0.001254 0.008495 -0.003105 0.000000 0.000000 0.000000
# 3 -0.004151 -0.003105 0.016290 0.000000 0.000000 0.000000
# 4 0.000000 0.000000 0.000000 0.030883 0.000000 0.000000
# 5 0.000000 0.000000 0.000000 0.000000 0.044733 0.000000
# 6 0.000000 0.000000 0.000000 0.000000 0.000000 0.022566
#
#
# Mechanical properties :
#
#
# Convention : Reuss Voigt Hill
#
# Bulk Modulus (GPa) = 44.28813 47.27122 45.77967
# Shear Modulus (GPa) = 30.80171 33.64637 32.22404
#
# Velocity S-wave (km/s) = 3.73773 3.90652 3.82306
# Velocity P-wave (km/s) = 6.22215 6.46440 6.34443
#
# Compressibility (1/GPa) = 0.02257942
#
# Stress axis : x y z
#
# Youngs Moduli (GPa) = 67.49933 117.71959 61.38623
#
# Poissons Ratio (x) = 0.14766 0.25479
# Poissons Ratio (y) = 0.08467 0.19063
# Poissons Ratio (z) = 0.28016 0.36557
#
# Static dielectric constant tensor:
#      x y z
#    x 3.941990 0.000000 0.000000 
#    y 0.000000 4.017190 0.000000 
#    z 0.000000 0.000000 3.850830 
# 
# 
# High freq. dielectric constant tensor:
#      x y z
#    x 1.870800 0.000000 0.000000 
#    y 0.000000 1.881870 0.000000 
#    z 0.000000 0.000000 1.864670 
# 
# From -- ./inp_files/21611.got.cif
#   From: 2010.03.12/outbox.cif.g09.slc.cpg/sg57_11_cif.got.tgz:21611.got - 2010.04.16 15:48:40.
