data_PCOD8234429
_publ_section_title
;
Structure prediction by ZEFSAII (Michael W. Deem and Ramdas Pophale) SiO2 
 PCOD8234429
Probable space group: P B C M
;
_chemical_formula_sum "Si O2"
_cell_formula_units_Z 48
_cell_length_a 18.419596
_cell_length_b 9.387798
_cell_length_c 14.240190
_cell_angle_alpha 90.000000
_cell_angle_beta 90.000000
_cell_angle_gamma 90.000000
_cell_volume 2462.405773
_symmetry_space_group_name_H-M "P B C M"
_symmetry_group_IT_number 57
_symmetry_cell_setting 'orthorhombic'
loop_
_space_group_symop_operation_xyz
x,y,z
-x,-y,1/2+z
x,1/2-y,-z
-x,1/2+y,1/2-z
-x,-y,-z
x,y,1/2-z
-x,1/2+y,z
x,1/2-y,1/2+z
loop_
_atom_site_type_symbol
_atom_site_label
_atom_site_fract_x
_atom_site_fract_y
_atom_site_fract_z
Si Si1 0.332623 0.839623 0.250000
Si Si2 0.340258 0.496778 0.250000
Si Si3 0.810667 0.865329 0.250000
Si Si4 0.583301 0.628382 0.565085
Si Si5 0.931876 0.895537 0.106501
Si Si6 0.068210 0.433462 0.605342
Si Si7 0.190134 0.464708 0.750000
Si Si8 0.577991 0.133164 0.931557
O O1 0.342369 0.668208 0.250000
O O2 0.372609 0.897346 0.341753
O O3 0.252708 0.913789 0.250000
O O4 0.256472 0.467399 0.250000
O O5 0.373645 0.424628 0.156649
O O6 0.856828 0.913436 0.160310
O O7 0.783230 0.700540 0.250000
O O8 0.622224 0.750000 0.500000
O O9 0.503467 0.681716 0.599713
O O10 0.572622 0.507573 0.490087
O O11 0.952636 0.730822 0.116347
O O12 0.917465 0.960836 0.004017
O O13 0.000564 0.979617 0.148515
O O14 0.140711 0.483806 0.657925
O O15 0.614314 0.250000 0.000000
#
# Coordination Sequence:
#
# PCOD8234429 Si02
#       8
#     4   4   4   8   8   8   4   8
#     4  12  25  40  62  88 132 166 203 254 312 376
#     4  12  25  42  58  94 128 162 209 254 310 372
#     4  10  23  38  52  82 122 156 199 244 300 358
#     4  10  23  41  68  93 119 157 209 259 309 370
#     4   9  18  35  58  82 111 147 193 253 294 349
#     4   9  18  35  58  84 110 146 199 244 297 351
#     4  10  23  38  54  84 118 162 197 236 302 368
#     4  10  21  43  65  91 121 158 202 258 314 360
#
# _framework density 19.493133
#
# number of rings (size 3 to 8) (size 9 to 14) (size 15 to 20)
#    0.000    2.000    1.667    1.000    2.333    2.667 
#    3.000    0.000    0.000    0.000    0.000    0.000 
#    0.000    0.000    0.000    0.000    0.000    0.000 
#
# Total GULP energy -594697.806501 kJ/mol
# GULP energy per Si atom -12389.537635 kJ/mol
# Density = 1.944877 g / cm^3
# Si number density = 19.493133 Si / 1000 Ang^3
#
#
#
# Elastic Constant Matrix: (Units=GPa)
#
#
# Indices 1 2 3 4 5 6 
#
# 1 113.2477 42.4409 59.9255 0.0000 0.0000 0.0000
# 2 42.4409 76.3162 40.0755 0.0000 0.0000 0.0000
# 3 59.9255 40.0755 120.0587 0.0000 0.0000 0.0000
# 4 0.0000 0.0000 0.0000 28.1280 0.0000 0.0000
# 5 0.0000 0.0000 0.0000 0.0000 20.0550 0.0000
# 6 0.0000 0.0000 0.0000 0.0000 0.0000 39.2910
#
#
#
# Elastic Compliance Matrix: (Units=1/GPa)
#
#
# Indices 1 2 3 4 5 6 
#
# 1 0.013274 -0.004732 -0.005046 0.000000 0.000000 0.000000
# 2 -0.004732 0.017575 -0.003505 0.000000 0.000000 0.000000
# 3 -0.005046 -0.003505 0.012018 0.000000 0.000000 0.000000
# 4 0.000000 0.000000 0.000000 0.035552 0.000000 0.000000
# 5 0.000000 0.000000 0.000000 0.000000 0.049863 0.000000
# 6 0.000000 0.000000 0.000000 0.000000 0.000000 0.025451
#
#
# Mechanical properties :
#
#
# Convention : Reuss Voigt Hill
#
# Bulk Modulus (GPa) = 61.34380 66.05626 63.70003
# Shear Modulus (GPa) = 26.92061 28.64016 27.78038
#
# Velocity S-wave (km/s) = 3.72025 3.83723 3.77919
# Velocity P-wave (km/s) = 7.07046 7.32072 7.19668
#
# Compressibility (1/GPa) = 0.01630157
#
# Stress axis : x y z
#
# Youngs Moduli (GPa) = 75.33777 56.89778 83.21104
#
# Poissons Ratio (x) = 0.26924 0.41986
# Poissons Ratio (y) = 0.35650 0.29163
# Poissons Ratio (z) = 0.38013 0.19941
#
# Static dielectric constant tensor:
#      x y z
#    x 3.499130 0.000000 0.000000 
#    y 0.000000 3.493480 0.000000 
#    z 0.000000 0.000000 3.716440 
# 
# 
# High freq. dielectric constant tensor:
#      x y z
#    x 1.745770 0.000000 0.000000 
#    y 0.000000 1.763310 0.000000 
#    z 0.000000 0.000000 1.772660 
# 
# From -- ./inp_files/19031.got.cif
#   From: 2010.03.12/outbox.cif.g09.slc.cpg/sg57_10_cif.got.tgz:19031.got - 2010.04.16 15:48:40.
