data_PCOD8234498
_publ_section_title
;
Structure prediction by ZEFSAII (Michael W. Deem and Ramdas Pophale) SiO2 
 PCOD8234498
Probable space group: P B C M
;
_chemical_formula_sum "Si O2"
_cell_formula_units_Z 56
_cell_length_a 15.802991
_cell_length_b 12.184393
_cell_length_c 14.234870
_cell_angle_alpha 90.000000
_cell_angle_beta 90.000000
_cell_angle_gamma 90.000000
_cell_volume 2740.922125
_symmetry_space_group_name_H-M "P B C M"
_symmetry_group_IT_number 57
_symmetry_cell_setting 'orthorhombic'
loop_
_space_group_symop_operation_xyz
x,y,z
-x,-y,1/2+z
x,1/2-y,-z
-x,1/2+y,1/2-z
-x,-y,-z
x,y,1/2-z
-x,1/2+y,z
x,1/2-y,1/2+z
loop_
_atom_site_type_symbol
_atom_site_label
_atom_site_fract_x
_atom_site_fract_y
_atom_site_fract_z
Si Si1 0.122943 0.734296 0.641170
Si Si2 0.081965 0.572097 0.015510
Si Si3 0.312271 0.812826 0.641368
Si Si4 0.661750 0.942319 0.645220
Si Si5 0.450765 0.641979 0.858987
Si Si6 0.633997 0.811771 0.357647
Si Si7 0.256402 0.021979 0.960483
O O1 0.096370 0.723476 0.750000
O O2 0.104068 0.622280 0.586191
O O3 0.068705 0.832524 0.593292
O O4 0.222394 0.754212 0.628127
O O5 0.156909 0.495169 0.056903
O O6 0.000000 0.500000 0.000000
O O7 0.327763 0.842628 0.750000
O O8 0.383896 0.731060 0.600114
O O9 0.314037 0.924890 0.582454
O O10 0.697317 0.965386 0.750000
O O11 0.634294 0.818125 0.631942
O O12 0.734651 0.974051 0.572813
O O13 0.580114 0.017858 0.625220
O O14 0.459838 0.670987 0.750000
O O15 0.544504 0.650581 0.903329
O O16 0.644008 0.849191 0.250000
O O17 0.711714 0.864346 0.415019
#
# Coordination Sequence:
#
# PCOD8234498 Si02
#       7
#     8   8   8   8   8   8   8
#     4   9  19  39  64  92 122 154 199 248 299 361
#     4  10  22  40  63  91 124 155 193 254 312 364
#     4   9  18  35  62  91 116 149 196 248 295 344
#     4  10  22  40  55  78 117 158 199 241 289 349
#     4   9  19  35  58  83 116 158 198 245 292 335
#     4  10  22  39  57  82 121 160 198 243 291 354
#     4  11  22  38  61  86 114 155 197 243 303 360
#
# _framework density 20.431080999999999
#
# number of rings (size 3 to 8) (size 9 to 14) (size 15 to 20)
#    0.000    2.286    0.000    1.714    2.000    5.143 
#    7.714    0.000    0.000    0.000    0.000    0.000 
#    0.000    0.000    0.000    0.000    0.000    0.000 
#
# Total GULP energy -694346.488609 kJ/mol
# GULP energy per Si atom -12399.044439 kJ/mol
# Density = 2.038458 g / cm^3
# Si number density = 20.431081 Si / 1000 Ang^3
#
#
#
# Elastic Constant Matrix: (Units=GPa)
#
#
# Indices 1 2 3 4 5 6 
#
# 1 99.7669 50.7440 30.0996 0.0000 0.0000 0.0000
# 2 50.7440 99.2522 39.8053 0.0000 0.0000 0.0000
# 3 30.0996 39.8053 109.6178 0.0000 0.0000 0.0000
# 4 0.0000 0.0000 0.0000 32.4480 0.0000 0.0000
# 5 0.0000 0.0000 0.0000 0.0000 22.4769 0.0000
# 6 0.0000 0.0000 0.0000 0.0000 0.0000 31.1709
#
#
#
# Elastic Compliance Matrix: (Units=1/GPa)
#
#
# Indices 1 2 3 4 5 6 
#
# 1 0.013735 -0.006449 -0.001430 0.000000 0.000000 0.000000
# 2 -0.006449 0.014821 -0.003611 0.000000 0.000000 0.000000
# 3 -0.001430 -0.003611 0.010826 0.000000 0.000000 0.000000
# 4 0.000000 0.000000 0.000000 0.030819 0.000000 0.000000
# 5 0.000000 0.000000 0.000000 0.000000 0.044490 0.000000
# 6 0.000000 0.000000 0.000000 0.000000 0.000000 0.032081
#
#
# Mechanical properties :
#
#
# Convention : Reuss Voigt Hill
#
# Bulk Modulus (GPa) = 60.96480 61.10385 61.03433
# Shear Modulus (GPa) = 28.53592 29.75170 29.14381
#
# Velocity S-wave (km/s) = 3.74129 3.82016 3.78093
# Velocity P-wave (km/s) = 6.96900 7.03067 6.99991
#
# Compressibility (1/GPa) = 0.01640291
#
# Stress axis : x y z
#
# Youngs Moduli (GPa) = 72.80861 67.47409 92.36644
#
# Poissons Ratio (x) = 0.43512 0.13205
# Poissons Ratio (y) = 0.46952 0.33354
# Poissons Ratio (z) = 0.10409 0.24365
#
# Static dielectric constant tensor:
#      x y z
#    x 3.437540 0.000000 0.000000 
#    y 0.000000 3.672030 0.000000 
#    z 0.000000 0.000000 3.894200 
# 
# 
# High freq. dielectric constant tensor:
#      x y z
#    x 1.766630 0.000000 0.000000 
#    y 0.000000 1.803550 0.000000 
#    z 0.000000 0.000000 1.805300 
# 
# From -- ./inp_files/18482.got.cif
#   From: 2010.03.12/outbox.cif.g09.slc.cpg/sg57_10_cif.got.tgz:18482.got - 2010.04.16 15:48:40.
