data_PCOD8234143
_publ_section_title
;
Structure prediction by ZEFSAII (Michael W. Deem and Ramdas Pophale) SiO2 
 PCOD8234143
Probable space group: P B C M
;
_chemical_formula_sum "Si O2"
_cell_formula_units_Z 48
_cell_length_a 30.024690
_cell_length_b 9.165929
_cell_length_c 8.616359
_cell_angle_alpha 90.000000
_cell_angle_beta 90.000000
_cell_angle_gamma 90.000000
_cell_volume 2371.257985
_symmetry_space_group_name_H-M "P B C M"
_symmetry_group_IT_number 57
_symmetry_cell_setting 'orthorhombic'
loop_
_space_group_symop_operation_xyz
x,y,z
-x,-y,1/2+z
x,1/2-y,-z
-x,1/2+y,1/2-z
-x,-y,-z
x,y,1/2-z
-x,1/2+y,z
x,1/2-y,1/2+z
loop_
_atom_site_type_symbol
_atom_site_label
_atom_site_fract_x
_atom_site_fract_y
_atom_site_fract_z
Si Si1 0.874173 0.407124 0.932496
Si Si2 0.621813 0.409864 0.933973
Si Si3 0.458922 0.089112 0.065479
Si Si4 0.040666 0.089689 0.566876
Si Si5 0.200227 0.403348 0.931134
Si Si6 0.696797 0.904982 0.567423
O O1 0.870856 0.394198 0.750000
O O2 0.913403 0.514829 0.985684
O O3 0.885115 0.250000 0.000000
O O4 0.827285 0.464715 0.996082
O O5 0.616480 0.407364 0.750000
O O6 0.613306 0.250000 0.000000
O O7 0.586829 0.519311 0.009236
O O8 0.670666 0.465262 0.982366
O O9 0.460635 0.091613 0.250000
O O10 0.462396 0.250000 0.000000
O O11 0.500000 0.000000 0.000000
O O12 0.039724 0.250000 0.500000
O O13 0.036091 0.095879 0.750000
O O14 0.000000 0.000000 0.500000
O O15 0.191502 0.398190 0.750000
O O16 0.251637 0.431352 0.971929
O O17 0.183703 0.250000 0.000000
O O18 0.680755 0.750000 0.500000
O O19 0.687139 0.908247 0.750000
#
# Coordination Sequence:
#
# PCOD8234143 Si02
#       6
#     8   8   8   8   8   8
#     4  11  24  40  60  87 120 157 199 245 297 353
#     4  12  25  42  63  90 123 162 204 250 302 358
#     4  12  25  44  67  94 126 162 203 249 300 357
#     4  11  24  41  63  90 120 156 196 243 295 353
#     4  10  21  38  62  89 120 157 200 247 299 356
#     4  10  21  39  62  90 121 158 201 248 300 357
#
# _framework density 20.242419000000002
#
# number of rings (size 3 to 8) (size 9 to 14) (size 15 to 20)
#    0.000    1.000    0.000    7.000    0.000    8.000 
#    0.000    0.000    0.000    0.000    0.000    0.000 
#    0.000    0.000    0.000    0.000    0.000    0.000 
#
# Total GULP energy -595566.126731 kJ/mol
# GULP energy per Si atom -12407.627640 kJ/mol
# Density = 2.019635 g / cm^3
# Si number density = 20.242419 Si / 1000 Ang^3
#
#
#
# Elastic Constant Matrix: (Units=GPa)
#
#
# Indices 1 2 3 4 5 6 
#
# 1 110.3292 71.9705 59.4281 0.0000 0.0000 0.0000
# 2 71.9705 172.4623 69.0322 0.0000 0.0000 0.0000
# 3 59.4281 69.0322 137.8900 0.0000 0.0000 0.0000
# 4 0.0000 0.0000 0.0000 44.2477 0.0000 0.0000
# 5 0.0000 0.0000 0.0000 0.0000 35.0899 0.0000
# 6 0.0000 0.0000 0.0000 0.0000 0.0000 35.4213
#
#
#
# Elastic Compliance Matrix: (Units=1/GPa)
#
#
# Indices 1 2 3 4 5 6 
#
# 1 0.013929 -0.004264 -0.003868 0.000000 0.000000 0.000000
# 2 -0.004264 0.008557 -0.002446 0.000000 0.000000 0.000000
# 3 -0.003868 -0.002446 0.010144 0.000000 0.000000 0.000000
# 4 0.000000 0.000000 0.000000 0.022600 0.000000 0.000000
# 5 0.000000 0.000000 0.000000 0.000000 0.028498 0.000000
# 6 0.000000 0.000000 0.000000 0.000000 0.000000 0.028232
#
#
# Mechanical properties :
#
#
# Convention : Reuss Voigt Hill
#
# Bulk Modulus (GPa) = 87.16441 91.28256 89.22349
# Shear Modulus (GPa) = 36.51185 37.63517 37.07351
#
# Velocity S-wave (km/s) = 4.25164 4.31655 4.28422
# Velocity P-wave (km/s) = 8.20096 8.36875 8.28528
#
# Compressibility (1/GPa) = 0.01147257
#
# Stress axis : x y z
#
# Youngs Moduli (GPa) = 71.79146 116.86269 98.58133
#
# Poissons Ratio (x) = 0.49835 0.38135
# Poissons Ratio (y) = 0.30615 0.24113
# Poissons Ratio (z) = 0.27771 0.28585
#
# Static dielectric constant tensor:
#      x y z
#    x 3.907190 0.000000 0.000000 
#    y 0.000000 3.771470 0.000000 
#    z 0.000000 0.000000 3.871270 
# 
# 
# High freq. dielectric constant tensor:
#      x y z
#    x 1.805470 0.000000 0.000000 
#    y 0.000000 1.801920 0.000000 
#    z 0.000000 0.000000 1.810880 
# 
# From -- ./inp_files/10077.got.cif
#   From: 2010.03.12/outbox.cif.g09.slc.cpg/sg57_6_cif.got.tgz:10077.got - 2010.04.16 15:48:40.
