data_PCOD8234423
_publ_section_title
;
Structure prediction by ZEFSAII (Michael W. Deem and Ramdas Pophale) SiO2 
 PCOD8234423
Probable space group: P B C M
;
_chemical_formula_sum "Si O2"
_cell_formula_units_Z 40
_cell_length_a 7.715246
_cell_length_b 13.706519
_cell_length_c 14.889982
_cell_angle_alpha 90.000000
_cell_angle_beta 90.000000
_cell_angle_gamma 90.000000
_cell_volume 1574.603177
_symmetry_space_group_name_H-M "P B C M"
_symmetry_group_IT_number 57
_symmetry_cell_setting 'orthorhombic'
loop_
_space_group_symop_operation_xyz
x,y,z
-x,-y,1/2+z
x,1/2-y,-z
-x,1/2+y,1/2-z
-x,-y,-z
x,y,1/2-z
-x,1/2+y,z
x,1/2-y,1/2+z
loop_
_atom_site_type_symbol
_atom_site_label
_atom_site_fract_x
_atom_site_fract_y
_atom_site_fract_z
Si Si1 0.736918 0.370787 0.953518
Si Si2 0.759045 0.426571 0.350284
Si Si3 0.383624 0.456890 0.347267
Si Si4 0.937011 0.881016 0.651251
Si Si5 0.385783 0.235710 0.097750
O O1 0.745748 0.145273 0.937940
O O2 0.716096 0.485689 0.926551
O O3 0.578011 0.311957 0.909026
O O4 0.921544 0.334544 0.915784
O O5 0.782170 0.375558 0.250000
O O6 0.583490 0.490413 0.349033
O O7 0.914253 0.502868 0.367233
O O8 0.300208 0.483310 0.250000
O O9 0.391061 0.340489 0.355756
O O10 0.014041 0.865629 0.750000
O O11 0.750248 0.830275 0.649687
O O12 0.306186 0.250000 0.000000
#
# Coordination Sequence:
#
# PCOD8234423 Si02
#       5
#     8   8   8   8   8
#     4  12  24  47  76 103 146 200 242 298 371 438
#     4  10  21  42  71 103 139 186 243 299 362 432
#     4  11  23  42  73 106 142 192 243 298 364 433
#     4  11  25  44  71 106 144 188 240 301 363 435
#     4  12  25  45  72 103 148 193 244 298 363 429
#
# _framework density 25.403226
#
# number of rings (size 3 to 8) (size 9 to 14) (size 15 to 20)
#    0.000    0.800    4.000    3.600    0.000    3.200 
#    3.600    0.000    0.000    0.000    0.000    0.000 
#    0.000    0.000    0.000    0.000    0.000    0.000 
#
# Total GULP energy -495535.439938 kJ/mol
# GULP energy per Si atom -12388.385998 kJ/mol
# Density = 2.534541 g / cm^3
# Si number density = 25.403226 Si / 1000 Ang^3
#
#
#
# Elastic Constant Matrix: (Units=GPa)
#
#
# Indices 1 2 3 4 5 6 
#
# 1 128.1549 44.6761 51.2253 0.0000 0.0000 0.0000
# 2 44.6761 83.2297 16.9970 0.0000 0.0000 0.0000
# 3 51.2253 16.9970 162.5282 0.0000 0.0000 0.0000
# 4 0.0000 0.0000 0.0000 25.3589 0.0000 0.0000
# 5 0.0000 0.0000 0.0000 0.0000 83.1643 0.0000
# 6 0.0000 0.0000 0.0000 0.0000 0.0000 20.2174
#
#
#
# Elastic Compliance Matrix: (Units=1/GPa)
#
#
# Indices 1 2 3 4 5 6 
#
# 1 0.010749 -0.005189 -0.002845 0.000000 0.000000 0.000000
# 2 -0.005189 0.014782 0.000090 0.000000 0.000000 0.000000
# 3 -0.002845 0.000090 0.007040 0.000000 0.000000 0.000000
# 4 0.000000 0.000000 0.000000 0.039434 0.000000 0.000000
# 5 0.000000 0.000000 0.000000 0.000000 0.012024 0.000000
# 6 0.000000 0.000000 0.000000 0.000000 0.000000 0.049462
#
#
# Mechanical properties :
#
#
# Convention : Reuss Voigt Hill
#
# Bulk Modulus (GPa) = 59.94451 66.63442 63.28946
# Shear Modulus (GPa) = 32.27015 43.14909 37.70962
#
# Velocity S-wave (km/s) = 3.56802 4.12584 3.85703
# Velocity P-wave (km/s) = 6.37360 6.99888 6.69355
#
# Compressibility (1/GPa) = 0.01668209
#
# Stress axis : x y z
#
# Youngs Moduli (GPa) = 93.02957 67.65001 142.04180
#
# Poissons Ratio (x) = 0.35103 0.40415
# Poissons Ratio (y) = 0.48272 -0.01272
# Poissons Ratio (z) = 0.26470 -0.00606
#
# Static dielectric constant tensor:
#      x y z
#    x 4.393450 0.000000 0.000000 
#    y 0.000000 4.374640 0.000000 
#    z 0.000000 0.000000 4.688260 
# 
# 
# High freq. dielectric constant tensor:
#      x y z
#    x 2.013150 0.000000 0.000000 
#    y 0.000000 1.997280 0.000000 
#    z 0.000000 0.000000 2.022870 
# 
# From -- ./inp_files/20510.got.cif
#   From: 2010.03.12/outbox.cif.g09.slc.cpg/sg57_11_cif.got.tgz:20510.got - 2010.04.16 15:48:40.
