data_PCOD8234936
_publ_section_title
;
Structure prediction by ZEFSAII (Michael W. Deem and Ramdas Pophale) SiO2 
 PCOD8234936
Probable space group: P B C M
;
_chemical_formula_sum "Si O2"
_cell_formula_units_Z 48
_cell_length_a 10.235787
_cell_length_b 29.386124
_cell_length_c 9.117989
_cell_angle_alpha 90.000000
_cell_angle_beta 90.000000
_cell_angle_gamma 90.000000
_cell_volume 2742.600878
_symmetry_space_group_name_H-M "P B C M"
_symmetry_group_IT_number 57
_symmetry_cell_setting 'orthorhombic'
loop_
_space_group_symop_operation_xyz
x,y,z
-x,-y,1/2+z
x,1/2-y,-z
-x,1/2+y,1/2-z
-x,-y,-z
x,y,1/2-z
-x,1/2+y,z
x,1/2-y,1/2+z
loop_
_atom_site_type_symbol
_atom_site_label
_atom_site_fract_x
_atom_site_fract_y
_atom_site_fract_z
Si Si1 0.122289 0.977974 0.420581
Si Si2 0.713965 0.794058 0.915774
Si Si3 0.019392 0.880396 0.416211
Si Si4 0.974600 0.206550 0.414748
Si Si5 0.628519 0.981783 0.076580
Si Si6 0.721785 0.882982 0.419389
O O1 0.125372 0.993015 0.250000
O O2 0.112337 0.923630 0.434221
O O3 0.251792 0.992268 0.503617
O O4 0.000000 0.000000 0.500000
O O5 0.662359 0.792427 0.750000
O O6 0.869655 0.793293 0.923094
O O7 0.657199 0.750000 0.000000
O O8 0.663243 0.840706 0.989447
O O9 0.017501 0.862544 0.250000
O O10 0.078268 0.839957 0.514228
O O11 0.871797 0.893508 0.464000
O O12 0.917177 0.250000 0.500000
O O13 0.922536 0.209058 0.250000
O O14 0.627205 0.991777 0.250000
O O15 0.638232 0.927884 0.045747
O O16 0.500000 0.000000 0.000000
O O17 0.712214 0.869344 0.250000
#
# Coordination Sequence:
#
# PCOD8234936 Si02
#       6
#     8   8   8   8   8   8
#     4  11  21  35  55  79 106 139 177 220 264 312
#     4   9  16  25  40  65  95 128 165 204 252 304
#     4   9  17  30  47  70  99 132 169 211 258 306
#     4   9  16  25  39  63  95 131 165 203 252 305
#     4  11  23  39  55  77 106 142 181 223 270 318
#     4   9  17  31  48  68  99 134 169 210 258 306
#
# _framework density 17.501633999999999
#
# number of rings (size 3 to 8) (size 9 to 14) (size 15 to 20)
#    0.000    2.333    1.667    2.000    0.000    6.667 
#    0.000    0.000    0.000    0.000    0.000    1.167 
#    0.000    0.000    0.000    0.000    0.000    0.000 
#
# Total GULP energy -595187.039281 kJ/mol
# GULP energy per Si atom -12399.729985 kJ/mol
# Density = 1.746180 g / cm^3
# Si number density = 17.501634 Si / 1000 Ang^3
#
#
#
# Elastic Constant Matrix: (Units=GPa)
#
#
# Indices 1 2 3 4 5 6 
#
# 1 71.6702 42.7140 46.2883 0.0000 0.0000 0.0000
# 2 42.7140 140.6161 90.6477 0.0000 0.0000 0.0000
# 3 46.2883 90.6477 145.9992 0.0000 0.0000 0.0000
# 4 0.0000 0.0000 0.0000 39.9479 0.0000 0.0000
# 5 0.0000 0.0000 0.0000 0.0000 21.7275 0.0000
# 6 0.0000 0.0000 0.0000 0.0000 0.0000 12.6651
#
#
#
# Elastic Compliance Matrix: (Units=1/GPa)
#
#
# Indices 1 2 3 4 5 6 
#
# 1 0.018289 -0.003030 -0.003917 0.000000 0.000000 0.000000
# 2 -0.003030 0.012360 -0.006713 0.000000 0.000000 0.000000
# 3 -0.003917 -0.006713 0.012259 0.000000 0.000000 0.000000
# 4 0.000000 0.000000 0.000000 0.025033 0.000000 0.000000
# 5 0.000000 0.000000 0.000000 0.000000 0.046025 0.000000
# 6 0.000000 0.000000 0.000000 0.000000 0.000000 0.078957
#
#
# Mechanical properties :
#
#
# Convention : Reuss Voigt Hill
#
# Bulk Modulus (GPa) = 64.15686 79.73174 71.94430
# Shear Modulus (GPa) = 22.17909 26.77715 24.47812
#
# Velocity S-wave (km/s) = 3.56372 3.91574 3.74387
# Velocity P-wave (km/s) = 7.32603 8.13017 7.73855
#
# Compressibility (1/GPa) = 0.01558680
#
# Stress axis : x y z
#
# Youngs Moduli (GPa) = 54.67906 80.90855 81.57205
#
# Poissons Ratio (x) = 0.24519 0.31950
# Poissons Ratio (y) = 0.16570 0.54760
# Poissons Ratio (z) = 0.21416 0.54314
#
# Static dielectric constant tensor:
#      x y z
#    x 2.694940 0.000000 0.000000 
#    y 0.000000 3.451420 0.000000 
#    z 0.000000 0.000000 3.444390 
# 
# 
# High freq. dielectric constant tensor:
#      x y z
#    x 1.609290 0.000000 0.000000 
#    y 0.000000 1.692780 0.000000 
#    z 0.000000 0.000000 1.691550 
# 
# From -- ./inp_files/2110.got.cif
#   From: 2010.03.12/outbox.cif.g09.slc.cpg/sg57_2_cif.got.tgz:2110.got - 2010.04.16 15:48:40.
