data_PCOD8234069
_publ_section_title
;
Structure prediction by ZEFSAII (Michael W. Deem and Ramdas Pophale) SiO2 
 PCOD8234069
Probable space group: P B C M
;
_chemical_formula_sum "Si O2"
_cell_formula_units_Z 64
_cell_length_a 14.788319
_cell_length_b 24.739014
_cell_length_c 8.847712
_cell_angle_alpha 90.000000
_cell_angle_beta 90.000000
_cell_angle_gamma 90.000000
_cell_volume 3236.921551
_symmetry_space_group_name_H-M "P B C M"
_symmetry_group_IT_number 57
_symmetry_cell_setting 'orthorhombic'
loop_
_space_group_symop_operation_xyz
x,y,z
-x,-y,1/2+z
x,1/2-y,-z
-x,1/2+y,1/2-z
-x,-y,-z
x,y,1/2-z
-x,1/2+y,z
x,1/2-y,1/2+z
loop_
_atom_site_type_symbol
_atom_site_label
_atom_site_fract_x
_atom_site_fract_y
_atom_site_fract_z
Si Si1 0.282557 0.594775 0.071769
Si Si2 0.015140 0.164916 0.921395
Si Si3 0.180039 0.805389 0.430851
Si Si4 0.479454 0.557798 0.072150
Si Si5 0.787710 0.805828 0.429707
Si Si6 0.776563 0.989798 0.579391
Si Si7 0.942934 0.545329 0.921869
Si Si8 0.658788 0.609016 0.420530
O O1 0.275362 0.604175 0.250000
O O2 0.384683 0.583023 0.016309
O O3 0.244538 0.646959 0.987219
O O4 0.224469 0.542556 0.025109
O O5 0.019688 0.184799 0.750000
O O6 0.923470 0.188687 0.995061
O O7 0.110738 0.183014 0.997007
O O8 0.002724 0.100792 0.932134
O O9 0.219119 0.750000 0.500000
O O10 0.181668 0.804681 0.250000
O O11 0.477030 0.547779 0.250000
O O12 0.553849 0.604077 0.029877
O O13 0.500000 0.500000 0.000000
O O14 0.751945 0.750000 0.500000
O O15 0.790382 0.802871 0.250000
O O16 0.716629 0.852643 0.471136
O O17 0.799948 0.008003 0.750000
O O18 0.850878 0.948583 0.514616
O O19 0.686422 0.954282 0.572593
O O20 0.921325 0.529688 0.750000
O O21 0.000000 0.500000 0.000000
O O22 0.669906 0.631412 0.250000
#
# Coordination Sequence:
#
# PCOD8234069 Si02
#       8
#     8   8   8   8   8   8   8   8
#     4  11  23  39  62  92 122 157 200 249 302 363
#     4   9  20  37  58  83 115 154 198 245 291 347
#     4  11  23  42  64  87 119 158 202 252 301 355
#     4  10  21  38  62  91 123 155 195 244 300 361
#     4  11  22  39  61  87 118 156 200 247 297 353
#     4  11  21  35  57  86 122 159 196 242 299 356
#     4  11  21  35  53  81 120 161 204 245 298 359
#     4  10  21  38  59  87 121 156 194 241 295 355
#
# _framework density 19.771871999999998
#
# number of rings (size 3 to 8) (size 9 to 14) (size 15 to 20)
#    0.000    1.500    2.500    3.000    0.000    2.500 
#    0.000    4.375    0.000    0.000    0.000    0.000 
#    0.000    0.000    0.000    0.000    0.000    0.000 
#
# Total GULP energy -793431.689225 kJ/mol
# GULP energy per Si atom -12397.370144 kJ/mol
# Density = 1.972687 g / cm^3
# Si number density = 19.771872 Si / 1000 Ang^3
#
#
#
# Elastic Constant Matrix: (Units=GPa)
#
#
# Indices 1 2 3 4 5 6 
#
# 1 107.8399 49.9275 36.9002 0.0000 0.0000 0.0000
# 2 49.9275 117.6752 41.0475 0.0000 0.0000 0.0000
# 3 36.9002 41.0475 79.0646 0.0000 0.0000 0.0000
# 4 0.0000 0.0000 0.0000 35.2458 0.0000 0.0000
# 5 0.0000 0.0000 0.0000 0.0000 27.4372 0.0000
# 6 0.0000 0.0000 0.0000 0.0000 0.0000 18.9787
#
#
#
# Elastic Compliance Matrix: (Units=1/GPa)
#
#
# Indices 1 2 3 4 5 6 
#
# 1 0.012377 -0.003952 -0.003725 0.000000 0.000000 0.000000
# 2 -0.003952 0.011639 -0.004198 0.000000 0.000000 0.000000
# 3 -0.003725 -0.004198 0.016566 0.000000 0.000000 0.000000
# 4 0.000000 0.000000 0.000000 0.028372 0.000000 0.000000
# 5 0.000000 0.000000 0.000000 0.000000 0.036447 0.000000
# 6 0.000000 0.000000 0.000000 0.000000 0.000000 0.052691
#
#
# Mechanical properties :
#
#
# Convention : Reuss Voigt Hill
#
# Bulk Modulus (GPa) = 59.41025 62.25891 60.83458
# Shear Modulus (GPa) = 26.67337 28.11264 27.39301
#
# Velocity S-wave (km/s) = 3.67694 3.77483 3.72621
# Velocity P-wave (km/s) = 6.93827 7.11028 7.02480
#
# Compressibility (1/GPa) = 0.01683211
#
# Stress axis : x y z
#
# Youngs Moduli (GPa) = 80.79299 85.91646 60.36533
#
# Poissons Ratio (x) = 0.33956 0.22485
# Poissons Ratio (y) = 0.31931 0.25342
# Poissons Ratio (z) = 0.30093 0.36069
#
# Static dielectric constant tensor:
#      x y z
#    x 4.450650 0.000000 0.000000 
#    y 0.000000 3.465770 0.000000 
#    z 0.000000 0.000000 3.415910 
# 
# 
# High freq. dielectric constant tensor:
#      x y z
#    x 1.775080 0.000000 0.000000 
#    y 0.000000 1.766610 0.000000 
#    z 0.000000 0.000000 1.763960 
# 
# From -- ./inp_files/5553.got.cif
#   From: 2010.03.12/outbox.cif.g09.slc.cpg/sg57_3_cif.got.tgz:5553.got - 2010.04.16 15:48:40.
