data_PCOD8234140
_publ_section_title
;
Structure prediction by ZEFSAII (Michael W. Deem and Ramdas Pophale) SiO2 
 PCOD8234140
Probable space group: P B C M
;
_chemical_formula_sum "Si O2"
_cell_formula_units_Z 48
_cell_length_a 7.885962
_cell_length_b 33.642351
_cell_length_c 9.151754
_cell_angle_alpha 90.000000
_cell_angle_beta 90.000000
_cell_angle_gamma 90.000000
_cell_volume 2427.981400
_symmetry_space_group_name_H-M "P B C M"
_symmetry_group_IT_number 57
_symmetry_cell_setting 'orthorhombic'
loop_
_space_group_symop_operation_xyz
x,y,z
-x,-y,1/2+z
x,1/2-y,-z
-x,1/2+y,1/2-z
-x,-y,-z
x,y,1/2-z
-x,1/2+y,z
x,1/2-y,1/2+z
loop_
_atom_site_type_symbol
_atom_site_label
_atom_site_fract_x
_atom_site_fract_y
_atom_site_fract_z
Si Si1 0.494636 0.291839 0.422640
Si Si2 0.817340 0.653152 0.918488
Si Si3 0.821155 0.502667 0.922928
Si Si4 0.689656 0.417582 0.585370
Si Si5 0.804989 0.344193 0.417832
Si Si6 0.300966 0.421125 0.917801
O O1 0.483987 0.250000 0.500000
O O2 0.502703 0.285077 0.250000
O O3 0.326583 0.316053 0.468978
O O4 0.663939 0.314101 0.482311
O O5 0.788265 0.640948 0.750000
O O6 0.004133 0.672817 0.939965
O O7 0.814047 0.613603 0.015864
O O8 0.842194 0.508579 0.750000
O O9 0.719174 0.462841 0.963526
O O10 0.717344 0.539031 0.989382
O O11 0.000000 0.500000 0.000000
O O12 0.753918 0.411956 0.750000
O O13 0.797710 0.387593 0.488612
O O14 0.493383 0.406716 0.569682
O O15 0.760627 0.350763 0.250000
O O16 0.247216 0.428969 0.750000
#
# Coordination Sequence:
#
# PCOD8234140 Si02
#       6
#     8   8   8   8   8   8
#     4  10  22  40  61  88 120 152 190 238 290 351
#     4  10  21  39  62  88 118 155 198 240 290 350
#     4  11  23  38  55  81 117 156 200 248 294 344
#     4  10  22  38  57  83 116 154 198 244 290 345
#     4  10  21  38  62  88 116 154 195 238 290 347
#     4  11  22  37  58  85 116 154 199 244 294 347
#
# _framework density 19.769507999999998
#
# number of rings (size 3 to 8) (size 9 to 14) (size 15 to 20)
#    0.000    1.667    1.667    2.500    0.000    7.333 
#    0.000    0.000    0.000    0.000    0.000    0.000 
#    0.000    0.000    0.000    0.000    0.000    0.000 
#
# Total GULP energy -595316.468071 kJ/mol
# GULP energy per Si atom -12402.426418 kJ/mol
# Density = 1.972451 g / cm^3
# Si number density = 19.769508 Si / 1000 Ang^3
#
#
#
# Elastic Constant Matrix: (Units=GPa)
#
#
# Indices 1 2 3 4 5 6 
#
# 1 124.5039 55.3656 38.5174 0.0000 0.0000 0.0000
# 2 55.3656 135.7601 53.2720 0.0000 0.0000 0.0000
# 3 38.5174 53.2720 74.8211 0.0000 0.0000 0.0000
# 4 0.0000 0.0000 0.0000 40.0351 0.0000 0.0000
# 5 0.0000 0.0000 0.0000 0.0000 19.7357 0.0000
# 6 0.0000 0.0000 0.0000 0.0000 0.0000 22.4105
#
#
#
# Elastic Compliance Matrix: (Units=1/GPa)
#
#
# Indices 1 2 3 4 5 6 
#
# 1 0.010342 -0.002954 -0.003221 0.000000 0.000000 0.000000
# 2 -0.002954 0.011065 -0.006358 0.000000 0.000000 0.000000
# 3 -0.003221 -0.006358 0.019550 0.000000 0.000000 0.000000
# 4 0.000000 0.000000 0.000000 0.024978 0.000000 0.000000
# 5 0.000000 0.000000 0.000000 0.000000 0.050670 0.000000
# 6 0.000000 0.000000 0.000000 0.000000 0.000000 0.044622
#
#
# Mechanical properties :
#
#
# Convention : Reuss Voigt Hill
#
# Bulk Modulus (GPa) = 62.92372 69.93281 66.42826
# Shear Modulus (GPa) = 26.09750 28.96492 27.53121
#
# Velocity S-wave (km/s) = 3.63724 3.83186 3.73582
# Velocity P-wave (km/s) = 7.03826 7.41811 7.23068
#
# Compressibility (1/GPa) = 0.01589226
#
# Stress axis : x y z
#
# Youngs Moduli (GPa) = 96.69499 90.37222 51.15076
#
# Poissons Ratio (x) = 0.26694 0.16475
# Poissons Ratio (y) = 0.28561 0.32521
# Poissons Ratio (z) = 0.31144 0.57458
#
# Static dielectric constant tensor:
#      x y z
#    x 3.872210 0.000000 0.000000 
#    y 0.000000 3.627960 0.000000 
#    z 0.000000 0.000000 4.019250 
# 
# 
# High freq. dielectric constant tensor:
#      x y z
#    x 1.786930 0.000000 0.000000 
#    y 0.000000 1.762800 0.000000 
#    z 0.000000 0.000000 1.768050 
# 
# From -- ./inp_files/2120.got.cif
#   From: 2010.03.12/outbox.cif.g09.slc.cpg/sg57_2_cif.got.tgz:2120.got - 2010.04.16 15:48:40.
