data_PCOD8234670
_publ_section_title
;
Structure prediction by ZEFSAII (Michael W. Deem and Ramdas Pophale) SiO2 
 PCOD8234670
Probable space group: P B C M
;
_chemical_formula_sum "Si O2"
_cell_formula_units_Z 32
_cell_length_a 7.217241
_cell_length_b 14.367821
_cell_length_c 15.122304
_cell_angle_alpha 90.000000
_cell_angle_beta 90.000000
_cell_angle_gamma 90.000000
_cell_volume 1568.122841
_symmetry_space_group_name_H-M "P B C M"
_symmetry_group_IT_number 57
_symmetry_cell_setting 'orthorhombic'
loop_
_space_group_symop_operation_xyz
x,y,z
-x,-y,1/2+z
x,1/2-y,-z
-x,1/2+y,1/2-z
-x,-y,-z
x,y,1/2-z
-x,1/2+y,z
x,1/2-y,1/2+z
loop_
_atom_site_type_symbol
_atom_site_label
_atom_site_fract_x
_atom_site_fract_y
_atom_site_fract_z
Si Si1 0.701071 0.880577 0.348190
Si Si2 0.528597 0.356447 0.986441
Si Si3 0.211309 0.327370 0.648624
Si Si4 0.105102 0.546435 0.420180
O O1 0.612356 0.876626 0.250000
O O2 0.540600 0.898642 0.420188
O O3 0.805758 0.783297 0.369764
O O4 0.849338 0.964152 0.350998
O O5 0.369892 0.370745 0.912946
O O6 0.707549 0.410218 0.956216
O O7 0.583043 0.250000 0.000000
O O8 0.265544 0.347364 0.750000
O O9 0.014613 0.373904 0.627022
O O10 0.000000 0.500000 0.500000
#
# Coordination Sequence:
#
# PCOD8234670 Si02
#       4
#     8   8   8   8
#     4  10  22  43  65  93 130 167 208 260 313 373
#     4  10  23  42  66  90 127 168 209 258 315 377
#     4  10  23  43  65  92 129 166 209 263 314 372
#     4  12  24  38  67  95 126 167 212 257 318 371
#
# _framework density 20.406563999999999
#
# number of rings (size 3 to 8) (size 9 to 14) (size 15 to 20)
#    0.000    1.500    2.500    1.500    3.500    2.000 
#    0.000    1.250    0.000    0.000    0.000    0.000 
#    0.000    0.000    0.000    0.000    0.000    0.000 
#
# Total GULP energy -396859.801235 kJ/mol
# GULP energy per Si atom -12401.868789 kJ/mol
# Density = 2.036012 g / cm^3
# Si number density = 20.406564 Si / 1000 Ang^3
#
#
#
# Elastic Constant Matrix: (Units=GPa)
#
#
# Indices 1 2 3 4 5 6 
#
# 1 137.6292 76.6470 70.3875 0.0000 0.0000 0.0000
# 2 76.6470 100.3919 47.7890 0.0000 0.0000 0.0000
# 3 70.3875 47.7890 151.9965 0.0000 0.0000 0.0000
# 4 0.0000 0.0000 0.0000 23.0099 0.0000 0.0000
# 5 0.0000 0.0000 0.0000 0.0000 14.7370 0.0000
# 6 0.0000 0.0000 0.0000 0.0000 0.0000 31.5106
#
#
#
# Elastic Compliance Matrix: (Units=1/GPa)
#
#
# Indices 1 2 3 4 5 6 
#
# 1 0.014241 -0.009095 -0.003735 0.000000 0.000000 0.000000
# 2 -0.009095 0.017522 -0.001298 0.000000 0.000000 0.000000
# 3 -0.003735 -0.001298 0.008717 0.000000 0.000000 0.000000
# 4 0.000000 0.000000 0.000000 0.043459 0.000000 0.000000
# 5 0.000000 0.000000 0.000000 0.000000 0.067856 0.000000
# 6 0.000000 0.000000 0.000000 0.000000 0.000000 0.031735
#
#
# Mechanical properties :
#
#
# Convention : Reuss Voigt Hill
#
# Bulk Modulus (GPa) = 81.79963 86.62940 84.21452
# Shear Modulus (GPa) = 23.16295 26.86445 25.01370
#
# Velocity S-wave (km/s) = 3.37274 3.63224 3.50489
# Velocity P-wave (km/s) = 7.43903 7.75466 7.59849
#
# Compressibility (1/GPa) = 0.01222499
#
# Stress axis : x y z
#
# Youngs Moduli (GPa) = 70.21856 57.07044 114.71985
#
# Poissons Ratio (x) = 0.51904 0.42853
# Poissons Ratio (y) = 0.63862 0.14885
# Poissons Ratio (z) = 0.26230 0.07405
#
# Static dielectric constant tensor:
#      x y z
#    x 3.545360 0.000000 0.000000 
#    y 0.000000 4.199760 0.000000 
#    z 0.000000 0.000000 3.897380 
# 
# 
# High freq. dielectric constant tensor:
#      x y z
#    x 1.777540 0.000000 0.000000 
#    y 0.000000 1.819070 0.000000 
#    z 0.000000 0.000000 1.809690 
# 
# From -- ./inp_files/11302.got.cif
#   From: 2010.03.12/outbox.cif.g09.slc.cpg/sg57_6_cif.got.tgz:11302.got - 2010.04.16 15:48:40.
