data_PCOD8234062
_publ_section_title
;
Structure prediction by ZEFSAII (Michael W. Deem and Ramdas Pophale) SiO2 
 PCOD8234062
Probable space group: P B C M
;
_chemical_formula_sum "Si O2"
_cell_formula_units_Z 48
_cell_length_a 30.214513
_cell_length_b 9.381917
_cell_length_c 8.640824
_cell_angle_alpha 90.000000
_cell_angle_beta 90.000000
_cell_angle_gamma 90.000000
_cell_volume 2449.414839
_symmetry_space_group_name_H-M "P B C M"
_symmetry_group_IT_number 57
_symmetry_cell_setting 'orthorhombic'
loop_
_space_group_symop_operation_xyz
x,y,z
-x,-y,1/2+z
x,1/2-y,-z
-x,1/2+y,1/2-z
-x,-y,-z
x,y,1/2-z
-x,1/2+y,z
x,1/2-y,1/2+z
loop_
_atom_site_type_symbol
_atom_site_label
_atom_site_fract_x
_atom_site_fract_y
_atom_site_fract_z
Si Si1 0.960382 0.591840 0.567305
Si Si2 0.370316 0.904947 0.567496
Si Si3 0.804728 0.598633 0.429621
Si Si4 0.876640 0.094809 0.431868
Si Si5 0.460673 0.907637 0.066305
Si Si6 0.702117 0.900502 0.569444
O O1 0.960550 0.750000 0.500000
O O2 0.965719 0.601733 0.750000
O O3 0.915341 0.513101 0.518032
O O4 0.000000 0.500000 0.500000
O O5 0.363666 0.750000 0.500000
O O6 0.377113 0.899004 0.750000
O O7 0.414034 0.975397 0.490367
O O8 0.325993 0.986809 0.525035
O O9 0.819379 0.750000 0.500000
O O10 0.816009 0.604875 0.250000
O O11 0.830741 0.468352 0.506124
O O12 0.753436 0.567059 0.461631
O O13 0.886244 0.250000 0.500000
O O14 0.873510 0.111374 0.250000
O O15 0.462572 0.904890 0.250000
O O16 0.465410 0.750000 0.000000
O O17 0.500000 0.000000 0.000000
O O18 0.688567 0.750000 0.500000
O O19 0.690452 0.905809 0.750000
#
# Coordination Sequence:
#
# PCOD8234062 Si02
#       6
#     8   8   8   8   8   8
#     4  11  24  41  63  90 120 156 195 240 290 345
#     4  11  22  38  59  84 114 151 190 233 285 341
#     4  10  21  38  61  86 116 152 192 237 288 342
#     4  11  24  40  60  87 119 154 195 240 289 342
#     4  11  22  39  60  85 115 149 189 235 285 340
#     4  10  21  38  59  86 116 150 191 237 286 340
#
# _framework density 19.596518
#
# number of rings (size 3 to 8) (size 9 to 14) (size 15 to 20)
#    0.000    1.333    0.000    7.000    0.000    8.667 
#    0.000    3.333    0.000    0.000    0.000    0.000 
#    0.000    0.000    0.000    0.000    0.000    0.000 
#
# Total GULP energy -595406.657389 kJ/mol
# GULP energy per Si atom -12404.305362 kJ/mol
# Density = 1.955192 g / cm^3
# Si number density = 19.596518 Si / 1000 Ang^3
#
#
#
# Elastic Constant Matrix: (Units=GPa)
#
#
# Indices 1 2 3 4 5 6 
#
# 1 112.0594 74.4540 62.4510 0.0000 0.0000 0.0000
# 2 74.4540 131.7822 63.6678 0.0000 0.0000 0.0000
# 3 62.4510 63.6678 142.4626 0.0000 0.0000 0.0000
# 4 0.0000 0.0000 0.0000 40.9249 0.0000 0.0000
# 5 0.0000 0.0000 0.0000 0.0000 34.8684 0.0000
# 6 0.0000 0.0000 0.0000 0.0000 0.0000 46.9190
#
#
#
# Elastic Compliance Matrix: (Units=1/GPa)
#
#
# Indices 1 2 3 4 5 6 
#
# 1 0.015694 -0.007069 -0.003720 0.000000 0.000000 0.000000
# 2 -0.007069 0.012862 -0.002649 0.000000 0.000000 0.000000
# 3 -0.003720 -0.002649 0.009834 0.000000 0.000000 0.000000
# 4 0.000000 0.000000 0.000000 0.024435 0.000000 0.000000
# 5 0.000000 0.000000 0.000000 0.000000 0.028679 0.000000
# 6 0.000000 0.000000 0.000000 0.000000 0.000000 0.021313
#
#
# Mechanical properties :
#
#
# Convention : Reuss Voigt Hill
#
# Bulk Modulus (GPa) = 86.86187 87.49441 87.17814
# Shear Modulus (GPa) = 34.83482 36.92454 35.87968
#
# Velocity S-wave (km/s) = 4.22074 4.34549 4.28357
# Velocity P-wave (km/s) = 8.25677 8.36197 8.30954
#
# Compressibility (1/GPa) = 0.01151253
#
# Stress axis : x y z
#
# Youngs Moduli (GPa) = 63.71717 77.74652 101.68496
#
# Poissons Ratio (x) = 0.54963 0.37832
# Poissons Ratio (y) = 0.45045 0.26939
# Poissons Ratio (z) = 0.23706 0.20597
#
# Static dielectric constant tensor:
#      x y z
#    x 3.931520 0.000000 0.000000 
#    y 0.000000 3.475250 0.000000 
#    z 0.000000 0.000000 3.755180 
# 
# 
# High freq. dielectric constant tensor:
#      x y z
#    x 1.777910 0.000000 0.000000 
#    y 0.000000 1.765310 0.000000 
#    z 0.000000 0.000000 1.785360 
# 
# From -- ./inp_files/9975.got.cif
#   From: 2010.03.12/outbox.cif.g09.slc.cpg/sg57_5_cif.got.tgz:9975.got - 2010.04.16 15:48:40.
