data_PCOD8234267
_publ_section_title
;
Structure prediction by ZEFSAII (Michael W. Deem and Ramdas Pophale) SiO2 
 PCOD8234267
Probable space group: P B C M
;
_chemical_formula_sum "Si O2"
_cell_formula_units_Z 64
_cell_length_a 11.418299
_cell_length_b 14.165507
_cell_length_c 19.805135
_cell_angle_alpha 90.000000
_cell_angle_beta 90.000000
_cell_angle_gamma 90.000000
_cell_volume 3203.401255
_symmetry_space_group_name_H-M "P B C M"
_symmetry_group_IT_number 57
_symmetry_cell_setting 'orthorhombic'
loop_
_space_group_symop_operation_xyz
x,y,z
-x,-y,1/2+z
x,1/2-y,-z
-x,1/2+y,1/2-z
-x,-y,-z
x,y,1/2-z
-x,1/2+y,z
x,1/2-y,1/2+z
loop_
_atom_site_type_symbol
_atom_site_label
_atom_site_fract_x
_atom_site_fract_y
_atom_site_fract_z
Si Si1 0.706277 0.245277 0.174010
Si Si2 0.423793 0.438970 0.630956
Si Si3 0.052602 0.042526 0.431197
Si Si4 0.793500 0.054615 0.674975
Si Si5 0.457210 0.236830 0.825142
Si Si6 0.338406 0.440186 0.119531
Si Si7 0.847038 0.428958 0.828300
Si Si8 0.728816 0.860120 0.983993
O O1 0.672126 0.214781 0.250000
O O2 0.792421 0.333050 0.173633
O O3 0.583581 0.268979 0.136874
O O4 0.770481 0.156614 0.141369
O O5 0.336406 0.514261 0.663818
O O6 0.422817 0.346955 0.678764
O O7 0.549864 0.489694 0.623030
O O8 0.378983 0.397218 0.560468
O O9 0.143641 0.126595 0.449023
O O10 0.954999 0.076548 0.379182
O O11 0.122637 0.966294 0.387372
O O12 0.000000 0.000000 0.500000
O O13 0.838461 0.021800 0.750000
O O14 0.463948 0.194740 0.750000
O O15 0.367648 0.168509 0.863279
O O16 0.233825 0.477708 0.167409
O O17 0.279210 0.431929 0.046534
O O18 0.887475 0.415605 0.750000
O O19 0.711459 0.750000 0.000000
#
# Coordination Sequence:
#
# PCOD8234267 Si02
#       8
#     8   8   8   8   8   8   8   8
#     4   9  19  36  60  93 127 157 196 250 310 372
#     4  11  22  37  64  93 130 165 202 252 313 378
#     4  11  24  43  65  85 119 167 213 260 312 367
#     4  10  21  39  64  92 123 161 205 252 307 371
#     4  11  21  34  58  96 131 162 197 243 311 381
#     4  12  22  39  65  93 130 166 206 254 317 380
#     4  11  23  41  66  95 125 160 209 265 316 366
#     4  11  24  43  63  86 124 170 211 261 311 372
#
# _framework density 19.978764999999999
#
# number of rings (size 3 to 8) (size 9 to 14) (size 15 to 20)
#    0.000    1.250    5.000    1.500    0.000    2.000 
#    0.000    0.000    2.750    0.000    0.000    0.000 
#    0.000    0.000    0.000    0.000    0.000    0.000 
#
# Total GULP energy -793025.362520 kJ/mol
# GULP energy per Si atom -12391.021289 kJ/mol
# Density = 1.993329 g / cm^3
# Si number density = 19.978765 Si / 1000 Ang^3
#
#
#
# Elastic Constant Matrix: (Units=GPa)
#
#
# Indices 1 2 3 4 5 6 
#
# 1 100.1483 25.6831 40.1881 0.0000 0.0000 0.0000
# 2 25.6831 92.8984 20.9977 0.0000 0.0000 0.0000
# 3 40.1881 20.9977 106.9916 0.0000 0.0000 0.0000
# 4 0.0000 0.0000 0.0000 24.1304 0.0000 0.0000
# 5 0.0000 0.0000 0.0000 0.0000 33.6824 0.0000
# 6 0.0000 0.0000 0.0000 0.0000 0.0000 19.7050
#
#
#
# Elastic Compliance Matrix: (Units=1/GPa)
#
#
# Indices 1 2 3 4 5 6 
#
# 1 0.012272 -0.002460 -0.004127 0.000000 0.000000 0.000000
# 2 -0.002460 0.011757 -0.001383 0.000000 0.000000 0.000000
# 3 -0.004127 -0.001383 0.011168 0.000000 0.000000 0.000000
# 4 0.000000 0.000000 0.000000 0.041442 0.000000 0.000000
# 5 0.000000 0.000000 0.000000 0.000000 0.029689 0.000000
# 6 0.000000 0.000000 0.000000 0.000000 0.000000 0.050749
#
#
# Mechanical properties :
#
#
# Convention : Reuss Voigt Hill
#
# Bulk Modulus (GPa) = 51.92922 52.64179 52.28551
# Shear Modulus (GPa) = 27.86504 29.71483 28.78994
#
# Velocity S-wave (km/s) = 3.73866 3.86076 3.80020
# Velocity P-wave (km/s) = 6.68472 6.80295 6.74409
#
# Compressibility (1/GPa) = 0.01925698
#
# Stress axis : x y z
#
# Youngs Moduli (GPa) = 81.48557 85.05398 89.54032
#
# Poissons Ratio (x) = 0.20923 0.36952
# Poissons Ratio (y) = 0.20046 0.12387
# Poissons Ratio (z) = 0.33628 0.11766
#
# Static dielectric constant tensor:
#      x y z
#    x 3.744550 0.000000 0.000000 
#    y 0.000000 3.561270 0.000000 
#    z 0.000000 0.000000 3.691750 
# 
# 
# High freq. dielectric constant tensor:
#      x y z
#    x 1.780380 0.000000 0.000000 
#    y 0.000000 1.781840 0.000000 
#    z 0.000000 0.000000 1.777060 
# 
# From -- ./inp_files/22101.got.cif
#   From: 2010.03.12/outbox.cif.g09.slc.cpg/sg57_12_cif.got.tgz:22101.got - 2010.04.16 15:48:40.
