data_PCOD8234502
_publ_section_title
;
Structure prediction by ZEFSAII (Michael W. Deem and Ramdas Pophale) SiO2 
 PCOD8234502
Probable space group: P B C M
;
_chemical_formula_sum "Si O2"
_cell_formula_units_Z 64
_cell_length_a 5.672254
_cell_length_b 18.070479
_cell_length_c 30.246994
_cell_angle_alpha 90.000000
_cell_angle_beta 90.000000
_cell_angle_gamma 90.000000
_cell_volume 3100.327374
_symmetry_space_group_name_H-M "P B C M"
_symmetry_group_IT_number 57
_symmetry_cell_setting 'orthorhombic'
loop_
_space_group_symop_operation_xyz
x,y,z
-x,-y,1/2+z
x,1/2-y,-z
-x,1/2+y,1/2-z
-x,-y,-z
x,y,1/2-z
-x,1/2+y,z
x,1/2-y,1/2+z
loop_
_atom_site_type_symbol
_atom_site_label
_atom_site_fract_x
_atom_site_fract_y
_atom_site_fract_z
Si Si1 0.803319 0.950375 0.478329
Si Si2 0.878991 0.471944 0.301835
Si Si3 0.378413 0.394144 0.197769
Si Si4 0.808513 0.191814 0.088781
Si Si5 0.826661 0.713408 0.955778
Si Si6 0.811894 0.895957 0.637202
Si Si7 0.493273 0.564425 0.437749
Si Si8 0.425583 0.256298 0.136105
O O1 0.900343 0.872305 0.460986
O O2 0.611515 0.933466 0.514863
O O3 0.693696 0.996891 0.437419
O O4 0.000000 0.000000 0.500000
O O5 0.880841 0.481044 0.250000
O O6 0.628022 0.433453 0.315917
O O7 0.882290 0.554525 0.321214
O O8 0.129382 0.433628 0.316323
O O9 0.377269 0.379862 0.250000
O O10 0.374830 0.315786 0.173338
O O11 0.602248 0.147946 0.064298
O O12 0.705217 0.244061 0.128081
O O13 0.935752 0.240601 0.052172
O O14 0.959987 0.126925 0.110138
O O15 0.668081 0.720666 0.912278
O O16 0.710506 0.750000 0.000000
O O17 0.660714 0.948018 0.604265
O O18 0.682495 0.821245 0.653233
#
# Coordination Sequence:
#
# PCOD8234502 Si02
#       8
#     8   8   8   8   8   8   8   8
#     4  11  23  39  59  87 120 162 217 268 335 396
#     4  10  24  44  70 100 137 179 219 276 344 407
#     4  10  24  46  69 102 141 175 222 281 340 411
#     4  10  22  41  59  87 123 167 217 270 335 391
#     4  11  23  39  60  89 128 170 221 280 336 402
#     4  10  22  40  64  90 129 166 215 273 324 403
#     4  10  22  39  58  88 122 160 210 272 329 391
#     4  10  24  40  65  97 128 177 226 277 343 403
#
# _framework density 20.642982
#
# number of rings (size 3 to 8) (size 9 to 14) (size 15 to 20)
#    0.000    1.750    0.000    3.750    8.750    5.000 
#    0.000    1.875    0.000    0.000    0.000    0.000 
#    0.000    0.000    0.000    0.000    0.000    0.000 
#
# Total GULP energy -793019.536742 kJ/mol
# GULP energy per Si atom -12390.930262 kJ/mol
# Density = 2.059600 g / cm^3
# Si number density = 20.642982 Si / 1000 Ang^3
#
#
#
# Elastic Constant Matrix: (Units=GPa)
#
#
# Indices 1 2 3 4 5 6 
#
# 1 118.3824 52.1544 29.6565 0.0000 0.0000 0.0000
# 2 52.1544 143.8643 57.0330 0.0000 0.0000 0.0000
# 3 29.6565 57.0330 54.7862 0.0000 0.0000 0.0000
# 4 0.0000 0.0000 0.0000 47.2193 0.0000 0.0000
# 5 0.0000 0.0000 0.0000 0.0000 18.8535 0.0000
# 6 0.0000 0.0000 0.0000 0.0000 0.0000 4.8852
#
#
#
# Elastic Compliance Matrix: (Units=1/GPa)
#
#
# Indices 1 2 3 4 5 6 
#
# 1 0.010313 -0.002598 -0.002878 0.000000 0.000000 0.000000
# 2 -0.002598 0.012490 -0.011596 0.000000 0.000000 0.000000
# 3 -0.002878 -0.011596 0.031882 0.000000 0.000000 0.000000
# 4 0.000000 0.000000 0.000000 0.021178 0.000000 0.000000
# 5 0.000000 0.000000 0.000000 0.000000 0.053041 0.000000
# 6 0.000000 0.000000 0.000000 0.000000 0.000000 0.204699
#
#
# Mechanical properties :
#
#
# Convention : Reuss Voigt Hill
#
# Bulk Modulus (GPa) = 48.68261 66.08008 57.38134
# Shear Modulus (GPa) = 13.34787 26.07088 19.70937
#
# Velocity S-wave (km/s) = 2.54560 3.55764 3.09329
# Velocity P-wave (km/s) = 5.68106 6.99687 6.37301
#
# Compressibility (1/GPa) = 0.02054122
#
# Stress axis : x y z
#
# Youngs Moduli (GPa) = 96.96862 80.06640 31.36550
#
# Poissons Ratio (x) = 0.20797 0.09028
# Poissons Ratio (y) = 0.25188 0.36371
# Poissons Ratio (z) = 0.27911 0.92843
#
# Static dielectric constant tensor:
#      x y z
#    x 4.076630 0.000000 0.000000 
#    y 0.000000 3.931610 0.000000 
#    z 0.000000 0.000000 3.491530 
# 
# 
# High freq. dielectric constant tensor:
#      x y z
#    x 1.818760 0.000000 0.000000 
#    y 0.000000 1.816460 0.000000 
#    z 0.000000 0.000000 1.793310 
# 
# From -- ./inp_files/29271.got.cif
#   From: 2010.03.12/outbox.cif.g09.slc.cpg/sg57_15_cif.got.tgz:29271.got - 2010.04.16 15:48:40.
