data_PCOD8234012
_publ_section_title
;
Structure prediction by ZEFSAII (Michael W. Deem and Ramdas Pophale) SiO2 
 PCOD8234012
Probable space group: P B C M
;
_chemical_formula_sum "Si O2"
_cell_formula_units_Z 64
_cell_length_a 6.570790
_cell_length_b 26.101723
_cell_length_c 17.152412
_cell_angle_alpha 90.000000
_cell_angle_beta 90.000000
_cell_angle_gamma 90.000000
_cell_volume 2941.792009
_symmetry_space_group_name_H-M "P B C M"
_symmetry_group_IT_number 57
_symmetry_cell_setting 'orthorhombic'
loop_
_space_group_symop_operation_xyz
x,y,z
-x,-y,1/2+z
x,1/2-y,-z
-x,1/2+y,1/2-z
-x,-y,-z
x,y,1/2-z
-x,1/2+y,z
x,1/2-y,1/2+z
loop_
_atom_site_type_symbol
_atom_site_label
_atom_site_fract_x
_atom_site_fract_y
_atom_site_fract_z
Si Si1 0.332388 0.887319 0.836101
Si Si2 0.564380 0.518638 0.162781
Si Si3 0.104361 0.965253 0.433486
Si Si4 0.405695 0.627794 0.944035
Si Si5 0.726959 0.576914 0.661733
Si Si6 0.998975 0.687268 0.159473
Si Si7 0.422394 0.312046 0.909032
Si Si8 0.746136 0.266638 0.417482
O O1 0.279238 0.906798 0.750000
O O2 0.436957 0.935628 0.880116
O O3 0.124528 0.862825 0.871441
O O4 0.492135 0.840133 0.831709
O O5 0.632156 0.535224 0.250000
O O6 0.770443 0.506498 0.116875
O O7 0.412590 0.472144 0.166381
O O8 0.264829 0.921883 0.462883
O O9 0.937310 0.936421 0.381242
O O10 0.000000 0.000000 0.500000
O O11 0.595167 0.618197 0.886125
O O12 0.263654 0.672176 0.905522
O O13 0.499789 0.649596 0.023326
O O14 0.773625 0.596703 0.750000
O O15 0.936078 0.681912 0.250000
O O16 0.126378 0.739986 0.151334
O O17 0.817207 0.691671 0.098371
O O18 0.513801 0.255284 0.917754
O O19 0.847277 0.250000 0.500000
#
# Coordination Sequence:
#
# PCOD8234012 Si02
#       8
#     8   8   8   8   8   8   8   8
#     4   9  19  35  57  88 127 167 205 252 317 381
#     4   9  20  40  62  86 126 168 207 257 320 381
#     4  11  25  40  65  94 124 165 222 276 319 380
#     4  10  24  43  65  91 127 172 212 266 327 383
#     4  10  23  42  64  91 124 163 213 268 321 380
#     4  10  21  38  65  99 132 165 211 266 320 386
#     4  10  21  37  63  90 128 165 208 256 312 382
#     4   9  21  42  61  89 127 169 211 258 315 379
#
# _framework density 21.755448000000001
#
# number of rings (size 3 to 8) (size 9 to 14) (size 15 to 20)
#    0.000    2.250    0.000    0.750    3.500    9.000 
#    0.000    3.750    0.000    0.000    0.000    0.000 
#    0.000    0.000    0.000    0.000    0.000    0.000 
#
# Total GULP energy -792851.081842 kJ/mol
# GULP energy per Si atom -12388.298154 kJ/mol
# Density = 2.170593 g / cm^3
# Si number density = 21.755448 Si / 1000 Ang^3
#
#
#
# Elastic Constant Matrix: (Units=GPa)
#
#
# Indices 1 2 3 4 5 6 
#
# 1 125.2514 35.1056 52.9694 0.0000 0.0000 0.0000
# 2 35.1056 93.2754 37.4393 0.0000 0.0000 0.0000
# 3 52.9694 37.4393 83.4521 0.0000 0.0000 0.0000
# 4 0.0000 0.0000 0.0000 26.7161 0.0000 0.0000
# 5 0.0000 0.0000 0.0000 0.0000 29.8543 0.0000
# 6 0.0000 0.0000 0.0000 0.0000 0.0000 23.1803
#
#
#
# Elastic Compliance Matrix: (Units=1/GPa)
#
#
# Indices 1 2 3 4 5 6 
#
# 1 0.011118 -0.001649 -0.006317 0.000000 0.000000 0.000000
# 2 -0.001649 0.013320 -0.004929 0.000000 0.000000 0.000000
# 3 -0.006317 -0.004929 0.018204 0.000000 0.000000 0.000000
# 4 0.000000 0.000000 0.000000 0.037431 0.000000 0.000000
# 5 0.000000 0.000000 0.000000 0.000000 0.033496 0.000000
# 6 0.000000 0.000000 0.000000 0.000000 0.000000 0.043140
#
#
# Mechanical properties :
#
#
# Convention : Reuss Voigt Hill
#
# Bulk Modulus (GPa) = 59.34179 61.44525 60.39352
# Shear Modulus (GPa) = 26.57947 27.71445 27.14696
#
# Velocity S-wave (km/s) = 3.49913 3.57306 3.53629
# Velocity P-wave (km/s) = 6.60766 6.73255 6.67040
#
# Compressibility (1/GPa) = 0.01685153
#
# Stress axis : x y z
#
# Youngs Moduli (GPa) = 89.94828 75.07505 54.93333
#
# Poissons Ratio (x) = 0.12378 0.34701
# Poissons Ratio (y) = 0.14830 0.27078
# Poissons Ratio (z) = 0.56820 0.37007
#
# Static dielectric constant tensor:
#      x y z
#    x 3.942060 0.000000 0.000000 
#    y 0.000000 4.007530 0.000000 
#    z 0.000000 0.000000 4.174620 
# 
# 
# High freq. dielectric constant tensor:
#      x y z
#    x 1.852400 0.000000 0.000000 
#    y 0.000000 1.855380 0.000000 
#    z 0.000000 0.000000 1.849710 
# 
# From -- ./inp_files/20339.got.cif
#   From: 2010.03.12/outbox.cif.g09.slc.cpg/sg57_11_cif.got.tgz:20339.got - 2010.04.16 15:48:40.
