data_PCOD8234295
_publ_section_title
;
Structure prediction by ZEFSAII (Michael W. Deem and Ramdas Pophale) SiO2 
 PCOD8234295
Probable space group: P B C M
;
_chemical_formula_sum "Si O2"
_cell_formula_units_Z 48
_cell_length_a 18.359499
_cell_length_b 14.763264
_cell_length_c 8.617698
_cell_angle_alpha 90.000000
_cell_angle_beta 90.000000
_cell_angle_gamma 90.000000
_cell_volume 2335.793698
_symmetry_space_group_name_H-M "P B C M"
_symmetry_group_IT_number 57
_symmetry_cell_setting 'orthorhombic'
loop_
_space_group_symop_operation_xyz
x,y,z
-x,-y,1/2+z
x,1/2-y,-z
-x,1/2+y,1/2-z
-x,-y,-z
x,y,1/2-z
-x,1/2+y,z
x,1/2-y,1/2+z
loop_
_atom_site_type_symbol
_atom_site_label
_atom_site_fract_x
_atom_site_fract_y
_atom_site_fract_z
Si Si1 0.519796 0.148253 0.067140
Si Si2 0.141281 0.342311 0.927078
Si Si3 0.017727 0.904319 0.572252
Si Si4 0.605307 0.511566 0.067880
Si Si5 0.834570 0.344506 0.433243
Si Si6 0.758399 0.512381 0.568815
O O1 0.524153 0.158249 0.250000
O O2 0.447289 0.093784 0.013550
O O3 0.521726 0.250000 0.000000
O O4 0.586853 0.085463 0.010621
O O5 0.167570 0.351087 0.750000
O O6 0.054013 0.342964 0.938123
O O7 0.171167 0.250000 0.000000
O O8 0.174465 0.423548 0.025443
O O9 0.043911 0.915439 0.750000
O O10 0.080748 0.858105 0.472998
O O11 0.000000 0.000000 0.500000
O O12 0.599375 0.497034 0.250000
O O13 0.685721 0.542666 0.019805
O O14 0.807746 0.250000 0.500000
O O15 0.824264 0.351037 0.250000
O O16 0.781109 0.413181 0.517199
O O17 0.743085 0.516125 0.750000
#
# Coordination Sequence:
#
# PCOD8234295 Si02
#       6
#     8   8   8   8   8   8
#     4  10  21  39  66  97 127 162 203 246 296 354
#     4  11  24  41  62  89 121 161 207 257 311 368
#     4  11  22  38  63  90 120 159 206 258 313 369
#     4  10  22  41  64  92 128 164 203 250 299 357
#     4  12  25  42  63  89 122 160 208 260 314 373
#     4  12  25  42  64  90 125 164 206 254 309 370
#
# _framework density 20.549759999999999
#
# number of rings (size 3 to 8) (size 9 to 14) (size 15 to 20)
#    0.000    1.000    1.667    5.500    0.000    6.667 
#    0.000    5.000    0.000    0.000    0.000    0.000 
#    0.000    0.000    0.000    0.000    0.000    0.000 
#
# Total GULP energy -595407.761510 kJ/mol
# GULP energy per Si atom -12404.328365 kJ/mol
# Density = 2.050299 g / cm^3
# Si number density = 20.549760 Si / 1000 Ang^3
#
#
#
# Elastic Constant Matrix: (Units=GPa)
#
#
# Indices 1 2 3 4 5 6 
#
# 1 67.0105 -2.6987 16.5249 0.0000 0.0000 0.0000
# 2 -2.6987 108.3320 40.0683 0.0000 0.0000 0.0000
# 3 16.5249 40.0683 76.0703 0.0000 0.0000 0.0000
# 4 0.0000 0.0000 0.0000 37.5164 0.0000 0.0000
# 5 0.0000 0.0000 0.0000 0.0000 35.9683 0.0000
# 6 0.0000 0.0000 0.0000 0.0000 0.0000 -38.7617
#
#
#
# Elastic Compliance Matrix: (Units=1/GPa)
#
#
# Indices 1 2 3 4 5 6 
#
# 1 0.016147 0.002111 -0.004620 0.000000 0.000000 0.000000
# 2 0.002111 0.011740 -0.006642 0.000000 0.000000 0.000000
# 3 -0.004620 -0.006642 0.017648 0.000000 0.000000 0.000000
# 4 0.000000 0.000000 0.000000 0.026655 0.000000 0.000000
# 5 0.000000 0.000000 0.000000 0.000000 0.027802 0.000000
# 6 0.000000 0.000000 0.000000 0.000000 0.000000 -0.025799
#
#
# Mechanical properties :
#
#
# Convention : Reuss Voigt Hill
#
# Bulk Modulus (GPa) = 36.71986 39.91132 38.31559
# Shear Modulus (GPa) = 49.22509 20.11249 34.66879
#
# Velocity S-wave (km/s) = 4.89960 3.13185 4.11185
# Velocity P-wave (km/s) = 7.06510 5.70455 6.42097
#
# Compressibility (1/GPa) = 0.02723322
#
# Stress axis : x y z
#
# Youngs Moduli (GPa) = 61.93008 85.17678 56.66358
#
# Poissons Ratio (x) = -0.17980 0.26176
# Poissons Ratio (y) = -0.13073 0.37639
# Poissons Ratio (z) = 0.28609 0.56578
#
# Static dielectric constant tensor:
#      x y z
#    x 3.800460 0.000000 0.000000 
#    y 0.000000 3.772540 0.000000 
#    z 0.000000 0.000000 3.776170 
# 
# 
# High freq. dielectric constant tensor:
#      x y z
#    x 1.799220 0.000000 0.000000 
#    y 0.000000 1.811290 0.000000 
#    z 0.000000 0.000000 1.820320 
# 
# From -- ./inp_files/6513.got.cif
#   From: 2010.03.12/outbox.cif.g09.slc.cpg/sg57_4_cif.got.tgz:6513.got - 2010.04.16 15:48:40.
