data_PCOD8234024
_publ_section_title
;
Structure prediction by ZEFSAII (Michael W. Deem and Ramdas Pophale) SiO2 
 PCOD8234024
Probable space group: P B C M
;
_chemical_formula_sum "Si O2"
_cell_formula_units_Z 36
_cell_length_a 16.490741
_cell_length_b 5.115478
_cell_length_c 24.653042
_cell_angle_alpha 90.000000
_cell_angle_beta 90.000000
_cell_angle_gamma 90.000000
_cell_volume 2079.681879
_symmetry_space_group_name_H-M "P B C M"
_symmetry_group_IT_number 57
_symmetry_cell_setting 'orthorhombic'
loop_
_space_group_symop_operation_xyz
x,y,z
-x,-y,1/2+z
x,1/2-y,-z
-x,1/2+y,1/2-z
-x,-y,-z
x,y,1/2-z
-x,1/2+y,z
x,1/2-y,1/2+z
loop_
_atom_site_type_symbol
_atom_site_label
_atom_site_fract_x
_atom_site_fract_y
_atom_site_fract_z
Si Si1 0.730963 0.809238 0.685500
Si Si2 0.546949 0.742656 0.185446
Si Si3 0.947831 0.240705 0.936980
Si Si4 0.174307 0.808307 0.845841
Si Si5 0.948505 0.331149 0.750000
O O1 0.739261 0.780224 0.750000
O O2 0.639295 0.767703 0.665336
O O3 0.787282 0.594993 0.657165
O O4 0.756508 0.096325 0.666223
O O5 0.545137 0.737631 0.250000
O O6 0.496237 0.499554 0.162100
O O7 0.863330 0.268032 0.905244
O O8 0.009650 0.470143 0.920866
O O9 0.924862 0.250000 0.000000
O O10 0.102697 0.772236 0.803152
O O11 0.023950 0.132398 0.750000
#
# Coordination Sequence:
#
# PCOD8234024 Si02
#       5
#     8   8   8   8   4
#     4  11  20  33  48  73 107 136 162 199 252 293
#     4   9  17  29  46  67  95 134 169 194 227 289
#     4  10  21  38  56  72  94 129 173 220 258 287
#     4  12  21  34  50  73 102 132 167 206 250 300
#     4  12  22  32  46  66  96 132 164 192 234 298
#
# _framework density 17.310338999999999
#
# number of rings (size 3 to 8) (size 9 to 14) (size 15 to 20)
#    0.000    1.333    2.222    5.333    0.000    3.556 
#    0.000    0.000    0.000    0.000    0.000    0.000 
#    0.000   17.778    0.000    0.000    0.000    0.000 
#
# Total GULP energy -446593.823252 kJ/mol
# GULP energy per Si atom -12405.383979 kJ/mol
# Density = 1.727094 g / cm^3
# Si number density = 17.310339 Si / 1000 Ang^3
#
#
#
# Elastic Constant Matrix: (Units=GPa)
#
#
# Indices 1 2 3 4 5 6 
#
# 1 90.2564 14.6136 31.0319 0.0000 0.0000 0.0000
# 2 14.6136 79.9178 8.3817 0.0000 0.0000 0.0000
# 3 31.0319 8.3817 43.6296 0.0000 0.0000 0.0000
# 4 0.0000 0.0000 0.0000 14.8151 0.0000 0.0000
# 5 0.0000 0.0000 0.0000 0.0000 13.9411 0.0000
# 6 0.0000 0.0000 0.0000 0.0000 0.0000 40.2258
#
#
#
# Elastic Compliance Matrix: (Units=1/GPa)
#
#
# Indices 1 2 3 4 5 6 
#
# 1 0.014875 -0.001643 -0.010264 0.000000 0.000000 0.000000
# 2 -0.001643 0.012952 -0.001319 0.000000 0.000000 0.000000
# 3 -0.010264 -0.001319 0.030474 0.000000 0.000000 0.000000
# 4 0.000000 0.000000 0.000000 0.067499 0.000000 0.000000
# 5 0.000000 0.000000 0.000000 0.000000 0.071730 0.000000
# 6 0.000000 0.000000 0.000000 0.000000 0.000000 0.024860
#
#
# Mechanical properties :
#
#
# Convention : Reuss Voigt Hill
#
# Bulk Modulus (GPa) = 31.40013 35.76202 33.58107
# Shear Modulus (GPa) = 19.27095 24.44818 21.85957
#
# Velocity S-wave (km/s) = 3.34018 3.76220 3.55745
# Velocity P-wave (km/s) = 5.74932 6.29097 6.02623
#
# Compressibility (1/GPa) = 0.03184700
#
# Stress axis : x y z
#
# Youngs Moduli (GPa) = 67.22880 77.20971 32.81490
#
# Poissons Ratio (x) = 0.12689 0.33681
# Poissons Ratio (y) = 0.11049 0.04329
# Poissons Ratio (z) = 0.69003 0.10186
#
# Static dielectric constant tensor:
#      x y z
#    x 3.267210 0.000000 0.000000 
#    y 0.000000 3.449090 0.000000 
#    z 0.000000 0.000000 2.930780 
# 
# 
# High freq. dielectric constant tensor:
#      x y z
#    x 1.671860 0.000000 0.000000 
#    y 0.000000 1.693730 0.000000 
#    z 0.000000 0.000000 1.619350 
# 
# From -- ./inp_files/25203.got.cif
#   From: 2010.03.12/outbox.cif.g09.slc.cpg/sg57_13_cif.got.tgz:25203.got - 2010.04.16 15:48:40.
