data_PCOD8234253
_publ_section_title
;
Structure prediction by ZEFSAII (Michael W. Deem and Ramdas Pophale) SiO2 
 PCOD8234253
Probable space group: P B C M
;
_chemical_formula_sum "Si O2"
_cell_formula_units_Z 64
_cell_length_a 8.035183
_cell_length_b 24.659872
_cell_length_c 15.086017
_cell_angle_alpha 90.000000
_cell_angle_beta 90.000000
_cell_angle_gamma 90.000000
_cell_volume 2989.242739
_symmetry_space_group_name_H-M "P B C M"
_symmetry_group_IT_number 57
_symmetry_cell_setting 'orthorhombic'
loop_
_space_group_symop_operation_xyz
x,y,z
-x,-y,1/2+z
x,1/2-y,-z
-x,1/2+y,1/2-z
-x,-y,-z
x,y,1/2-z
-x,1/2+y,z
x,1/2-y,1/2+z
loop_
_atom_site_type_symbol
_atom_site_label
_atom_site_fract_x
_atom_site_fract_y
_atom_site_fract_z
Si Si1 0.362228 0.896577 0.647031
Si Si2 0.988802 0.884188 0.851458
Si Si3 0.970479 0.239735 0.398210
Si Si4 0.683193 0.583458 0.850436
Si Si5 0.399997 0.776912 0.854524
Si Si6 0.583312 0.996450 0.649604
Si Si7 0.696147 0.704372 0.850492
Si Si8 0.842806 0.534878 0.018038
O O1 0.397385 0.891501 0.750000
O O2 0.169337 0.909742 0.629745
O O3 0.406101 0.837832 0.603329
O O4 0.468174 0.947219 0.611247
O O5 0.932444 0.894975 0.750000
O O6 0.987591 0.820476 0.867919
O O7 0.864133 0.912014 0.920081
O O8 0.999500 0.250000 0.500000
O O9 0.777537 0.253064 0.374566
O O10 0.110502 0.277606 0.353355
O O11 0.760900 0.582164 0.750000
O O12 0.504876 0.554661 0.847593
O O13 0.672326 0.644199 0.889571
O O14 0.791702 0.550005 0.919156
O O15 0.415513 0.782346 0.750000
O O16 0.558527 0.744413 0.895943
O O17 0.647949 0.983519 0.750000
O O18 0.722255 0.003673 0.574947
O O19 0.638322 0.700763 0.750000
O O20 0.000000 0.500000 0.000000
#
# Coordination Sequence:
#
# PCOD8234253 Si02
#       8
#     8   8   8   8   8   8   8   8
#     4   8  16  34  61  90 121 159 205 264 325 379
#     4  10  21  39  63  93 130 166 211 275 334 390
#     4  11  22  38  59  94 135 167 212 267 329 394
#     4  10  23  44  62  86 125 172 215 262 325 394
#     4   9  19  37  61  90 121 164 215 262 321 384
#     4  10  21  40  66  92 122 165 216 266 324 399
#     4  10  21  40  64  86 120 170 218 261 315 386
#     4  12  25  40  62  96 126 163 211 269 334 391
#
# _framework density 21.410102999999999
#
# number of rings (size 3 to 8) (size 9 to 14) (size 15 to 20)
#    0.000    2.000    0.000    4.125    1.750    2.500 
#    9.000    0.000    0.000    0.000    0.000    0.000 
#    0.000    0.000    0.000    0.000    0.000    0.000 
#
# Total GULP energy -793037.667569 kJ/mol
# GULP energy per Si atom -12391.213556 kJ/mol
# Density = 2.136137 g / cm^3
# Si number density = 21.410103 Si / 1000 Ang^3
#
#
#
# Elastic Constant Matrix: (Units=GPa)
#
#
# Indices 1 2 3 4 5 6 
#
# 1 102.9687 42.7377 16.8404 0.0000 0.0000 0.0000
# 2 42.7377 88.8269 12.0710 0.0000 0.0000 0.0000
# 3 16.8404 12.0710 85.2582 0.0000 0.0000 0.0000
# 4 0.0000 0.0000 0.0000 22.4811 0.0000 0.0000
# 5 0.0000 0.0000 0.0000 0.0000 31.8462 0.0000
# 6 0.0000 0.0000 0.0000 0.0000 0.0000 23.3399
#
#
#
# Elastic Compliance Matrix: (Units=1/GPa)
#
#
# Indices 1 2 3 4 5 6 
#
# 1 0.012353 -0.005722 -0.001630 0.000000 0.000000 0.000000
# 2 -0.005722 0.014129 -0.000870 0.000000 0.000000 0.000000
# 3 -0.001630 -0.000870 0.012174 0.000000 0.000000 0.000000
# 4 0.000000 0.000000 0.000000 0.044482 0.000000 0.000000
# 5 0.000000 0.000000 0.000000 0.000000 0.031401 0.000000
# 6 0.000000 0.000000 0.000000 0.000000 0.000000 0.042845
#
#
# Mechanical properties :
#
#
# Convention : Reuss Voigt Hill
#
# Bulk Modulus (GPa) = 45.02009 46.70578 45.86293
# Shear Modulus (GPa) = 27.58880 29.22708 28.40794
#
# Velocity S-wave (km/s) = 3.59359 3.69874 3.64654
# Velocity P-wave (km/s) = 6.18802 6.33270 6.26078
#
# Compressibility (1/GPa) = 0.02221231
#
# Stress axis : x y z
#
# Youngs Moduli (GPa) = 80.95039 70.77537 82.14078
#
# Poissons Ratio (x) = 0.40498 0.13388
# Poissons Ratio (y) = 0.46321 0.07148
# Poissons Ratio (z) = 0.13194 0.06159
#
# Static dielectric constant tensor:
#      x y z
#    x 4.010590 0.000000 0.000000 
#    y 0.000000 4.147620 0.000000 
#    z 0.000000 0.000000 3.933780 
# 
# 
# High freq. dielectric constant tensor:
#      x y z
#    x 1.833000 0.000000 0.000000 
#    y 0.000000 1.841220 0.000000 
#    z 0.000000 0.000000 1.834880 
# 
# From -- ./inp_files/16955.got.cif
#   From: 2010.03.12/outbox.cif.g09.slc.cpg/sg57_9_cif.got.tgz:16955.got - 2010.04.16 15:48:40.
