data_PCOD8234972
_publ_section_title
;
Structure prediction by ZEFSAII (Michael W. Deem and Ramdas Pophale) SiO2 
 PCOD8234972
Probable space group: P B C M
;
_chemical_formula_sum "Si O2"
_cell_formula_units_Z 56
_cell_length_a 24.003995
_cell_length_b 8.753587
_cell_length_c 14.497668
_cell_angle_alpha 90.000000
_cell_angle_beta 90.000000
_cell_angle_gamma 90.000000
_cell_volume 3046.265347
_symmetry_space_group_name_H-M "P B C M"
_symmetry_group_IT_number 57
_symmetry_cell_setting 'orthorhombic'
loop_
_space_group_symop_operation_xyz
x,y,z
-x,-y,1/2+z
x,1/2-y,-z
-x,1/2+y,1/2-z
-x,-y,-z
x,y,1/2-z
-x,1/2+y,z
x,1/2-y,1/2+z
loop_
_atom_site_type_symbol
_atom_site_label
_atom_site_fract_x
_atom_site_fract_y
_atom_site_fract_z
Si Si1 0.556880 0.569584 0.146117
Si Si2 0.857964 0.569244 0.356260
Si Si3 0.767574 0.570093 0.500000
Si Si4 0.939175 0.431031 1.000000
Si Si5 0.556880 0.569584 0.853883
Si Si6 0.644179 0.931687 0.000000
Si Si7 0.857964 0.930756 0.356260
O O1 0.566109 0.512034 0.250000
O O2 0.551330 0.750000 0.139291
O O3 0.500000 0.500000 0.105036
O O4 0.610272 0.511165 0.089351
O O5 0.854745 0.516086 0.250000
O O6 0.800922 0.519784 0.407931
O O7 0.908964 0.486932 0.406878
O O8 0.867329 0.750000 0.364352
O O9 0.760550 0.750000 0.500000
O O10 0.706062 0.494395 0.500000
O O11 0.800922 0.519784 0.592069
O O12 0.908964 0.486932 0.906878
O O13 0.942020 0.250000 0.000000
O O14 0.000000 0.500000 0.000000
O O15 0.566109 0.512034 0.750000
O O16 0.610272 0.511165 0.910649
O O17 0.648725 0.750000 0.000000
O O18 0.854745 0.983914 0.250000
#
# Coordination Sequence:
#
# PCOD8234972 Si02
#       7
#     8   8   8   8   8   8   8
#     4   9  17  28  42  61  86 117 153 193 237 285
#     4   9  18  34  55  77 103 135 168 203 246 295
#     4   8  15  28  47  73  99 123 158 202 244 288
#     4  11  22  36  55  79 108 137 168 207 245 287
#     4   9  17  28  42  61  86 117 153 193 237 285
#     4   9  16  26  43  68  94 118 150 193 238 285
#     4   9  18  34  55  77 103 135 168 203 246 295
#
# _framework density 18.383165999999999
#
# number of rings (size 3 to 8) (size 9 to 14) (size 15 to 20)
#    0.000    2.857    0.000    2.571    0.000    2.286 
#    0.000    5.714    0.000    6.857    0.000    8.000 
#    0.000    0.000    0.000    0.000    0.000    0.000 
#
# Total GULP energy -694183.054325 kJ/mol
# GULP energy per Si atom -12396.125970 kJ/mol
# Density = 1.834132 g / cm^3
# Si number density = 18.383166 Si / 1000 Ang^3
#
#
#
# Elastic Constant Matrix: (Units=GPa)
#
#
# Indices 1 2 3 4 5 6 
#
# 1 200.3791 35.3084 95.7790 0.0000 0.0000 0.0000
# 2 35.3084 37.9225 31.4307 0.0000 0.0000 0.0000
# 3 95.7790 31.4307 162.7094 0.0000 0.0000 0.0000
# 4 0.0000 0.0000 0.0000 18.3785 0.0000 0.0000
# 5 0.0000 0.0000 0.0000 0.0000 104.5125 0.0000
# 6 0.0000 0.0000 0.0000 0.0000 0.0000 22.2867
#
#
#
# Elastic Compliance Matrix: (Units=1/GPa)
#
#
# Indices 1 2 3 4 5 6 
#
# 1 0.007400 -0.003905 -0.003602 0.000000 0.000000 0.000000
# 2 -0.003905 0.033457 -0.004164 0.000000 0.000000 0.000000
# 3 -0.003602 -0.004164 0.009071 0.000000 0.000000 0.000000
# 4 0.000000 0.000000 0.000000 0.054411 0.000000 0.000000
# 5 0.000000 0.000000 0.000000 0.000000 0.009568 0.000000
# 6 0.000000 0.000000 0.000000 0.000000 0.000000 0.044870
#
#
# Mechanical properties :
#
#
# Convention : Reuss Voigt Hill
#
# Bulk Modulus (GPa) = 37.61443 80.67193 59.14318
# Shear Modulus (GPa) = 26.18065 44.93506 35.55786
#
# Velocity S-wave (km/s) = 3.77790 4.94941 4.40280
# Velocity P-wave (km/s) = 6.28775 8.75449 7.62158
#
# Compressibility (1/GPa) = 0.02658554
#
# Stress axis : x y z
#
# Youngs Moduli (GPa) = 135.13039 29.88940 110.24660
#
# Poissons Ratio (x) = 0.11671 0.39709
# Poissons Ratio (y) = 0.52767 0.45909
# Poissons Ratio (z) = 0.48672 0.12447
#
# Static dielectric constant tensor:
#      x y z
#    x 3.403670 0.000000 0.000000 
#    y 0.000000 3.013220 0.000000 
#    z 0.000000 0.000000 3.705330 
# 
# 
# High freq. dielectric constant tensor:
#      x y z
#    x 1.717700 0.000000 0.000000 
#    y 0.000000 1.674800 0.000000 
#    z 0.000000 0.000000 1.720800 
# 
# From -- ./inp_files/19379.got.cif
#   From: 2010.03.12/outbox.cif.g09.slc.cpg/sg57_10_cif.got.tgz:19379.got - 2010.04.16 15:48:40.
