data_PCOD8234004
_publ_section_title
;
Structure prediction by ZEFSAII (Michael W. Deem and Ramdas Pophale) SiO2 
 PCOD8234004
Probable space group: P B C M
;
_chemical_formula_sum "Si O2"
_cell_formula_units_Z 64
_cell_length_a 11.863489
_cell_length_b 11.903932
_cell_length_c 21.636734
_cell_angle_alpha 90.000000
_cell_angle_beta 90.000000
_cell_angle_gamma 90.000000
_cell_volume 3055.586448
_symmetry_space_group_name_H-M "P B C M"
_symmetry_group_IT_number 57
_symmetry_cell_setting 'orthorhombic'
loop_
_space_group_symop_operation_xyz
x,y,z
-x,-y,1/2+z
x,1/2-y,-z
-x,1/2+y,1/2-z
-x,-y,-z
x,y,1/2-z
-x,1/2+y,z
x,1/2-y,1/2+z
loop_
_atom_site_type_symbol
_atom_site_label
_atom_site_fract_x
_atom_site_fract_y
_atom_site_fract_z
Si Si1 0.356301 0.667343 0.884081
Si Si2 0.533316 0.977431 0.179920
Si Si3 0.476931 0.868287 0.930055
Si Si4 0.324769 0.011830 0.016416
Si Si5 0.839425 0.186126 0.323560
Si Si6 0.913381 0.596732 0.007435
Si Si7 0.060429 0.241491 0.607020
Si Si8 0.786592 0.568483 0.821595
O O1 0.435291 0.612880 0.832084
O O2 0.437205 0.739179 0.930265
O O3 0.299244 0.571127 0.925866
O O4 0.265108 0.746989 0.852446
O O5 0.528419 0.018974 0.250000
O O6 0.653843 0.920705 0.165401
O O7 0.514093 0.089591 0.140493
O O8 0.597911 0.882719 0.962776
O O9 0.384764 0.946674 0.961708
O O10 0.210757 0.058292 0.986863
O O11 0.837151 0.200572 0.250000
O O12 0.952262 0.242540 0.349753
O O13 0.831728 0.054867 0.342641
O O14 0.901540 0.636882 0.079633
O O15 0.964723 0.683204 0.958170
O O16 0.000000 0.500000 0.000000
O O17 0.154571 0.171809 0.643400
O O18 0.815095 0.584554 0.750000
#
# Coordination Sequence:
#
# PCOD8234004 Si02
#       8
#     8   8   8   8   8   8   8   8
#     4  11  22  37  65  95 128 171 217 264 328 391
#     4  10  21  37  61  92 128 168 216 265 320 390
#     4  10  21  39  62  90 129 169 211 264 325 389
#     4  10  23  41  60  95 129 167 214 270 327 390
#     4  11  23  41  67  94 129 172 221 269 321 390
#     4  11  24  41  63  90 128 165 215 272 326 386
#     4  11  24  40  63  93 121 172 215 268 325 384
#     4  10  21  40  64  91 127 171 216 267 321 386
#
# _framework density 20.945240999999999
#
# number of rings (size 3 to 8) (size 9 to 14) (size 15 to 20)
#    0.000    1.500    1.250    3.375    3.500    0.500 
#    4.500    0.000    0.000    1.500    0.000    0.000 
#    0.000    0.000    0.000    0.000    0.000    0.000 
#
# Total GULP energy -793346.921296 kJ/mol
# GULP energy per Si atom -12396.045645 kJ/mol
# Density = 2.089757 g / cm^3
# Si number density = 20.945241 Si / 1000 Ang^3
#
#
#
# Elastic Constant Matrix: (Units=GPa)
#
#
# Indices 1 2 3 4 5 6 
#
# 1 85.9818 24.4541 14.7895 0.0000 0.0000 0.0000
# 2 24.4541 72.3446 15.9529 0.0000 0.0000 0.0000
# 3 14.7895 15.9529 72.1573 0.0000 0.0000 0.0000
# 4 0.0000 0.0000 0.0000 30.3673 0.0000 0.0000
# 5 0.0000 0.0000 0.0000 0.0000 26.1470 0.0000
# 6 0.0000 0.0000 0.0000 0.0000 0.0000 31.7419
#
#
#
# Elastic Compliance Matrix: (Units=1/GPa)
#
#
# Indices 1 2 3 4 5 6 
#
# 1 0.013084 -0.004028 -0.001791 0.000000 0.000000 0.000000
# 2 -0.004028 0.015771 -0.002661 0.000000 0.000000 0.000000
# 3 -0.001791 -0.002661 0.014814 0.000000 0.000000 0.000000
# 4 0.000000 0.000000 0.000000 0.032930 0.000000 0.000000
# 5 0.000000 0.000000 0.000000 0.000000 0.038245 0.000000
# 6 0.000000 0.000000 0.000000 0.000000 0.000000 0.031504
#
#
# Mechanical properties :
#
#
# Convention : Reuss Voigt Hill
#
# Bulk Modulus (GPa) = 37.44087 37.87521 37.65804
# Shear Modulus (GPa) = 29.03399 29.33705 29.18552
#
# Velocity S-wave (km/s) = 3.72719 3.74659 3.73690
# Velocity P-wave (km/s) = 6.03631 6.06944 6.05290
#
# Compressibility (1/GPa) = 0.02670878
#
# Stress axis : x y z
#
# Youngs Moduli (GPa) = 76.42927 63.40748 67.50325
#
# Poissons Ratio (x) = 0.25539 0.12092
# Poissons Ratio (y) = 0.30783 0.17964
# Poissons Ratio (z) = 0.13690 0.16874
#
# Static dielectric constant tensor:
#      x y z
#    x 3.854990 0.000000 0.000000 
#    y 0.000000 3.978220 0.000000 
#    z 0.000000 0.000000 3.876490 
# 
# 
# High freq. dielectric constant tensor:
#      x y z
#    x 1.816700 0.000000 0.000000 
#    y 0.000000 1.820150 0.000000 
#    z 0.000000 0.000000 1.833820 
# 
# From -- ./inp_files/27300.got.cif
#   From: 2010.03.12/outbox.cif.g09.slc.cpg/sg57_14_cif.got.tgz:27300.got - 2010.04.16 15:48:40.
