data_PCOD8234743
_publ_section_title
;
Structure prediction by ZEFSAII (Michael W. Deem and Ramdas Pophale) SiO2 
 PCOD8234743
Probable space group: P B C M
;
_chemical_formula_sum "Si O2"
_cell_formula_units_Z 64
_cell_length_a 13.505012
_cell_length_b 12.905921
_cell_length_c 17.391878
_cell_angle_alpha 90.000000
_cell_angle_beta 90.000000
_cell_angle_gamma 90.000000
_cell_volume 3031.310732
_symmetry_space_group_name_H-M "P B C M"
_symmetry_group_IT_number 57
_symmetry_cell_setting 'orthorhombic'
loop_
_space_group_symop_operation_xyz
x,y,z
-x,-y,1/2+z
x,1/2-y,-z
-x,1/2+y,1/2-z
-x,-y,-z
x,y,1/2-z
-x,1/2+y,z
x,1/2-y,1/2+z
loop_
_atom_site_type_symbol
_atom_site_label
_atom_site_fract_x
_atom_site_fract_y
_atom_site_fract_z
Si Si1 0.963610 0.881129 0.161564
Si Si2 0.887650 0.241039 0.415106
Si Si3 0.686460 0.211684 0.340499
Si Si4 0.029164 0.058798 0.077801
Si Si5 0.387917 0.564020 0.657952
Si Si6 0.255375 0.392549 0.924096
Si Si7 0.249459 0.340681 0.099185
Si Si8 0.397825 0.499383 0.338337
O O1 0.956612 0.847074 0.250000
O O2 0.866929 0.844116 0.116436
O O3 0.066402 0.844257 0.121747
O O4 0.976552 0.004082 0.151132
O O5 0.840198 0.250000 0.500000
O O6 0.801578 0.198532 0.360939
O O7 0.984543 0.171792 0.422989
O O8 0.675369 0.209718 0.250000
O O9 0.643640 0.321222 0.371409
O O10 0.630056 0.111098 0.376565
O O11 0.144939 0.069857 0.091747
O O12 0.000000 0.000000 0.000000
O O13 0.374818 0.553662 0.750000
O O14 0.324223 0.477183 0.615442
O O15 0.499988 0.546222 0.628387
O O16 0.280232 0.279217 0.889156
O O17 0.272711 0.385074 0.015009
O O18 0.311305 0.413962 0.155609
O O19 0.415530 0.522233 0.250000
#
# Coordination Sequence:
#
# PCOD8234743 Si02
#       8
#     8   8   8   8   8   8   8   8
#     4  12  25  40  63  97 133 172 221 270 319 386
#     4  12  23  40  64  92 130 179 217 260 329 390
#     4  10  23  42  63  96 133 166 221 278 327 397
#     4  12  23  41  67  92 134 180 217 265 322 394
#     4  10  24  44  68  97 131 170 219 281 339 397
#     4  11  24  42  67  97 132 175 222 271 333 393
#     4  11  23  43  65  95 135 173 218 275 329 398
#     4  10  23  43  69  95 128 175 219 273 342 399
#
# _framework density 21.112978999999999
#
# number of rings (size 3 to 8) (size 9 to 14) (size 15 to 20)
#    0.000    1.000    3.750    2.250    1.750    5.000 
#    0.000    0.000    0.000    0.000    0.000    0.000 
#    0.000    0.000    0.000    0.000    0.000    0.000 
#
# Total GULP energy -793402.988695 kJ/mol
# GULP energy per Si atom -12396.921698 kJ/mol
# Density = 2.106492 g / cm^3
# Si number density = 21.112979 Si / 1000 Ang^3
#
#
#
# Elastic Constant Matrix: (Units=GPa)
#
#
# Indices 1 2 3 4 5 6 
#
# 1 126.9615 55.5514 15.2117 0.0000 0.0000 0.0000
# 2 55.5514 136.8046 33.6930 0.0000 0.0000 0.0000
# 3 15.2117 33.6930 50.0757 0.0000 0.0000 0.0000
# 4 0.0000 0.0000 0.0000 32.7795 0.0000 0.0000
# 5 0.0000 0.0000 0.0000 0.0000 26.2880 0.0000
# 6 0.0000 0.0000 0.0000 0.0000 0.0000 36.4869
#
#
#
# Elastic Compliance Matrix: (Units=1/GPa)
#
#
# Indices 1 2 3 4 5 6 
#
# 1 0.009583 -0.003805 -0.000351 0.000000 0.000000 0.000000
# 2 -0.003805 0.010272 -0.005756 0.000000 0.000000 0.000000
# 3 -0.000351 -0.005756 0.023949 0.000000 0.000000 0.000000
# 4 0.000000 0.000000 0.000000 0.030507 0.000000 0.000000
# 5 0.000000 0.000000 0.000000 0.000000 0.038040 0.000000
# 6 0.000000 0.000000 0.000000 0.000000 0.000000 0.027407
#
#
# Mechanical properties :
#
#
# Convention : Reuss Voigt Hill
#
# Bulk Modulus (GPa) = 41.69936 58.08376 49.89156
# Shear Modulus (GPa) = 29.83720 33.06995 31.45357
#
# Velocity S-wave (km/s) = 3.76335 3.96199 3.86395
# Velocity P-wave (km/s) = 6.21910 6.96422 6.60218
#
# Compressibility (1/GPa) = 0.02398118
#
# Stress axis : x y z
#
# Youngs Moduli (GPa) = 104.34802 97.34897 41.75524
#
# Poissons Ratio (x) = 0.37041 0.01466
# Poissons Ratio (y) = 0.39704 0.24033
# Poissons Ratio (z) = 0.03663 0.56032
#
# Static dielectric constant tensor:
#      x y z
#    x 3.773590 0.000000 0.000000 
#    y 0.000000 4.059340 0.000000 
#    z 0.000000 0.000000 5.086640 
# 
# 
# High freq. dielectric constant tensor:
#      x y z
#    x 1.829580 0.000000 0.000000 
#    y 0.000000 1.846980 0.000000 
#    z 0.000000 0.000000 1.811990 
# 
# From -- ./inp_files/22699.got.cif
#   From: 2010.03.12/outbox.cif.g09.slc.cpg/sg57_12_cif.got.tgz:22699.got - 2010.04.16 15:48:40.
