data_PCOD8234886
_publ_section_title
;
Structure prediction by ZEFSAII (Michael W. Deem and Ramdas Pophale) SiO2 
 PCOD8234886
Probable space group: P B C M
;
_chemical_formula_sum "Si O2"
_cell_formula_units_Z 56
_cell_length_a 9.131638
_cell_length_b 14.000233
_cell_length_c 22.444147
_cell_angle_alpha 90.000000
_cell_angle_beta 90.000000
_cell_angle_gamma 90.000000
_cell_volume 2869.373312
_symmetry_space_group_name_H-M "P B C M"
_symmetry_group_IT_number 57
_symmetry_cell_setting 'orthorhombic'
loop_
_space_group_symop_operation_xyz
x,y,z
-x,-y,1/2+z
x,1/2-y,-z
-x,1/2+y,1/2-z
-x,-y,-z
x,y,1/2-z
-x,1/2+y,z
x,1/2-y,1/2+z
loop_
_atom_site_type_symbol
_atom_site_label
_atom_site_fract_x
_atom_site_fract_y
_atom_site_fract_z
Si Si1 0.642263 0.357336 0.902375
Si Si2 0.900197 0.358735 0.987476
Si Si3 0.857237 0.247089 0.320136
Si Si4 0.371239 0.236607 0.565831
Si Si5 0.116839 0.353759 0.614830
Si Si6 0.818940 0.065121 0.607542
Si Si7 0.495953 0.461687 0.067798
O O1 0.764031 0.395667 0.948634
O O2 0.717965 0.311782 0.844476
O O3 0.533511 0.280735 0.931440
O O4 0.550315 0.452952 0.887323
O O5 0.051081 0.363968 0.951370
O O6 0.860026 0.250000 0.000000
O O7 0.919502 0.417764 0.048694
O O8 0.845122 0.249874 0.250000
O O9 0.858160 0.355178 0.343910
O O10 0.006220 0.194629 0.339099
O O11 0.306718 0.250000 0.500000
O O12 0.262488 0.288439 0.612355
O O13 0.380390 0.123610 0.577790
O O14 0.153341 0.461249 0.636377
O O15 0.652971 0.077199 0.586904
O O16 0.500000 0.500000 0.000000
#
# Coordination Sequence:
#
# PCOD8234886 Si02
#       7
#     8   8   8   8   8   8   8
#     4  11  21  39  64  94 129 169 209 256 320 388
#     4  11  19  36  59  95 133 171 196 251 323 406
#     4  11  27  49  67  83 122 180 232 271 306 362
#     4  12  21  35  60 100 142 160 195 256 328 398
#     4  11  25  37  63  99 132 164 210 269 330 384
#     4  12  21  40  65  94 129 169 215 255 333 389
#     4  12  21  34  64 103 137 169 198 251 331 410
#
# _framework density 19.516456999999999
#
# number of rings (size 3 to 8) (size 9 to 14) (size 15 to 20)
#    0.000    0.571    8.571    1.286    0.000    2.857 
#    0.000    1.429    0.000    0.000    0.000    0.000 
#    0.000    0.000    0.000    0.000    0.000    0.000 
#
# Total GULP energy -694412.852362 kJ/mol
# GULP energy per Si atom -12400.229506 kJ/mol
# Density = 1.947204 g / cm^3
# Si number density = 19.516457 Si / 1000 Ang^3
#
#
#
# Elastic Constant Matrix: (Units=GPa)
#
#
# Indices 1 2 3 4 5 6 
#
# 1 75.2503 34.1271 27.9126 0.0000 0.0000 0.0000
# 2 34.1271 156.4955 47.1019 0.0000 0.0000 0.0000
# 3 27.9126 47.1019 106.3790 0.0000 0.0000 0.0000
# 4 0.0000 0.0000 0.0000 13.9681 0.0000 0.0000
# 5 0.0000 0.0000 0.0000 0.0000 20.1942 0.0000
# 6 0.0000 0.0000 0.0000 0.0000 0.0000 32.7625
#
#
#
# Elastic Compliance Matrix: (Units=1/GPa)
#
#
# Indices 1 2 3 4 5 6 
#
# 1 0.015520 -0.002491 -0.002969 0.000000 0.000000 0.000000
# 2 -0.002491 0.007772 -0.002788 0.000000 0.000000 0.000000
# 3 -0.002969 -0.002788 0.011414 0.000000 0.000000 0.000000
# 4 0.000000 0.000000 0.000000 0.071592 0.000000 0.000000
# 5 0.000000 0.000000 0.000000 0.000000 0.049519 0.000000
# 6 0.000000 0.000000 0.000000 0.000000 0.000000 0.030523
#
#
# Mechanical properties :
#
#
# Convention : Reuss Voigt Hill
#
# Bulk Modulus (GPa) = 54.91440 61.82310 58.36875
# Shear Modulus (GPa) = 23.93424 28.65050 26.29237
#
# Velocity S-wave (km/s) = 3.50574 3.83563 3.67439
# Velocity P-wave (km/s) = 6.67724 7.16675 6.92632
#
# Compressibility (1/GPa) = 0.01821016
#
# Stress axis : x y z
#
# Youngs Moduli (GPa) = 64.43290 128.66402 87.61281
#
# Poissons Ratio (x) = 0.32047 0.26016
# Poissons Ratio (y) = 0.16048 0.24425
# Poissons Ratio (z) = 0.19133 0.35869
#
# Static dielectric constant tensor:
#      x y z
#    x 3.643960 0.000000 0.000000 
#    y 0.000000 3.802150 0.000000 
#    z 0.000000 0.000000 3.119790 
# 
# 
# High freq. dielectric constant tensor:
#      x y z
#    x 1.769680 0.000000 0.000000 
#    y 0.000000 1.783530 0.000000 
#    z 0.000000 0.000000 1.701650 
# 
# From -- ./inp_files/24403.got.cif
#   From: 2010.03.12/outbox.cif.g09.slc.cpg/sg57_13_cif.got.tgz:24403.got - 2010.04.16 15:48:40.
