data_PCOD8234802
_publ_section_title
;
Structure prediction by ZEFSAII (Michael W. Deem and Ramdas Pophale) SiO2 
 PCOD8234802
Probable space group: P B C M
;
_chemical_formula_sum "Si O2"
_cell_formula_units_Z 56
_cell_length_a 14.667010
_cell_length_b 8.577695
_cell_length_c 21.142199
_cell_angle_alpha 90.000000
_cell_angle_beta 90.000000
_cell_angle_gamma 90.000000
_cell_volume 2659.881839
_symmetry_space_group_name_H-M "P B C M"
_symmetry_group_IT_number 57
_symmetry_cell_setting 'orthorhombic'
loop_
_space_group_symop_operation_xyz
x,y,z
-x,-y,1/2+z
x,1/2-y,-z
-x,1/2+y,1/2-z
-x,-y,-z
x,y,1/2-z
-x,1/2+y,z
x,1/2-y,1/2+z
loop_
_atom_site_type_symbol
_atom_site_label
_atom_site_fract_x
_atom_site_fract_y
_atom_site_fract_z
Si Si1 0.891684 0.451077 0.938864
Si Si2 0.079710 0.906657 0.082689
Si Si3 0.725780 0.905616 0.131634
Si Si4 0.592404 0.029963 0.870574
Si Si5 0.481699 0.694619 0.750000
Si Si6 0.219061 0.062601 0.173608
Si Si7 0.448964 0.287899 0.428963
Si Si8 0.361077 0.996416 0.750000
O O1 0.906765 0.277677 0.912872
O O2 0.797037 0.514041 0.913899
O O3 0.972326 0.559006 0.912086
O O4 0.884662 0.466065 0.014737
O O5 0.127933 0.996456 0.140905
O O6 0.766270 0.742914 0.157133
O O7 0.631637 0.901176 0.093054
O O8 0.705241 0.020771 0.190152
O O9 0.700842 0.036220 0.861222
O O10 0.554790 0.856782 0.881151
O O11 0.546788 0.094130 0.808925
O O12 0.550358 0.135239 0.927331
O O13 0.441425 0.867338 0.750000
O O14 0.592933 0.673151 0.750000
O O15 0.216451 0.037270 0.250000
O O16 0.424634 0.250000 0.500000
#
# Coordination Sequence:
#
# PCOD8234802 Si02
#       8
#     8   8   8   8   4   8   8   4
#     4  10  23  45  72 102 130 170 222 270 337 407
#     4  10  23  46  73 100 132 173 218 272 334 409
#     4  11  25  41  66  97 133 172 223 278 334 395
#     4  11  24  41  64  88 131 172 224 268 331 393
#     4  12  24  42  66  89 125 184 226 274 320 402
#     4  11  24  42  64  97 133 176 224 276 333 401
#     4  11  25  42  61  95 130 177 217 279 334 398
#     4  12  26  42  66  95 137 178 236 278 336 396
#
# _framework density 21.053567000000001
#
# number of rings (size 3 to 8) (size 9 to 14) (size 15 to 20)
#    0.000    1.143    2.857    2.143    8.000    1.143 
#    3.857    0.000    0.000    0.000    0.000    0.000 
#    0.000    0.000    0.000    0.000    0.000    0.000 
#
# Total GULP energy -694140.795713 kJ/mol
# GULP energy per Si atom -12395.371352 kJ/mol
# Density = 2.100565 g / cm^3
# Si number density = 21.053567 Si / 1000 Ang^3
#
#
#
# Elastic Constant Matrix: (Units=GPa)
#
#
# Indices 1 2 3 4 5 6 
#
# 1 80.9153 36.2040 54.3927 0.0000 0.0000 0.0000
# 2 36.2040 79.2258 38.5534 0.0000 0.0000 0.0000
# 3 54.3927 38.5534 98.6663 0.0000 0.0000 0.0000
# 4 0.0000 0.0000 0.0000 29.7556 0.0000 0.0000
# 5 0.0000 0.0000 0.0000 0.0000 51.4864 0.0000
# 6 0.0000 0.0000 0.0000 0.0000 0.0000 34.3218
#
#
#
# Elastic Compliance Matrix: (Units=1/GPa)
#
#
# Indices 1 2 3 4 5 6 
#
# 1 0.021077 -0.004911 -0.009700 0.000000 0.000000 0.000000
# 2 -0.004911 0.016730 -0.003830 0.000000 0.000000 0.000000
# 3 -0.009700 -0.003830 0.016979 0.000000 0.000000 0.000000
# 4 0.000000 0.000000 0.000000 0.033607 0.000000 0.000000
# 5 0.000000 0.000000 0.000000 0.000000 0.019423 0.000000
# 6 0.000000 0.000000 0.000000 0.000000 0.000000 0.029136
#
#
# Mechanical properties :
#
#
# Convention : Reuss Voigt Hill
#
# Bulk Modulus (GPa) = 55.85416 57.45638 56.65527
# Shear Modulus (GPa) = 27.80846 31.75656 29.78251
#
# Velocity S-wave (km/s) = 3.63828 3.88799 3.76521
# Velocity P-wave (km/s) = 6.65106 6.89239 6.77280
#
# Compressibility (1/GPa) = 0.01790377
#
# Stress axis : x y z
#
# Youngs Moduli (GPa) = 47.44613 59.77260 58.89584
#
# Poissons Ratio (x) = 0.29355 0.57129
# Poissons Ratio (y) = 0.23301 0.22556
# Poissons Ratio (z) = 0.46023 0.22892
#
# Static dielectric constant tensor:
#      x y z
#    x 3.877710 0.000000 0.000000 
#    y 0.000000 3.951160 0.000000 
#    z 0.000000 0.000000 3.872410 
# 
# 
# High freq. dielectric constant tensor:
#      x y z
#    x 1.822390 0.000000 0.000000 
#    y 0.000000 1.827310 0.000000 
#    z 0.000000 0.000000 1.832240 
# 
# From -- ./inp_files/25428.got.cif
#   From: 2010.03.12/outbox.cif.g09.slc.cpg/sg57_13_cif.got.tgz:25428.got - 2010.04.16 15:48:40.
