data_PCOD8234622
_publ_section_title
;
Structure prediction by ZEFSAII (Michael W. Deem and Ramdas Pophale) SiO2 
 PCOD8234622
Probable space group: P B C M
;
_chemical_formula_sum "Si O2"
_cell_formula_units_Z 40
_cell_length_a 4.949698
_cell_length_b 23.063670
_cell_length_c 14.039374
_cell_angle_alpha 90.000000
_cell_angle_beta 90.000000
_cell_angle_gamma 90.000000
_cell_volume 1602.709683
_symmetry_space_group_name_H-M "P B C M"
_symmetry_group_IT_number 57
_symmetry_cell_setting 'orthorhombic'
loop_
_space_group_symop_operation_xyz
x,y,z
-x,-y,1/2+z
x,1/2-y,-z
-x,1/2+y,1/2-z
-x,-y,-z
x,y,1/2-z
-x,1/2+y,z
x,1/2-y,1/2+z
loop_
_atom_site_type_symbol
_atom_site_label
_atom_site_fract_x
_atom_site_fract_y
_atom_site_fract_z
Si Si1 0.809775 0.873726 0.500114
Si Si2 0.855685 0.284521 0.593348
Si Si3 0.987427 0.971075 0.142079
Si Si4 0.492865 0.048466 0.141350
Si Si5 0.341912 0.222072 0.647964
O O1 0.050929 0.850393 0.569684
O O2 0.949440 0.917788 0.428003
O O3 0.580540 0.901376 0.566990
O O4 0.653856 0.824854 0.437231
O O5 0.925784 0.250000 0.500000
O O6 0.057687 0.253770 0.667586
O O7 0.547661 0.275561 0.625102
O O8 0.931030 0.949914 0.250000
O O9 0.788530 0.024158 0.115334
O O10 0.289952 0.994260 0.130303
O O11 0.485475 0.072787 0.250000
O O12 0.421621 0.192827 0.750000
#
# Coordination Sequence:
#
# PCOD8234622 Si02
#       5
#     8   8   8   8   8
#     4  11  23  42  69  94 126 176 222 267 329 397
#     4  10  23  41  61  90 126 164 214 271 324 383
#     4  10  22  41  64  96 132 167 213 270 326 390
#     4  10  23  40  62  96 134 169 213 267 327 391
#     4  11  24  42  63  92 128 168 217 273 326 385
#
# _framework density 24.957733999999999
#
# number of rings (size 3 to 8) (size 9 to 14) (size 15 to 20)
#    0.000    1.600    0.000    4.200    0.000   11.200 
#    0.000    8.000    0.000    2.400    0.000    0.000 
#    0.000    0.000    0.000    0.000    0.000    0.000 
#
# Total GULP energy -495815.964321 kJ/mol
# GULP energy per Si atom -12395.399108 kJ/mol
# Density = 2.490093 g / cm^3
# Si number density = 24.957734 Si / 1000 Ang^3
#
#
#
# Elastic Constant Matrix: (Units=GPa)
#
#
# Indices 1 2 3 4 5 6 
#
# 1 70.2813 3.0947 -0.5144 0.0000 0.0000 0.0000
# 2 3.0947 73.8757 35.8781 0.0000 0.0000 0.0000
# 3 -0.5144 35.8781 110.4280 0.0000 0.0000 0.0000
# 4 0.0000 0.0000 0.0000 20.3874 0.0000 0.0000
# 5 0.0000 0.0000 0.0000 0.0000 -81.6727 0.0000
# 6 0.0000 0.0000 0.0000 0.0000 0.0000 20.8735
#
#
#
# Elastic Compliance Matrix: (Units=1/GPa)
#
#
# Indices 1 2 3 4 5 6 
#
# 1 0.014264 -0.000748 0.000309 0.000000 0.000000 0.000000
# 2 -0.000748 0.016112 -0.005238 0.000000 0.000000 0.000000
# 3 0.000309 -0.005238 0.010759 0.000000 0.000000 0.000000
# 4 0.000000 0.000000 0.000000 0.049050 0.000000 0.000000
# 5 0.000000 0.000000 0.000000 0.000000 -0.012244 0.000000
# 6 0.000000 0.000000 0.000000 0.000000 0.000000 0.047908
#
#
# Mechanical properties :
#
#
# Convention : Reuss Voigt Hill
#
# Bulk Modulus (GPa) = 33.57822 36.83354 35.20588
# Shear Modulus (GPa) = 33.98405 6.32608 20.15506
#
# Velocity S-wave (km/s) = 3.69408 1.59381 2.84486
# Velocity P-wave (km/s) = 5.62834 4.26349 4.99277
#
# Compressibility (1/GPa) = 0.02978121
#
# Stress axis : x y z
#
# Youngs Moduli (GPa) = 70.10787 62.06745 92.94560
#
# Poissons Ratio (x) = 0.04641 -0.02876
# Poissons Ratio (y) = 0.05243 0.48686
# Poissons Ratio (z) = -0.02169 0.32512
#
# Static dielectric constant tensor:
#      x y z
#    x 4.431350 0.000000 0.000000 
#    y 0.000000 4.497370 0.000000 
#    z 0.000000 0.000000 5.245280 
# 
# 
# High freq. dielectric constant tensor:
#      x y z
#    x 2.000600 0.000000 0.000000 
#    y 0.000000 1.974560 0.000000 
#    z 0.000000 0.000000 2.013320 
# 
# From -- ./inp_files/14957.got.cif
#   From: 2010.03.12/outbox.cif.g09.slc.cpg/sg57_8_cif.got.tgz:14957.got - 2010.04.16 15:48:40.
