data_PCOD8234888
_publ_section_title
;
Structure prediction by ZEFSAII (Michael W. Deem and Ramdas Pophale) SiO2 
 PCOD8234888
Probable space group: P B C M
;
_chemical_formula_sum "Si O2"
_cell_formula_units_Z 32
_cell_length_a 7.600491
_cell_length_b 12.945571
_cell_length_c 17.809527
_cell_angle_alpha 90.000000
_cell_angle_beta 90.000000
_cell_angle_gamma 90.000000
_cell_volume 1752.327374
_symmetry_space_group_name_H-M "P B C M"
_symmetry_group_IT_number 57
_symmetry_cell_setting 'orthorhombic'
loop_
_space_group_symop_operation_xyz
x,y,z
-x,-y,1/2+z
x,1/2-y,-z
-x,1/2+y,1/2-z
-x,-y,-z
x,y,1/2-z
-x,1/2+y,z
x,1/2-y,1/2+z
loop_
_atom_site_type_symbol
_atom_site_label
_atom_site_fract_x
_atom_site_fract_y
_atom_site_fract_z
Si Si1 0.011664 0.432540 0.665177
Si Si2 0.331045 0.952537 0.908639
Si Si3 0.237336 0.742782 0.164435
Si Si4 0.302478 0.545897 0.915275
O O1 0.051404 0.468907 0.750000
O O2 0.181687 0.451860 0.613873
O O3 0.841959 0.497300 0.633874
O O4 0.957654 0.310701 0.662049
O O5 0.371738 0.836384 0.877477
O O6 0.496234 0.025705 0.891251
O O7 0.287051 0.945947 0.996099
O O8 0.299668 0.759454 0.250000
O O9 0.230510 0.850368 0.121861
#
# Coordination Sequence:
#
# PCOD8234888 Si02
#       4
#     8   8   8   8
#     4   9  20  36  54  83 114 143 188 231 272 340
#     4   9  21  37  56  85 112 140 195 236 269 341
#     4   9  20  36  54  82 113 143 186 233 274 335
#     4  11  19  37  62  78 112 156 180 232 297 320
#
# _framework density 18.261427000000001
#
# number of rings (size 3 to 8) (size 9 to 14) (size 15 to 20)
#    1.500    1.000    0.000    2.250    0.000    4.000 
#    4.500    0.000    5.500    0.000    0.000    0.000 
#    0.000    0.000    0.000    0.000    0.000    0.000 
#
# Total GULP energy -396461.565657 kJ/mol
# GULP energy per Si atom -12389.423927 kJ/mol
# Density = 1.821986 g / cm^3
# Si number density = 18.261427 Si / 1000 Ang^3
#
#
#
# Elastic Constant Matrix: (Units=GPa)
#
#
# Indices 1 2 3 4 5 6 
#
# 1 85.9002 23.9129 59.2212 0.0000 0.0000 0.0000
# 2 23.9129 71.3040 46.6809 0.0000 0.0000 0.0000
# 3 59.2212 46.6809 118.2231 0.0000 0.0000 0.0000
# 4 0.0000 0.0000 0.0000 22.6852 0.0000 0.0000
# 5 0.0000 0.0000 0.0000 0.0000 9.2155 0.0000
# 6 0.0000 0.0000 0.0000 0.0000 0.0000 23.8264
#
#
#
# Elastic Compliance Matrix: (Units=1/GPa)
#
#
# Indices 1 2 3 4 5 6 
#
# 1 0.017784 -0.000178 -0.008838 0.000000 0.000000 0.000000
# 2 -0.000178 0.018915 -0.007380 0.000000 0.000000 0.000000
# 3 -0.008838 -0.007380 0.015800 0.000000 0.000000 0.000000
# 4 0.000000 0.000000 0.000000 0.044082 0.000000 0.000000
# 5 0.000000 0.000000 0.000000 0.000000 0.108513 0.000000
# 6 0.000000 0.000000 0.000000 0.000000 0.000000 0.041970
#
#
# Mechanical properties :
#
#
# Convention : Reuss Voigt Hill
#
# Bulk Modulus (GPa) = 50.74202 59.45082 55.09642
# Shear Modulus (GPa) = 17.45651 20.85289 19.15470
#
# Velocity S-wave (km/s) = 3.09515 3.38288 3.24221
# Velocity P-wave (km/s) = 6.37339 6.91987 6.65224
#
# Compressibility (1/GPa) = 0.01970753
#
# Stress axis : x y z
#
# Youngs Moduli (GPa) = 56.22934 52.86684 63.29163
#
# Poissons Ratio (x) = 0.00941 0.55940
# Poissons Ratio (y) = 0.01001 0.46707
# Poissons Ratio (z) = 0.49698 0.39014
#
# Static dielectric constant tensor:
#      x y z
#    x 3.180430 0.000000 0.000000 
#    y 0.000000 3.060520 0.000000 
#    z 0.000000 0.000000 3.488670 
# 
# 
# High freq. dielectric constant tensor:
#      x y z
#    x 1.688670 0.000000 0.000000 
#    y 0.000000 1.682530 0.000000 
#    z 0.000000 0.000000 1.728540 
# 
# From -- ./inp_files/15479.got.cif
#   From: 2010.03.12/outbox.cif.g09.slc.cpg/sg57_8_cif.got.tgz:15479.got - 2010.04.16 15:48:40.
