data_PCOD8234338
_publ_section_title
;
Structure prediction by ZEFSAII (Michael W. Deem and Ramdas Pophale) SiO2 
 PCOD8234338
Probable space group: P B C M
;
_chemical_formula_sum "Si O2"
_cell_formula_units_Z 64
_cell_length_a 14.391577
_cell_length_b 25.515194
_cell_length_c 8.723481
_cell_angle_alpha 90.000000
_cell_angle_beta 90.000000
_cell_angle_gamma 90.000000
_cell_volume 3203.296063
_symmetry_space_group_name_H-M "P B C M"
_symmetry_group_IT_number 57
_symmetry_cell_setting 'orthorhombic'
loop_
_space_group_symop_operation_xyz
x,y,z
-x,-y,1/2+z
x,1/2-y,-z
-x,1/2+y,1/2-z
-x,-y,-z
x,y,1/2-z
-x,1/2+y,z
x,1/2-y,1/2+z
loop_
_atom_site_type_symbol
_atom_site_label
_atom_site_fract_x
_atom_site_fract_y
_atom_site_fract_z
Si Si1 0.408081 0.306310 0.931803
Si Si2 0.882112 0.096973 0.072104
Si Si3 0.213430 0.194122 0.931068
Si Si4 0.758242 0.194962 0.431235
Si Si5 0.208554 0.495907 0.568802
Si Si6 0.902533 0.604962 0.069744
Si Si7 0.592429 0.477436 0.071750
Si Si8 0.581303 0.142835 0.929663
O O1 0.402885 0.302831 0.750000
O O2 0.434316 0.250000 0.000000
O O3 0.309667 0.326188 0.996158
O O4 0.484802 0.347559 0.983992
O O5 0.865886 0.085973 0.250000
O O6 0.834187 0.151415 0.022609
O O7 0.989915 0.099226 0.030286
O O8 0.838307 0.049531 0.980704
O O9 0.224866 0.199179 0.750000
O O10 0.185552 0.250000 0.000000
O O11 0.132493 0.154337 0.974366
O O12 0.793189 0.250000 0.500000
O O13 0.746594 0.199776 0.250000
O O14 0.659256 0.181100 0.504275
O O15 0.208277 0.495763 0.750000
O O16 0.151157 0.446306 0.506789
O O17 0.315361 0.492955 0.508834
O O18 0.885316 0.613877 0.250000
O O19 0.581262 0.486625 0.250000
O O20 0.608299 0.416627 0.033236
O O21 0.500000 0.500000 0.000000
O O22 0.569328 0.153657 0.750000
#
# Coordination Sequence:
#
# PCOD8234338 Si02
#       8
#     8   8   8   8   8   8   8   8
#     4  11  22  38  60  86 117 154 195 240 293 352
#     4  10  22  40  62  90 123 159 203 256 311 363
#     4  11  23  41  63  90 123 160 202 249 305 361
#     4  11  23  39  60  88 120 161 206 253 310 368
#     4  10  21  40  64  90 122 161 203 249 307 363
#     4  10  22  40  63  92 124 159 204 255 305 366
#     4  10  23  39  58  88 122 160 199 245 301 360
#     4  11  22  39  60  86 121 157 200 248 296 359
#
# _framework density 19.979420999999999
#
# number of rings (size 3 to 8) (size 9 to 14) (size 15 to 20)
#    0.000    1.500    1.250    4.500    1.750    3.500 
#    0.000    1.250    0.000    0.000    0.000    0.000 
#    0.000    0.000    0.000    0.000    0.000    0.000 
#
# Total GULP energy -793870.464368 kJ/mol
# GULP energy per Si atom -12404.226006 kJ/mol
# Density = 1.993395 g / cm^3
# Si number density = 19.979421 Si / 1000 Ang^3
#
#
#
# Elastic Constant Matrix: (Units=GPa)
#
#
# Indices 1 2 3 4 5 6 
#
# 1 132.6073 65.7866 38.0127 0.0000 0.0000 0.0000
# 2 65.7866 108.5314 41.0348 0.0000 0.0000 0.0000
# 3 38.0127 41.0348 89.4808 0.0000 0.0000 0.0000
# 4 0.0000 0.0000 0.0000 32.7364 0.0000 0.0000
# 5 0.0000 0.0000 0.0000 0.0000 28.3015 0.0000
# 6 0.0000 0.0000 0.0000 0.0000 0.0000 33.9148
#
#
#
# Elastic Compliance Matrix: (Units=1/GPa)
#
#
# Indices 1 2 3 4 5 6 
#
# 1 0.011062 -0.005962 -0.001965 0.000000 0.000000 0.000000
# 2 -0.005962 0.014360 -0.004053 0.000000 0.000000 0.000000
# 3 -0.001965 -0.004053 0.013869 0.000000 0.000000 0.000000
# 4 0.000000 0.000000 0.000000 0.030547 0.000000 0.000000
# 5 0.000000 0.000000 0.000000 0.000000 0.035334 0.000000
# 6 0.000000 0.000000 0.000000 0.000000 0.000000 0.029486
#
#
# Mechanical properties :
#
#
# Convention : Reuss Voigt Hill
#
# Bulk Modulus (GPa) = 65.22624 68.92089 67.07357
# Shear Modulus (GPa) = 30.53830 31.37622 30.95726
#
# Velocity S-wave (km/s) = 3.91383 3.96716 3.94059
# Velocity P-wave (km/s) = 7.28983 7.45354 7.37214
#
# Compressibility (1/GPa) = 0.01533125
#
# Stress axis : x y z
#
# Youngs Moduli (GPa) = 90.39648 69.63627 72.10407
#
# Poissons Ratio (x) = 0.41521 0.14169
# Poissons Ratio (y) = 0.53899 0.29220
# Poissons Ratio (z) = 0.17764 0.28220
#
# Static dielectric constant tensor:
#      x y z
#    x 3.836010 0.000000 0.000000 
#    y 0.000000 3.634910 0.000000 
#    z 0.000000 0.000000 3.604120 
# 
# 
# High freq. dielectric constant tensor:
#      x y z
#    x 1.791180 0.000000 0.000000 
#    y 0.000000 1.786080 0.000000 
#    z 0.000000 0.000000 1.779510 
# 
# From -- ./inp_files/5618.got.cif
#   From: 2010.03.12/outbox.cif.g09.slc.cpg/sg57_3_cif.got.tgz:5618.got - 2010.04.16 15:48:40.
