data_PCOD8234166
_publ_section_title
;
Structure prediction by ZEFSAII (Michael W. Deem and Ramdas Pophale) SiO2 
 PCOD8234166
Probable space group: P B C M
;
_chemical_formula_sum "Si O2"
_cell_formula_units_Z 36
_cell_length_a 20.900070
_cell_length_b 9.241228
_cell_length_c 9.082669
_cell_angle_alpha 90.000000
_cell_angle_beta 90.000000
_cell_angle_gamma 90.000000
_cell_volume 1754.247691
_symmetry_space_group_name_H-M "P B C M"
_symmetry_group_IT_number 57
_symmetry_cell_setting 'orthorhombic'
loop_
_space_group_symop_operation_xyz
x,y,z
-x,-y,1/2+z
x,1/2-y,-z
-x,1/2+y,1/2-z
-x,-y,-z
x,y,1/2-z
-x,1/2+y,z
x,1/2-y,1/2+z
loop_
_atom_site_type_symbol
_atom_site_label
_atom_site_fract_x
_atom_site_fract_y
_atom_site_fract_z
Si Si1 0.412406 0.495787 0.906649
Si Si2 0.703371 0.904014 0.075566
Si Si3 0.502708 0.250000 0.000000
Si Si4 0.805695 0.097342 0.579708
Si Si5 0.950818 0.399361 0.081473
O O1 0.375400 0.491616 0.750000
O O2 0.452712 0.643863 0.905128
O O3 0.361073 0.494624 0.039177
O O4 0.458271 0.355396 0.903838
O O5 0.711541 0.889987 0.250000
O O6 0.695086 0.750000 0.000000
O O7 0.764923 0.979486 0.006636
O O8 0.796375 0.250000 0.500000
O O9 0.784163 0.112503 0.750000
O O10 0.878587 0.040766 0.570612
O O11 0.972106 0.380388 0.250000
O O12 0.954588 0.250000 0.000000
O O13 0.000000 0.500000 0.000000
#
# Coordination Sequence:
#
# PCOD8234166 Si02
#       5
#     8   8   4   8   8
#     4  11  23  42  65  92 124 160 206 254 308 373
#     4  12  26  43  64  90 123 164 210 259 315 370
#     4  10  24  40  66  94 124 160 202 250 316 368
#     4  10  22  42  66  93 126 165 210 257 308 365
#     4  10  21  38  63  94 129 168 209 256 307 364
#
# _framework density 20.521618
#
# number of rings (size 3 to 8) (size 9 to 14) (size 15 to 20)
#    0.000    1.333    1.111    4.000    1.556    8.000 
#    0.000    0.000    0.000    0.000    0.000    0.000 
#    0.000    0.000    0.000    0.000    0.000    0.000 
#
# Total GULP energy -446312.086985 kJ/mol
# GULP energy per Si atom -12397.557972 kJ/mol
# Density = 2.047491 g / cm^3
# Si number density = 20.521618 Si / 1000 Ang^3
#
#
#
# Elastic Constant Matrix: (Units=GPa)
#
#
# Indices 1 2 3 4 5 6 
#
# 1 113.1507 50.2868 66.7103 0.0000 0.0000 0.0000
# 2 50.2868 89.9501 46.1648 0.0000 0.0000 0.0000
# 3 66.7103 46.1648 195.2195 0.0000 0.0000 0.0000
# 4 0.0000 0.0000 0.0000 27.9131 0.0000 0.0000
# 5 0.0000 0.0000 0.0000 0.0000 29.8707 0.0000
# 6 0.0000 0.0000 0.0000 0.0000 0.0000 32.1609
#
#
#
# Elastic Compliance Matrix: (Units=1/GPa)
#
#
# Indices 1 2 3 4 5 6 
#
# 1 0.013283 -0.005800 -0.003167 0.000000 0.000000 0.000000
# 2 -0.005800 0.015186 -0.001609 0.000000 0.000000 0.000000
# 3 -0.003167 -0.001609 0.006585 0.000000 0.000000 0.000000
# 4 0.000000 0.000000 0.000000 0.035825 0.000000 0.000000
# 5 0.000000 0.000000 0.000000 0.000000 0.033478 0.000000
# 6 0.000000 0.000000 0.000000 0.000000 0.000000 0.031094
#
#
# Mechanical properties :
#
#
# Convention : Reuss Voigt Hill
#
# Bulk Modulus (GPa) = 71.93934 80.51601 76.22767
# Shear Modulus (GPa) = 31.01014 33.66617 32.33816
#
# Velocity S-wave (km/s) = 3.89150 4.05473 3.97395
# Velocity P-wave (km/s) = 7.43796 7.82566 7.63427
#
# Compressibility (1/GPa) = 0.01390060
#
# Stress axis : x y z
#
# Youngs Moduli (GPa) = 75.28441 65.85142 151.85346
#
# Poissons Ratio (x) = 0.38196 0.48098
# Poissons Ratio (y) = 0.43667 0.24433
# Poissons Ratio (z) = 0.23846 0.10595
#
# Static dielectric constant tensor:
#      x y z
#    x 1.190650 0.000000 0.000000 
#    y 0.000000 4.025920 0.000000 
#    z 0.000000 0.000000 3.864860 
# 
# 
# High freq. dielectric constant tensor:
#      x y z
#    x 1.807050 0.000000 0.000000 
#    y 0.000000 1.804180 0.000000 
#    z 0.000000 0.000000 1.817170 
# 
# From -- ./inp_files/7621.got.cif
#   From: 2010.03.12/outbox.cif.g09.slc.cpg/sg57_4_cif.got.tgz:7621.got - 2010.04.16 15:48:40.
