data_PCOD8234230
_publ_section_title
;
Structure prediction by ZEFSAII (Michael W. Deem and Ramdas Pophale) SiO2 
 PCOD8234230
Probable space group: P B C M
;
_chemical_formula_sum "Si O2"
_cell_formula_units_Z 48
_cell_length_a 28.288645
_cell_length_b 8.925318
_cell_length_c 9.104258
_cell_angle_alpha 90.000000
_cell_angle_beta 90.000000
_cell_angle_gamma 90.000000
_cell_volume 2298.689969
_symmetry_space_group_name_H-M "P B C M"
_symmetry_group_IT_number 57
_symmetry_cell_setting 'orthorhombic'
loop_
_space_group_symop_operation_xyz
x,y,z
-x,-y,1/2+z
x,1/2-y,-z
-x,1/2+y,1/2-z
-x,-y,-z
x,y,1/2-z
-x,1/2+y,z
x,1/2-y,1/2+z
loop_
_atom_site_type_symbol
_atom_site_label
_atom_site_fract_x
_atom_site_fract_y
_atom_site_fract_z
Si Si1 0.726545 0.601656 0.082276
Si Si2 0.542910 0.086787 0.428134
Si Si3 0.965764 0.913432 0.250000
Si Si4 0.796764 0.401837 0.914396
Si Si5 0.063670 0.434805 0.750000
Si Si6 0.903176 0.076867 0.475867
Si Si7 0.365738 0.596236 0.580026
O O1 0.740721 0.634372 0.250000
O O2 0.681592 0.496666 0.071752
O O3 0.711086 0.750000 0.000000
O O4 0.772025 0.535210 0.000912
O O5 0.542037 0.250000 0.500000
O O6 0.540135 0.087431 0.250000
O O7 0.592037 0.014180 0.487791
O O8 0.500000 0.000000 0.500000
O O9 0.954848 0.735725 0.250000
O O10 0.944610 0.996718 0.388738
O O11 0.021605 0.942417 0.250000
O O12 0.775855 0.388174 0.750000
O O13 0.786213 0.250000 0.000000
O O14 0.852442 0.433430 0.899239
O O15 0.099096 0.474839 0.880613
O O16 0.917439 0.250000 0.500000
O O17 0.353387 0.750000 0.500000
O O18 0.381351 0.622160 0.750000
#
# Coordination Sequence:
#
# PCOD8234230 Si02
#       7
#     8   8   4   8   4   8   8
#     4  11  25  42  64  94 131 169 212 264 321 377
#     4  11  22  38  61  90 125 167 214 267 322 385
#     4  12  24  46  62  98 130 166 218 256 329 374
#     4  11  24  43  69  95 127 165 211 260 316 387
#     4  12  26  40  70  92 130 172 208 270 313 394
#     4  11  24  43  67  95 127 167 212 264 319 384
#     4  10  21  39  62  90 122 164 214 266 319 384
#
# _framework density 20.881457999999999
#
# number of rings (size 3 to 8) (size 9 to 14) (size 15 to 20)
#    0.000    1.000    0.833    7.000    4.667    6.000 
#    0.000    1.667    0.000    0.000    0.000    0.000 
#    0.000    0.000    0.000    0.000    0.000    0.000 
#
# Total GULP energy -595063.143984 kJ/mol
# GULP energy per Si atom -12397.148833 kJ/mol
# Density = 2.083393 g / cm^3
# Si number density = 20.881458 Si / 1000 Ang^3
#
#
#
# Elastic Constant Matrix: (Units=GPa)
#
#
# Indices 1 2 3 4 5 6 
#
# 1 62.9632 30.5542 35.6693 0.0000 0.0000 0.0000
# 2 30.5542 99.1766 46.5915 0.0000 0.0000 0.0000
# 3 35.6693 46.5915 188.7611 0.0000 0.0000 0.0000
# 4 0.0000 0.0000 0.0000 35.9428 0.0000 0.0000
# 5 0.0000 0.0000 0.0000 0.0000 33.3138 0.0000
# 6 0.0000 0.0000 0.0000 0.0000 0.0000 32.2332
#
#
#
# Elastic Compliance Matrix: (Units=1/GPa)
#
#
# Indices 1 2 3 4 5 6 
#
# 1 0.019674 -0.004881 -0.002513 0.000000 0.000000 0.000000
# 2 -0.004881 0.012616 -0.002192 0.000000 0.000000 0.000000
# 3 -0.002513 -0.002192 0.006314 0.000000 0.000000 0.000000
# 4 0.000000 0.000000 0.000000 0.027822 0.000000 0.000000
# 5 0.000000 0.000000 0.000000 0.000000 0.030018 0.000000
# 6 0.000000 0.000000 0.000000 0.000000 0.000000 0.031024
#
#
# Mechanical properties :
#
#
# Convention : Reuss Voigt Hill
#
# Bulk Modulus (GPa) = 51.45822 64.05899 57.75860
# Shear Modulus (GPa) = 32.65483 36.17035 34.41259
#
# Velocity S-wave (km/s) = 3.95881 4.16646 4.06396
# Velocity P-wave (km/s) = 6.75224 7.34097 7.05275
#
# Compressibility (1/GPa) = 0.01943324
#
# Stress axis : x y z
#
# Youngs Moduli (GPa) = 50.82736 79.26238 158.38867
#
# Poissons Ratio (x) = 0.38685 0.39805
# Poissons Ratio (y) = 0.24807 0.34715
# Poissons Ratio (z) = 0.12773 0.17373
#
# Static dielectric constant tensor:
#      x y z
#    x 4.156520 0.000000 0.000000 
#    y 0.000000 3.472280 0.000000 
#    z 0.000000 0.000000 4.408250 
# 
# 
# High freq. dielectric constant tensor:
#      x y z
#    x 1.826110 0.000000 0.000000 
#    y 0.000000 1.811460 0.000000 
#    z 0.000000 0.000000 1.843390 
# 
# From -- ./inp_files/10145.got.cif
#   From: 2010.03.12/outbox.cif.g09.slc.cpg/sg57_6_cif.got.tgz:10145.got - 2010.04.16 15:48:40.
