data_PCOD8234155
_publ_section_title
;
Structure prediction by ZEFSAII (Michael W. Deem and Ramdas Pophale) SiO2 
 PCOD8234155
Probable space group: P B C M
;
_chemical_formula_sum "Si O2"
_cell_formula_units_Z 40
_cell_length_a 9.911515
_cell_length_b 8.716350
_cell_length_c 21.166252
_cell_angle_alpha 90.000000
_cell_angle_beta 90.000000
_cell_angle_gamma 90.000000
_cell_volume 1828.599791
_symmetry_space_group_name_H-M "P B C M"
_symmetry_group_IT_number 57
_symmetry_cell_setting 'orthorhombic'
loop_
_space_group_symop_operation_xyz
x,y,z
-x,-y,1/2+z
x,1/2-y,-z
-x,1/2+y,1/2-z
-x,-y,-z
x,y,1/2-z
-x,1/2+y,z
x,1/2-y,1/2+z
loop_
_atom_site_type_symbol
_atom_site_label
_atom_site_fract_x
_atom_site_fract_y
_atom_site_fract_z
Si Si1 0.569509 0.786423 0.822150
Si Si2 0.181151 0.925770 0.987615
Si Si3 0.931955 0.596359 0.622045
Si Si4 0.180892 0.430529 0.619646
Si Si5 0.339601 0.980826 0.870538
O O1 0.586021 0.733222 0.750000
O O2 0.684749 0.912129 0.838594
O O3 0.580545 0.642150 0.868837
O O4 0.420694 0.855247 0.831230
O O5 0.225824 0.014240 0.050572
O O6 0.135826 0.750000 0.000000
O O7 0.064285 0.021515 0.949519
O O8 0.315853 0.927454 0.942886
O O9 0.908055 0.776330 0.617662
O O10 0.808811 0.515238 0.660688
O O11 0.079805 0.558301 0.650876
#
# Coordination Sequence:
#
# PCOD8234155 Si02
#       5
#     8   8   8   8   8
#     4  11  24  44  64  87 122 168 219 264 306 364
#     4  10  21  38  62  96 130 161 197 255 319 385
#     4   9  21  37  61  94 129 167 194 252 312 385
#     4  11  21  39  63  95 130 161 207 252 319 372
#     4   9  24  41  63  90 123 167 204 257 317 374
#
# _framework density 21.874659999999999
#
# number of rings (size 3 to 8) (size 9 to 14) (size 15 to 20)
#    1.200    0.800    0.000    3.000    2.800    0.800 
#    0.000    5.000    0.000    0.000    0.000    0.000 
#    0.000    0.000    0.000    0.000    0.000    0.000 
#
# Total GULP energy -495587.624975 kJ/mol
# GULP energy per Si atom -12389.690624 kJ/mol
# Density = 2.182487 g / cm^3
# Si number density = 21.874660 Si / 1000 Ang^3
#
#
#
# Elastic Constant Matrix: (Units=GPa)
#
#
# Indices 1 2 3 4 5 6 
#
# 1 48.3575 -0.6028 12.5927 0.0000 0.0000 0.0000
# 2 -0.6028 65.8982 10.4548 0.0000 0.0000 0.0000
# 3 12.5927 10.4548 38.6723 0.0000 0.0000 0.0000
# 4 0.0000 0.0000 0.0000 17.5519 0.0000 0.0000
# 5 0.0000 0.0000 0.0000 0.0000 16.9205 0.0000
# 6 0.0000 0.0000 0.0000 0.0000 0.0000 37.7642
#
#
#
# Elastic Compliance Matrix: (Units=1/GPa)
#
#
# Indices 1 2 3 4 5 6 
#
# 1 0.022726 0.001444 -0.007791 0.000000 0.000000 0.000000
# 2 0.001444 0.015947 -0.004781 0.000000 0.000000 0.000000
# 3 -0.007791 -0.004781 0.029688 0.000000 0.000000 0.000000
# 4 0.000000 0.000000 0.000000 0.056974 0.000000 0.000000
# 5 0.000000 0.000000 0.000000 0.000000 0.059100 0.000000
# 6 0.000000 0.000000 0.000000 0.000000 0.000000 0.026480
#
#
# Mechanical properties :
#
#
# Convention : Reuss Voigt Hill
#
# Bulk Modulus (GPa) = 21.68984 21.97973 21.83479
# Shear Modulus (GPa) = 20.11764 23.14622 21.63193
#
# Velocity S-wave (km/s) = 3.03591 3.25642 3.14810
# Velocity P-wave (km/s) = 4.71445 4.92025 4.81845
#
# Compressibility (1/GPa) = 0.04610454
#
# Stress axis : x y z
#
# Youngs Moduli (GPa) = 44.00244 62.70904 33.68401
#
# Poissons Ratio (x) = -0.09054 0.26242
# Poissons Ratio (y) = -0.06353 0.16105
# Poissons Ratio (z) = 0.34280 0.29983
#
# Static dielectric constant tensor:
#      x y z
#    x 3.951780 0.000000 0.000000 
#    y 0.000000 3.909620 0.000000 
#    z 0.000000 0.000000 3.507650 
# 
# 
# High freq. dielectric constant tensor:
#      x y z
#    x 1.864430 0.000000 0.000000 
#    y 0.000000 1.866060 0.000000 
#    z 0.000000 0.000000 1.815550 
# 
# From -- ./inp_files/24860.got.cif
#   From: 2010.03.12/outbox.cif.g09.slc.cpg/sg57_13_cif.got.tgz:24860.got - 2010.04.16 15:48:40.
