data_PCOD8234454
_publ_section_title
;
Structure prediction by ZEFSAII (Michael W. Deem and Ramdas Pophale) SiO2 
 PCOD8234454
Probable space group: P B C M
;
_chemical_formula_sum "Si O2"
_cell_formula_units_Z 40
_cell_length_a 25.298536
_cell_length_b 9.202702
_cell_length_c 8.991696
_cell_angle_alpha 90.000000
_cell_angle_beta 90.000000
_cell_angle_gamma 90.000000
_cell_volume 2093.400696
_symmetry_space_group_name_H-M "P B C M"
_symmetry_group_IT_number 57
_symmetry_cell_setting 'orthorhombic'
loop_
_space_group_symop_operation_xyz
x,y,z
-x,-y,1/2+z
x,1/2-y,-z
-x,1/2+y,1/2-z
-x,-y,-z
x,y,1/2-z
-x,1/2+y,z
x,1/2-y,1/2+z
loop_
_atom_site_type_symbol
_atom_site_label
_atom_site_fract_x
_atom_site_fract_y
_atom_site_fract_z
Si Si1 0.045439 0.593554 0.925280
Si Si2 0.146574 0.401593 0.577415
Si Si3 0.455089 0.094981 0.425631
Si Si4 0.239936 0.600391 0.574549
Si Si5 0.358877 0.896411 0.422608
O O1 0.034473 0.609579 0.750000
O O2 0.100557 0.515011 0.958678
O O3 0.047108 0.750000 0.000000
O O4 0.000000 0.500000 0.000000
O O5 0.134839 0.250000 0.500000
O O6 0.149957 0.367023 0.750000
O O7 0.201603 0.471368 0.519533
O O8 0.456507 0.250000 0.500000
O O9 0.465283 0.106623 0.250000
O O10 0.500000 0.000000 0.500000
O O11 0.398032 0.026843 0.462869
O O12 0.221678 0.750000 0.500000
O O13 0.234693 0.621820 0.750000
O O14 0.299741 0.560203 0.525289
O O15 0.379022 0.750000 0.500000
O O16 0.359603 0.861118 0.250000
#
# Coordination Sequence:
#
# PCOD8234454 Si02
#       5
#     8   8   8   8   8
#     4  11  23  39  59  84 112 145 183 226 273 325
#     4  10  22  37  55  80 111 144 181 223 269 319
#     4  11  23  38  56  80 109 143 181 224 271 323
#     4   9  18  35  56  80 108 140 178 221 267 319
#     4   9  19  35  56  80 108 140 177 220 268 320
#
# _framework density 19.107665999999998
#
# number of rings (size 3 to 8) (size 9 to 14) (size 15 to 20)
#    0.000    2.000    0.000    3.000    0.000    8.000 
#    0.000    0.000    0.000    0.000    0.000    0.000 
#    0.000    0.000    0.000    0.000    0.000    0.000 
#
# Total GULP energy -496089.259356 kJ/mol
# GULP energy per Si atom -12402.231484 kJ/mol
# Density = 1.906418 g / cm^3
# Si number density = 19.107666 Si / 1000 Ang^3
#
#
#
# Elastic Constant Matrix: (Units=GPa)
#
#
# Indices 1 2 3 4 5 6 
#
# 1 121.4565 83.9704 63.3984 0.0000 0.0000 0.0000
# 2 83.9704 176.4570 76.0452 0.0000 0.0000 0.0000
# 3 63.3984 76.0452 78.0205 0.0000 0.0000 0.0000
# 4 0.0000 0.0000 0.0000 40.4303 0.0000 0.0000
# 5 0.0000 0.0000 0.0000 0.0000 27.8030 0.0000
# 6 0.0000 0.0000 0.0000 0.0000 0.0000 31.5577
#
#
#
# Elastic Compliance Matrix: (Units=1/GPa)
#
#
# Indices 1 2 3 4 5 6 
#
# 1 0.015353 -0.003327 -0.009233 0.000000 0.000000 0.000000
# 2 -0.003327 0.010493 -0.007523 0.000000 0.000000 0.000000
# 3 -0.009233 -0.007523 0.027652 0.000000 0.000000 0.000000
# 4 0.000000 0.000000 0.000000 0.024734 0.000000 0.000000
# 5 0.000000 0.000000 0.000000 0.000000 0.035967 0.000000
# 6 0.000000 0.000000 0.000000 0.000000 0.000000 0.031688
#
#
# Mechanical properties :
#
#
# Convention : Reuss Voigt Hill
#
# Bulk Modulus (GPa) = 75.01004 91.41801 83.21403
# Shear Modulus (GPa) = 26.24703 30.12621 28.18662
#
# Velocity S-wave (km/s) = 3.71028 3.97502 3.84493
# Velocity P-wave (km/s) = 7.59583 8.30754 7.95964
#
# Compressibility (1/GPa) = 0.01333155
#
# Stress axis : x y z
#
# Youngs Moduli (GPa) = 65.13393 95.30489 36.16310
#
# Poissons Ratio (x) = 0.31709 0.33388
# Poissons Ratio (y) = 0.21671 0.27207
# Poissons Ratio (z) = 0.60137 0.71702
#
# Static dielectric constant tensor:
#      x y z
#    x 4.007780 0.000000 0.000000 
#    y 0.000000 3.458960 0.000000 
#    z 0.000000 0.000000 3.464320 
# 
# 
# High freq. dielectric constant tensor:
#      x y z
#    x 1.760430 0.000000 0.000000 
#    y 0.000000 1.746530 0.000000 
#    z 0.000000 0.000000 1.744440 
# 
# From -- ./inp_files/8851.got.cif
#   From: 2010.03.12/outbox.cif.g09.slc.cpg/sg57_5_cif.got.tgz:8851.got - 2010.04.16 15:48:40.
