data_PCOD8234006
_publ_section_title
;
Structure prediction by ZEFSAII (Michael W. Deem and Ramdas Pophale) SiO2 
 PCOD8234006
Probable space group: P B C M
;
_chemical_formula_sum "Si O2"
_cell_formula_units_Z 56
_cell_length_a 12.105228
_cell_length_b 14.453910
_cell_length_c 15.492180
_cell_angle_alpha 90.000000
_cell_angle_beta 90.000000
_cell_angle_gamma 90.000000
_cell_volume 2710.633830
_symmetry_space_group_name_H-M "P B C M"
_symmetry_group_IT_number 57
_symmetry_cell_setting 'orthorhombic'
loop_
_space_group_symop_operation_xyz
x,y,z
-x,-y,1/2+z
x,1/2-y,-z
-x,1/2+y,1/2-z
-x,-y,-z
x,y,1/2-z
-x,1/2+y,z
x,1/2-y,1/2+z
loop_
_atom_site_type_symbol
_atom_site_label
_atom_site_fract_x
_atom_site_fract_y
_atom_site_fract_z
Si Si1 0.181088 0.457840 0.500568
Si Si2 0.617263 0.149916 0.652743
Si Si3 0.826939 0.676341 0.154072
Si Si4 0.413938 0.036064 0.434734
Si Si5 0.410322 0.231410 0.099411
Si Si6 0.835412 0.337675 0.444258
Si Si7 0.050543 0.360318 0.152300
O O1 0.139291 0.404853 0.587217
O O2 0.311156 0.436144 0.503459
O O3 0.165051 0.568343 0.499702
O O4 0.121651 0.421194 0.414819
O O5 0.653306 0.168300 0.750000
O O6 0.612877 0.039657 0.637682
O O7 0.497456 0.195818 0.637680
O O8 0.713832 0.189586 0.591626
O O9 0.829117 0.632256 0.250000
O O10 0.710077 0.730732 0.143091
O O11 0.918795 0.753600 0.143367
O O12 0.500000 0.000000 0.500000
O O13 0.459367 0.127671 0.387305
O O14 0.393113 0.250000 0.000000
O O15 0.876042 0.250000 0.500000
O O16 0.920453 0.360991 0.367741
O O17 0.070837 0.397290 0.250000
#
# Coordination Sequence:
#
# PCOD8234006 Si02
#       7
#     8   8   8   8   8   8   8
#     4  10  22  40  65  89 122 163 208 254 308 370
#     4  11  24  39  59  89 125 164 209 259 313 376
#     4  10  21  37  63  94 121 155 205 260 311 369
#     4  10  21  37  62  88 120 162 206 248 311 368
#     4  11  20  36  62  85 121 162 205 252 310 376
#     4  11  24  42  64  86 123 168 213 252 313 377
#     4  11  23  41  65  95 125 156 203 262 317 369
#
# _framework density 20.659375000000001
#
# number of rings (size 3 to 8) (size 9 to 14) (size 15 to 20)
#    0.000    1.429    1.429    4.714    2.000    6.286 
#    0.000    2.857    0.000    0.000    0.000    0.000 
#    0.000    0.000    0.000    0.000    0.000    0.000 
#
# Total GULP energy -693994.620059 kJ/mol
# GULP energy per Si atom -12392.761072 kJ/mol
# Density = 2.061235 g / cm^3
# Si number density = 20.659375 Si / 1000 Ang^3
#
#
#
# Elastic Constant Matrix: (Units=GPa)
#
#
# Indices 1 2 3 4 5 6 
#
# 1 52.8750 20.3882 17.2729 0.0000 0.0000 0.0000
# 2 20.3882 102.2028 42.7789 0.0000 0.0000 0.0000
# 3 17.2729 42.7789 130.8477 0.0000 0.0000 0.0000
# 4 0.0000 0.0000 0.0000 17.2715 0.0000 0.0000
# 5 0.0000 0.0000 0.0000 0.0000 24.0330 0.0000
# 6 0.0000 0.0000 0.0000 0.0000 0.0000 24.6068
#
#
#
# Elastic Compliance Matrix: (Units=1/GPa)
#
#
# Indices 1 2 3 4 5 6 
#
# 1 0.020776 -0.003472 -0.001608 0.000000 0.000000 0.000000
# 2 -0.003472 0.011916 -0.003437 0.000000 0.000000 0.000000
# 3 -0.001608 -0.003437 0.008979 0.000000 0.000000 0.000000
# 4 0.000000 0.000000 0.000000 0.057899 0.000000 0.000000
# 5 0.000000 0.000000 0.000000 0.000000 0.041610 0.000000
# 6 0.000000 0.000000 0.000000 0.000000 0.000000 0.040639
#
#
# Mechanical properties :
#
#
# Convention : Reuss Voigt Hill
#
# Bulk Modulus (GPa) = 40.58906 49.64507 45.11706
# Shear Modulus (GPa) = 24.14710 26.88128 25.51419
#
# Velocity S-wave (km/s) = 3.42251 3.61108 3.51806
# Velocity P-wave (km/s) = 5.94202 6.43964 6.19583
#
# Compressibility (1/GPa) = 0.02463718
#
# Stress axis : x y z
#
# Youngs Moduli (GPa) = 48.13162 83.92191 111.37706
#
# Poissons Ratio (x) = 0.29135 0.17905
# Poissons Ratio (y) = 0.16710 0.38285
# Poissons Ratio (z) = 0.07738 0.28848
#
# Static dielectric constant tensor:
#      x y z
#    x 3.682480 0.000000 0.000000 
#    y 0.000000 2.046720 0.000000 
#    z 0.000000 0.000000 3.584430 
# 
# 
# High freq. dielectric constant tensor:
#      x y z
#    x 1.813140 0.000000 0.000000 
#    y 0.000000 1.816620 0.000000 
#    z 0.000000 0.000000 1.797670 
# 
# From -- ./inp_files/17776.got.cif
#   From: 2010.03.12/outbox.cif.g09.slc.cpg/sg57_9_cif.got.tgz:17776.got - 2010.04.16 15:48:40.
