data_PCOD8234319
_publ_section_title
;
Structure prediction by ZEFSAII (Michael W. Deem and Ramdas Pophale) SiO2 
 PCOD8234319
Probable space group: P B C M
;
_chemical_formula_sum "Si O2"
_cell_formula_units_Z 48
_cell_length_a 8.864592
_cell_length_b 9.396866
_cell_length_c 26.683979
_cell_angle_alpha 90.000000
_cell_angle_beta 90.000000
_cell_angle_gamma 90.000000
_cell_volume 2222.758991
_symmetry_space_group_name_H-M "P B C M"
_symmetry_group_IT_number 57
_symmetry_cell_setting 'orthorhombic'
loop_
_space_group_symop_operation_xyz
x,y,z
-x,-y,1/2+z
x,1/2-y,-z
-x,1/2+y,1/2-z
-x,-y,-z
x,y,1/2-z
-x,1/2+y,z
x,1/2-y,1/2+z
loop_
_atom_site_type_symbol
_atom_site_label
_atom_site_fract_x
_atom_site_fract_y
_atom_site_fract_z
Si Si1 0.663185 0.689526 0.868113
Si Si2 0.361066 0.693159 0.808128
Si Si3 0.175046 0.477637 0.869750
Si Si4 0.153638 0.924209 0.853514
Si Si5 0.192615 0.724633 0.944315
Si Si6 0.475857 0.364922 0.033536
O O1 0.523204 0.727984 0.832404
O O2 0.743354 0.833198 0.887148
O O3 0.780802 0.581606 0.843216
O O4 0.613830 0.598123 0.916608
O O5 0.387842 0.666477 0.750000
O O6 0.291250 0.552035 0.832107
O O7 0.243292 0.821125 0.816112
O O8 0.133053 0.579640 0.917243
O O9 0.023025 0.436545 0.839823
O O10 0.160120 0.862830 0.910330
O O11 0.371102 0.710648 0.948826
O O12 0.120563 0.750000 0.000000
O O13 0.385392 0.250000 0.000000
O O14 0.500000 0.500000 0.000000
#
# Coordination Sequence:
#
# PCOD8234319 Si02
#       6
#     8   8   8   8   8   8
#     4  12  22  40  70  97 129 171 218 276 316 384
#     4  11  26  46  69  95 126 166 220 277 332 393
#     4  11  24  43  67  96 134 174 214 268 331 389
#     4  11  24  43  65  95 135 169 213 266 330 388
#     4  10  21  40  62  93 137 176 217 262 315 384
#     4  11  21  34  61  95 128 167 215 260 312 367
#
# _framework density 21.594783
#
# number of rings (size 3 to 8) (size 9 to 14) (size 15 to 20)
#    0.000    1.000    3.333    6.000    0.000    4.000 
#    0.000    5.000    0.000    0.000    0.000    0.000 
#    0.000    0.000    0.000    0.000    0.000    0.000 
#
# Total GULP energy -595022.118907 kJ/mol
# GULP energy per Si atom -12396.294144 kJ/mol
# Density = 2.154563 g / cm^3
# Si number density = 21.594783 Si / 1000 Ang^3
#
#
#
# Elastic Constant Matrix: (Units=GPa)
#
#
# Indices 1 2 3 4 5 6 
#
# 1 106.1754 31.2938 17.1993 0.0000 0.0000 0.0000
# 2 31.2938 135.4735 32.5061 0.0000 0.0000 0.0000
# 3 17.1993 32.5061 101.1290 0.0000 0.0000 0.0000
# 4 0.0000 0.0000 0.0000 19.4313 0.0000 0.0000
# 5 0.0000 0.0000 0.0000 0.0000 10.4370 0.0000
# 6 0.0000 0.0000 0.0000 0.0000 0.0000 34.1806
#
#
#
# Elastic Compliance Matrix: (Units=1/GPa)
#
#
# Indices 1 2 3 4 5 6 
#
# 1 0.010210 -0.002104 -0.001060 0.000000 0.000000 0.000000
# 2 -0.002104 0.008432 -0.002352 0.000000 0.000000 0.000000
# 3 -0.001060 -0.002352 0.010825 0.000000 0.000000 0.000000
# 4 0.000000 0.000000 0.000000 0.051463 0.000000 0.000000
# 5 0.000000 0.000000 0.000000 0.000000 0.095813 0.000000
# 6 0.000000 0.000000 0.000000 0.000000 0.000000 0.029256
#
#
# Mechanical properties :
#
#
# Convention : Reuss Voigt Hill
#
# Bulk Modulus (GPa) = 54.24877 56.08624 55.16751
# Shear Modulus (GPa) = 22.40368 30.26170 26.33269
#
# Velocity S-wave (km/s) = 3.22445 3.74751 3.49578
# Velocity P-wave (km/s) = 6.24809 6.68982 6.47272
#
# Compressibility (1/GPa) = 0.01843360
#
# Stress axis : x y z
#
# Youngs Moduli (GPa) = 97.94049 118.59550 92.38026
#
# Poissons Ratio (x) = 0.24954 0.09794
# Poissons Ratio (y) = 0.20608 0.21732
# Poissons Ratio (z) = 0.10383 0.27899
#
# Static dielectric constant tensor:
#      x y z
#    x 4.016880 0.000000 0.000000 
#    y 0.000000 4.280310 0.000000 
#    z 0.000000 0.000000 4.012460 
# 
# 
# High freq. dielectric constant tensor:
#      x y z
#    x 1.841850 0.000000 0.000000 
#    y 0.000000 1.862860 0.000000 
#    z 0.000000 0.000000 1.829860 
# 
# From -- ./inp_files/29480.got.cif
#   From: 2010.03.12/outbox.cif.g09.slc.cpg/sg57_15_cif.got.tgz:29480.got - 2010.04.16 15:48:40.
