data_PCOD8234100
_publ_section_title
;
Structure prediction by ZEFSAII (Michael W. Deem and Ramdas Pophale) SiO2 
 PCOD8234100
Probable space group: P B C M
;
_chemical_formula_sum "Si O2"
_cell_formula_units_Z 40
_cell_length_a 25.309873
_cell_length_b 9.210212
_cell_length_c 8.502852
_cell_angle_alpha 90.000000
_cell_angle_beta 90.000000
_cell_angle_gamma 90.000000
_cell_volume 1982.093844
_symmetry_space_group_name_H-M "P B C M"
_symmetry_group_IT_number 57
_symmetry_cell_setting 'orthorhombic'
loop_
_space_group_symop_operation_xyz
x,y,z
-x,-y,1/2+z
x,1/2-y,-z
-x,1/2+y,1/2-z
-x,-y,-z
x,y,1/2-z
-x,1/2+y,z
x,1/2-y,1/2+z
loop_
_atom_site_type_symbol
_atom_site_label
_atom_site_fract_x
_atom_site_fract_y
_atom_site_fract_z
Si Si1 0.354398 0.089321 0.435658
Si Si2 0.951986 0.909374 0.566011
Si Si3 0.548946 0.088940 0.064318
Si Si4 0.852205 0.096014 0.935842
Si Si5 0.738507 0.408917 0.935743
O O1 0.362959 0.250000 0.500000
O O2 0.361372 0.090861 0.250000
O O3 0.396796 0.982869 0.511285
O O4 0.296899 0.031104 0.482497
O O5 0.954065 0.750000 0.500000
O O6 0.958571 0.904298 0.750000
O O7 0.896259 0.979483 0.517687
O O8 0.000000 0.000000 0.500000
O O9 0.546202 0.092877 0.250000
O O10 0.545809 0.250000 0.000000
O O11 0.500000 0.000000 0.000000
O O12 0.841930 0.106293 0.750000
O O13 0.872469 0.250000 0.000000
O O14 0.798506 0.050478 0.022508
O O15 0.729675 0.411956 0.750000
O O16 0.723379 0.250000 0.000000
#
# Coordination Sequence:
#
# PCOD8234100 Si02
#       5
#     8   8   8   8   8
#     4  12  25  43  64  91 125 163 205 253 304 360
#     4  11  24  40  61  87 119 156 199 246 299 357
#     4  12  25  44  67  95 127 164 206 252 304 361
#     4  10  21  38  60  88 119 156 199 248 300 358
#     4  11  22  39  63  91 122 161 203 249 300 358
#
# _framework density 20.180679000000001
#
# number of rings (size 3 to 8) (size 9 to 14) (size 15 to 20)
#    0.000    0.800    0.000    9.600    0.000    5.600 
#    0.000    2.000    0.000    0.000    0.000    0.000 
#    0.000    0.000    0.000    0.000    0.000    0.000 
#
# Total GULP energy -496264.447409 kJ/mol
# GULP energy per Si atom -12406.611185 kJ/mol
# Density = 2.013475 g / cm^3
# Si number density = 20.180679 Si / 1000 Ang^3
#
#
#
# Elastic Constant Matrix: (Units=GPa)
#
#
# Indices 1 2 3 4 5 6 
#
# 1 114.6510 87.4019 55.2608 0.0000 0.0000 0.0000
# 2 87.4019 175.3231 66.1006 0.0000 0.0000 0.0000
# 3 55.2608 66.1006 150.2235 0.0000 0.0000 0.0000
# 4 0.0000 0.0000 0.0000 41.1825 0.0000 0.0000
# 5 0.0000 0.0000 0.0000 0.0000 39.8456 0.0000
# 6 0.0000 0.0000 0.0000 0.0000 0.0000 43.7448
#
#
#
# Elastic Compliance Matrix: (Units=1/GPa)
#
#
# Indices 1 2 3 4 5 6 
#
# 1 0.014901 -0.006428 -0.002653 0.000000 0.000000 0.000000
# 2 -0.006428 0.009611 -0.001864 0.000000 0.000000 0.000000
# 3 -0.002653 -0.001864 0.008453 0.000000 0.000000 0.000000
# 4 0.000000 0.000000 0.000000 0.024282 0.000000 0.000000
# 5 0.000000 0.000000 0.000000 0.000000 0.025097 0.000000
# 6 0.000000 0.000000 0.000000 0.000000 0.000000 0.022860
#
#
# Mechanical properties :
#
#
# Convention : Reuss Voigt Hill
#
# Bulk Modulus (GPa) = 90.30004 95.30271 92.80138
# Shear Modulus (GPa) = 38.22990 40.38353 39.30672
#
# Velocity S-wave (km/s) = 4.35717 4.47822 4.41811
# Velocity P-wave (km/s) = 8.37593 8.60619 8.49184
#
# Compressibility (1/GPa) = 0.01107419
#
# Stress axis : x y z
#
# Youngs Moduli (GPa) = 67.10782 104.04363 118.30061
#
# Poissons Ratio (x) = 0.66883 0.31385
# Poissons Ratio (y) = 0.43140 0.22056
# Poissons Ratio (z) = 0.17804 0.19398
#
# Static dielectric constant tensor:
#      x y z
#    x 3.865110 0.000000 0.000000 
#    y 0.000000 4.043730 0.000000 
#    z 0.000000 0.000000 3.930480 
# 
# 
# High freq. dielectric constant tensor:
#      x y z
#    x 1.805710 0.000000 0.000000 
#    y 0.000000 1.797530 0.000000 
#    z 0.000000 0.000000 1.812330 
# 
# From -- ./inp_files/8908.got.cif
#   From: 2010.03.12/outbox.cif.g09.slc.cpg/sg57_5_cif.got.tgz:8908.got - 2010.04.16 15:48:40.
