data_PCOD8234224
_publ_section_title
;
Structure prediction by ZEFSAII (Michael W. Deem and Ramdas Pophale) SiO2 
 PCOD8234224
Probable space group: P B C M
;
_chemical_formula_sum "Si O2"
_cell_formula_units_Z 56
_cell_length_a 9.570585
_cell_length_b 21.888245
_cell_length_c 13.947906
_cell_angle_alpha 90.000000
_cell_angle_beta 90.000000
_cell_angle_gamma 90.000000
_cell_volume 2921.853506
_symmetry_space_group_name_H-M "P B C M"
_symmetry_group_IT_number 57
_symmetry_cell_setting 'orthorhombic'
loop_
_space_group_symop_operation_xyz
x,y,z
-x,-y,1/2+z
x,1/2-y,-z
-x,1/2+y,1/2-z
-x,-y,-z
x,y,1/2-z
-x,1/2+y,z
x,1/2-y,1/2+z
loop_
_atom_site_type_symbol
_atom_site_label
_atom_site_fract_x
_atom_site_fract_y
_atom_site_fract_z
Si Si1 0.499796 0.898762 0.499964
Si Si2 0.991387 0.631767 0.362789
Si Si3 0.592257 0.500045 0.135779
Si Si4 0.092684 0.500012 0.637774
Si Si5 0.225255 0.679064 0.497910
Si Si6 0.008261 0.868305 0.137174
Si Si7 0.225655 0.179031 0.997852
O O1 0.516576 0.939894 0.594952
O O2 0.366997 0.856797 0.517822
O O3 0.632327 0.856630 0.482124
O O4 0.483204 0.939904 0.404964
O O5 0.995320 0.642162 0.250000
O O6 0.123324 0.664704 0.409211
O O7 0.994217 0.559974 0.392547
O O8 0.847738 0.660519 0.402256
O O9 0.579612 0.500091 0.250000
O O10 0.750962 0.500104 0.094721
O O11 0.116662 0.500285 0.750000
O O12 0.005911 0.559954 0.607007
O O13 0.261091 0.750000 0.500000
O O14 0.151737 0.660683 0.597822
O O15 0.004182 0.858121 0.250000
O O16 0.876118 0.835447 0.090882
O O17 0.261033 0.250000 0.000000
#
# Coordination Sequence:
#
# PCOD8234224 Si02
#       7
#     8   8   8   8   8   8   8
#     4  11  23  40  62  88 121 161 190 244 302 351
#     4  10  21  39  62  87 117 154 199 251 299 347
#     4  10  21  39  62  90 120 154 194 242 302 360
#     4   9  17  34  62  88 113 147 189 243 303 350
#     4  11  24  39  58  86 120 160 204 242 287 353
#     4  10  21  39  62  87 117 154 199 251 299 347
#     4  11  24  39  58  86 120 160 204 242 287 353
#
# _framework density 19.165917
#
# number of rings (size 3 to 8) (size 9 to 14) (size 15 to 20)
#    0.000    1.714    2.857    2.143    0.000    8.000 
#    0.000    1.429    0.000    5.143    0.000    0.000 
#    0.000    0.000    0.000    0.000    0.000    0.000 
#
# Total GULP energy -694480.776862 kJ/mol
# GULP energy per Si atom -12401.442444 kJ/mol
# Density = 1.912229 g / cm^3
# Si number density = 19.165917 Si / 1000 Ang^3
#
#
#
# Elastic Constant Matrix: (Units=GPa)
#
#
# Indices 1 2 3 4 5 6 
#
# 1 120.1641 48.5222 34.6831 0.0000 0.0000 0.0000
# 2 48.5222 151.6275 36.7428 0.0000 0.0000 0.0000
# 3 34.6831 36.7428 120.7960 0.0000 0.0000 0.0000
# 4 0.0000 0.0000 0.0000 22.4949 0.0000 0.0000
# 5 0.0000 0.0000 0.0000 0.0000 13.0186 0.0000
# 6 0.0000 0.0000 0.0000 0.0000 0.0000 -12.6537
#
#
#
# Elastic Compliance Matrix: (Units=1/GPa)
#
#
# Indices 1 2 3 4 5 6 
#
# 1 0.010006 -0.002705 -0.002050 0.000000 0.000000 0.000000
# 2 -0.002705 0.007851 -0.001611 0.000000 0.000000 0.000000
# 3 -0.002050 -0.001611 0.009357 0.000000 0.000000 0.000000
# 4 0.000000 0.000000 0.000000 0.044454 0.000000 0.000000
# 5 0.000000 0.000000 0.000000 0.000000 0.076813 0.000000
# 6 0.000000 0.000000 0.000000 0.000000 0.000000 -0.079028
#
#
# Mechanical properties :
#
#
# Convention : Reuss Voigt Hill
#
# Bulk Modulus (GPa) = 69.05580 70.27597 69.66589
# Shear Modulus (GPa) = 57.46168 22.74793 40.10481
#
# Velocity S-wave (km/s) = 5.48145 3.44887 4.57935
# Velocity P-wave (km/s) = 8.72757 7.25303 8.02424
#
# Compressibility (1/GPa) = 0.01448104
#
# Stress axis : x y z
#
# Youngs Moduli (GPa) = 99.93958 127.36750 106.86969
#
# Poissons Ratio (x) = 0.34456 0.21909
# Poissons Ratio (y) = 0.27036 0.17221
# Poissons Ratio (z) = 0.20488 0.20524
#
# Static dielectric constant tensor:
#      x y z
#    x 3.627440 0.000000 0.000000 
#    y 0.000000 3.752670 0.000000 
#    z 0.000000 0.000000 3.402370 
# 
# 
# High freq. dielectric constant tensor:
#      x y z
#    x 1.741980 0.000000 0.000000 
#    y 0.000000 1.761340 0.000000 
#    z 0.000000 0.000000 1.742440 
# 
# From -- ./inp_files/16687.got.cif
#   From: 2010.03.12/outbox.cif.g09.slc.cpg/sg57_9_cif.got.tgz:16687.got - 2010.04.16 15:48:40.
