data_PCOD8234777
_publ_section_title
;
Structure prediction by ZEFSAII (Michael W. Deem and Ramdas Pophale) SiO2 
 PCOD8234777
Probable space group: P B C M
;
_chemical_formula_sum "Si O2"
_cell_formula_units_Z 56
_cell_length_a 6.700156
_cell_length_b 18.575512
_cell_length_c 22.369529
_cell_angle_alpha 90.000000
_cell_angle_beta 90.000000
_cell_angle_gamma 90.000000
_cell_volume 2784.085366
_symmetry_space_group_name_H-M "P B C M"
_symmetry_group_IT_number 57
_symmetry_cell_setting 'orthorhombic'
loop_
_space_group_symop_operation_xyz
x,y,z
-x,-y,1/2+z
x,1/2-y,-z
-x,1/2+y,1/2-z
-x,-y,-z
x,y,1/2-z
-x,1/2+y,z
x,1/2-y,1/2+z
loop_
_atom_site_type_symbol
_atom_site_label
_atom_site_fract_x
_atom_site_fract_y
_atom_site_fract_z
Si Si1 0.389950 0.231170 0.678459
Si Si2 0.788041 0.333944 0.000735
Si Si3 0.908077 0.645791 0.317093
Si Si4 0.655658 0.954654 0.884996
Si Si5 0.480625 0.102219 0.595527
Si Si6 0.850870 0.933548 0.492442
Si Si7 0.327537 0.653334 0.366765
O O1 0.409107 0.221454 0.750000
O O2 0.196825 0.279742 0.660194
O O3 0.389125 0.153059 0.647131
O O4 0.578532 0.269818 0.648546
O O5 0.616846 0.355632 0.047737
O O6 0.008803 0.364033 0.014593
O O7 0.814151 0.250000 0.000000
O O8 0.729142 0.359311 0.935173
O O9 0.838775 0.634170 0.250000
O O10 0.854076 0.572644 0.352093
O O11 0.142968 0.651688 0.322320
O O12 0.478057 0.911307 0.852478
O O13 0.619319 0.039627 0.876174
O O14 0.690793 0.932429 0.953885
O O15 0.289748 0.062772 0.565701
O O16 0.000000 0.000000 0.500000
#
# Coordination Sequence:
#
# PCOD8234777 Si02
#       7
#     8   8   8   8   8   8   8
#     4  10  24  44  64  90 126 168 216 268 321 379
#     4  12  24  37  64 100 130 161 212 258 320 388
#     4  10  23  43  66  91 124 171 223 267 313 380
#     4  11  23  39  65  93 127 169 212 257 318 383
#     4  12  25  40  65  96 133 168 207 268 329 383
#     4  12  24  40  63  92 133 171 206 257 322 389
#     4  11  21  40  67  93 125 166 211 262 318 378
#
# _framework density 20.114325000000001
#
# number of rings (size 3 to 8) (size 9 to 14) (size 15 to 20)
#    0.000    0.857    5.714    1.714    2.000    1.714 
#    0.000    0.000    0.000    0.000    0.000    0.000 
#    0.000    0.000    0.000    0.000    0.000    0.000 
#
# Total GULP energy -694182.666043 kJ/mol
# GULP energy per Si atom -12396.119036 kJ/mol
# Density = 2.006854 g / cm^3
# Si number density = 20.114325 Si / 1000 Ang^3
#
#
#
# Elastic Constant Matrix: (Units=GPa)
#
#
# Indices 1 2 3 4 5 6 
#
# 1 99.3019 36.5613 17.0358 0.0000 0.0000 0.0000
# 2 36.5613 122.9437 26.9831 0.0000 0.0000 0.0000
# 3 17.0358 26.9831 78.9116 0.0000 0.0000 0.0000
# 4 0.0000 0.0000 0.0000 24.3252 0.0000 0.0000
# 5 0.0000 0.0000 0.0000 0.0000 26.8806 0.0000
# 6 0.0000 0.0000 0.0000 0.0000 0.0000 25.5563
#
#
#
# Elastic Compliance Matrix: (Units=1/GPa)
#
#
# Indices 1 2 3 4 5 6 
#
# 1 0.011453 -0.003095 -0.001414 0.000000 0.000000 0.000000
# 2 -0.003095 0.009630 -0.002625 0.000000 0.000000 0.000000
# 3 -0.001414 -0.002625 0.013875 0.000000 0.000000 0.000000
# 4 0.000000 0.000000 0.000000 0.041110 0.000000 0.000000
# 5 0.000000 0.000000 0.000000 0.000000 0.037202 0.000000
# 6 0.000000 0.000000 0.000000 0.000000 0.000000 0.039129
#
#
# Mechanical properties :
#
#
# Convention : Reuss Voigt Hill
#
# Bulk Modulus (GPa) = 48.33311 51.36865 49.85088
# Shear Modulus (GPa) = 28.80788 30.05755 29.43272
#
# Velocity S-wave (km/s) = 3.78856 3.86986 3.82942
# Velocity P-wave (km/s) = 6.57411 6.74993 6.66260
#
# Compressibility (1/GPa) = 0.02068975
#
# Stress axis : x y z
#
# Youngs Moduli (GPa) = 87.31663 103.83769 72.07118
#
# Poissons Ratio (x) = 0.32143 0.10191
# Poissons Ratio (y) = 0.27029 0.18917
# Poissons Ratio (z) = 0.12346 0.27255
#
# Static dielectric constant tensor:
#      x y z
#    x 3.946020 0.000000 0.000000 
#    y 0.000000 3.646380 0.000000 
#    z 0.000000 0.000000 3.895890 
# 
# 
# High freq. dielectric constant tensor:
#      x y z
#    x 1.797030 0.000000 0.000000 
#    y 0.000000 1.783950 0.000000 
#    z 0.000000 0.000000 1.775340 
# 
# From -- ./inp_files/26314.got.cif
#   From: 2010.03.12/outbox.cif.g09.slc.cpg/sg57_14_cif.got.tgz:26314.got - 2010.04.16 15:48:40.
