data_PCOD8234245
_publ_section_title
;
Structure prediction by ZEFSAII (Michael W. Deem and Ramdas Pophale) SiO2 
 PCOD8234245
Probable space group: P B C M
;
_chemical_formula_sum "Si O2"
_cell_formula_units_Z 36
_cell_length_a 21.237155
_cell_length_b 9.077223
_cell_length_c 9.056233
_cell_angle_alpha 90.000000
_cell_angle_beta 90.000000
_cell_angle_gamma 90.000000
_cell_volume 1745.809809
_symmetry_space_group_name_H-M "P B C M"
_symmetry_group_IT_number 57
_symmetry_cell_setting 'orthorhombic'
loop_
_space_group_symop_operation_xyz
x,y,z
-x,-y,1/2+z
x,1/2-y,-z
-x,1/2+y,1/2-z
-x,-y,-z
x,y,1/2-z
-x,1/2+y,z
x,1/2-y,1/2+z
loop_
_atom_site_type_symbol
_atom_site_label
_atom_site_fract_x
_atom_site_fract_y
_atom_site_fract_z
Si Si1 0.000537 0.250000 0.000000
Si Si2 0.324408 0.096984 0.078056
Si Si3 0.199796 0.093147 0.924737
Si Si4 0.912252 0.497874 0.093838
Si Si5 0.552918 0.094659 0.578440
O O1 0.955943 0.354110 0.096959
O O2 0.044754 0.144010 0.095681
O O3 0.309633 0.127475 0.250000
O O4 0.380384 0.983094 0.058257
O O5 0.343222 0.250000 0.000000
O O6 0.263460 0.027112 0.996475
O O7 0.207354 0.106134 0.750000
O O8 0.187157 0.250000 0.000000
O O9 0.139182 0.992220 0.962344
O O10 0.875458 0.499860 0.250000
O O11 0.557050 0.250000 0.500000
O O12 0.535383 0.114960 0.750000
O O13 0.500000 0.000000 0.500000
#
# Coordination Sequence:
#
# PCOD8234245 Si02
#       5
#     4   8   8   8   8
#     4  10  24  38  62  90 118 156 198 248 310 366
#     4  10  21  39  63  91 122 162 207 255 306 362
#     4  11  22  37  61  89 119 160 205 252 307 365
#     4  11  22  40  62  88 120 156 201 252 304 369
#     4  11  24  41  65  96 131 170 210 256 307 363
#
# _framework density 20.620802999999999
#
# number of rings (size 3 to 8) (size 9 to 14) (size 15 to 20)
#    0.000    1.333    1.111    6.000    0.000    9.778 
#    2.000    0.000    0.000    0.000    0.000    0.000 
#    0.000    0.000    0.000    0.000    0.000    0.000 
#
# Total GULP energy -446282.705420 kJ/mol
# GULP energy per Si atom -12396.741817 kJ/mol
# Density = 2.057387 g / cm^3
# Si number density = 20.620803 Si / 1000 Ang^3
#
#
#
# Elastic Constant Matrix: (Units=GPa)
#
#
# Indices 1 2 3 4 5 6 
#
# 1 135.2269 56.9800 81.1913 0.0000 0.0000 0.0000
# 2 56.9800 115.3004 60.5093 0.0000 0.0000 0.0000
# 3 81.1913 60.5093 194.9767 0.0000 0.0000 0.0000
# 4 0.0000 0.0000 0.0000 21.3681 0.0000 0.0000
# 5 0.0000 0.0000 0.0000 0.0000 32.0891 0.0000
# 6 0.0000 0.0000 0.0000 0.0000 0.0000 16.5778
#
#
#
# Elastic Compliance Matrix: (Units=1/GPa)
#
#
# Indices 1 2 3 4 5 6 
#
# 1 0.010995 -0.003620 -0.003455 0.000000 0.000000 0.000000
# 2 -0.003620 0.011552 -0.002078 0.000000 0.000000 0.000000
# 3 -0.003455 -0.002078 0.007212 0.000000 0.000000 0.000000
# 4 0.000000 0.000000 0.000000 0.046799 0.000000 0.000000
# 5 0.000000 0.000000 0.000000 0.000000 0.031163 0.000000
# 6 0.000000 0.000000 0.000000 0.000000 0.000000 0.060322
#
#
# Mechanical properties :
#
#
# Convention : Reuss Voigt Hill
#
# Bulk Modulus (GPa) = 87.30731 93.65169 90.47950
# Shear Modulus (GPa) = 26.29270 30.46189 28.37730
#
# Velocity S-wave (km/s) = 3.57467 3.84766 3.71367
# Velocity P-wave (km/s) = 7.71162 8.07800 7.89693
#
# Compressibility (1/GPa) = 0.01145379
#
# Stress axis : x y z
#
# Youngs Moduli (GPa) = 90.95200 86.56149 138.65311
#
# Poissons Ratio (x) = 0.31339 0.47903
# Poissons Ratio (y) = 0.32928 0.28807
# Poissons Ratio (z) = 0.31423 0.17984
#
# Static dielectric constant tensor:
#      x y z
#    x 4.006490 0.000000 0.000000 
#    y 0.000000 3.620590 0.000000 
#    z 0.000000 0.000000 3.885260 
# 
# 
# High freq. dielectric constant tensor:
#      x y z
#    x 1.819280 0.000000 0.000000 
#    y 0.000000 1.792240 0.000000 
#    z 0.000000 0.000000 1.821050 
# 
# From -- ./inp_files/7645.got.cif
#   From: 2010.03.12/outbox.cif.g09.slc.cpg/sg57_4_cif.got.tgz:7645.got - 2010.04.16 15:48:40.
