data_PCOD8234280
_publ_section_title
;
Structure prediction by ZEFSAII (Michael W. Deem and Ramdas Pophale) SiO2 
 PCOD8234280
Probable space group: P B C M
;
_chemical_formula_sum "Si O2"
_cell_formula_units_Z 64
_cell_length_a 17.730878
_cell_length_b 20.001315
_cell_length_c 8.737160
_cell_angle_alpha 90.000000
_cell_angle_beta 90.000000
_cell_angle_gamma 90.000000
_cell_volume 3098.554077
_symmetry_space_group_name_H-M "P B C M"
_symmetry_group_IT_number 57
_symmetry_cell_setting 'orthorhombic'
loop_
_space_group_symop_operation_xyz
x,y,z
-x,-y,1/2+z
x,1/2-y,-z
-x,1/2+y,1/2-z
-x,-y,-z
x,y,1/2-z
-x,1/2+y,z
x,1/2-y,1/2+z
loop_
_atom_site_type_symbol
_atom_site_label
_atom_site_fract_x
_atom_site_fract_y
_atom_site_fract_z
Si Si1 0.711887 0.322125 0.932774
Si Si2 0.072522 0.463603 0.067143
Si Si3 0.865906 0.820751 0.068304
Si Si4 0.553755 0.813677 0.071247
Si Si5 0.435506 0.899602 0.570751
Si Si6 0.704189 0.850431 0.928147
Si Si7 0.196909 0.560689 0.084062
Si Si8 0.655381 0.522001 0.583278
O O1 0.714817 0.320938 0.750000
O O2 0.631442 0.350962 0.988289
O O3 0.782322 0.368361 0.996105
O O4 0.725744 0.250000 0.000000
O O5 0.070493 0.463965 0.250000
O O6 0.084179 0.385735 0.014246
O O7 0.141119 0.509060 0.998071
O O8 0.000000 0.500000 0.000000
O O9 0.867318 0.814998 0.250000
O O10 0.897046 0.750000 0.000000
O O11 0.780528 0.832204 0.015465
O O12 0.557092 0.806955 0.250000
O O13 0.509034 0.750000 0.000000
O O14 0.511748 0.881765 0.021555
O O15 0.637107 0.807975 0.000346
O O16 0.450404 0.889252 0.750000
O O17 0.416326 0.977088 0.533453
O O18 0.714858 0.835016 0.750000
O O19 0.679890 0.927256 0.952079
O O20 0.159368 0.574523 0.250000
O O21 0.277865 0.528972 0.111182
O O22 0.639797 0.558082 0.750000
#
# Coordination Sequence:
#
# PCOD8234280 Si02
#       8
#     8   8   8   8   8   8   8   8
#     4   9  17  30  52  79 109 147 192 239 292 346
#     4  10  21  39  65  92 123 159 196 237 289 351
#     4  11  23  42  67  94 125 162 202 247 301 357
#     4  12  25  40  56  75 108 151 197 249 306 366
#     4   9  19  35  56  80 109 149 196 247 300 360
#     4  12  24  38  59  87 118 151 196 250 301 358
#     4   8  15  33  57  80 110 152 192 231 283 345
#     4   9  17  35  60  83 111 149 194 240 295 355
#
# _framework density 20.654796000000001
#
# number of rings (size 3 to 8) (size 9 to 14) (size 15 to 20)
#    0.000    2.000    1.250    4.875    0.000    3.500 
#    0.000    3.125    0.000    3.000    0.000    0.000 
#    0.000    0.000    0.000    0.000    0.000    0.000 
#
# Total GULP energy -792878.318683 kJ/mol
# GULP energy per Si atom -12388.723729 kJ/mol
# Density = 2.060778 g / cm^3
# Si number density = 20.654796 Si / 1000 Ang^3
#
#
#
# Elastic Constant Matrix: (Units=GPa)
#
#
# Indices 1 2 3 4 5 6 
#
# 1 72.6478 33.5541 20.2839 0.0000 0.0000 0.0000
# 2 33.5541 131.0924 37.0234 0.0000 0.0000 0.0000
# 3 20.2839 37.0234 70.8347 0.0000 0.0000 0.0000
# 4 0.0000 0.0000 0.0000 32.0933 0.0000 0.0000
# 5 0.0000 0.0000 0.0000 0.0000 21.7665 0.0000
# 6 0.0000 0.0000 0.0000 0.0000 0.0000 18.2837
#
#
#
# Elastic Compliance Matrix: (Units=1/GPa)
#
#
# Indices 1 2 3 4 5 6 
#
# 1 0.016097 -0.003306 -0.002881 0.000000 0.000000 0.000000
# 2 -0.003306 0.009628 -0.004086 0.000000 0.000000 0.000000
# 3 -0.002881 -0.004086 0.017078 0.000000 0.000000 0.000000
# 4 0.000000 0.000000 0.000000 0.031159 0.000000 0.000000
# 5 0.000000 0.000000 0.000000 0.000000 0.045942 0.000000
# 6 0.000000 0.000000 0.000000 0.000000 0.000000 0.054694
#
#
# Mechanical properties :
#
#
# Convention : Reuss Voigt Hill
#
# Bulk Modulus (GPa) = 44.93089 50.69973 47.81531
# Shear Modulus (GPa) = 24.68365 26.67625 25.67995
#
# Velocity S-wave (km/s) = 3.46071 3.59768 3.52986
# Velocity P-wave (km/s) = 6.14566 6.46972 6.30977
#
# Compressibility (1/GPa) = 0.02225640
#
# Stress axis : x y z
#
# Youngs Moduli (GPa) = 62.12485 103.85957 58.55509
#
# Poissons Ratio (x) = 0.34339 0.16871
# Poissons Ratio (y) = 0.20541 0.23924
# Poissons Ratio (z) = 0.17900 0.42434
#
# Static dielectric constant tensor:
#      x y z
#    x 3.660450 0.000000 0.000000 
#    y 0.000000 4.352970 0.000000 
#    z 0.000000 0.000000 3.095620 
# 
# 
# High freq. dielectric constant tensor:
#      x y z
#    x 1.785380 0.000000 0.000000 
#    y 0.000000 1.831030 0.000000 
#    z 0.000000 0.000000 1.783140 
# 
# From -- ./inp_files/7127.got.cif
#   From: 2010.03.12/outbox.cif.g09.slc.cpg/sg57_4_cif.got.tgz:7127.got - 2010.04.16 15:48:40.
