data_PCOD8234117
_publ_section_title
;
Structure prediction by ZEFSAII (Michael W. Deem and Ramdas Pophale) SiO2 
 PCOD8234117
Probable space group: P B C M
;
_chemical_formula_sum "Si O2"
_cell_formula_units_Z 48
_cell_length_a 18.770834
_cell_length_b 15.263124
_cell_length_c 8.628257
_cell_angle_alpha 90.000000
_cell_angle_beta 90.000000
_cell_angle_gamma 90.000000
_cell_volume 2472.009150
_symmetry_space_group_name_H-M "P B C M"
_symmetry_group_IT_number 57
_symmetry_cell_setting 'orthorhombic'
loop_
_space_group_symop_operation_xyz
x,y,z
-x,-y,1/2+z
x,1/2-y,-z
-x,1/2+y,1/2-z
-x,-y,-z
x,y,1/2-z
-x,1/2+y,z
x,1/2-y,1/2+z
loop_
_atom_site_type_symbol
_atom_site_label
_atom_site_fract_x
_atom_site_fract_y
_atom_site_fract_z
Si Si1 0.334009 0.843165 0.933199
Si Si2 0.578479 0.997503 0.566455
Si Si3 0.672294 0.844722 0.066172
Si Si4 0.823611 0.657669 0.431916
Si Si5 0.829853 0.342009 0.568592
Si Si6 0.077839 0.503460 0.569066
O O1 0.346756 0.846078 0.750000
O O2 0.251860 0.860716 0.977144
O O3 0.358902 0.750000 0.000000
O O4 0.380327 0.915903 0.016479
O O5 0.576636 0.990949 0.750000
O O6 0.615682 0.912429 0.497827
O O7 0.500000 0.000000 0.500000
O O8 0.669245 0.843097 0.250000
O O9 0.652315 0.750000 0.000000
O O10 0.750903 0.873531 0.012715
O O11 0.849967 0.750000 0.500000
O O12 0.808963 0.667339 0.250000
O O13 0.884199 0.587847 0.470708
O O14 0.855955 0.250000 0.500000
O O15 0.840156 0.337401 0.750000
O O16 0.878308 0.417989 0.503074
O O17 0.072929 0.519721 0.750000
O O18 0.000000 0.500000 0.500000
#
# Coordination Sequence:
#
# PCOD8234117 Si02
#       6
#     8   8   8   8   8   8
#     4  10  21  39  63  91 119 153 195 240 289 343
#     4  12  25  41  60  86 120 157 196 240 290 347
#     4  11  22  39  63  90 118 152 193 240 290 344
#     4  10  21  38  61  88 115 150 193 240 289 342
#     4  10  21  38  62  88 116 150 192 239 288 342
#     4  11  24  39  57  83 118 156 196 239 290 346
#
# _framework density 19.417404999999999
#
# number of rings (size 3 to 8) (size 9 to 14) (size 15 to 20)
#    0.000    1.333    0.000    7.000    0.000    8.667 
#    0.000    5.000    0.000    0.000    0.000    0.000 
#    0.000    0.000    0.000    0.000    0.000    0.000 
#
# Total GULP energy -595461.017735 kJ/mol
# GULP energy per Si atom -12405.437869 kJ/mol
# Density = 1.937321 g / cm^3
# Si number density = 19.417405 Si / 1000 Ang^3
#
#
#
# Elastic Constant Matrix: (Units=GPa)
#
#
# Indices 1 2 3 4 5 6 
#
# 1 127.5894 82.9218 76.6217 0.0000 0.0000 0.0000
# 2 82.9218 123.1364 77.9674 0.0000 0.0000 0.0000
# 3 76.6217 77.9674 149.3970 0.0000 0.0000 0.0000
# 4 0.0000 0.0000 0.0000 42.0375 0.0000 0.0000
# 5 0.0000 0.0000 0.0000 0.0000 34.5034 0.0000
# 6 0.0000 0.0000 0.0000 0.0000 0.0000 -71.9018
#
#
#
# Elastic Compliance Matrix: (Units=1/GPa)
#
#
# Indices 1 2 3 4 5 6 
#
# 1 0.015167 -0.007898 -0.003657 0.000000 0.000000 0.000000
# 2 -0.007898 0.016242 -0.004426 0.000000 0.000000 0.000000
# 3 -0.003657 -0.004426 0.010879 0.000000 0.000000 0.000000
# 4 0.000000 0.000000 0.000000 0.023788 0.000000 0.000000
# 5 0.000000 0.000000 0.000000 0.000000 0.028983 0.000000
# 6 0.000000 0.000000 0.000000 0.000000 0.000000 -0.013908
#
#
# Mechanical properties :
#
#
# Convention : Reuss Voigt Hill
#
# Bulk Modulus (GPa) = 96.83918 97.23829 97.03874
# Shear Modulus (GPa) = 42.89869 11.76860 27.33364
#
# Velocity S-wave (km/s) = 4.70541 2.46455 3.75599
# Velocity P-wave (km/s) = 8.91638 7.63448 8.30021
#
# Compressibility (1/GPa) = 0.01032640
#
# Stress axis : x y z
#
# Youngs Moduli (GPa) = 65.93388 61.56869 91.92297
#
# Poissons Ratio (x) = 0.48628 0.33614
# Poissons Ratio (y) = 0.52075 0.40682
# Poissons Ratio (z) = 0.24110 0.27248
#
# Static dielectric constant tensor:
#      x y z
#    x 3.573700 0.000000 0.000000 
#    y 0.000000 3.846110 0.000000 
#    z 0.000000 0.000000 3.780460 
# 
# 
# High freq. dielectric constant tensor:
#      x y z
#    x 1.755760 0.000000 0.000000 
#    y 0.000000 1.773380 0.000000 
#    z 0.000000 0.000000 1.779120 
# 
# From -- ./inp_files/6475.got.cif
#   From: 2010.03.12/outbox.cif.g09.slc.cpg/sg57_4_cif.got.tgz:6475.got - 2010.04.16 15:48:40.
