data_PCOD8234699
_publ_section_title
;
Structure prediction by ZEFSAII (Michael W. Deem and Ramdas Pophale) SiO2 
 PCOD8234699
Probable space group: P B C M
;
_chemical_formula_sum "Si O2"
_cell_formula_units_Z 48
_cell_length_a 16.759581
_cell_length_b 15.805460
_cell_length_c 8.613290
_cell_angle_alpha 90.000000
_cell_angle_beta 90.000000
_cell_angle_gamma 90.000000
_cell_volume 2281.599256
_symmetry_space_group_name_H-M "P B C M"
_symmetry_group_IT_number 57
_symmetry_cell_setting 'orthorhombic'
loop_
_space_group_symop_operation_xyz
x,y,z
-x,-y,1/2+z
x,1/2-y,-z
-x,1/2+y,1/2-z
-x,-y,-z
x,y,1/2-z
-x,1/2+y,z
x,1/2-y,1/2+z
loop_
_atom_site_type_symbol
_atom_site_label
_atom_site_fract_x
_atom_site_fract_y
_atom_site_fract_z
Si Si1 0.502703 0.840403 0.067831
Si Si2 0.330886 0.897278 0.432687
Si Si3 0.087774 0.500813 0.566829
Si Si4 0.824385 0.336830 0.932317
Si Si5 0.334893 0.075769 0.932880
Si Si6 0.189167 0.338000 0.934068
O O1 0.497085 0.831243 0.250000
O O2 0.419226 0.876377 0.002822
O O3 0.574491 0.902184 0.019863
O O4 0.522382 0.750000 0.000000
O O5 0.321973 0.881375 0.250000
O O6 0.269153 0.837747 0.523244
O O7 0.309577 0.993677 0.470814
O O8 0.084280 0.506786 0.750000
O O9 0.133390 0.582338 0.504928
O O10 0.131601 0.414639 0.514044
O O11 0.000000 0.500000 0.500000
O O12 0.836960 0.338291 0.750000
O O13 0.861876 0.250000 0.000000
O O14 0.326420 0.059165 0.750000
O O15 0.275733 0.149948 0.986692
O O16 0.198297 0.333008 0.750000
O O17 0.153405 0.250000 0.000000
#
# Coordination Sequence:
#
# PCOD8234699 Si02
#       6
#     8   8   8   8   8   8
#     4  10  23  38  55  84 122 165 216 269 321 379
#     4  11  22  39  61  89 126 168 217 270 324 384
#     4  11  25  46  71 100 135 172 215 265 326 391
#     4  12  25  43  69  99 133 174 220 270 327 391
#     4  11  22  38  61  90 124 168 218 266 323 384
#     4  11  24  42  67  97 132 172 216 266 321 385
#
# _framework density 21.037876000000001
#
# number of rings (size 3 to 8) (size 9 to 14) (size 15 to 20)
#    0.000    1.000    1.667    5.000    0.000    8.000 
#    0.000    1.667    0.000    0.000    0.000    0.000 
#    0.000    0.000    0.000    0.000    0.000    0.000 
#
# Total GULP energy -595460.524783 kJ/mol
# GULP energy per Si atom -12405.427600 kJ/mol
# Density = 2.098999 g / cm^3
# Si number density = 21.037876 Si / 1000 Ang^3
#
#
#
# Elastic Constant Matrix: (Units=GPa)
#
#
# Indices 1 2 3 4 5 6 
#
# 1 123.6211 43.3934 37.7323 0.0000 0.0000 0.0000
# 2 43.3934 144.9925 39.3257 0.0000 0.0000 0.0000
# 3 37.7323 39.3257 66.7382 0.0000 0.0000 0.0000
# 4 0.0000 0.0000 0.0000 38.5517 0.0000 0.0000
# 5 0.0000 0.0000 0.0000 0.0000 31.7338 0.0000
# 6 0.0000 0.0000 0.0000 0.0000 0.0000 16.2934
#
#
#
# Elastic Compliance Matrix: (Units=1/GPa)
#
#
# Indices 1 2 3 4 5 6 
#
# 1 0.010141 -0.001761 -0.004695 0.000000 0.000000 0.000000
# 2 -0.001761 0.008515 -0.004022 0.000000 0.000000 0.000000
# 3 -0.004695 -0.004022 0.020008 0.000000 0.000000 0.000000
# 4 0.000000 0.000000 0.000000 0.025939 0.000000 0.000000
# 5 0.000000 0.000000 0.000000 0.000000 0.031512 0.000000
# 6 0.000000 0.000000 0.000000 0.000000 0.000000 0.061374
#
#
# Mechanical properties :
#
#
# Convention : Reuss Voigt Hill
#
# Bulk Modulus (GPa) = 56.47443 64.02829 60.25136
# Shear Modulus (GPa) = 27.12253 31.64247 29.38250
#
# Velocity S-wave (km/s) = 3.59447 3.88244 3.74123
# Velocity P-wave (km/s) = 6.64300 7.11327 6.88215
#
# Compressibility (1/GPa) = 0.01770713
#
# Stress axis : x y z
#
# Youngs Moduli (GPa) = 98.61276 117.44264 49.97932
#
# Poissons Ratio (x) = 0.20686 0.23467
# Poissons Ratio (y) = 0.17370 0.20099
# Poissons Ratio (z) = 0.46303 0.47230
#
# Static dielectric constant tensor:
#      x y z
#    x 4.036660 0.000000 0.000000 
#    y 0.000000 3.929490 0.000000 
#    z 0.000000 0.000000 3.672650 
# 
# 
# High freq. dielectric constant tensor:
#      x y z
#    x 1.826690 0.000000 0.000000 
#    y 0.000000 1.838630 0.000000 
#    z 0.000000 0.000000 1.828960 
# 
# From -- ./inp_files/6491.got.cif
#   From: 2010.03.12/outbox.cif.g09.slc.cpg/sg57_4_cif.got.tgz:6491.got - 2010.04.16 15:48:40.
