data_PCOD8234232
_publ_section_title
;
Structure prediction by ZEFSAII (Michael W. Deem and Ramdas Pophale) SiO2 
 PCOD8234232
Probable space group: P B C M
;
_chemical_formula_sum "Si O2"
_cell_formula_units_Z 48
_cell_length_a 29.206419
_cell_length_b 8.835985
_cell_length_c 9.016738
_cell_angle_alpha 90.000000
_cell_angle_beta 90.000000
_cell_angle_gamma 90.000000
_cell_volume 2326.926855
_symmetry_space_group_name_H-M "P B C M"
_symmetry_group_IT_number 57
_symmetry_cell_setting 'orthorhombic'
loop_
_space_group_symop_operation_xyz
x,y,z
-x,-y,1/2+z
x,1/2-y,-z
-x,1/2+y,1/2-z
-x,-y,-z
x,y,1/2-z
-x,1/2+y,z
x,1/2-y,1/2+z
loop_
_atom_site_type_symbol
_atom_site_label
_atom_site_fract_x
_atom_site_fract_y
_atom_site_fract_z
Si Si1 0.712075 0.591267 0.926930
Si Si2 0.185795 0.104027 0.914462
Si Si3 0.938990 0.575691 0.250000
Si Si4 0.900245 0.428957 0.520209
Si Si5 0.964839 0.929601 0.250000
Si Si6 0.632538 0.086944 0.570786
Si Si7 0.457357 0.584364 0.069420
O O1 0.702952 0.590499 0.750000
O O2 0.764507 0.546627 0.969183
O O3 0.699871 0.750000 0.000000
O O4 0.680400 0.475546 0.013196
O O5 0.192341 0.165375 0.750000
O O6 0.166994 0.250000 0.000000
O O7 0.149572 0.966098 0.913460
O O8 0.904366 0.534125 0.378856
O O9 0.954867 0.749914 0.250000
O O10 0.981116 0.457696 0.250000
O O11 0.904541 0.250000 0.500000
O O12 0.943498 0.485377 0.611899
O O13 0.629587 0.250000 0.500000
O O14 0.630193 0.087158 0.750000
O O15 0.588588 0.001724 0.496697
O O16 0.457614 0.584757 0.250000
O O17 0.459666 0.750000 0.000000
O O18 0.500000 0.500000 0.000000
#
# Coordination Sequence:
#
# PCOD8234232 Si02
#       7
#     8   8   4   8   4   8   8
#     4  10  21  39  62  91 123 161 206 257 312 375
#     4  10  22  41  65  91 123 162 204 252 309 375
#     4  12  26  42  68  94 122 170 202 260 307 380
#     4  12  25  42  63  95 127 162 206 259 311 374
#     4  12  24  46  66  90 128 160 214 250 319 370
#     4  11  22  39  61  89 123 165 210 260 319 380
#     4  11  22  39  61  89 123 164 211 264 322 384
#
# _framework density 20.628067000000001
#
# number of rings (size 3 to 8) (size 9 to 14) (size 15 to 20)
#    0.000    1.000    0.833    8.000    1.167    2.000 
#    0.000    3.333    0.000    0.000    0.000    0.000 
#    0.000    0.000    0.000    0.000    0.000    0.000 
#
# Total GULP energy -594739.921684 kJ/mol
# GULP energy per Si atom -12390.415035 kJ/mol
# Density = 2.058112 g / cm^3
# Si number density = 20.628067 Si / 1000 Ang^3
#
#
#
# Elastic Constant Matrix: (Units=GPa)
#
#
# Indices 1 2 3 4 5 6 
#
# 1 120.6803 37.8831 35.5404 0.0000 0.0000 0.0000
# 2 37.8831 99.5920 26.4113 0.0000 0.0000 0.0000
# 3 35.5404 26.4113 149.2103 0.0000 0.0000 0.0000
# 4 0.0000 0.0000 0.0000 32.4237 0.0000 0.0000
# 5 0.0000 0.0000 0.0000 0.0000 35.9856 0.0000
# 6 0.0000 0.0000 0.0000 0.0000 0.0000 38.1598
#
#
#
# Elastic Compliance Matrix: (Units=1/GPa)
#
#
# Indices 1 2 3 4 5 6 
#
# 1 0.009833 -0.003273 -0.001763 0.000000 0.000000 0.000000
# 2 -0.003273 0.011625 -0.001278 0.000000 0.000000 0.000000
# 3 -0.001763 -0.001278 0.007348 0.000000 0.000000 0.000000
# 4 0.000000 0.000000 0.000000 0.030842 0.000000 0.000000
# 5 0.000000 0.000000 0.000000 0.000000 0.027789 0.000000
# 6 0.000000 0.000000 0.000000 0.000000 0.000000 0.026206
#
#
# Mechanical properties :
#
#
# Convention : Reuss Voigt Hill
#
# Bulk Modulus (GPa) = 61.81093 63.23914 62.52503
# Shear Modulus (GPa) = 37.97602 39.29034 38.63318
#
# Velocity S-wave (km/s) = 4.29533 4.36903 4.33233
# Velocity P-wave (km/s) = 7.39117 7.49497 7.44325
#
# Compressibility (1/GPa) = 0.01617837
#
# Stress axis : x y z
#
# Youngs Moduli (GPa) = 101.69980 86.02273 136.09018
#
# Poissons Ratio (x) = 0.28153 0.23990
# Poissons Ratio (y) = 0.33284 0.17394
# Poissons Ratio (z) = 0.17927 0.10995
#
# Static dielectric constant tensor:
#      x y z
#    x 4.441100 0.000000 0.000000 
#    y 0.000000 3.506370 0.000000 
#    z 0.000000 0.000000 4.017690 
# 
# 
# High freq. dielectric constant tensor:
#      x y z
#    x 1.829430 0.000000 0.000000 
#    y 0.000000 1.791600 0.000000 
#    z 0.000000 0.000000 1.827870 
# 
# From -- ./inp_files/10139.got.cif
#   From: 2010.03.12/outbox.cif.g09.slc.cpg/sg57_6_cif.got.tgz:10139.got - 2010.04.16 15:48:40.
