data_PCOD8234420
_publ_section_title
;
Structure prediction by ZEFSAII (Michael W. Deem and Ramdas Pophale) SiO2 
 PCOD8234420
Probable space group: P B C M
;
_chemical_formula_sum "Si O2"
_cell_formula_units_Z 64
_cell_length_a 11.398531
_cell_length_b 9.329352
_cell_length_c 27.948879
_cell_angle_alpha 90.000000
_cell_angle_beta 90.000000
_cell_angle_gamma 90.000000
_cell_volume 2972.109170
_symmetry_space_group_name_H-M "P B C M"
_symmetry_group_IT_number 57
_symmetry_cell_setting 'orthorhombic'
loop_
_space_group_symop_operation_xyz
x,y,z
-x,-y,1/2+z
x,1/2-y,-z
-x,1/2+y,1/2-z
-x,-y,-z
x,y,1/2-z
-x,1/2+y,z
x,1/2-y,1/2+z
loop_
_atom_site_type_symbol
_atom_site_label
_atom_site_fract_x
_atom_site_fract_y
_atom_site_fract_z
Si Si1 0.551870 0.568636 0.850528
Si Si2 0.714408 0.610808 0.022639
Si Si3 0.923337 0.316388 0.619198
Si Si4 0.317639 0.922578 0.196280
Si Si5 0.736981 0.149856 0.041261
Si Si6 0.148611 0.494081 0.613943
Si Si7 0.499505 0.320289 0.584610
Si Si8 0.246995 0.898323 0.804818
O O1 0.453966 0.538862 0.810114
O O2 0.550234 0.730790 0.870118
O O3 0.521218 0.480791 0.897846
O O4 0.677385 0.525802 0.828584
O O5 0.783923 0.528423 0.064304
O O6 0.591934 0.674753 0.041527
O O7 0.781747 0.750000 0.000000
O O8 0.691334 0.500202 0.979770
O O9 0.841227 0.383452 0.578119
O O10 0.919740 0.144572 0.615028
O O11 0.878030 0.380077 0.669582
O O12 0.057492 0.363853 0.616249
O O13 0.277236 0.963740 0.250000
O O14 0.238101 0.010401 0.158698
O O15 0.313335 0.751976 0.187815
O O16 0.627466 0.234368 0.066109
O O17 0.789990 0.250000 0.000000
O O18 0.223146 0.937287 0.750000
#
# Coordination Sequence:
#
# PCOD8234420 Si02
#       8
#     8   8   8   8   8   8   8   8
#     4  12  20  39  68  97 135 172 209 257 324 388
#     4  12  26  41  64 100 133 173 220 272 326 388
#     4  11  25  45  69  92 126 173 218 274 328 385
#     4  10  21  42  68  96 130 170 210 262 328 393
#     4  12  23  44  66  94 132 174 222 265 331 389
#     4  11  25  45  67  92 127 169 221 272 326 389
#     4  12  23  39  67  96 136 175 211 262 322 384
#     4  10  22  42  68  98 132 170 211 262 329 393
#
# _framework density 21.533529000000001
#
# number of rings (size 3 to 8) (size 9 to 14) (size 15 to 20)
#    0.000    0.750    5.000    3.375    1.750    1.500 
#    0.000    0.000    0.000    0.000    0.000    0.000 
#    0.000    0.000    0.000    0.000    0.000    0.000 
#
# Total GULP energy -793668.841327 kJ/mol
# GULP energy per Si atom -12401.075646 kJ/mol
# Density = 2.148452 g / cm^3
# Si number density = 21.533529 Si / 1000 Ang^3
#
#
#
# Elastic Constant Matrix: (Units=GPa)
#
#
# Indices 1 2 3 4 5 6 
#
# 1 52.9560 12.1709 5.7057 0.0000 0.0000 0.0000
# 2 12.1709 67.4354 30.1563 0.0000 0.0000 0.0000
# 3 5.7057 30.1563 102.0708 0.0000 0.0000 0.0000
# 4 0.0000 0.0000 0.0000 32.4468 0.0000 0.0000
# 5 0.0000 0.0000 0.0000 0.0000 17.0532 0.0000
# 6 0.0000 0.0000 0.0000 0.0000 0.0000 32.8485
#
#
#
# Elastic Compliance Matrix: (Units=1/GPa)
#
#
# Indices 1 2 3 4 5 6 
#
# 1 0.019701 -0.003530 -0.000059 0.000000 0.000000 0.000000
# 2 -0.003530 0.017719 -0.005038 0.000000 0.000000 0.000000
# 3 -0.000059 -0.005038 0.011289 0.000000 0.000000 0.000000
# 4 0.000000 0.000000 0.000000 0.030820 0.000000 0.000000
# 5 0.000000 0.000000 0.000000 0.000000 0.058640 0.000000
# 6 0.000000 0.000000 0.000000 0.000000 0.000000 0.030443
#
#
# Mechanical properties :
#
#
# Convention : Reuss Voigt Hill
#
# Bulk Modulus (GPa) = 31.78912 35.39199 33.59055
# Shear Modulus (GPa) = 25.46499 28.09834 26.78166
#
# Velocity S-wave (km/s) = 3.44259 3.61621 3.53047
# Velocity P-wave (km/s) = 5.53141 5.82301 5.67908
#
# Compressibility (1/GPa) = 0.03145731
#
# Stress axis : x y z
#
# Youngs Moduli (GPa) = 50.75856 56.43725 88.58397
#
# Poissons Ratio (x) = 0.19920 0.00518
# Poissons Ratio (y) = 0.17915 0.44625
# Poissons Ratio (z) = 0.00297 0.28431
#
# Static dielectric constant tensor:
#      x y z
#    x 3.657450 0.000000 0.000000 
#    y 0.000000 3.790050 0.000000 
#    z 0.000000 0.000000 3.986490 
# 
# 
# High freq. dielectric constant tensor:
#      x y z
#    x 1.825260 0.000000 0.000000 
#    y 0.000000 1.843070 0.000000 
#    z 0.000000 0.000000 1.857590 
# 
# From -- ./inp_files/29769.got.cif
#   From: 2010.03.12/outbox.cif.g09.slc.cpg/sg57_15_cif.got.tgz:29769.got - 2010.04.16 15:48:40.
