data_PCOD8234958
_publ_section_title
;
Structure prediction by ZEFSAII (Michael W. Deem and Ramdas Pophale) SiO2 
 PCOD8234958
Probable space group: P B C M
;
_chemical_formula_sum "Si O2"
_cell_formula_units_Z 48
_cell_length_a 9.745294
_cell_length_b 17.111454
_cell_length_c 13.942053
_cell_angle_alpha 90.000000
_cell_angle_beta 90.000000
_cell_angle_gamma 90.000000
_cell_volume 2324.923081
_symmetry_space_group_name_H-M "P B C M"
_symmetry_group_IT_number 57
_symmetry_cell_setting 'orthorhombic'
loop_
_space_group_symop_operation_xyz
x,y,z
-x,-y,1/2+z
x,1/2-y,-z
-x,1/2+y,1/2-z
-x,-y,-z
x,y,1/2-z
-x,1/2+y,z
x,1/2-y,1/2+z
loop_
_atom_site_type_symbol
_atom_site_label
_atom_site_fract_x
_atom_site_fract_y
_atom_site_fract_z
Si Si1 0.959618 0.826999 0.052530
Si Si2 0.585817 0.708543 0.250000
Si Si3 0.739053 0.117992 0.951108
Si Si4 0.152791 0.201814 0.750000
Si Si5 0.664384 0.552038 0.750000
Si Si6 0.732578 0.545523 0.541672
Si Si7 0.528108 0.667261 0.458521
Si Si8 0.601825 0.362253 0.250000
O O1 0.951182 0.804631 0.163067
O O2 0.867374 0.901980 0.027927
O O3 0.114394 0.845738 0.023497
O O4 0.904044 0.750000 0.000000
O O5 0.750787 0.721591 0.250000
O O6 0.554232 0.658384 0.345195
O O7 0.488335 0.783929 0.250000
O O8 0.699409 0.134953 0.841828
O O9 0.633666 0.159632 0.023168
O O10 0.743668 0.025150 0.967875
O O11 0.267711 0.136270 0.750000
O O12 0.714266 0.511032 0.650709
O O13 0.499897 0.562987 0.750000
O O14 0.600230 0.598158 0.517773
O O15 0.582914 0.750000 0.500000
#
# Coordination Sequence:
#
# PCOD8234958 Si02
#       8
#     8   4   8   4   4   8   8   4
#     4  11  23  42  66  90 127 172 222 267 326 394
#     4  11  22  38  68  98 128 164 224 276 319 382
#     4  12  25  40  62  99 132 170 209 274 340 387
#     4   9  19  40  63  94 114 174 218 260 317 395
#     4   9  18  37  65  86 124 171 207 255 325 391
#     4  11  23  42  66  93 129 172 223 267 324 400
#     4  12  22  40  65  96 128 169 220 271 325 389
#     4  11  21  39  64  88 134 167 207 255 337 396
#
# _framework density 20.645845000000001
#
# number of rings (size 3 to 8) (size 9 to 14) (size 15 to 20)
#    0.000    1.000    3.333    5.500    0.000    1.333 
#    0.000    1.667    0.000    0.000    0.000    0.000 
#    0.000    0.000    0.000    0.000    0.000    0.000 
#
# Total GULP energy -595246.702228 kJ/mol
# GULP energy per Si atom -12400.972963 kJ/mol
# Density = 2.059885 g / cm^3
# Si number density = 20.645845 Si / 1000 Ang^3
#
#
#
# Elastic Constant Matrix: (Units=GPa)
#
#
# Indices 1 2 3 4 5 6 
#
# 1 101.1206 12.6175 20.9011 0.0000 0.0000 0.0000
# 2 12.6175 75.3672 28.6318 0.0000 0.0000 0.0000
# 3 20.9011 28.6318 111.5549 0.0000 0.0000 0.0000
# 4 0.0000 0.0000 0.0000 17.6735 0.0000 0.0000
# 5 0.0000 0.0000 0.0000 0.0000 25.7580 0.0000
# 6 0.0000 0.0000 0.0000 0.0000 0.0000 26.5151
#
#
#
# Elastic Compliance Matrix: (Units=1/GPa)
#
#
# Indices 1 2 3 4 5 6 
#
# 1 0.010370 -0.001106 -0.001659 0.000000 0.000000 0.000000
# 2 -0.001106 0.014820 -0.003596 0.000000 0.000000 0.000000
# 3 -0.001659 -0.003596 0.010198 0.000000 0.000000 0.000000
# 4 0.000000 0.000000 0.000000 0.056582 0.000000 0.000000
# 5 0.000000 0.000000 0.000000 0.000000 0.038823 0.000000
# 6 0.000000 0.000000 0.000000 0.000000 0.000000 0.037714
#
#
# Mechanical properties :
#
#
# Convention : Reuss Voigt Hill
#
# Bulk Modulus (GPa) = 44.12055 45.81596 44.96825
# Shear Modulus (GPa) = 26.48515 29.04880 27.76698
#
# Velocity S-wave (km/s) = 3.58555 3.75508 3.67129
# Velocity P-wave (km/s) = 6.20952 6.40627 6.30866
#
# Compressibility (1/GPa) = 0.02266518
#
# Stress axis : x y z
#
# Youngs Moduli (GPa) = 96.43112 67.47733 98.05710
#
# Poissons Ratio (x) = 0.07462 0.16269
# Poissons Ratio (y) = 0.10663 0.35266
# Poissons Ratio (z) = 0.15999 0.24268
#
# Static dielectric constant tensor:
#      x y z
#    x 3.686150 0.000000 0.000000 
#    y 0.000000 3.547010 0.000000 
#    z 0.000000 0.000000 3.711150 
# 
# 
# High freq. dielectric constant tensor:
#      x y z
#    x 1.812100 0.000000 0.000000 
#    y 0.000000 1.787940 0.000000 
#    z 0.000000 0.000000 1.817120 
# 
# From -- ./inp_files/16447.got.cif
#   From: 2010.03.12/outbox.cif.g09.slc.cpg/sg57_9_cif.got.tgz:16447.got - 2010.04.16 15:48:40.
