data_PCOD8234681
_publ_section_title
;
Structure prediction by ZEFSAII (Michael W. Deem and Ramdas Pophale) SiO2 
 PCOD8234681
Probable space group: P B C M
;
_chemical_formula_sum "Si O2"
_cell_formula_units_Z 28
_cell_length_a 4.857696
_cell_length_b 27.152552
_cell_length_c 8.083799
_cell_angle_alpha 90.000000
_cell_angle_beta 90.000000
_cell_angle_gamma 90.000000
_cell_volume 1066.243737
_symmetry_space_group_name_H-M "P B C M"
_symmetry_group_IT_number 57
_symmetry_cell_setting 'orthorhombic'
loop_
_space_group_symop_operation_xyz
x,y,z
-x,-y,1/2+z
x,1/2-y,-z
-x,1/2+y,1/2-z
-x,-y,-z
x,y,1/2-z
-x,1/2+y,z
x,1/2-y,1/2+z
loop_
_atom_site_type_symbol
_atom_site_label
_atom_site_fract_x
_atom_site_fract_y
_atom_site_fract_z
Si Si1 0.108023 0.448368 0.436050
Si Si2 0.423006 0.750000 0.000000
Si Si3 0.240611 0.823863 0.750000
Si Si4 0.736371 0.606157 0.250000
Si Si5 0.272264 0.185556 0.750000
Si Si6 0.766764 0.120626 0.750000
O O1 0.249952 0.454273 0.250000
O O2 0.847377 0.411086 0.413424
O O3 0.000000 0.500000 0.500000
O O4 0.301769 0.426553 0.582165
O O5 0.218170 0.786865 0.904900
O O6 0.641714 0.716626 0.905994
O O7 0.539339 0.847765 0.750000
O O8 0.033916 0.868838 0.750000
O O9 0.443430 0.133413 0.750000
O O10 0.948408 0.171616 0.750000
#
# Coordination Sequence:
#
# PCOD8234681 Si02
#       6
#     8   4   4   4   4   4
#     4  10  22  43  71 102 138 176 225 282 340 407
#     4  10  24  40  64  96 134 170 224 276 324 394
#     4  11  26  42  71  98 138 180 229 278 340 403
#     4  12  23  47  68 104 134 184 226 277 341 408
#     4  11  22  42  59  94 124 172 211 266 326 379
#     4  10  23  39  66  88 130 170 212 265 325 392
#
# _framework density 26.260411999999999
#
# number of rings (size 3 to 8) (size 9 to 14) (size 15 to 20)
#    0.857    0.571    1.429    3.429    0.000    6.857 
#    0.000    8.571    0.000    0.000    0.000    0.000 
#    0.000    0.000    0.000    0.000    0.000    0.000 
#
# Total GULP energy -346892.737570 kJ/mol
# GULP energy per Si atom -12389.026342 kJ/mol
# Density = 2.620064 g / cm^3
# Si number density = 26.260412 Si / 1000 Ang^3
#
#
#
# Elastic Constant Matrix: (Units=GPa)
#
#
# Indices 1 2 3 4 5 6 
#
# 1 41.3709 -2.4548 13.2918 0.0000 0.0000 0.0000
# 2 -2.4548 108.8494 35.2620 0.0000 0.0000 0.0000
# 3 13.2918 35.2620 181.6114 0.0000 0.0000 0.0000
# 4 0.0000 0.0000 0.0000 65.7763 0.0000 0.0000
# 5 0.0000 0.0000 0.0000 0.0000 -66.5424 0.0000
# 6 0.0000 0.0000 0.0000 0.0000 0.0000 5.9938
#
#
#
# Elastic Compliance Matrix: (Units=1/GPa)
#
#
# Indices 1 2 3 4 5 6 
#
# 1 0.024907 0.001230 -0.002062 0.000000 0.000000 0.000000
# 2 0.001230 0.009864 -0.002005 0.000000 0.000000 0.000000
# 3 -0.002062 -0.002005 0.006046 0.000000 0.000000 0.000000
# 4 0.000000 0.000000 0.000000 0.015203 0.000000 0.000000
# 5 0.000000 0.000000 0.000000 0.000000 -0.015028 0.000000
# 6 0.000000 0.000000 0.000000 0.000000 0.000000 0.166839
#
#
# Mechanical properties :
#
#
# Convention : Reuss Voigt Hill
#
# Bulk Modulus (GPa) = 28.45507 47.11439 37.78473
# Shear Modulus (GPa) = 22.20041 20.09439 21.14740
#
# Velocity S-wave (km/s) = 2.91072 2.76922 2.84085
# Velocity P-wave (km/s) = 4.70698 5.31083 5.01800
#
# Compressibility (1/GPa) = 0.03514313
#
# Stress axis : x y z
#
# Youngs Moduli (GPa) = 40.14951 101.37520 165.38506
#
# Poissons Ratio (x) = -0.12465 0.34096
# Poissons Ratio (y) = -0.04937 0.33164
# Poissons Ratio (z) = 0.08277 0.20328
#
# Static dielectric constant tensor:
#      x y z
#    x 4.041600 0.000000 0.000000 
#    y 0.000000 4.958860 0.000000 
#    z 0.000000 0.000000 5.400340 
# 
# 
# High freq. dielectric constant tensor:
#      x y z
#    x 2.012350 0.000000 0.000000 
#    y 0.000000 2.078050 0.000000 
#    z 0.000000 0.000000 2.068450 
# 
# From -- ./inp_files/753.got.cif
#   From: 2010.03.12/outbox.cif.g09.slc.cpg/sg57_1_cif.got.tgz:753.got - 2010.04.16 15:48:40.
