data_PCOD8234811
_publ_section_title
;
Structure prediction by ZEFSAII (Michael W. Deem and Ramdas Pophale) SiO2 
 PCOD8234811
Probable space group: P B C M
;
_chemical_formula_sum "Si O2"
_cell_formula_units_Z 64
_cell_length_a 22.476139
_cell_length_b 10.100512
_cell_length_c 15.207073
_cell_angle_alpha 90.000000
_cell_angle_beta 90.000000
_cell_angle_gamma 90.000000
_cell_volume 3452.317494
_symmetry_space_group_name_H-M "P B C M"
_symmetry_group_IT_number 57
_symmetry_cell_setting 'orthorhombic'
loop_
_space_group_symop_operation_xyz
x,y,z
-x,-y,1/2+z
x,1/2-y,-z
-x,1/2+y,1/2-z
-x,-y,-z
x,y,1/2-z
-x,1/2+y,z
x,1/2-y,1/2+z
loop_
_atom_site_type_symbol
_atom_site_label
_atom_site_fract_x
_atom_site_fract_y
_atom_site_fract_z
Si Si1 0.856564 0.594605 0.500493
Si Si2 0.946162 0.901519 0.149416
Si Si3 0.945316 0.904585 0.850606
Si Si4 0.436685 0.255813 0.099270
Si Si5 0.723836 0.592510 0.500455
Si Si6 0.569441 0.256791 0.147022
Si Si7 0.637326 0.504228 0.849995
Si Si8 0.361958 0.015448 0.150918
O O1 0.848866 0.750000 0.500000
O O2 0.892150 0.551238 0.587779
O O3 0.891124 0.549957 0.412528
O O4 0.790600 0.532511 0.501710
O O5 0.925384 0.918534 0.250000
O O6 0.964247 0.748230 0.130279
O O7 0.000716 0.997641 0.127551
O O8 0.924398 0.920971 0.750000
O O9 0.507460 0.243886 0.096649
O O10 0.416992 0.392793 0.143173
O O11 0.407776 0.136734 0.153193
O O12 0.411545 0.250000 0.000000
O O13 0.723049 0.750000 0.500000
O O14 0.691993 0.541937 0.588238
O O15 0.693790 0.539575 0.411803
O O16 0.555301 0.258320 0.250000
O O17 0.602328 0.388883 0.115574
O O18 0.611865 0.136525 0.120040
O O19 0.660988 0.500080 0.750000
O O20 0.337979 0.992445 0.250000
#
# Coordination Sequence:
#
# PCOD8234811 Si02
#       8
#     8   8   8   8   8   8   8   8
#     4   9  19  33  53  78 113 139 181 228 254 307
#     4   9  17  31  54  83 112 143 175 214 265 311
#     4   9  17  31  54  83 112 143 175 214 265 311
#     4  12  22  36  58  87 109 134 175 221 277 337
#     4  11  22  38  55  84 106 141 194 227 265 316
#     4  10  24  38  56  82 106 139 177 218 280 341
#     4  11  22  39  58  78 108 141 178 225 273 325
#     4  11  22  39  58  78 108 141 178 225 273 325
#
# _framework density 18.538271000000002
#
# number of rings (size 3 to 8) (size 9 to 14) (size 15 to 20)
#    0.000    1.750    2.500    2.250    1.750    4.000 
#    0.000    2.500    5.500    0.000    0.000    0.000 
#    0.000    0.000    0.000    0.000    0.000    0.000 
#
# Total GULP energy -793748.458322 kJ/mol
# GULP energy per Si atom -12402.319661 kJ/mol
# Density = 1.849608 g / cm^3
# Si number density = 18.538271 Si / 1000 Ang^3
#
#
#
# Elastic Constant Matrix: (Units=GPa)
#
#
# Indices 1 2 3 4 5 6 
#
# 1 143.9566 31.5739 71.1992 0.0000 0.0000 0.0000
# 2 31.5739 63.1447 23.0041 0.0000 0.0000 0.0000
# 3 71.1992 23.0041 107.6544 0.0000 0.0000 0.0000
# 4 0.0000 0.0000 0.0000 51.7589 0.0000 0.0000
# 5 0.0000 0.0000 0.0000 0.0000 44.3227 0.0000
# 6 0.0000 0.0000 0.0000 0.0000 0.0000 18.3766
#
#
#
# Elastic Compliance Matrix: (Units=1/GPa)
#
#
# Indices 1 2 3 4 5 6 
#
# 1 0.010838 -0.003045 -0.006517 0.000000 0.000000 0.000000
# 2 -0.003045 0.018029 -0.001839 0.000000 0.000000 0.000000
# 3 -0.006517 -0.001839 0.013992 0.000000 0.000000 0.000000
# 4 0.000000 0.000000 0.000000 0.019320 0.000000 0.000000
# 5 0.000000 0.000000 0.000000 0.000000 0.022562 0.000000
# 6 0.000000 0.000000 0.000000 0.000000 0.000000 0.054417
#
#
# Mechanical properties :
#
#
# Convention : Reuss Voigt Hill
#
# Bulk Modulus (GPa) = 49.85687 62.92334 56.39011
# Shear Modulus (GPa) = 29.64812 35.49022 32.56917
#
# Velocity S-wave (km/s) = 4.00345 4.38017 4.19604
# Velocity P-wave (km/s) = 6.95145 7.71992 7.34574
#
# Compressibility (1/GPa) = 0.02005741
#
# Stress axis : x y z
#
# Youngs Moduli (GPa) = 92.27135 55.46616 71.46918
#
# Poissons Ratio (x) = 0.16889 0.46577
# Poissons Ratio (y) = 0.28095 0.13141
# Poissons Ratio (z) = 0.60133 0.10199
#
# Static dielectric constant tensor:
#      x y z
#    x 3.408870 0.000000 0.000000 
#    y 0.000000 3.428440 0.000000 
#    z 0.000000 0.000000 3.473610 
# 
# 
# High freq. dielectric constant tensor:
#      x y z
#    x 1.702850 0.000000 0.000000 
#    y 0.000000 1.711430 0.000000 
#    z 0.000000 0.000000 1.735780 
# 
# From -- ./inp_files/19488.got.cif
#   From: 2010.03.12/outbox.cif.g09.slc.cpg/sg57_10_cif.got.tgz:19488.got - 2010.04.16 15:48:40.
