data_PCOD8234824
_publ_section_title
;
Structure prediction by ZEFSAII (Michael W. Deem and Ramdas Pophale) SiO2 
 PCOD8234824
Probable space group: P B C M
;
_chemical_formula_sum "Si O2"
_cell_formula_units_Z 40
_cell_length_a 10.983755
_cell_length_b 8.875594
_cell_length_c 17.951321
_cell_angle_alpha 90.000000
_cell_angle_beta 90.000000
_cell_angle_gamma 90.000000
_cell_volume 1750.026713
_symmetry_space_group_name_H-M "P B C M"
_symmetry_group_IT_number 57
_symmetry_cell_setting 'orthorhombic'
loop_
_space_group_symop_operation_xyz
x,y,z
-x,-y,1/2+z
x,1/2-y,-z
-x,1/2+y,1/2-z
-x,-y,-z
x,y,1/2-z
-x,1/2+y,z
x,1/2-y,1/2+z
loop_
_atom_site_type_symbol
_atom_site_label
_atom_site_fract_x
_atom_site_fract_y
_atom_site_fract_z
Si Si1 0.831237 0.685539 0.830282
Si Si2 0.827700 0.190275 0.572232
Si Si3 0.987754 0.939203 0.617323
Si Si4 0.386564 0.586131 0.661939
Si Si5 0.397445 0.262622 0.587767
O O1 0.766038 0.668564 0.750000
O O2 0.897757 0.847263 0.828768
O O3 0.729518 0.676776 0.894962
O O4 0.930161 0.554301 0.836465
O O5 0.751738 0.250000 0.500000
O O6 0.736977 0.178394 0.642470
O O7 0.928375 0.320184 0.576473
O O8 0.900618 0.032927 0.560596
O O9 0.391057 0.553080 0.750000
O O10 0.387195 0.435062 0.613203
O O11 0.498956 0.687150 0.637255
O O12 0.425066 0.250000 0.500000
#
# Coordination Sequence:
#
# PCOD8234824 Si02
#       5
#     8   8   8   8   8
#     4  11  23  43  70 103 142 185 235 287 349 415
#     4  11  24  43  71 102 144 184 236 287 352 418
#     4  10  24  41  68 104 145 185 235 282 354 411
#     4  12  27  49  74 104 141 185 237 294 355 423
#     4  12  28  48  75 103 141 183 238 294 356 420
#
# _framework density 22.856793
#
# number of rings (size 3 to 8) (size 9 to 14) (size 15 to 20)
#    0.000    0.800    2.000    4.200    5.600    7.200 
#    0.000    0.000    0.000    0.000    0.000    0.000 
#    0.000    0.000    0.000    0.000    0.000    0.000 
#
# Total GULP energy -495789.618433 kJ/mol
# GULP energy per Si atom -12394.740461 kJ/mol
# Density = 2.280477 g / cm^3
# Si number density = 22.856793 Si / 1000 Ang^3
#
#
#
# Elastic Constant Matrix: (Units=GPa)
#
#
# Indices 1 2 3 4 5 6 
#
# 1 117.6569 39.2444 24.2777 0.0000 0.0000 0.0000
# 2 39.2444 114.1757 38.3467 0.0000 0.0000 0.0000
# 3 24.2777 38.3467 138.3851 0.0000 0.0000 0.0000
# 4 0.0000 0.0000 0.0000 25.2788 0.0000 0.0000
# 5 0.0000 0.0000 0.0000 0.0000 29.3123 0.0000
# 6 0.0000 0.0000 0.0000 0.0000 0.0000 20.3276
#
#
#
# Elastic Compliance Matrix: (Units=1/GPa)
#
#
# Indices 1 2 3 4 5 6 
#
# 1 0.009691 -0.003043 -0.000857 0.000000 0.000000 0.000000
# 2 -0.003043 0.010613 -0.002407 0.000000 0.000000 0.000000
# 3 -0.000857 -0.002407 0.008044 0.000000 0.000000 0.000000
# 4 0.000000 0.000000 0.000000 0.039559 0.000000 0.000000
# 5 0.000000 0.000000 0.000000 0.000000 0.034115 0.000000
# 6 0.000000 0.000000 0.000000 0.000000 0.000000 0.049194
#
#
# Mechanical properties :
#
#
# Convention : Reuss Voigt Hill
#
# Bulk Modulus (GPa) = 63.55918 63.77280 63.66599
# Shear Modulus (GPa) = 29.57276 32.87367 31.22322
#
# Velocity S-wave (km/s) = 3.60088 3.79653 3.70000
# Velocity P-wave (km/s) = 6.71985 6.86876 6.79471
#
# Compressibility (1/GPa) = 0.01573337
#
# Stress axis : x y z
#
# Youngs Moduli (GPa) = 103.18658 94.22550 124.32390
#
# Poissons Ratio (x) = 0.28675 0.10653
# Poissons Ratio (y) = 0.31402 0.29924
# Poissons Ratio (z) = 0.08842 0.22679
#
# Static dielectric constant tensor:
#      x y z
#    x 4.262860 0.000000 0.000000 
#    y 0.000000 4.490770 0.000000 
#    z 0.000000 0.000000 4.029430 
# 
# 
# High freq. dielectric constant tensor:
#      x y z
#    x 1.910540 0.000000 0.000000 
#    y 0.000000 1.916410 0.000000 
#    z 0.000000 0.000000 1.896330 
# 
# From -- ./inp_files/21603.got.cif
#   From: 2010.03.12/outbox.cif.g09.slc.cpg/sg57_11_cif.got.tgz:21603.got - 2010.04.16 15:48:40.
