data_PCOD8234495
_publ_section_title
;
Structure prediction by ZEFSAII (Michael W. Deem and Ramdas Pophale) SiO2 
 PCOD8234495
Probable space group: P B C M
;
_chemical_formula_sum "Si O2"
_cell_formula_units_Z 48
_cell_length_a 8.334569
_cell_length_b 9.582268
_cell_length_c 28.655172
_cell_angle_alpha 90.000000
_cell_angle_beta 90.000000
_cell_angle_gamma 90.000000
_cell_volume 2288.518772
_symmetry_space_group_name_H-M "P B C M"
_symmetry_group_IT_number 57
_symmetry_cell_setting 'orthorhombic'
loop_
_space_group_symop_operation_xyz
x,y,z
-x,-y,1/2+z
x,1/2-y,-z
-x,1/2+y,1/2-z
-x,-y,-z
x,y,1/2-z
-x,1/2+y,z
x,1/2-y,1/2+z
loop_
_atom_site_type_symbol
_atom_site_label
_atom_site_fract_x
_atom_site_fract_y
_atom_site_fract_z
Si Si1 0.316540 0.736727 0.851347
Si Si2 0.195611 0.486193 0.594197
Si Si3 0.660161 0.651357 0.250000
Si Si4 0.836581 0.583902 0.995611
Si Si5 0.822866 0.501379 0.896055
Si Si6 0.664798 0.322002 0.250000
Si Si7 0.308989 0.249889 0.653689
O O1 0.310272 0.589362 0.877599
O O2 0.210843 0.842164 0.882081
O O3 0.244739 0.720159 0.798327
O O4 0.501698 0.781203 0.849609
O O5 0.259589 0.473435 0.540844
O O6 0.212161 0.331976 0.614558
O O7 0.011469 0.533869 0.600324
O O8 0.626872 0.486573 0.250000
O O9 0.499133 0.739438 0.250000
O O10 0.757267 0.698747 0.203970
O O11 0.748786 0.540764 0.947151
O O12 0.865318 0.750000 0.000000
O O13 0.000000 0.500000 0.000000
O O14 0.736245 0.589051 0.855118
#
# Coordination Sequence:
#
# PCOD8234495 Si02
#       7
#     8   8   4   8   8   4   8
#     4  11  24  40  65  93 125 166 210 258 312 373
#     4  11  22  42  65  90 128 160 211 259 307 375
#     4  10  22  38  65  89 124 170 208 251 306 390
#     4  10  22  39  64  90 125 169 212 249 310 388
#     4  11  24  40  64  94 123 167 209 256 315 368
#     4  10  22  40  63  91 124 168 214 245 312 386
#     4  11  22  42  64  91 126 160 211 256 311 369
#
# _framework density 20.974267000000001
#
# number of rings (size 3 to 8) (size 9 to 14) (size 15 to 20)
#    0.000    1.333    3.333    2.000   14.000    0.000 
#    0.000   10.000    0.000    0.000    0.000    0.000 
#    0.000    0.000    0.000    0.000    0.000    0.000 
#
# Total GULP energy -594932.286951 kJ/mol
# GULP energy per Si atom -12394.422645 kJ/mol
# Density = 2.092653 g / cm^3
# Si number density = 20.974267 Si / 1000 Ang^3
#
#
#
# Elastic Constant Matrix: (Units=GPa)
#
#
# Indices 1 2 3 4 5 6 
#
# 1 37.1893 10.5016 29.8418 0.0000 0.0000 0.0000
# 2 10.5016 102.6513 54.2756 0.0000 0.0000 0.0000
# 3 29.8418 54.2756 186.7713 0.0000 0.0000 0.0000
# 4 0.0000 0.0000 0.0000 44.2764 0.0000 0.0000
# 5 0.0000 0.0000 0.0000 0.0000 24.2096 0.0000
# 6 0.0000 0.0000 0.0000 0.0000 0.0000 37.1366
#
#
#
# Elastic Compliance Matrix: (Units=1/GPa)
#
#
# Indices 1 2 3 4 5 6 
#
# 1 0.030881 -0.000650 -0.004745 0.000000 0.000000 0.000000
# 2 -0.000650 0.011524 -0.003245 0.000000 0.000000 0.000000
# 3 -0.004745 -0.003245 0.007055 0.000000 0.000000 0.000000
# 4 0.000000 0.000000 0.000000 0.022585 0.000000 0.000000
# 5 0.000000 0.000000 0.000000 0.000000 0.041306 0.000000
# 6 0.000000 0.000000 0.000000 0.000000 0.000000 0.026928
#
#
# Mechanical properties :
#
#
# Convention : Reuss Voigt Hill
#
# Bulk Modulus (GPa) = 31.07594 57.31667 44.19631
# Shear Modulus (GPa) = 29.71136 36.59073 33.15105
#
# Velocity S-wave (km/s) = 3.76781 4.18132 3.97994
# Velocity P-wave (km/s) = 5.81179 7.12023 6.49902
#
# Compressibility (1/GPa) = 0.03217923
#
# Stress axis : x y z
#
# Youngs Moduli (GPa) = 32.38279 86.77562 141.73806
#
# Poissons Ratio (x) = 0.05643 0.67255
# Poissons Ratio (y) = 0.02106 0.45993
# Poissons Ratio (z) = 0.15366 0.28158
#
# Static dielectric constant tensor:
#      x y z
#    x 3.243760 0.000000 0.000000 
#    y 0.000000 3.724860 0.000000 
#    z 0.000000 0.000000 4.887300 
# 
# 
# High freq. dielectric constant tensor:
#      x y z
#    x 1.773150 0.000000 0.000000 
#    y 0.000000 1.836050 0.000000 
#    z 0.000000 0.000000 1.850650 
# 
# From -- ./inp_files/29507.got.cif
#   From: 2010.03.12/outbox.cif.g09.slc.cpg/sg57_15_cif.got.tgz:29507.got - 2010.04.16 15:48:40.
