data_PCOD8234005
_publ_section_title
;
Structure prediction by ZEFSAII (Michael W. Deem and Ramdas Pophale) SiO2 
 PCOD8234005
Probable space group: P B C M
;
_chemical_formula_sum "Si O2"
_cell_formula_units_Z 56
_cell_length_a 5.113328
_cell_length_b 30.082379
_cell_length_c 12.668229
_cell_angle_alpha 90.000000
_cell_angle_beta 90.000000
_cell_angle_gamma 90.000000
_cell_volume 1948.640551
_symmetry_space_group_name_H-M "P B C M"
_symmetry_group_IT_number 57
_symmetry_cell_setting 'orthorhombic'
loop_
_space_group_symop_operation_xyz
x,y,z
-x,-y,1/2+z
x,1/2-y,-z
-x,1/2+y,1/2-z
-x,-y,-z
x,y,1/2-z
-x,1/2+y,z
x,1/2-y,1/2+z
loop_
_atom_site_type_symbol
_atom_site_label
_atom_site_fract_x
_atom_site_fract_y
_atom_site_fract_z
Si Si1 0.979859 0.898443 0.368633
Si Si2 0.581289 0.671994 0.872147
Si Si3 0.385111 0.563034 0.989718
Si Si4 0.296141 0.122829 0.373999
Si Si5 0.761709 0.507702 0.866762
Si Si6 0.093337 0.773940 0.373606
Si Si7 0.797357 0.323599 0.624638
O O1 0.019279 0.879108 0.250000
O O2 0.719441 0.874051 0.418819
O O3 0.967198 0.951862 0.369702
O O4 0.246672 0.892741 0.436636
O O5 0.534952 0.662118 0.750000
O O6 0.301267 0.688895 0.920249
O O7 0.796786 0.710498 0.890413
O O8 0.486225 0.529689 0.899916
O O9 0.622469 0.577300 0.067639
O O10 0.173276 0.534645 0.059241
O O11 0.308818 0.113435 0.250000
O O12 0.504817 0.161436 0.407045
O O13 0.010102 0.139383 0.411069
O O14 0.737821 0.488199 0.750000
O O15 0.161196 0.769027 0.250000
O O16 0.131361 0.724852 0.426697
O O17 0.820913 0.318729 0.750000
#
# Coordination Sequence:
#
# PCOD8234005 Si02
#       7
#     8   8   8   8   8   8   8
#     4  10  22  39  61  93 133 177 227 285 350 418
#     4   9  18  30  54  89 127 167 217 270 322 391
#     4  11  23  39  66  93 131 177 230 280 353 422
#     4  10  21  37  61  95 134 178 227 283 337 404
#     4  10  23  43  65  93 128 171 228 289 351 422
#     4   9  16  30  54  89 127 170 217 265 320 392
#     4   9  18  34  58  91 133 175 222 275 334 398
#
# _framework density 28.737985999999999
#
# number of rings (size 3 to 8) (size 9 to 14) (size 15 to 20)
#    0.000    2.286    0.000    2.143    4.000    3.429 
#    0.000    0.000    0.000    0.857    0.000    0.000 
#    0.000    0.000    0.000    4.571    0.286    1.143 
#
# Total GULP energy -694321.646588 kJ/mol
# GULP energy per Si atom -12398.600832 kJ/mol
# Density = 2.867258 g / cm^3
# Si number density = 28.737986 Si / 1000 Ang^3
#
#
#
# Elastic Constant Matrix: (Units=GPa)
#
#
# Indices 1 2 3 4 5 6 
#
# 1 124.3620 -1.7445 -8.3396 0.0000 0.0000 0.0000
# 2 -1.7445 90.6312 -4.6146 0.0000 0.0000 0.0000
# 3 -8.3396 -4.6146 27.1838 0.0000 0.0000 0.0000
# 4 0.0000 0.0000 0.0000 41.2452 0.0000 0.0000
# 5 0.0000 0.0000 0.0000 0.0000 29.2261 0.0000
# 6 0.0000 0.0000 0.0000 0.0000 0.0000 42.2835
#
#
#
# Elastic Compliance Matrix: (Units=1/GPa)
#
#
# Indices 1 2 3 4 5 6 
#
# 1 0.008217 0.000289 0.002570 0.000000 0.000000 0.000000
# 2 0.000289 0.011140 0.001980 0.000000 0.000000 0.000000
# 3 0.002570 0.001980 0.037911 0.000000 0.000000 0.000000
# 4 0.000000 0.000000 0.000000 0.024245 0.000000 0.000000
# 5 0.000000 0.000000 0.000000 0.000000 0.034216 0.000000
# 6 0.000000 0.000000 0.000000 0.000000 0.000000 0.023650
#
#
# Mechanical properties :
#
#
# Convention : Reuss Voigt Hill
#
# Bulk Modulus (GPa) = 14.93735 23.64220 19.28978
# Shear Modulus (GPa) = 32.89093 39.67599 36.28346
#
# Velocity S-wave (km/s) = 3.38673 3.71969 3.55711
# Velocity P-wave (km/s) = 4.52795 5.16651 4.85773
#
# Compressibility (1/GPa) = 0.06694627
#
# Stress axis : x y z
#
# Youngs Moduli (GPa) = 121.69245 89.76589 26.37749
#
# Poissons Ratio (x) = -0.02594 -0.06779
# Poissons Ratio (y) = -0.03517 -0.05222
# Poissons Ratio (z) = -0.31275 -0.17771
#
# Static dielectric constant tensor:
#      x y z
#    x 5.095640 0.000000 0.000000 
#    y 0.000000 5.223740 0.000000 
#    z 0.000000 0.000000 5.574060 
# 
# 
# High freq. dielectric constant tensor:
#      x y z
#    x 2.161220 0.000000 0.000000 
#    y 0.000000 2.166420 0.000000 
#    z 0.000000 0.000000 2.205620 
# 
# From -- ./inp_files/15269.got.cif
#   From: 2010.03.12/outbox.cif.g09.slc.cpg/sg57_8_cif.got.tgz:15269.got - 2010.04.16 15:48:40.
