data_PCOD8234807
_publ_section_title
;
Structure prediction by ZEFSAII (Michael W. Deem and Ramdas Pophale) SiO2 
 PCOD8234807
Probable space group: P B C M
;
_chemical_formula_sum "Si O2"
_cell_formula_units_Z 24
_cell_length_a 4.670633
_cell_length_b 9.900193
_cell_length_c 17.004705
_cell_angle_alpha 90.000000
_cell_angle_beta 90.000000
_cell_angle_gamma 90.000000
_cell_volume 786.300418
_symmetry_space_group_name_H-M "P B C M"
_symmetry_group_IT_number 57
_symmetry_cell_setting 'orthorhombic'
loop_
_space_group_symop_operation_xyz
x,y,z
-x,-y,1/2+z
x,1/2-y,-z
-x,1/2+y,1/2-z
-x,-y,-z
x,y,1/2-z
-x,1/2+y,z
x,1/2-y,1/2+z
loop_
_atom_site_type_symbol
_atom_site_label
_atom_site_fract_x
_atom_site_fract_y
_atom_site_fract_z
Si Si1 0.353156 0.883322 0.050816
Si Si2 0.104277 0.506885 0.160900
Si Si3 0.601479 0.689384 0.164352
O O1 0.583377 0.831567 0.117688
O O2 0.053941 0.921767 0.092467
O O3 0.282946 0.750000 0.000000
O O4 0.500000 0.000000 0.000000
O O5 0.113986 0.439527 0.250000
O O6 0.930358 0.647724 0.166942
O O7 0.416364 0.561592 0.130080
O O8 0.470911 0.716849 0.250000
#
# Coordination Sequence:
#
# PCOD8234807 Si02
#       3
#     8   8   8
#     4  12  25  48  73 114 157 203 248 319 395 469
#     4  10  23  47  75 105 144 198 261 316 372 452
#     4  10  23  47  76 105 144 196 259 316 372 451
#
# _framework density 30.522684000000002
#
# number of rings (size 3 to 8) (size 9 to 14) (size 15 to 20)
#    0.000    1.333    3.333    1.000    0.000    4.000 
#    6.000   10.000    0.000    0.000    0.000    0.000 
#    0.000    0.000    0.000    0.000    0.000    0.000 
#
# Total GULP energy -297523.645485 kJ/mol
# GULP energy per Si atom -12396.818562 kJ/mol
# Density = 3.045321 g / cm^3
# Si number density = 30.522684 Si / 1000 Ang^3
#
#
#
# Elastic Constant Matrix: (Units=GPa)
#
#
# Indices 1 2 3 4 5 6 
#
# 1 120.9035 15.1173 7.5084 0.0000 0.0000 0.0000
# 2 15.1173 199.1698 57.0775 0.0000 0.0000 0.0000
# 3 7.5084 57.0775 188.6537 0.0000 0.0000 0.0000
# 4 0.0000 0.0000 0.0000 60.4006 0.0000 0.0000
# 5 0.0000 0.0000 0.0000 0.0000 34.8841 0.0000
# 6 0.0000 0.0000 0.0000 0.0000 0.0000 33.3598
#
#
#
# Elastic Compliance Matrix: (Units=1/GPa)
#
#
# Indices 1 2 3 4 5 6 
#
# 1 0.008354 -0.000590 -0.000154 0.000000 0.000000 0.000000
# 2 -0.000590 0.005539 -0.001652 0.000000 0.000000 0.000000
# 3 -0.000154 -0.001652 0.005807 0.000000 0.000000 0.000000
# 4 0.000000 0.000000 0.000000 0.016556 0.000000 0.000000
# 5 0.000000 0.000000 0.000000 0.000000 0.028666 0.000000
# 6 0.000000 0.000000 0.000000 0.000000 0.000000 0.029976
#
#
# Mechanical properties :
#
#
# Convention : Reuss Voigt Hill
#
# Bulk Modulus (GPa) = 67.08001 74.23705 70.65853
# Shear Modulus (GPa) = 47.77331 54.33050 51.05191
#
# Velocity S-wave (km/s) = 3.96052 4.22359 4.09417
# Velocity P-wave (km/s) = 6.55279 6.93971 6.74903
#
# Compressibility (1/GPa) = 0.01490757
#
# Stress axis : x y z
#
# Youngs Moduli (GPa) = 119.69749 180.53267 172.21236
#
# Poissons Ratio (x) = 0.10651 0.02652
# Poissons Ratio (y) = 0.07062 0.28456
# Poissons Ratio (z) = 0.01843 0.29831
#
# Static dielectric constant tensor:
#      x y z
#    x 5.596890 0.000000 0.000000 
#    y 0.000000 6.012980 0.000000 
#    z 0.000000 0.000000 6.835090 
# 
# 
# High freq. dielectric constant tensor:
#      x y z
#    x 2.258730 0.000000 0.000000 
#    y 0.000000 2.289810 0.000000 
#    z 0.000000 0.000000 2.283860 
# 
# From -- ./inp_files/19719.got.cif
#   From: 2010.03.12/outbox.cif.g09.slc.cpg/sg57_10_cif.got.tgz:19719.got - 2010.04.16 15:48:40.
