data_PCOD8234569
_publ_section_title
;
Structure prediction by ZEFSAII (Michael W. Deem and Ramdas Pophale) SiO2 
 PCOD8234569
Probable space group: P B C M
;
_chemical_formula_sum "Si O2"
_cell_formula_units_Z 32
_cell_length_a 13.416781
_cell_length_b 5.424663
_cell_length_c 17.890358
_cell_angle_alpha 90.000000
_cell_angle_beta 90.000000
_cell_angle_gamma 90.000000
_cell_volume 1302.087368
_symmetry_space_group_name_H-M "P B C M"
_symmetry_group_IT_number 57
_symmetry_cell_setting 'orthorhombic'
loop_
_space_group_symop_operation_xyz
x,y,z
-x,-y,1/2+z
x,1/2-y,-z
-x,1/2+y,1/2-z
-x,-y,-z
x,y,1/2-z
-x,1/2+y,z
x,1/2-y,1/2+z
loop_
_atom_site_type_symbol
_atom_site_label
_atom_site_fract_x
_atom_site_fract_y
_atom_site_fract_z
Si Si1 0.772272 0.205318 0.335067
Si Si2 0.791259 0.999054 0.532449
Si Si3 0.543453 0.110927 0.335422
Si Si4 0.950256 0.002391 0.417857
O O1 0.806001 0.248746 0.250000
O O2 0.782160 0.472362 0.378113
O O3 0.661847 0.098866 0.340160
O O4 0.841182 0.006802 0.378124
O O5 0.740540 0.250000 0.500000
O O6 0.912738 0.998646 0.507992
O O7 0.740962 0.750000 0.500000
O O8 0.505192 0.114740 0.250000
O O9 0.501863 0.363244 0.374176
O O10 0.003170 0.249303 0.388935
#
# Coordination Sequence:
#
# PCOD8234569 Si02
#       4
#     8   8   8   8
#     4  10  23  41  65  97 128 160 211 275 319 360
#     4  10  22  40  63  87 122 170 217 251 304 381
#     4   9  19  37  61  88 120 160 203 251 318 389
#     4  11  24  42  63  87 123 173 213 243 300 381
#
# _framework density 24.575923
#
# number of rings (size 3 to 8) (size 9 to 14) (size 15 to 20)
#    0.000    2.000    0.000    3.000    0.000   20.000 
#    0.000   17.500    0.000   19.500    0.000    0.000 
#    0.000    0.000    0.000    0.000    0.000    0.000 
#
# Total GULP energy -396489.918097 kJ/mol
# GULP energy per Si atom -12390.309941 kJ/mol
# Density = 2.451999 g / cm^3
# Si number density = 24.575923 Si / 1000 Ang^3
#
#
#
# Elastic Constant Matrix: (Units=GPa)
#
#
# Indices 1 2 3 4 5 6 
#
# 1 103.3198 55.7419 20.7687 0.0000 0.0000 0.0000
# 2 55.7419 231.6470 26.0929 0.0000 0.0000 0.0000
# 3 20.7687 26.0929 57.9168 0.0000 0.0000 0.0000
# 4 0.0000 0.0000 0.0000 9.4640 0.0000 0.0000
# 5 0.0000 0.0000 0.0000 0.0000 22.6511 0.0000
# 6 0.0000 0.0000 0.0000 0.0000 0.0000 30.7884
#
#
#
# Elastic Compliance Matrix: (Units=1/GPa)
#
#
# Indices 1 2 3 4 5 6 
#
# 1 0.011616 -0.002450 -0.003062 0.000000 0.000000 0.000000
# 2 -0.002450 0.005065 -0.001403 0.000000 0.000000 0.000000
# 3 -0.003062 -0.001403 0.018996 0.000000 0.000000 0.000000
# 4 0.000000 0.000000 0.000000 0.105664 0.000000 0.000000
# 5 0.000000 0.000000 0.000000 0.000000 0.044148 0.000000
# 6 0.000000 0.000000 0.000000 0.000000 0.000000 0.032480
#
#
# Mechanical properties :
#
#
# Convention : Reuss Voigt Hill
#
# Bulk Modulus (GPa) = 45.77305 66.45453 56.11379
# Shear Modulus (GPa) = 20.91350 31.93272 26.42311
#
# Velocity S-wave (km/s) = 2.92031 3.60856 3.28252
# Velocity P-wave (km/s) = 5.48056 6.66794 6.10320
#
# Compressibility (1/GPa) = 0.02184692
#
# Stress axis : x y z
#
# Youngs Moduli (GPa) = 86.08755 197.44941 52.64242
#
# Poissons Ratio (x) = 0.48382 0.16117
# Poissons Ratio (y) = 0.21095 0.07386
# Poissons Ratio (z) = 0.26356 0.27703
#
# Static dielectric constant tensor:
#      x y z
#    x 4.352220 0.000000 0.000000 
#    y 0.000000 4.788870 0.000000 
#    z 0.000000 0.000000 4.596770 
# 
# 
# High freq. dielectric constant tensor:
#      x y z
#    x 1.969600 0.000000 0.000000 
#    y 0.000000 1.999310 0.000000 
#    z 0.000000 0.000000 1.938610 
# 
# From -- ./inp_files/24787.got.cif
#   From: 2010.03.12/outbox.cif.g09.slc.cpg/sg57_13_cif.got.tgz:24787.got - 2010.04.16 15:48:40.
