data_PCOD8234749
_publ_section_title
;
Structure prediction by ZEFSAII (Michael W. Deem and Ramdas Pophale) SiO2 
 PCOD8234749
Probable space group: P B C M
;
_chemical_formula_sum "Si O2"
_cell_formula_units_Z 40
_cell_length_a 14.426683
_cell_length_b 8.629577
_cell_length_c 15.424969
_cell_angle_alpha 90.000000
_cell_angle_beta 90.000000
_cell_angle_gamma 90.000000
_cell_volume 1920.349591
_symmetry_space_group_name_H-M "P B C M"
_symmetry_group_IT_number 57
_symmetry_cell_setting 'orthorhombic'
loop_
_space_group_symop_operation_xyz
x,y,z
-x,-y,1/2+z
x,1/2-y,-z
-x,1/2+y,1/2-z
-x,-y,-z
x,y,1/2-z
-x,1/2+y,z
x,1/2-y,1/2+z
loop_
_atom_site_type_symbol
_atom_site_label
_atom_site_fract_x
_atom_site_fract_y
_atom_site_fract_z
Si Si1 0.414400 0.653266 0.847688
Si Si2 0.114264 0.705359 0.250000
Si Si3 0.786720 0.685278 0.593307
Si Si4 0.237601 0.679831 0.090157
Si Si5 0.085803 0.157007 0.750000
Si Si6 0.409544 0.312393 0.904556
O O1 0.383628 0.613051 0.750000
O O2 0.343228 0.772003 0.891857
O O3 0.417905 0.497628 0.904139
O O4 0.514274 0.735571 0.842611
O O5 0.172403 0.749815 0.164875
O O6 0.091605 0.525911 0.250000
O O7 0.021164 0.802579 0.250000
O O8 0.819020 0.750000 0.500000
O O9 0.766894 0.504114 0.585638
O O10 0.865621 0.724358 0.663596
O O11 0.693116 0.766787 0.626649
O O12 0.201695 0.750000 0.000000
O O13 0.428699 0.250000 0.000000
#
# Coordination Sequence:
#
# PCOD8234749 Si02
#       6
#     8   4   8   8   4   8
#     4  12  24  38  62  96 128 169 215 257 311 369
#     4  10  24  44  63  98 119 168 203 258 320 376
#     4  10  23  42  64  95 124 168 210 255 315 373
#     4  11  22  43  66  92 130 164 208 263 311 374
#     4  10  24  42  69  86 133 156 207 262 316 372
#     4  11  23  40  60  90 128 171 213 254 310 370
#
# _framework density 20.829540000000001
#
# number of rings (size 3 to 8) (size 9 to 14) (size 15 to 20)
#    0.000    1.200    1.000    5.400    2.800    4.000 
#    0.000    4.000    0.000    0.000    0.000    0.000 
#    0.000    0.000    0.000    0.000    0.000    0.000 
#
# Total GULP energy -496228.516249 kJ/mol
# GULP energy per Si atom -12405.712906 kJ/mol
# Density = 2.078213 g / cm^3
# Si number density = 20.829540 Si / 1000 Ang^3
#
#
#
# Elastic Constant Matrix: (Units=GPa)
#
#
# Indices 1 2 3 4 5 6 
#
# 1 82.4156 3.9198 31.5805 0.0000 0.0000 0.0000
# 2 3.9198 69.0375 21.5462 0.0000 0.0000 0.0000
# 3 31.5805 21.5462 137.9920 0.0000 0.0000 0.0000
# 4 0.0000 0.0000 0.0000 30.8935 0.0000 0.0000
# 5 0.0000 0.0000 0.0000 0.0000 14.1446 0.0000
# 6 0.0000 0.0000 0.0000 0.0000 0.0000 28.5027
#
#
#
# Elastic Compliance Matrix: (Units=1/GPa)
#
#
# Indices 1 2 3 4 5 6 
#
# 1 0.013303 0.000205 -0.003076 0.000000 0.000000 0.000000
# 2 0.000205 0.015230 -0.002425 0.000000 0.000000 0.000000
# 3 -0.003076 -0.002425 0.008329 0.000000 0.000000 0.000000
# 4 0.000000 0.000000 0.000000 0.032369 0.000000 0.000000
# 5 0.000000 0.000000 0.000000 0.000000 0.070699 0.000000
# 6 0.000000 0.000000 0.000000 0.000000 0.000000 0.035084
#
#
# Mechanical properties :
#
#
# Convention : Reuss Voigt Hill
#
# Bulk Modulus (GPa) = 38.06729 44.83757 41.45243
# Shear Modulus (GPa) = 25.72495 30.20139 27.96317
#
# Velocity S-wave (km/s) = 3.51810 3.81193 3.66796
# Velocity P-wave (km/s) = 5.90068 6.39899 6.15488
#
# Compressibility (1/GPa) = 0.02626927
#
# Stress axis : x y z
#
# Youngs Moduli (GPa) = 75.17259 65.65960 120.05551
#
# Poissons Ratio (x) = -0.01345 0.36934
# Poissons Ratio (y) = -0.01540 0.29112
# Poissons Ratio (z) = 0.23126 0.15922
#
# Static dielectric constant tensor:
#      x y z
#    x 3.838890 0.000000 0.000000 
#    y 0.000000 3.724360 0.000000 
#    z 0.000000 0.000000 3.939440 
# 
# 
# High freq. dielectric constant tensor:
#      x y z
#    x 1.811010 0.000000 0.000000 
#    y 0.000000 1.821470 0.000000 
#    z 0.000000 0.000000 1.829140 
# 
# From -- ./inp_files/18264.got.cif
#   From: 2010.03.12/outbox.cif.g09.slc.cpg/sg57_10_cif.got.tgz:18264.got - 2010.04.16 15:48:40.
