data_PCOD8234419
_publ_section_title
;
Structure prediction by ZEFSAII (Michael W. Deem and Ramdas Pophale) SiO2 
 PCOD8234419
Probable space group: P B C M
;
_chemical_formula_sum "Si O2"
_cell_formula_units_Z 40
_cell_length_a 14.064907
_cell_length_b 8.820858
_cell_length_c 15.511495
_cell_angle_alpha 90.000000
_cell_angle_beta 90.000000
_cell_angle_gamma 90.000000
_cell_volume 1924.426607
_symmetry_space_group_name_H-M "P B C M"
_symmetry_group_IT_number 57
_symmetry_cell_setting 'orthorhombic'
loop_
_space_group_symop_operation_xyz
x,y,z
-x,-y,1/2+z
x,1/2-y,-z
-x,1/2+y,1/2-z
-x,-y,-z
x,y,1/2-z
-x,1/2+y,z
x,1/2-y,1/2+z
loop_
_atom_site_type_symbol
_atom_site_label
_atom_site_fract_x
_atom_site_fract_y
_atom_site_fract_z
Si Si1 0.399284 0.872200 0.345874
Si Si2 0.086545 0.093066 0.250000
Si Si3 0.552625 0.444249 0.913964
Si Si4 0.758097 0.912643 0.406242
Si Si5 0.884502 0.947336 0.250000
Si Si6 0.777170 0.566208 0.401775
O O1 0.374472 0.813784 0.250000
O O2 0.435317 0.736389 0.407168
O O3 0.484015 0.995429 0.338094
O O4 0.306773 0.946717 0.388273
O O5 0.086963 0.273078 0.250000
O O6 0.137162 0.027703 0.163790
O O7 0.977790 0.047618 0.250000
O O8 0.655529 0.514992 0.906002
O O9 0.500000 0.500000 0.000000
O O10 0.823693 0.990708 0.334378
O O11 0.741199 0.736427 0.383345
O O12 0.809977 0.941133 0.498336
#
# Coordination Sequence:
#
# PCOD8234419 Si02
#       6
#     8   4   8   8   4   8
#     4  12  25  40  62  95 129 179 219 274 322 391
#     4  10  22  44  67  98 125 172 219 286 338 400
#     4  12  25  40  61  93 134 175 223 262 329 389
#     4  10  23  41  64  96 130 176 214 279 333 398
#     4  10  24  42  67  94 131 168 223 276 344 400
#     4  10  21  42  68  92 131 170 225 271 336 394
#
# _framework density 20.785413999999999
#
# number of rings (size 3 to 8) (size 9 to 14) (size 15 to 20)
#    0.000    1.200    3.000    2.400    5.600    2.400 
#    0.000    0.000    0.000    0.000    0.000    0.000 
#    0.000    0.000    0.000    0.000    0.000    0.000 
#
# Total GULP energy -495973.314329 kJ/mol
# GULP energy per Si atom -12399.332858 kJ/mol
# Density = 2.073811 g / cm^3
# Si number density = 20.785414 Si / 1000 Ang^3
#
#
#
# Elastic Constant Matrix: (Units=GPa)
#
#
# Indices 1 2 3 4 5 6 
#
# 1 155.5253 48.1738 71.2775 0.0000 0.0000 0.0000
# 2 48.1738 77.8749 39.7985 0.0000 0.0000 0.0000
# 3 71.2775 39.7985 158.4465 0.0000 0.0000 0.0000
# 4 0.0000 0.0000 0.0000 20.7449 0.0000 0.0000
# 5 0.0000 0.0000 0.0000 0.0000 34.1607 0.0000
# 6 0.0000 0.0000 0.0000 0.0000 0.0000 39.6165
#
#
#
# Elastic Compliance Matrix: (Units=1/GPa)
#
#
# Indices 1 2 3 4 5 6 
#
# 1 0.009094 -0.004055 -0.003072 0.000000 0.000000 0.000000
# 2 -0.004055 0.016541 -0.002330 0.000000 0.000000 0.000000
# 3 -0.003072 -0.002330 0.008279 0.000000 0.000000 0.000000
# 4 0.000000 0.000000 0.000000 0.048205 0.000000 0.000000
# 5 0.000000 0.000000 0.000000 0.000000 0.029273 0.000000
# 6 0.000000 0.000000 0.000000 0.000000 0.000000 0.025242
#
#
# Mechanical properties :
#
#
# Convention : Reuss Voigt Hill
#
# Bulk Modulus (GPa) = 66.67895 78.92739 72.80317
# Shear Modulus (GPa) = 31.14317 34.41090 32.77703
#
# Velocity S-wave (km/s) = 3.87501 4.07324 3.97536
# Velocity P-wave (km/s) = 7.22290 7.75736 7.49489
#
# Compressibility (1/GPa) = 0.01499724
#
# Stress axis : x y z
#
# Youngs Moduli (GPa) = 109.96192 60.45662 120.79191
#
# Poissons Ratio (x) = 0.24518 0.37111
# Poissons Ratio (y) = 0.44595 0.28149
# Poissons Ratio (z) = 0.33784 0.14088
#
# Static dielectric constant tensor:
#      x y z
#    x 3.745290 0.000000 0.000000 
#    y 0.000000 3.898650 0.000000 
#    z 0.000000 0.000000 3.991060 
# 
# 
# High freq. dielectric constant tensor:
#      x y z
#    x 1.800640 0.000000 0.000000 
#    y 0.000000 1.809880 0.000000 
#    z 0.000000 0.000000 1.834000 
# 
# From -- ./inp_files/18247.got.cif
#   From: 2010.03.12/outbox.cif.g09.slc.cpg/sg57_10_cif.got.tgz:18247.got - 2010.04.16 15:48:40.
