data_PCOD8234786
_publ_section_title
;
Structure prediction by ZEFSAII (Michael W. Deem and Ramdas Pophale) SiO2 
 PCOD8234786
Probable space group: P B C M
;
_chemical_formula_sum "Si O2"
_cell_formula_units_Z 40
_cell_length_a 19.024206
_cell_length_b 5.259519
_cell_length_c 16.519991
_cell_angle_alpha 90.000000
_cell_angle_beta 90.000000
_cell_angle_gamma 90.000000
_cell_volume 1652.960116
_symmetry_space_group_name_H-M "P B C M"
_symmetry_group_IT_number 57
_symmetry_cell_setting 'orthorhombic'
loop_
_space_group_symop_operation_xyz
x,y,z
-x,-y,1/2+z
x,1/2-y,-z
-x,1/2+y,1/2-z
-x,-y,-z
x,y,1/2-z
-x,1/2+y,z
x,1/2-y,1/2+z
loop_
_atom_site_type_symbol
_atom_site_label
_atom_site_fract_x
_atom_site_fract_y
_atom_site_fract_z
Si Si1 0.029810 0.494906 0.591593
Si Si2 0.238977 0.494157 0.051098
Si Si3 0.315129 0.343435 0.658995
Si Si4 0.829887 0.148319 0.842325
Si Si5 0.462990 0.956846 0.154221
O O1 0.114170 0.500233 0.601036
O O2 0.000000 0.500000 0.500000
O O3 0.999308 0.744778 0.636392
O O4 0.308399 0.400801 0.100009
O O5 0.179780 0.571183 0.117783
O O6 0.256439 0.750000 0.000000
O O7 0.211506 0.250000 0.000000
O O8 0.326943 0.240760 0.750000
O O9 0.244518 0.507558 0.652336
O O10 0.380984 0.512692 0.630775
O O11 0.856013 0.174369 0.750000
O O12 0.472802 0.951673 0.250000
O O13 0.492858 0.694437 0.117492
#
# Coordination Sequence:
#
# PCOD8234786 Si02
#       5
#     8   8   8   8   8
#     4  10  25  44  69  99 141 184 232 283 357 436
#     4  12  26  43  69 101 144 184 241 295 360 435
#     4  10  23  43  71 107 147 185 241 310 361 418
#     4  11  26  47  75 109 145 188 246 310 364 423
#     4   9  19  35  61  98 141 187 233 287 359 429
#
# _framework density 24.199012
#
# number of rings (size 3 to 8) (size 9 to 14) (size 15 to 20)
#    0.000    1.600    2.000    0.600    8.400    2.400 
#    0.000    0.000    0.000    3.600    0.000    0.000 
#    0.000    0.000    0.000    0.000    0.000    0.000 
#
# Total GULP energy -495578.855799 kJ/mol
# GULP energy per Si atom -12389.471395 kJ/mol
# Density = 2.414393 g / cm^3
# Si number density = 24.199012 Si / 1000 Ang^3
#
#
#
# Elastic Constant Matrix: (Units=GPa)
#
#
# Indices 1 2 3 4 5 6 
#
# 1 145.6244 33.9546 23.6134 0.0000 0.0000 0.0000
# 2 33.9546 154.3205 19.4001 0.0000 0.0000 0.0000
# 3 23.6134 19.4001 103.1397 0.0000 0.0000 0.0000
# 4 0.0000 0.0000 0.0000 14.5465 0.0000 0.0000
# 5 0.0000 0.0000 0.0000 0.0000 20.6789 0.0000
# 6 0.0000 0.0000 0.0000 0.0000 0.0000 41.8098
#
#
#
# Elastic Compliance Matrix: (Units=1/GPa)
#
#
# Indices 1 2 3 4 5 6 
#
# 1 0.007438 -0.001457 -0.001429 0.000000 0.000000 0.000000
# 2 -0.001457 0.006922 -0.000968 0.000000 0.000000 0.000000
# 3 -0.001429 -0.000968 0.010205 0.000000 0.000000 0.000000
# 4 0.000000 0.000000 0.000000 0.068745 0.000000 0.000000
# 5 0.000000 0.000000 0.000000 0.000000 0.048359 0.000000
# 6 0.000000 0.000000 0.000000 0.000000 0.000000 0.023918
#
#
# Mechanical properties :
#
#
# Convention : Reuss Voigt Hill
#
# Bulk Modulus (GPa) = 59.32322 61.89118 60.60720
# Shear Modulus (GPa) = 27.94626 37.14814 32.54720
#
# Velocity S-wave (km/s) = 3.40200 3.92230 3.67138
# Velocity P-wave (km/s) = 6.32451 6.79294 6.56290
#
# Compressibility (1/GPa) = 0.01685680
#
# Stress axis : x y z
#
# Youngs Moduli (GPa) = 134.43728 144.45954 97.99212
#
# Poissons Ratio (x) = 0.21048 0.14002
# Poissons Ratio (y) = 0.19588 0.09490
# Poissons Ratio (z) = 0.19210 0.13991
#
# Static dielectric constant tensor:
#      x y z
#    x 4.252180 0.000000 0.000000 
#    y 0.000000 5.614540 0.000000 
#    z 0.000000 0.000000 4.584390 
# 
# 
# High freq. dielectric constant tensor:
#      x y z
#    x 1.951370 0.000000 0.000000 
#    y 0.000000 1.975450 0.000000 
#    z 0.000000 0.000000 1.936600 
# 
# From -- ./inp_files/22776.got.cif
#   From: 2010.03.12/outbox.cif.g09.slc.cpg/sg57_12_cif.got.tgz:22776.got - 2010.04.16 15:48:40.
