data_PCOD8234490
_publ_section_title
;
Structure prediction by ZEFSAII (Michael W. Deem and Ramdas Pophale) SiO2 
 PCOD8234490
Probable space group: P B C M
;
_chemical_formula_sum "Si O2"
_cell_formula_units_Z 40
_cell_length_a 9.280251
_cell_length_b 11.832036
_cell_length_c 17.141372
_cell_angle_alpha 90.000000
_cell_angle_beta 90.000000
_cell_angle_gamma 90.000000
_cell_volume 1882.195735
_symmetry_space_group_name_H-M "P B C M"
_symmetry_group_IT_number 57
_symmetry_cell_setting 'orthorhombic'
loop_
_space_group_symop_operation_xyz
x,y,z
-x,-y,1/2+z
x,1/2-y,-z
-x,1/2+y,1/2-z
-x,-y,-z
x,y,1/2-z
-x,1/2+y,z
x,1/2-y,1/2+z
loop_
_atom_site_type_symbol
_atom_site_label
_atom_site_fract_x
_atom_site_fract_y
_atom_site_fract_z
Si Si1 0.209206 0.823681 0.435402
Si Si2 0.421429 0.978108 0.160927
Si Si3 0.937172 0.107700 0.418679
Si Si4 0.262692 0.072240 0.842133
Si Si5 0.784589 0.827811 0.839511
O O1 0.300349 0.750000 0.500000
O O2 0.312387 0.896788 0.383488
O O3 0.091705 0.897732 0.486898
O O4 0.122821 0.729028 0.384638
O O5 0.422037 0.935899 0.250000
O O6 0.581978 0.969979 0.125989
O O7 0.367832 0.106865 0.153662
O O8 0.105011 0.105882 0.395791
O O9 0.862321 0.001816 0.378634
O O10 0.254882 0.059305 0.750000
O O11 0.240748 0.201039 0.868746
O O12 0.840128 0.831385 0.750000
#
# Coordination Sequence:
#
# PCOD8234490 Si02
#       5
#     8   8   8   8   8
#     4   8  22  41  60  88 121 159 215 249 301 369
#     4  10  22  40  63  88 126 165 204 260 309 364
#     4   9  21  40  60  85 126 162 201 261 300 361
#     4  10  22  39  63  95 126 163 208 253 310 369
#     4  10  22  38  61  96 124 159 212 252 308 372
#
# _framework density 21.251774000000001
#
# number of rings (size 3 to 8) (size 9 to 14) (size 15 to 20)
#    1.200    1.200    0.000    0.600    5.600    3.200 
#    3.600    0.000    0.000    0.000    0.000    0.000 
#    0.000    0.000    0.000    0.000    0.000    0.000 
#
# Total GULP energy -495644.866917 kJ/mol
# GULP energy per Si atom -12391.121673 kJ/mol
# Density = 2.120340 g / cm^3
# Si number density = 21.251774 Si / 1000 Ang^3
#
#
#
# Elastic Constant Matrix: (Units=GPa)
#
#
# Indices 1 2 3 4 5 6 
#
# 1 125.9932 51.1067 35.3913 0.0000 0.0000 0.0000
# 2 51.1067 90.5446 32.5425 0.0000 0.0000 0.0000
# 3 35.3913 32.5425 47.3305 0.0000 0.0000 0.0000
# 4 0.0000 0.0000 0.0000 24.0614 0.0000 0.0000
# 5 0.0000 0.0000 0.0000 0.0000 -0.1169 0.0000
# 6 0.0000 0.0000 0.0000 0.0000 0.0000 29.4676
#
#
#
# Elastic Compliance Matrix: (Units=1/GPa)
#
#
# Indices 1 2 3 4 5 6 
#
# 1 0.011234 -0.004412 -0.005367 0.000000 0.000000 0.000000
# 2 -0.004412 0.016402 -0.007978 0.000000 0.000000 0.000000
# 3 -0.005367 -0.007978 0.030627 0.000000 0.000000 0.000000
# 4 0.000000 0.000000 0.000000 0.041560 0.000000 0.000000
# 5 0.000000 0.000000 0.000000 0.000000 -8.553228 0.000000
# 6 0.000000 0.000000 0.000000 0.000000 0.000000 0.033936
#
#
# Mechanical properties :
#
#
# Convention : Reuss Voigt Hill
#
# Bulk Modulus (GPa) = 43.95881 55.77212 49.86547
# Shear Modulus (GPa) = -0.59692 20.33760 9.87034
#
# Velocity S-wave (km/s) = -0.53055 3.09687 2.15744
# Velocity P-wave (km/s) = 4.51158 6.25204 5.45171
#
# Compressibility (1/GPa) = 0.02274857
#
# Stress axis : x y z
#
# Youngs Moduli (GPa) = 89.01453 60.96787 32.65146
#
# Poissons Ratio (x) = 0.26900 0.17523
# Poissons Ratio (y) = 0.39274 0.26050
# Poissons Ratio (z) = 0.47772 0.48642
#
# Static dielectric constant tensor:
#      x y z
#    x 3.705020 0.000000 0.000000 
#    y 0.000000 3.962270 0.000000 
#    z 0.000000 0.000000 3.647730 
# 
# 
# High freq. dielectric constant tensor:
#      x y z
#    x 1.821490 0.000000 0.000000 
#    y 0.000000 1.849400 0.000000 
#    z 0.000000 0.000000 1.813480 
# 
# From -- ./inp_files/20542.got.cif
#   From: 2010.03.12/outbox.cif.g09.slc.cpg/sg57_11_cif.got.tgz:20542.got - 2010.04.16 15:48:40.
