data_PCOD8234051
_publ_section_title
;
Structure prediction by ZEFSAII (Michael W. Deem and Ramdas Pophale) SiO2 
 PCOD8234051
Probable space group: P B C M
;
_chemical_formula_sum "Si O2"
_cell_formula_units_Z 28
_cell_length_a 8.636712
_cell_length_b 16.361351
_cell_length_c 10.219333
_cell_angle_alpha 90.000000
_cell_angle_beta 90.000000
_cell_angle_gamma 90.000000
_cell_volume 1444.076333
_symmetry_space_group_name_H-M "P B C M"
_symmetry_group_IT_number 57
_symmetry_cell_setting 'orthorhombic'
loop_
_space_group_symop_operation_xyz
x,y,z
-x,-y,1/2+z
x,1/2-y,-z
-x,1/2+y,1/2-z
-x,-y,-z
x,y,1/2-z
-x,1/2+y,z
x,1/2-y,1/2+z
loop_
_atom_site_type_symbol
_atom_site_label
_atom_site_fract_x
_atom_site_fract_y
_atom_site_fract_z
Si Si1 0.926591 0.188309 0.895618
Si Si2 0.429707 0.111700 0.102450
Si Si3 0.776141 0.750000 0.000000
Si Si4 0.322123 0.564248 0.601892
O O1 0.887736 0.219974 0.750000
O O2 0.852859 0.098295 0.917018
O O3 0.847830 0.250000 0.000000
O O4 0.113343 0.189091 0.914917
O O5 0.497155 0.107917 0.250000
O O6 0.328650 0.193451 0.091591
O O7 0.321833 0.032502 0.074035
O O8 0.567416 0.112866 0.997742
O O9 0.380551 0.582105 0.750000
#
# Coordination Sequence:
#
# PCOD8234051 Si02
#       4
#     8   8   4   8
#     4   9  20  37  55  80 111 146 183 226 276 331
#     4  10  21  38  59  84 112 147 188 230 276 331
#     4  10  22  34  56  82 114 146 182 230 274 330
#     4   9  20  39  60  82 111 147 188 230 277 331
#
# _framework density 19.389558000000001
#
# number of rings (size 3 to 8) (size 9 to 14) (size 15 to 20)
#    0.857    1.714    0.000    0.857    2.000    4.571 
#    0.000    0.000    0.000    0.000    0.000    0.000 
#    0.000    0.000    0.000    0.000    0.000    0.000 
#
# Total GULP energy -346897.752136 kJ/mol
# GULP energy per Si atom -12389.205433 kJ/mol
# Density = 1.934543 g / cm^3
# Si number density = 19.389558 Si / 1000 Ang^3
#
#
#
# Elastic Constant Matrix: (Units=GPa)
#
#
# Indices 1 2 3 4 5 6 
#
# 1 80.2019 46.5101 36.0688 0.0000 0.0000 0.0000
# 2 46.5101 71.9267 34.7571 0.0000 0.0000 0.0000
# 3 36.0688 34.7571 112.2832 0.0000 0.0000 0.0000
# 4 0.0000 0.0000 0.0000 28.1212 0.0000 0.0000
# 5 0.0000 0.0000 0.0000 0.0000 23.1162 0.0000
# 6 0.0000 0.0000 0.0000 0.0000 0.0000 39.5072
#
#
#
# Elastic Compliance Matrix: (Units=1/GPa)
#
#
# Indices 1 2 3 4 5 6 
#
# 1 0.020750 -0.011990 -0.002954 0.000000 0.000000 0.000000
# 2 -0.011990 0.023277 -0.003354 0.000000 0.000000 0.000000
# 3 -0.002954 -0.003354 0.010893 0.000000 0.000000 0.000000
# 4 0.000000 0.000000 0.000000 0.035560 0.000000 0.000000
# 5 0.000000 0.000000 0.000000 0.000000 0.043260 0.000000
# 6 0.000000 0.000000 0.000000 0.000000 0.000000 0.025312
#
#
# Mechanical properties :
#
#
# Convention : Reuss Voigt Hill
#
# Bulk Modulus (GPa) = 54.57242 55.45374 55.01308
# Shear Modulus (GPa) = 24.78231 27.95399 26.36815
#
# Velocity S-wave (km/s) = 3.57897 3.80110 3.69170
# Velocity P-wave (km/s) = 6.72942 6.92288 6.82684
#
# Compressibility (1/GPa) = 0.01832428
#
# Stress axis : x y z
#
# Youngs Moduli (GPa) = 48.19174 42.96079 91.80113
#
# Poissons Ratio (x) = 0.51512 0.27119
# Poissons Ratio (y) = 0.57784 0.30787
# Poissons Ratio (z) = 0.14236 0.14408
#
# Static dielectric constant tensor:
#      x y z
#    x 3.272770 0.000000 0.000000 
#    y 0.000000 3.426160 0.000000 
#    z 0.000000 0.000000 3.606130 
# 
# 
# High freq. dielectric constant tensor:
#      x y z
#    x 1.727820 0.000000 0.000000 
#    y 0.000000 1.744420 0.000000 
#    z 0.000000 0.000000 1.765720 
# 
# From -- ./inp_files/11241.got.cif
#   From: 2010.03.12/outbox.cif.g09.slc.cpg/sg57_6_cif.got.tgz:11241.got - 2010.04.16 15:48:40.
