data_PCOD8234641
_publ_section_title
;
Structure prediction by ZEFSAII (Michael W. Deem and Ramdas Pophale) SiO2 
 PCOD8234641
Probable space group: P B C M
;
_chemical_formula_sum "Si O2"
_cell_formula_units_Z 32
_cell_length_a 9.443909
_cell_length_b 13.978395
_cell_length_c 10.248928
_cell_angle_alpha 90.000000
_cell_angle_beta 90.000000
_cell_angle_gamma 90.000000
_cell_volume 1352.968061
_symmetry_space_group_name_H-M "P B C M"
_symmetry_group_IT_number 57
_symmetry_cell_setting 'orthorhombic'
loop_
_space_group_symop_operation_xyz
x,y,z
-x,-y,1/2+z
x,1/2-y,-z
-x,1/2+y,1/2-z
-x,-y,-z
x,y,1/2-z
-x,1/2+y,z
x,1/2-y,1/2+z
loop_
_atom_site_type_symbol
_atom_site_label
_atom_site_fract_x
_atom_site_fract_y
_atom_site_fract_z
Si Si1 0.534994 0.603406 0.250000
Si Si2 0.552129 0.125271 0.750000
Si Si3 0.918966 0.567033 0.900759
Si Si4 0.394721 0.089096 0.518332
Si Si5 0.243342 0.787253 0.750000
Si Si6 0.066320 0.750000 0.500000
O O1 0.556272 0.488963 0.250000
O O2 0.615720 0.642809 0.378484
O O3 0.371350 0.636542 0.250000
O O4 0.465560 0.161006 0.622871
O O5 0.704344 0.176275 0.750000
O O6 0.950607 0.539084 0.750000
O O7 0.754082 0.552905 0.928694
O O8 0.000000 0.500000 0.000000
O O9 0.965858 0.675199 0.927032
O O10 0.500000 0.000000 0.500000
O O11 0.157274 0.802014 0.614812
#
# Coordination Sequence:
#
# PCOD8234641 Si02
#       6
#     4   4   8   8   4   4
#     4  10  24  39  72 110 145 193 259 321 388 457
#     4  10  22  41  70 102 151 189 257 319 386 455
#     4  12  30  50  80 113 160 210 263 325 397 481
#     4  10  23  43  73 103 147 191 252 314 386 447
#     4  12  26  46  76 114 156 210 262 330 398 478
#     4  12  30  48  78 112 166 212 268 312 410 484
#
# _framework density 23.651706000000001
#
# number of rings (size 3 to 8) (size 9 to 14) (size 15 to 20)
#    0.000    1.000    2.500    1.500   17.500    2.000 
#    0.000    0.000    0.000    0.000    0.000    0.000 
#    0.000    0.000    0.000    0.000    0.000    0.000 
#
# Total GULP energy -396571.964848 kJ/mol
# GULP energy per Si atom -12392.873902 kJ/mol
# Density = 2.359787 g / cm^3
# Si number density = 23.651706 Si / 1000 Ang^3
#
#
#
# Elastic Constant Matrix: (Units=GPa)
#
#
# Indices 1 2 3 4 5 6 
#
# 1 113.1953 23.3575 43.1838 0.0000 0.0000 0.0000
# 2 23.3575 69.2722 9.6463 0.0000 0.0000 0.0000
# 3 43.1838 9.6463 254.3152 0.0000 0.0000 0.0000
# 4 0.0000 0.0000 0.0000 25.4244 0.0000 0.0000
# 5 0.0000 0.0000 0.0000 0.0000 47.4675 0.0000
# 6 0.0000 0.0000 0.0000 0.0000 0.0000 42.2129
#
#
#
# Elastic Compliance Matrix: (Units=1/GPa)
#
#
# Indices 1 2 3 4 5 6 
#
# 1 0.010099 -0.003183 -0.001594 0.000000 0.000000 0.000000
# 2 -0.003183 0.015516 -0.000048 0.000000 0.000000 0.000000
# 3 -0.001594 -0.000048 0.004205 0.000000 0.000000 0.000000
# 4 0.000000 0.000000 0.000000 0.039332 0.000000 0.000000
# 5 0.000000 0.000000 0.000000 0.000000 0.021067 0.000000
# 6 0.000000 0.000000 0.000000 0.000000 0.000000 0.023689
#
#
# Mechanical properties :
#
#
# Convention : Reuss Voigt Hill
#
# Bulk Modulus (GPa) = 49.58138 65.46199 57.52168
# Shear Modulus (GPa) = 38.37813 47.06063 42.71938
#
# Velocity S-wave (km/s) = 4.03257 4.46548 4.25454
# Velocity P-wave (km/s) = 6.53382 7.37055 6.96476
#
# Compressibility (1/GPa) = 0.02016886
#
# Stress axis : x y z
#
# Youngs Moduli (GPa) = 99.01646 64.45022 237.83233
#
# Poissons Ratio (x) = 0.20517 0.37914
# Poissons Ratio (y) = 0.31520 0.01141
# Poissons Ratio (z) = 0.15785 0.00309
#
# Static dielectric constant tensor:
#      x y z
#    x 4.262930 0.000000 0.000000 
#    y 0.000000 3.973030 0.000000 
#    z 0.000000 0.000000 11.104380 
# 
# 
# High freq. dielectric constant tensor:
#      x y z
#    x 1.925690 0.000000 0.000000 
#    y 0.000000 1.921100 0.000000 
#    z 0.000000 0.000000 1.982350 
# 
# From -- ./inp_files/11371.got.cif
#   From: 2010.03.12/outbox.cif.g09.slc.cpg/sg57_6_cif.got.tgz:11371.got - 2010.04.16 15:48:40.
