data_PCOD8234954
_publ_section_title
;
Structure prediction by ZEFSAII (Michael W. Deem and Ramdas Pophale) SiO2 
 PCOD8234954
Probable space group: P B C M
;
_chemical_formula_sum "Si O2"
_cell_formula_units_Z 48
_cell_length_a 16.815154
_cell_length_b 15.867040
_cell_length_c 8.638422
_cell_angle_alpha 90.000000
_cell_angle_beta 90.000000
_cell_angle_gamma 90.000000
_cell_volume 2304.789050
_symmetry_space_group_name_H-M "P B C M"
_symmetry_group_IT_number 57
_symmetry_cell_setting 'orthorhombic'
loop_
_space_group_symop_operation_xyz
x,y,z
-x,-y,1/2+z
x,1/2-y,-z
-x,1/2+y,1/2-z
-x,-y,-z
x,y,1/2-z
-x,1/2+y,z
x,1/2-y,1/2+z
loop_
_atom_site_type_symbol
_atom_site_label
_atom_site_fract_x
_atom_site_fract_y
_atom_site_fract_z
Si Si1 0.661620 0.103142 0.068958
Si Si2 0.188386 0.161534 0.433122
Si Si3 0.492839 0.339286 0.934341
Si Si4 0.340927 0.415118 0.066909
Si Si5 0.912515 0.500462 0.433251
Si Si6 0.170589 0.836925 0.567603
O O1 0.646843 0.101397 0.250000
O O2 0.579699 0.137370 0.994955
O O3 0.735720 0.162057 0.024337
O O4 0.683570 0.009037 0.014950
O O5 0.155275 0.250000 0.500000
O O6 0.187802 0.166742 0.250000
O O7 0.278406 0.148998 0.491678
O O8 0.133345 0.084289 0.492855
O O9 0.491214 0.339147 0.750000
O O10 0.466572 0.250000 0.000000
O O11 0.429083 0.404673 0.999549
O O12 0.340931 0.401435 0.250000
O O13 0.915792 0.500092 0.250000
O O14 0.870150 0.416386 0.490041
O O15 0.000000 0.500000 0.500000
O O16 0.134781 0.750000 0.500000
O O17 0.155519 0.841198 0.750000
#
# Coordination Sequence:
#
# PCOD8234954 Si02
#       6
#     8   8   8   8   8   8
#     4   9  20  37  60  87 120 162 210 259 313 368
#     4  11  24  42  66  96 127 165 211 258 313 376
#     4  11  22  37  54  82 120 161 210 261 310 367
#     4  11  21  38  61  87 120 163 209 259 315 370
#     4  11  25  45  69  98 130 166 208 259 318 382
#     4  11  22  41  67  97 131 170 213 262 316 379
#
# _framework density 20.826203
#
# number of rings (size 3 to 8) (size 9 to 14) (size 15 to 20)
#    0.000    1.333    1.667    4.000    0.000    2.667 
#    0.000    6.667    0.000    0.000    0.000    0.000 
#    0.000    0.000    0.000    0.000    0.000    0.000 
#
# Total GULP energy -595292.633743 kJ/mol
# GULP energy per Si atom -12401.929870 kJ/mol
# Density = 2.077880 g / cm^3
# Si number density = 20.826203 Si / 1000 Ang^3
#
#
#
# Elastic Constant Matrix: (Units=GPa)
#
#
# Indices 1 2 3 4 5 6 
#
# 1 102.0971 44.1226 30.7874 0.0000 0.0000 0.0000
# 2 44.1226 148.8222 41.6343 0.0000 0.0000 0.0000
# 3 30.7874 41.6343 75.9861 0.0000 0.0000 0.0000
# 4 0.0000 0.0000 0.0000 30.8401 0.0000 0.0000
# 5 0.0000 0.0000 0.0000 0.0000 32.2296 0.0000
# 6 0.0000 0.0000 0.0000 0.0000 0.0000 19.5779
#
#
#
# Elastic Compliance Matrix: (Units=1/GPa)
#
#
# Indices 1 2 3 4 5 6 
#
# 1 0.011943 -0.002583 -0.003424 0.000000 0.000000 0.000000
# 2 -0.002583 0.008495 -0.003608 0.000000 0.000000 0.000000
# 3 -0.003424 -0.003608 0.016524 0.000000 0.000000 0.000000
# 4 0.000000 0.000000 0.000000 0.032425 0.000000 0.000000
# 5 0.000000 0.000000 0.000000 0.000000 0.031027 0.000000
# 6 0.000000 0.000000 0.000000 0.000000 0.000000 0.051078
#
#
# Mechanical properties :
#
#
# Convention : Reuss Voigt Hill
#
# Bulk Modulus (GPa) = 56.39221 62.22156 59.30689
# Shear Modulus (GPa) = 28.30723 30.55357 29.43040
#
# Velocity S-wave (km/s) = 3.69075 3.83439 3.76326
# Velocity P-wave (km/s) = 6.73041 7.03881 6.88634
#
# Compressibility (1/GPa) = 0.01773295
#
# Stress axis : x y z
#
# Youngs Moduli (GPa) = 83.72844 117.72240 60.51700
#
# Poissons Ratio (x) = 0.30409 0.20720
# Poissons Ratio (y) = 0.21628 0.21833
# Poissons Ratio (z) = 0.28667 0.42471
#
# Static dielectric constant tensor:
#      x y z
#    x 3.853830 0.000000 0.000000 
#    y 0.000000 3.953880 0.000000 
#    z 0.000000 0.000000 3.639310 
# 
# 
# High freq. dielectric constant tensor:
#      x y z
#    x 1.817850 0.000000 0.000000 
#    y 0.000000 1.831120 0.000000 
#    z 0.000000 0.000000 1.808870 
# 
# From -- ./inp_files/6558.got.cif
#   From: 2010.03.12/outbox.cif.g09.slc.cpg/sg57_4_cif.got.tgz:6558.got - 2010.04.16 15:48:40.
