data_PCOD8234793
_publ_section_title
;
Structure prediction by ZEFSAII (Michael W. Deem and Ramdas Pophale) SiO2 
 PCOD8234793
Probable space group: P B C M
;
_chemical_formula_sum "Si O2"
_cell_formula_units_Z 40
_cell_length_a 13.341097
_cell_length_b 8.950323
_cell_length_c 14.350342
_cell_angle_alpha 90.000000
_cell_angle_beta 90.000000
_cell_angle_gamma 90.000000
_cell_volume 1713.533114
_symmetry_space_group_name_H-M "P B C M"
_symmetry_group_IT_number 57
_symmetry_cell_setting 'orthorhombic'
loop_
_space_group_symop_operation_xyz
x,y,z
-x,-y,1/2+z
x,1/2-y,-z
-x,1/2+y,1/2-z
-x,-y,-z
x,y,1/2-z
-x,1/2+y,z
x,1/2-y,1/2+z
loop_
_atom_site_type_symbol
_atom_site_label
_atom_site_fract_x
_atom_site_fract_y
_atom_site_fract_z
Si Si1 0.232510 0.250000 0.000000
Si Si2 0.111392 0.720296 0.648992
Si Si3 0.599464 0.421097 0.857077
Si Si4 0.389989 0.272857 0.644848
Si Si5 0.068530 0.043360 0.584973
Si Si6 0.260433 0.750000 0.000000
O O1 0.302721 0.331242 0.923125
O O2 0.167860 0.127290 0.947204
O O3 0.158006 0.682449 0.750000
O O4 0.185103 0.655575 0.568122
O O5 0.999540 0.653379 0.646642
O O6 0.103652 0.899575 0.641746
O O7 0.629402 0.377655 0.750000
O O8 0.593650 0.597273 0.869010
O O9 0.491483 0.356046 0.882641
O O10 0.676660 0.356993 0.932829
O O11 0.358236 0.312017 0.750000
O O12 0.000000 0.000000 0.500000
#
# Coordination Sequence:
#
# PCOD8234793 Si02
#       6
#     4   8   8   8   8   4
#     4  12  24  40  76  98 136 180 230 286 346 402
#     4  12  26  44  69  98 136 184 230 288 349 412
#     4  10  23  44  68  97 140 183 223 282 344 408
#     4  10  24  45  69 102 138 180 232 280 345 418
#     4  12  23  48  67  97 140 178 233 288 349 414
#     4  12  22  38  68  96 134 168 236 276 338 410
#
# _framework density 23.343579999999999
#
# number of rings (size 3 to 8) (size 9 to 14) (size 15 to 20)
#    0.000    0.800    4.000    3.000    0.000    8.000 
#    0.000    0.000    0.000    0.000    0.000    0.000 
#    0.000    0.000    0.000    0.000    0.000    0.000 
#
# Total GULP energy -495974.514212 kJ/mol
# GULP energy per Si atom -12399.362855 kJ/mol
# Density = 2.329045 g / cm^3
# Si number density = 23.343580 Si / 1000 Ang^3
#
#
#
# Elastic Constant Matrix: (Units=GPa)
#
#
# Indices 1 2 3 4 5 6 
#
# 1 126.3479 9.8982 66.3554 0.0000 0.0000 0.0000
# 2 9.8982 49.0248 5.0347 0.0000 0.0000 0.0000
# 3 66.3554 5.0347 158.8612 0.0000 0.0000 0.0000
# 4 0.0000 0.0000 0.0000 19.7003 0.0000 0.0000
# 5 0.0000 0.0000 0.0000 0.0000 20.1462 0.0000
# 6 0.0000 0.0000 0.0000 0.0000 0.0000 20.9907
#
#
#
# Elastic Compliance Matrix: (Units=1/GPa)
#
#
# Indices 1 2 3 4 5 6 
#
# 1 0.010268 -0.001638 -0.004237 0.000000 0.000000 0.000000
# 2 -0.001638 0.020726 0.000027 0.000000 0.000000 0.000000
# 3 -0.004237 0.000027 0.008064 0.000000 0.000000 0.000000
# 4 0.000000 0.000000 0.000000 0.050761 0.000000 0.000000
# 5 0.000000 0.000000 0.000000 0.000000 0.049637 0.000000
# 6 0.000000 0.000000 0.000000 0.000000 0.000000 0.047640
#
#
# Mechanical properties :
#
#
# Convention : Reuss Voigt Hill
#
# Bulk Modulus (GPa) = 36.54679 55.20119 45.87399
# Shear Modulus (GPa) = 24.04865 29.03048 26.53956
#
# Velocity S-wave (km/s) = 3.21316 3.53032 3.37547
# Velocity P-wave (km/s) = 5.42733 6.34950 5.90644
#
# Compressibility (1/GPa) = 0.02736219
#
# Stress axis : x y z
#
# Youngs Moduli (GPa) = 97.38807 48.24915 124.01210
#
# Poissons Ratio (x) = 0.07903 0.52545
# Poissons Ratio (y) = 0.15952 -0.00339
# Poissons Ratio (z) = 0.41264 -0.00132
#
# Static dielectric constant tensor:
#      x y z
#    x 5.143080 0.000000 0.000000 
#    y 0.000000 4.149460 0.000000 
#    z 0.000000 0.000000 4.457080 
# 
# 
# High freq. dielectric constant tensor:
#      x y z
#    x 1.935750 0.000000 0.000000 
#    y 0.000000 1.912500 0.000000 
#    z 0.000000 0.000000 1.938650 
# 
# From -- ./inp_files/18251.got.cif
#   From: 2010.03.12/outbox.cif.g09.slc.cpg/sg57_10_cif.got.tgz:18251.got - 2010.04.16 15:48:40.
