data_PCOD8234552
_publ_section_title
;
Structure prediction by ZEFSAII (Michael W. Deem and Ramdas Pophale) SiO2 
 PCOD8234552
Probable space group: P B C M
;
_chemical_formula_sum "Si O2"
_cell_formula_units_Z 64
_cell_length_a 8.810187
_cell_length_b 20.273411
_cell_length_c 17.430717
_cell_angle_alpha 90.000000
_cell_angle_beta 90.000000
_cell_angle_gamma 90.000000
_cell_volume 3113.344673
_symmetry_space_group_name_H-M "P B C M"
_symmetry_group_IT_number 57
_symmetry_cell_setting 'orthorhombic'
loop_
_space_group_symop_operation_xyz
x,y,z
-x,-y,1/2+z
x,1/2-y,-z
-x,1/2+y,1/2-z
-x,-y,-z
x,y,1/2-z
-x,1/2+y,z
x,1/2-y,1/2+z
loop_
_atom_site_type_symbol
_atom_site_label
_atom_site_fract_x
_atom_site_fract_y
_atom_site_fract_z
Si Si1 0.665949 0.497089 0.402460
Si Si2 0.161484 0.130929 0.399707
Si Si3 0.323967 0.244224 0.840657
Si Si4 0.334293 0.752890 0.341076
Si Si5 0.844832 0.120243 0.660966
Si Si6 0.831436 0.376589 0.660558
Si Si7 0.325727 0.506023 0.420090
Si Si8 0.154459 0.127302 0.578366
O O1 0.771025 0.559099 0.384055
O O2 0.722363 0.437508 0.349683
O O3 0.491613 0.513903 0.382276
O O4 0.674610 0.475096 0.490726
O O5 0.278869 0.182694 0.365233
O O6 0.134772 0.143555 0.489281
O O7 0.005939 0.139618 0.354242
O O8 0.311295 0.235317 0.750000
O O9 0.495456 0.234190 0.870971
O O10 0.212495 0.192197 0.879454
O O11 0.334055 0.751373 0.250000
O O12 0.227206 0.811805 0.370287
O O13 0.270113 0.683497 0.372802
O O14 0.889279 0.125660 0.750000
O O15 0.993438 0.104539 0.611720
O O16 0.802194 0.385424 0.750000
O O17 0.790006 0.444588 0.619884
O O18 0.273276 0.431162 0.407569
#
# Coordination Sequence:
#
# PCOD8234552 Si02
#       8
#     8   8   8   8   8   8   8   8
#     4  10  22  40  60  84 117 155 195 242 294 348
#     4  11  23  39  59  85 118 154 192 235 289 349
#     4  11  22  39  62  86 114 147 190 241 288 338
#     4   9  21  39  58  84 116 149 186 235 290 342
#     4  11  22  38  61  87 117 154 196 240 289 345
#     4  11  22  38  61  87 117 154 196 240 289 345
#     4  10  22  40  60  84 117 155 195 242 294 348
#     4  11  23  39  59  85 118 154 192 235 289 349
#
# _framework density 20.556668999999999
#
# number of rings (size 3 to 8) (size 9 to 14) (size 15 to 20)
#    0.000    1.500    0.000    4.875    0.000    6.500 
#    0.000    5.625    0.000    0.000    0.000    0.000 
#    0.000    0.000    0.000    0.000    0.000    0.000 
#
# Total GULP energy -794040.069465 kJ/mol
# GULP energy per Si atom -12406.876085 kJ/mol
# Density = 2.050988 g / cm^3
# Si number density = 20.556669 Si / 1000 Ang^3
#
#
#
# Elastic Constant Matrix: (Units=GPa)
#
#
# Indices 1 2 3 4 5 6 
#
# 1 94.4862 9.6751 8.1957 0.0000 0.0000 0.0000
# 2 9.6751 86.1465 19.1127 0.0000 0.0000 0.0000
# 3 8.1957 19.1127 31.1677 0.0000 0.0000 0.0000
# 4 0.0000 0.0000 0.0000 33.3051 0.0000 0.0000
# 5 0.0000 0.0000 0.0000 0.0000 30.6056 0.0000
# 6 0.0000 0.0000 0.0000 0.0000 0.0000 40.0163
#
#
#
# Elastic Compliance Matrix: (Units=1/GPa)
#
#
# Indices 1 2 3 4 5 6 
#
# 1 0.010865 -0.000679 -0.002441 0.000000 0.000000 0.000000
# 2 -0.000679 0.013479 -0.008087 0.000000 0.000000 0.000000
# 3 -0.002441 -0.008087 0.037685 0.000000 0.000000 0.000000
# 4 0.000000 0.000000 0.000000 0.030025 0.000000 0.000000
# 5 0.000000 0.000000 0.000000 0.000000 0.032674 0.000000
# 6 0.000000 0.000000 0.000000 0.000000 0.000000 0.024990
#
#
# Mechanical properties :
#
#
# Convention : Reuss Voigt Hill
#
# Bulk Modulus (GPa) = 25.24234 31.75193 28.49713
# Shear Modulus (GPa) = 26.97810 32.43986 29.70898
#
# Velocity S-wave (km/s) = 3.62660 3.97680 3.80573
# Velocity P-wave (km/s) = 5.46282 6.04700 5.76232
#
# Compressibility (1/GPa) = 0.03961599
#
# Stress axis : x y z
#
# Youngs Moduli (GPa) = 92.04068 74.19207 26.53557
#
# Poissons Ratio (x) = 0.05035 0.06477
# Poissons Ratio (y) = 0.06247 0.21459
# Poissons Ratio (z) = 0.22465 0.59998
#
# Static dielectric constant tensor:
#      x y z
#    x 3.829350 0.000000 0.000000 
#    y 0.000000 3.737390 0.000000 
#    z 0.000000 0.000000 3.596130 
# 
# 
# High freq. dielectric constant tensor:
#      x y z
#    x 1.819170 0.000000 0.000000 
#    y 0.000000 1.816250 0.000000 
#    z 0.000000 0.000000 1.794570 
# 
# From -- ./inp_files/21403.got.cif
#   From: 2010.03.12/outbox.cif.g09.slc.cpg/sg57_11_cif.got.tgz:21403.got - 2010.04.16 15:48:40.
