data_PCOD8234031
_publ_section_title
;
Structure prediction by ZEFSAII (Michael W. Deem and Ramdas Pophale) SiO2 
 PCOD8234031
Probable space group: P B C M
;
_chemical_formula_sum "Si O2"
_cell_formula_units_Z 56
_cell_length_a 21.048384
_cell_length_b 14.954323
_cell_length_c 8.953708
_cell_angle_alpha 90.000000
_cell_angle_beta 90.000000
_cell_angle_gamma 90.000000
_cell_volume 2818.307926
_symmetry_space_group_name_H-M "P B C M"
_symmetry_group_IT_number 57
_symmetry_cell_setting 'orthorhombic'
loop_
_space_group_symop_operation_xyz
x,y,z
-x,-y,1/2+z
x,1/2-y,-z
-x,1/2+y,1/2-z
-x,-y,-z
x,y,1/2-z
-x,1/2+y,z
x,1/2-y,1/2+z
loop_
_atom_site_type_symbol
_atom_site_label
_atom_site_fract_x
_atom_site_fract_y
_atom_site_fract_z
Si Si1 0.489845 0.650806 0.572751
Si Si2 0.092377 0.595276 0.086148
Si Si3 0.209060 0.659741 0.926227
Si Si4 0.724578 0.506638 0.927619
Si Si5 0.150768 0.402313 0.087563
Si Si6 0.408972 0.021878 0.426157
Si Si7 0.036529 0.165355 0.079622
O O1 0.477965 0.750000 0.500000
O O2 0.499832 0.663998 0.750000
O O3 0.432289 0.580313 0.541133
O O4 0.550040 0.600779 0.501282
O O5 0.100659 0.641913 0.250000
O O6 0.116720 0.496396 0.098506
O O7 0.017102 0.590391 0.044859
O O8 0.134362 0.647607 0.964310
O O9 0.219003 0.660546 0.750000
O O10 0.234800 0.750000 0.000000
O O11 0.252518 0.584280 0.998230
O O12 0.717763 0.493151 0.750000
O O13 0.776329 0.584407 0.964346
O O14 0.659454 0.535977 0.001944
O O15 0.149298 0.355453 0.250000
O O16 0.108868 0.347481 0.972751
O O17 0.407498 0.039741 0.250000
O O18 0.044398 0.186011 0.250000
O O19 0.005890 0.250000 0.000000
#
# Coordination Sequence:
#
# PCOD8234031 Si02
#       7
#     8   8   8   8   8   8   8
#     4  10  21  38  62  92 125 159 194 235 281 329
#     4   9  19  35  53  75 101 132 171 218 275 334
#     4  11  21  33  51  76 107 143 183 228 279 335
#     4  10  21  38  58  80 110 147 185 227 275 328
#     4   9  19  36  55  75 102 134 172 218 267 321
#     4  10  21  38  61  90 123 158 196 236 281 336
#     4  11  22  34  51  74 101 133 172 220 273 326
#
# _framework density 19.870076999999998
#
# number of rings (size 3 to 8) (size 9 to 14) (size 15 to 20)
#    0.000    2.000    0.000    4.714    0.000    7.429 
#    0.000    2.143    0.000    3.429    0.000    0.000 
#    0.000    0.000    0.000    0.000    0.000    0.000 
#
# Total GULP energy -693798.657798 kJ/mol
# GULP energy per Si atom -12389.261746 kJ/mol
# Density = 1.982485 g / cm^3
# Si number density = 19.870077 Si / 1000 Ang^3
#
#
#
# Elastic Constant Matrix: (Units=GPa)
#
#
# Indices 1 2 3 4 5 6 
#
# 1 135.3842 22.0442 53.3685 0.0000 0.0000 0.0000
# 2 22.0442 51.7089 26.9476 0.0000 0.0000 0.0000
# 3 53.3685 26.9476 111.0290 0.0000 0.0000 0.0000
# 4 0.0000 0.0000 0.0000 33.4284 0.0000 0.0000
# 5 0.0000 0.0000 0.0000 0.0000 34.4847 0.0000
# 6 0.0000 0.0000 0.0000 0.0000 0.0000 15.0966
#
#
#
# Elastic Compliance Matrix: (Units=1/GPa)
#
#
# Indices 1 2 3 4 5 6 
#
# 1 0.009268 -0.001865 -0.004002 0.000000 0.000000 0.000000
# 2 -0.001865 0.022515 -0.004568 0.000000 0.000000 0.000000
# 3 -0.004002 -0.004568 0.012039 0.000000 0.000000 0.000000
# 4 0.000000 0.000000 0.000000 0.029915 0.000000 0.000000
# 5 0.000000 0.000000 0.000000 0.000000 0.028998 0.000000
# 6 0.000000 0.000000 0.000000 0.000000 0.000000 0.066240
#
#
# Mechanical properties :
#
#
# Convention : Reuss Voigt Hill
#
# Bulk Modulus (GPa) = 43.57113 55.87141 49.72127
# Shear Modulus (GPa) = 25.31706 29.65272 27.48489
#
# Velocity S-wave (km/s) = 3.57337 3.86726 3.72321
# Velocity P-wave (km/s) = 6.24507 6.93688 6.60005
#
# Compressibility (1/GPa) = 0.02295098
#
# Stress axis : x y z
#
# Youngs Moduli (GPa) = 107.90159 44.41531 83.06363
#
# Poissons Ratio (x) = 0.08285 0.33242
# Poissons Ratio (y) = 0.20127 0.37943
# Poissons Ratio (z) = 0.43182 0.20288
#
# Static dielectric constant tensor:
#      x y z
#    x 3.803370 0.000000 0.000000 
#    y 0.000000 3.421040 0.000000 
#    z 0.000000 0.000000 3.821270 
# 
# 
# High freq. dielectric constant tensor:
#      x y z
#    x 1.773800 0.000000 0.000000 
#    y 0.000000 1.761350 0.000000 
#    z 0.000000 0.000000 1.786770 
# 
# From -- ./inp_files/8159.got.cif
#   From: 2010.03.12/outbox.cif.g09.slc.cpg/sg57_5_cif.got.tgz:8159.got - 2010.04.16 15:48:40.
