data_PCOD8234272
_publ_section_title
;
Structure prediction by ZEFSAII (Michael W. Deem and Ramdas Pophale) SiO2 
 PCOD8234272
Probable space group: P B C M
;
_chemical_formula_sum "Si O2"
_cell_formula_units_Z 28
_cell_length_a 10.421281
_cell_length_b 8.072799
_cell_length_c 14.215587
_cell_angle_alpha 90.000000
_cell_angle_beta 90.000000
_cell_angle_gamma 90.000000
_cell_volume 1195.941794
_symmetry_space_group_name_H-M "P B C M"
_symmetry_group_IT_number 57
_symmetry_cell_setting 'orthorhombic'
loop_
_space_group_symop_operation_xyz
x,y,z
-x,-y,1/2+z
x,1/2-y,-z
-x,1/2+y,1/2-z
-x,-y,-z
x,y,1/2-z
-x,1/2+y,z
x,1/2-y,1/2+z
loop_
_atom_site_type_symbol
_atom_site_label
_atom_site_fract_x
_atom_site_fract_y
_atom_site_fract_z
Si Si1 0.766660 0.086119 0.750000
Si Si2 0.616110 0.912545 0.053986
Si Si3 0.060190 0.011312 0.750000
Si Si4 0.179263 0.679938 0.406257
Si Si5 0.676978 0.712627 0.750000
O O1 0.734123 0.189409 0.845082
O O2 0.921423 0.088117 0.750000
O O3 0.692255 0.912230 0.750000
O O4 0.592698 0.853321 0.162049
O O5 0.728285 0.043042 0.051793
O O6 0.662411 0.750000 0.000000
O O7 0.500000 0.000000 0.000000
O O8 0.177707 0.142064 0.750000
O O9 0.068264 0.898044 0.657262
O O10 0.111076 0.750000 0.500000
#
# Coordination Sequence:
#
# PCOD8234272 Si02
#       5
#     4   8   4   8   4
#     4  11  21  41  68  94 132 172 213 262 321 389
#     4  11  24  43  66  93 126 168 222 272 326 390
#     4   9  21  39  63  97 131 168 214 260 319 389
#     4  10  21  39  64  95 130 166 211 267 320 382
#     4  10  22  40  63  95 133 172 213 272 326 378
#
# _framework density 23.412510999999999
#
# number of rings (size 3 to 8) (size 9 to 14) (size 15 to 20)
#    0.000    1.714    0.000    5.143    0.000    2.286 
#    0.000   15.714    0.000    0.000    0.000    0.000 
#    0.000    0.000    0.000    0.000    0.000    0.000 
#
# Total GULP energy -346979.807586 kJ/mol
# GULP energy per Si atom -12392.135985 kJ/mol
# Density = 2.335922 g / cm^3
# Si number density = 23.412511 Si / 1000 Ang^3
#
#
#
# Elastic Constant Matrix: (Units=GPa)
#
#
# Indices 1 2 3 4 5 6 
#
# 1 73.1085 37.8807 34.1817 0.0000 0.0000 0.0000
# 2 37.8807 153.0884 67.1542 0.0000 0.0000 0.0000
# 3 34.1817 67.1542 194.4978 0.0000 0.0000 0.0000
# 4 0.0000 0.0000 0.0000 54.5009 0.0000 0.0000
# 5 0.0000 0.0000 0.0000 0.0000 16.7860 0.0000
# 6 0.0000 0.0000 0.0000 0.0000 0.0000 30.1965
#
#
#
# Elastic Compliance Matrix: (Units=1/GPa)
#
#
# Indices 1 2 3 4 5 6 
#
# 1 0.016164 -0.003245 -0.001720 0.000000 0.000000 0.000000
# 2 -0.003245 0.008350 -0.002313 0.000000 0.000000 0.000000
# 3 -0.001720 -0.002313 0.006242 0.000000 0.000000 0.000000
# 4 0.000000 0.000000 0.000000 0.018348 0.000000 0.000000
# 5 0.000000 0.000000 0.000000 0.000000 0.059573 0.000000
# 6 0.000000 0.000000 0.000000 0.000000 0.000000 0.033116
#
#
# Mechanical properties :
#
#
# Convention : Reuss Voigt Hill
#
# Bulk Modulus (GPa) = 61.72834 77.68088 69.70461
# Shear Modulus (GPa) = 30.91193 39.06188 34.98690
#
# Velocity S-wave (km/s) = 3.63756 4.08906 3.86990
# Velocity P-wave (km/s) = 6.63816 7.45286 7.05728
#
# Compressibility (1/GPa) = 0.01620001
#
# Stress axis : x y z
#
# Youngs Moduli (GPa) = 61.86574 119.76660 160.19910
#
# Poissons Ratio (x) = 0.38865 0.27559
# Poissons Ratio (y) = 0.20076 0.37047
# Poissons Ratio (z) = 0.10643 0.27697
#
# Static dielectric constant tensor:
#      x y z
#    x 4.053170 0.000000 0.000000 
#    y 0.000000 4.697200 0.000000 
#    z 0.000000 0.000000 5.012030 
# 
# 
# High freq. dielectric constant tensor:
#      x y z
#    x 1.880440 0.000000 0.000000 
#    y 0.000000 1.954280 0.000000 
#    z 0.000000 0.000000 1.953160 
# 
# From -- ./inp_files/17159.got.cif
#   From: 2010.03.12/outbox.cif.g09.slc.cpg/sg57_9_cif.got.tgz:17159.got - 2010.04.16 15:48:40.
