data_PCOD8234198
_publ_section_title
;
Structure prediction by ZEFSAII (Michael W. Deem and Ramdas Pophale) SiO2 
 PCOD8234198
Probable space group: P B C M
;
_chemical_formula_sum "Si O2"
_cell_formula_units_Z 56
_cell_length_a 15.814586
_cell_length_b 19.878514
_cell_length_c 8.831896
_cell_angle_alpha 90.000000
_cell_angle_beta 90.000000
_cell_angle_gamma 90.000000
_cell_volume 2776.487289
_symmetry_space_group_name_H-M "P B C M"
_symmetry_group_IT_number 57
_symmetry_cell_setting 'orthorhombic'
loop_
_space_group_symop_operation_xyz
x,y,z
-x,-y,1/2+z
x,1/2-y,-z
-x,1/2+y,1/2-z
-x,-y,-z
x,y,1/2-z
-x,1/2+y,z
x,1/2-y,1/2+z
loop_
_atom_site_type_symbol
_atom_site_label
_atom_site_fract_x
_atom_site_fract_y
_atom_site_fract_z
Si Si1 0.668375 0.583440 0.571163
Si Si2 0.524453 0.819974 0.071142
Si Si3 0.924335 0.457920 0.071211
Si Si4 0.251900 0.550925 0.429358
Si Si5 0.000700 0.682658 0.574080
Si Si6 0.668120 0.179777 0.571157
Si Si7 0.188998 0.318781 0.070444
O O1 0.667637 0.589438 0.750000
O O2 0.582487 0.618428 0.508943
O O3 0.677069 0.504961 0.524958
O O4 0.750553 0.622422 0.508362
O O5 0.532004 0.812262 0.250000
O O6 0.428364 0.835277 0.021947
O O7 0.556136 0.750000 0.000000
O O8 0.919694 0.472017 0.250000
O O9 0.939047 0.379348 0.035597
O O10 0.837264 0.477397 0.989719
O O11 0.000000 0.500000 0.000000
O O12 0.246872 0.560904 0.250000
O O13 0.273489 0.620772 0.508498
O O14 0.038816 0.750000 0.500000
O O15 0.995788 0.696781 0.750000
O O16 0.906258 0.666814 0.512297
O O17 0.698849 0.250000 0.500000
O O18 0.679053 0.183963 0.750000
O O19 0.192840 0.313605 0.250000
O O20 0.223588 0.250000 0.000000
#
# Coordination Sequence:
#
# PCOD8234198 Si02
#       7
#     8   8   8   8   8   8   8
#     4   9  18  33  53  78 112 150 184 222 274 335
#     4   9  18  34  57  84 114 149 188 230 277 331
#     4  11  23  40  60  83 113 149 191 237 286 342
#     4  11  23  39  59  83 112 149 189 231 286 343
#     4   9  19  34  53  77 105 138 178 226 277 331
#     4  10  21  39  61  85 113 146 188 237 286 337
#     4   9  16  29  49  74 105 140 177 216 264 322
#
# _framework density 20.169371000000002
#
# number of rings (size 3 to 8) (size 9 to 14) (size 15 to 20)
#    0.000    2.286    0.000    2.571    0.000    5.143 
#    0.000    7.143    0.000    0.000    0.000    0.000 
#    0.000    0.000    0.000    0.000    0.000    0.000 
#
# Total GULP energy -694346.735404 kJ/mol
# GULP energy per Si atom -12399.048846 kJ/mol
# Density = 2.012346 g / cm^3
# Si number density = 20.169371 Si / 1000 Ang^3
#
#
#
# Elastic Constant Matrix: (Units=GPa)
#
#
# Indices 1 2 3 4 5 6 
#
# 1 81.6328 43.1537 25.1483 0.0000 0.0000 0.0000
# 2 43.1537 116.8196 38.6925 0.0000 0.0000 0.0000
# 3 25.1483 38.6925 57.5119 0.0000 0.0000 0.0000
# 4 0.0000 0.0000 0.0000 33.8499 0.0000 0.0000
# 5 0.0000 0.0000 0.0000 0.0000 25.4531 0.0000
# 6 0.0000 0.0000 0.0000 0.0000 0.0000 36.3415
#
#
#
# Elastic Compliance Matrix: (Units=1/GPa)
#
#
# Indices 1 2 3 4 5 6 
#
# 1 0.015859 -0.004583 -0.003852 0.000000 0.000000 0.000000
# 2 -0.004583 0.012339 -0.006297 0.000000 0.000000 0.000000
# 3 -0.003852 -0.006297 0.023309 0.000000 0.000000 0.000000
# 4 0.000000 0.000000 0.000000 0.029542 0.000000 0.000000
# 5 0.000000 0.000000 0.000000 0.000000 0.039288 0.000000
# 6 0.000000 0.000000 0.000000 0.000000 0.000000 0.027517
#
#
# Mechanical properties :
#
#
# Convention : Reuss Voigt Hill
#
# Bulk Modulus (GPa) = 45.36550 52.21705 48.79127
# Shear Modulus (GPa) = 27.07611 29.06020 28.06816
#
# Velocity S-wave (km/s) = 3.66790 3.79992 3.73449
# Velocity P-wave (km/s) = 6.36232 6.72294 6.54512
#
# Compressibility (1/GPa) = 0.02204318
#
# Stress axis : x y z
#
# Youngs Moduli (GPa) = 63.05532 81.04473 42.90266
#
# Poissons Ratio (x) = 0.37140 0.16524
# Poissons Ratio (y) = 0.28896 0.27017
# Poissons Ratio (z) = 0.24286 0.51037
#
# Static dielectric constant tensor:
#      x y z
#    x 3.805390 0.000000 0.000000 
#    y 0.000000 3.917830 0.000000 
#    z 0.000000 0.000000 3.478300 
# 
# 
# High freq. dielectric constant tensor:
#      x y z
#    x 1.786690 0.000000 0.000000 
#    y 0.000000 1.794430 0.000000 
#    z 0.000000 0.000000 1.770480 
# 
# From -- ./inp_files/5188.got.cif
#   From: 2010.03.12/outbox.cif.g09.slc.cpg/sg57_3_cif.got.tgz:5188.got - 2010.04.16 15:48:40.
