data_PCOD8234344
_publ_section_title
;
Structure prediction by ZEFSAII (Michael W. Deem and Ramdas Pophale) SiO2 
 PCOD8234344
Probable space group: P B C M
;
_chemical_formula_sum "Si O2"
_cell_formula_units_Z 48
_cell_length_a 14.769087
_cell_length_b 8.495580
_cell_length_c 17.710819
_cell_angle_alpha 90.000000
_cell_angle_beta 90.000000
_cell_angle_gamma 90.000000
_cell_volume 2222.211176
_symmetry_space_group_name_H-M "P B C M"
_symmetry_group_IT_number 57
_symmetry_cell_setting 'orthorhombic'
loop_
_space_group_symop_operation_xyz
x,y,z
-x,-y,1/2+z
x,1/2-y,-z
-x,1/2+y,1/2-z
-x,-y,-z
x,y,1/2-z
-x,1/2+y,z
x,1/2-y,1/2+z
loop_
_atom_site_type_symbol
_atom_site_label
_atom_site_fract_x
_atom_site_fract_y
_atom_site_fract_z
Si Si1 0.435105 0.522121 0.162170
Si Si2 0.051236 0.832086 0.080452
Si Si3 0.773298 0.533815 0.070052
Si Si4 0.619642 0.374984 0.338287
Si Si5 0.263031 0.114224 0.599147
Si Si6 0.904972 0.474238 0.835993
O O1 0.428057 0.485874 0.250000
O O2 0.409306 0.698756 0.141106
O O3 0.537809 0.489010 0.136018
O O4 0.367561 0.400080 0.122077
O O5 0.081158 0.706967 0.142864
O O6 0.124978 0.970058 0.075492
O O7 0.034834 0.750000 0.000000
O O8 0.958296 0.912039 0.106716
O O9 0.707868 0.414745 0.113671
O O10 0.768121 0.705622 0.106817
O O11 0.745500 0.541507 0.983476
O O12 0.642588 0.393644 0.250000
O O13 0.201264 0.013246 0.656233
O O14 0.936874 0.499956 0.750000
#
# Coordination Sequence:
#
# PCOD8234344 Si02
#       6
#     8   8   8   8   8   8
#     4  10  21  40  64  92 128 171 214 270 335 388
#     4  12  25  45  70  95 132 178 214 272 330 399
#     4  11  25  41  64  95 126 173 220 264 331 394
#     4  10  22  39  64  94 128 170 220 271 328 395
#     4  11  24  42  64  93 132 169 218 271 328 395
#     4  12  26  43  68 100 131 170 222 274 328 392
#
# _framework density 21.600107000000001
#
# number of rings (size 3 to 8) (size 9 to 14) (size 15 to 20)
#    0.000    1.000    1.667    4.500    2.333    6.000 
#    0.000    0.000    0.000    0.000    0.000    0.000 
#    0.000    0.000    0.000    0.000    0.000    0.000 
#
# Total GULP energy -595552.952633 kJ/mol
# GULP energy per Si atom -12407.353180 kJ/mol
# Density = 2.155094 g / cm^3
# Si number density = 21.600107 Si / 1000 Ang^3
#
#
#
# Elastic Constant Matrix: (Units=GPa)
#
#
# Indices 1 2 3 4 5 6 
#
# 1 61.9412 5.7572 24.4679 0.0000 0.0000 0.0000
# 2 5.7572 86.5674 37.1358 0.0000 0.0000 0.0000
# 3 24.4679 37.1358 79.5495 0.0000 0.0000 0.0000
# 4 0.0000 0.0000 0.0000 31.4850 0.0000 0.0000
# 5 0.0000 0.0000 0.0000 0.0000 32.1422 0.0000
# 6 0.0000 0.0000 0.0000 0.0000 0.0000 43.8351
#
#
#
# Elastic Compliance Matrix: (Units=1/GPa)
#
#
# Indices 1 2 3 4 5 6 
#
# 1 0.018535 0.001517 -0.006409 0.000000 0.000000 0.000000
# 2 0.001517 0.014568 -0.007267 0.000000 0.000000 0.000000
# 3 -0.006409 -0.007267 0.017935 0.000000 0.000000 0.000000
# 4 0.000000 0.000000 0.000000 0.031761 0.000000 0.000000
# 5 0.000000 0.000000 0.000000 0.000000 0.031112 0.000000
# 6 0.000000 0.000000 0.000000 0.000000 0.000000 0.022813
#
#
# Mechanical properties :
#
#
# Convention : Reuss Voigt Hill
#
# Bulk Modulus (GPa) = 37.42710 40.30888 38.86799
# Shear Modulus (GPa) = 29.42048 32.20561 30.81305
#
# Velocity S-wave (km/s) = 3.69460 3.86553 3.78103
# Velocity P-wave (km/s) = 5.96364 6.21490 6.09057
#
# Compressibility (1/GPa) = 0.02671861
#
# Stress axis : x y z
#
# Youngs Moduli (GPa) = 53.95176 68.64169 55.75778
#
# Poissons Ratio (x) = -0.10411 0.35736
# Poissons Ratio (y) = -0.08183 0.40522
# Poissons Ratio (z) = 0.34578 0.49885
#
# Static dielectric constant tensor:
#      x y z
#    x 3.999110 0.000000 0.000000 
#    y 0.000000 4.053160 0.000000 
#    z 0.000000 0.000000 3.787480 
# 
# 
# High freq. dielectric constant tensor:
#      x y z
#    x 1.858580 0.000000 0.000000 
#    y 0.000000 1.861820 0.000000 
#    z 0.000000 0.000000 1.843620 
# 
# From -- ./inp_files/22476.got.cif
#   From: 2010.03.12/outbox.cif.g09.slc.cpg/sg57_12_cif.got.tgz:22476.got - 2010.04.16 15:48:40.
