data_PCOD8234188
_publ_section_title
;
Structure prediction by ZEFSAII (Michael W. Deem and Ramdas Pophale) SiO2 
 PCOD8234188
Probable space group: P B C M
;
_chemical_formula_sum "Si O2"
_cell_formula_units_Z 64
_cell_length_a 19.825875
_cell_length_b 8.968554
_cell_length_c 17.267609
_cell_angle_alpha 90.000000
_cell_angle_beta 90.000000
_cell_angle_gamma 90.000000
_cell_volume 3070.343723
_symmetry_space_group_name_H-M "P B C M"
_symmetry_group_IT_number 57
_symmetry_cell_setting 'orthorhombic'
loop_
_space_group_symop_operation_xyz
x,y,z
-x,-y,1/2+z
x,1/2-y,-z
-x,1/2+y,1/2-z
-x,-y,-z
x,y,1/2-z
-x,1/2+y,z
x,1/2-y,1/2+z
loop_
_atom_site_type_symbol
_atom_site_label
_atom_site_fract_x
_atom_site_fract_y
_atom_site_fract_z
Si Si1 0.179965 0.181907 0.078465
Si Si2 0.818945 0.985626 0.159059
Si Si3 0.559151 0.517068 0.161821
Si Si4 0.061908 0.804273 0.840944
Si Si5 0.313205 0.647099 0.341054
Si Si6 0.288952 0.512970 0.838291
Si Si7 0.043736 0.491696 0.922314
Si Si8 0.552595 0.296122 0.911335
O O1 0.164615 0.316181 0.137294
O O2 0.235489 0.069766 0.109464
O O3 0.112564 0.092574 0.058459
O O4 0.209605 0.250000 0.000000
O O5 0.821422 0.999246 0.250000
O O6 0.875198 0.099076 0.126765
O O7 0.744766 0.034392 0.129658
O O8 0.536712 0.549785 0.250000
O O9 0.637363 0.560037 0.149417
O O10 0.549345 0.342936 0.146234
O O11 0.514570 0.608215 0.101151
O O12 0.067550 0.766467 0.750000
O O13 0.060364 0.654559 0.890570
O O14 0.994753 0.899917 0.855747
O O15 0.328102 0.630181 0.250000
O O16 0.381178 0.607529 0.388423
O O17 0.289530 0.813981 0.361532
O O18 0.265466 0.494968 0.750000
O O19 0.000000 0.500000 0.000000
O O20 0.557165 0.250000 0.000000
#
# Coordination Sequence:
#
# PCOD8234188 Si02
#       8
#     8   8   8   8   8   8   8   8
#     4  12  25  39  59  87 120 157 194 239 298 360
#     4  10  22  39  61  90 121 152 200 256 303 356
#     4  10  21  39  60  85 120 165 208 248 303 373
#     4  11  23  40  64  91 115 150 199 250 294 345
#     4   9  19  39  62  85 116 158 202 246 303 373
#     4   9  20  39  62  86 116 155 202 250 300 359
#     4  12  25  43  63  87 123 162 196 237 299 369
#     4  11  22  36  59  91 124 159 204 260 310 357
#
# _framework density 20.844570999999998
#
# number of rings (size 3 to 8) (size 9 to 14) (size 15 to 20)
#    0.000    1.500    0.000    6.375    0.000    7.500 
#    0.000    3.750    0.000    0.000    0.000    0.000 
#    0.000    0.000    0.000    0.000    0.000    0.000 
#
# Total GULP energy -793840.108015 kJ/mol
# GULP energy per Si atom -12403.751688 kJ/mol
# Density = 2.079713 g / cm^3
# Si number density = 20.844571 Si / 1000 Ang^3
#
#
#
# Elastic Constant Matrix: (Units=GPa)
#
#
# Indices 1 2 3 4 5 6 
#
# 1 118.9430 47.3422 38.6369 0.0000 0.0000 0.0000
# 2 47.3422 81.8071 16.5980 0.0000 0.0000 0.0000
# 3 38.6369 16.5980 59.1426 0.0000 0.0000 0.0000
# 4 0.0000 0.0000 0.0000 22.9621 0.0000 0.0000
# 5 0.0000 0.0000 0.0000 0.0000 35.3091 0.0000
# 6 0.0000 0.0000 0.0000 0.0000 0.0000 36.9969
#
#
#
# Elastic Compliance Matrix: (Units=1/GPa)
#
#
# Indices 1 2 3 4 5 6 
#
# 1 0.013083 -0.006190 -0.006810 0.000000 0.000000 0.000000
# 2 -0.006190 0.015890 -0.000416 0.000000 0.000000 0.000000
# 3 -0.006810 -0.000416 0.021474 0.000000 0.000000 0.000000
# 4 0.000000 0.000000 0.000000 0.043550 0.000000 0.000000
# 5 0.000000 0.000000 0.000000 0.000000 0.028321 0.000000
# 6 0.000000 0.000000 0.000000 0.000000 0.000000 0.027029
#
#
# Mechanical properties :
#
#
# Convention : Reuss Voigt Hill
#
# Bulk Modulus (GPa) = 42.34367 51.67188 47.00778
# Shear Modulus (GPa) = 27.16643 29.54133 28.35388
#
# Velocity S-wave (km/s) = 3.61402 3.76868 3.69216
# Velocity P-wave (km/s) = 6.14597 6.61666 6.38566
#
# Compressibility (1/GPa) = 0.02361628
#
# Stress axis : x y z
#
# Youngs Moduli (GPa) = 76.43451 62.93184 46.56837
#
# Poissons Ratio (x) = 0.38952 0.31713
# Poissons Ratio (y) = 0.47310 0.01937
# Poissons Ratio (z) = 0.52051 0.02617
#
# Static dielectric constant tensor:
#      x y z
#    x 4.066230 0.000000 0.000000 
#    y 0.000000 3.905200 0.000000 
#    z 0.000000 0.000000 3.692930 
# 
# 
# High freq. dielectric constant tensor:
#      x y z
#    x 1.827330 0.000000 0.000000 
#    y 0.000000 1.815440 0.000000 
#    z 0.000000 0.000000 1.815540 
# 
# From -- ./inp_files/23078.got.cif
#   From: 2010.03.12/outbox.cif.g09.slc.cpg/sg57_12_cif.got.tgz:23078.got - 2010.04.16 15:48:40.
