data_PCOD8234653
_publ_section_title
;
Structure prediction by ZEFSAII (Michael W. Deem and Ramdas Pophale) SiO2 
 PCOD8234653
Probable space group: P B C M
;
_chemical_formula_sum "Si O2"
_cell_formula_units_Z 48
_cell_length_a 11.800746
_cell_length_b 11.462395
_cell_length_c 15.828053
_cell_angle_alpha 90.000000
_cell_angle_beta 90.000000
_cell_angle_gamma 90.000000
_cell_volume 2140.978613
_symmetry_space_group_name_H-M "P B C M"
_symmetry_group_IT_number 57
_symmetry_cell_setting 'orthorhombic'
loop_
_space_group_symop_operation_xyz
x,y,z
-x,-y,1/2+z
x,1/2-y,-z
-x,1/2+y,1/2-z
-x,-y,-z
x,y,1/2-z
-x,1/2+y,z
x,1/2-y,1/2+z
loop_
_atom_site_type_symbol
_atom_site_label
_atom_site_fract_x
_atom_site_fract_y
_atom_site_fract_z
Si Si1 0.194584 0.985603 0.887824
Si Si2 0.186948 0.250231 0.152660
Si Si3 0.046251 0.045544 0.409369
Si Si4 0.592369 0.897422 0.653708
Si Si5 0.643086 0.194927 0.157319
Si Si6 0.259054 0.584181 0.575999
O O1 0.283772 0.922797 0.827048
O O2 0.068053 0.953542 0.854172
O O3 0.202086 0.124224 0.888840
O O4 0.227526 0.934845 0.979315
O O5 0.144092 0.255508 0.250000
O O6 0.099098 0.176118 0.094696
O O7 0.311623 0.198928 0.148009
O O8 0.145361 0.959366 0.373415
O O9 0.000000 0.000000 0.500000
O O10 0.569770 0.936873 0.750000
O O11 0.477193 0.841290 0.615814
O O12 0.629444 0.010583 0.600769
O O13 0.623999 0.252341 0.250000
O O14 0.712570 0.282107 0.096584
#
# Coordination Sequence:
#
# PCOD8234653 Si02
#       6
#     8   8   8   8   8   8
#     4  11  24  41  63 100 131 168 220 271 340 404
#     4  10  22  42  66  97 133 172 220 271 333 404
#     4   9  22  42  67  92 128 171 214 267 331 399
#     4   9  21  41  65  91 125 175 223 271 335 399
#     4  11  24  41  64  93 130 173 224 283 337 400
#     4  10  22  43  64  93 126 173 219 272 336 405
#
# _framework density 22.419654000000001
#
# number of rings (size 3 to 8) (size 9 to 14) (size 15 to 20)
#    0.000    2.000    0.000    1.500    4.667    8.667 
#    6.000    0.000    0.000    0.000    0.000    0.000 
#    0.000    0.000    0.000    0.000    0.000    0.000 
#
# Total GULP energy -594784.808615 kJ/mol
# GULP energy per Si atom -12391.350179 kJ/mol
# Density = 2.236863 g / cm^3
# Si number density = 22.419654 Si / 1000 Ang^3
#
#
#
# Elastic Constant Matrix: (Units=GPa)
#
#
# Indices 1 2 3 4 5 6 
#
# 1 158.3343 61.4970 30.5119 0.0000 0.0000 0.0000
# 2 61.4970 149.0054 33.0582 0.0000 0.0000 0.0000
# 3 30.5119 33.0582 67.4052 0.0000 0.0000 0.0000
# 4 0.0000 0.0000 0.0000 31.1255 0.0000 0.0000
# 5 0.0000 0.0000 0.0000 0.0000 29.2975 0.0000
# 6 0.0000 0.0000 0.0000 0.0000 0.0000 37.0101
#
#
#
# Elastic Compliance Matrix: (Units=1/GPa)
#
#
# Indices 1 2 3 4 5 6 
#
# 1 0.007799 -0.002733 -0.002190 0.000000 0.000000 0.000000
# 2 -0.002733 0.008488 -0.002926 0.000000 0.000000 0.000000
# 3 -0.002190 -0.002926 0.017262 0.000000 0.000000 0.000000
# 4 0.000000 0.000000 0.000000 0.032128 0.000000 0.000000
# 5 0.000000 0.000000 0.000000 0.000000 0.034133 0.000000
# 6 0.000000 0.000000 0.000000 0.000000 0.000000 0.027020
#
#
# Mechanical properties :
#
#
# Convention : Reuss Voigt Hill
#
# Bulk Modulus (GPa) = 56.01724 69.43102 62.72413
# Shear Modulus (GPa) = 33.67499 36.13182 34.90340
#
# Velocity S-wave (km/s) = 3.87981 4.01885 3.94994
# Velocity P-wave (km/s) = 6.71644 7.25058 6.98861
#
# Compressibility (1/GPa) = 0.01785165
#
# Stress axis : x y z
#
# Youngs Moduli (GPa) = 128.21678 117.80992 57.93083
#
# Poissons Ratio (x) = 0.32198 0.12687
# Poissons Ratio (y) = 0.35042 0.16950
# Poissons Ratio (z) = 0.28080 0.34469
#
# Static dielectric constant tensor:
#      x y z
#    x 4.819330 0.000000 0.000000 
#    y 0.000000 4.032120 0.000000 
#    z 0.000000 0.000000 3.863180 
# 
# 
# High freq. dielectric constant tensor:
#      x y z
#    x 1.900690 0.000000 0.000000 
#    y 0.000000 1.880950 0.000000 
#    z 0.000000 0.000000 1.865910 
# 
# From -- ./inp_files/21837.got.cif
#   From: 2010.03.12/outbox.cif.g09.slc.cpg/sg57_11_cif.got.tgz:21837.got - 2010.04.16 15:48:40.
