data_PCOD8234553
_publ_section_title
;
Structure prediction by ZEFSAII (Michael W. Deem and Ramdas Pophale) SiO2 
 PCOD8234553
Probable space group: P B C M
;
_chemical_formula_sum "Si O2"
_cell_formula_units_Z 64
_cell_length_a 24.480686
_cell_length_b 14.560150
_cell_length_c 8.664259
_cell_angle_alpha 90.000000
_cell_angle_beta 90.000000
_cell_angle_gamma 90.000000
_cell_volume 3088.309794
_symmetry_space_group_name_H-M "P B C M"
_symmetry_group_IT_number 57
_symmetry_cell_setting 'orthorhombic'
loop_
_space_group_symop_operation_xyz
x,y,z
-x,-y,1/2+z
x,1/2-y,-z
-x,1/2+y,1/2-z
-x,-y,-z
x,y,1/2-z
-x,1/2+y,z
x,1/2-y,1/2+z
loop_
_atom_site_type_symbol
_atom_site_label
_atom_site_fract_x
_atom_site_fract_y
_atom_site_fract_z
Si Si1 0.412368 0.336345 0.426820
Si Si2 0.316116 0.031478 0.573280
Si Si3 0.516794 0.403943 0.569129
Si Si4 0.880392 0.967794 0.566044
Si Si5 0.365589 0.845119 0.931962
Si Si6 0.222876 0.350673 0.570077
Si Si7 0.027442 0.345597 0.065620
Si Si8 0.907005 0.346117 0.565731
O O1 0.379003 0.250000 0.500000
O O2 0.426680 0.319193 0.250000
O O3 0.376800 0.427578 0.447200
O O4 0.468263 0.336038 0.524061
O O5 0.296533 0.041945 0.750000
O O6 0.274122 0.084797 0.466344
O O7 0.322206 0.925105 0.523211
O O8 0.500000 0.500000 0.500000
O O9 0.523029 0.415920 0.750000
O O10 0.574194 0.367350 0.499645
O O11 0.885344 0.972586 0.750000
O O12 0.831158 0.902501 0.510094
O O13 0.935654 0.929063 0.491975
O O14 0.870272 0.069811 0.497575
O O15 0.369271 0.836350 0.750000
O O16 0.343109 0.750000 0.000000
O O17 0.228653 0.250000 0.500000
O O18 0.219437 0.335959 0.750000
O O19 0.025099 0.342534 0.250000
O O20 0.051891 0.250000 0.000000
O O21 0.967737 0.361424 0.997443
O O22 0.883209 0.250000 0.500000
O O23 0.906801 0.343626 0.750000
#
# Coordination Sequence:
#
# PCOD8234553 Si02
#       8
#     8   8   8   8   8   8   8   8
#     4  11  22  37  56  84 117 152 193 236 289 349
#     4  10  22  42  63  84 117 152 194 246 294 350
#     4  11  21  36  57  84 119 156 195 237 290 349
#     4  11  23  40  60  87 122 159 203 252 301 361
#     4  10  22  40  60  87 118 154 195 241 292 347
#     4  11  25  43  66  93 120 152 194 243 300 358
#     4  11  21  35  57  88 125 165 207 250 301 360
#     4  11  22  38  60  88 123 164 206 249 300 354
#
# _framework density 20.723309
#
# number of rings (size 3 to 8) (size 9 to 14) (size 15 to 20)
#    0.000    1.250    1.250    6.000    0.000    7.500 
#    0.000    0.625    0.000    1.500    0.000    0.000 
#    0.000    0.000    0.000    0.000    0.000    0.000 
#
# Total GULP energy -793684.201422 kJ/mol
# GULP energy per Si atom -12401.315647 kJ/mol
# Density = 2.067614 g / cm^3
# Si number density = 20.723309 Si / 1000 Ang^3
#
#
#
# Elastic Constant Matrix: (Units=GPa)
#
#
# Indices 1 2 3 4 5 6 
#
# 1 63.2320 42.9910 28.2114 0.0000 0.0000 0.0000
# 2 42.9910 171.1953 45.6516 0.0000 0.0000 0.0000
# 3 28.2114 45.6516 97.8666 0.0000 0.0000 0.0000
# 4 0.0000 0.0000 0.0000 40.9318 0.0000 0.0000
# 5 0.0000 0.0000 0.0000 0.0000 23.9274 0.0000
# 6 0.0000 0.0000 0.0000 0.0000 0.0000 24.8325
#
#
#
# Elastic Compliance Matrix: (Units=1/GPa)
#
#
# Indices 1 2 3 4 5 6 
#
# 1 0.020340 -0.004048 -0.003975 0.000000 0.000000 0.000000
# 2 -0.004048 0.007477 -0.002321 0.000000 0.000000 0.000000
# 3 -0.003975 -0.002321 0.012446 0.000000 0.000000 0.000000
# 4 0.000000 0.000000 0.000000 0.024431 0.000000 0.000000
# 5 0.000000 0.000000 0.000000 0.000000 0.041793 0.000000
# 6 0.000000 0.000000 0.000000 0.000000 0.000000 0.040270
#
#
# Mechanical properties :
#
#
# Convention : Reuss Voigt Hill
#
# Bulk Modulus (GPa) = 51.08331 62.88909 56.98620
# Shear Modulus (GPa) = 28.74052 32.30100 30.52076
#
# Velocity S-wave (km/s) = 3.72811 3.95229 3.84184
# Velocity P-wave (km/s) = 6.57536 7.15824 6.87298
#
# Compressibility (1/GPa) = 0.01957587
#
# Stress axis : x y z
#
# Youngs Moduli (GPa) = 49.16305 133.74953 80.34412
#
# Poissons Ratio (x) = 0.54141 0.31938
# Poissons Ratio (y) = 0.19901 0.18646
# Poissons Ratio (z) = 0.19543 0.31040
#
# Static dielectric constant tensor:
#      x y z
#    x 2.823980 0.000000 0.000000 
#    y 0.000000 4.227490 0.000000 
#    z 0.000000 0.000000 5.065470 
# 
# 
# High freq. dielectric constant tensor:
#      x y z
#    x 1.786320 0.000000 0.000000 
#    y 0.000000 1.834740 0.000000 
#    z 0.000000 0.000000 1.814400 
# 
# From -- ./inp_files/9462.got.cif
#   From: 2010.03.12/outbox.cif.g09.slc.cpg/sg57_5_cif.got.tgz:9462.got - 2010.04.16 15:48:40.
