data_PCOD8234763
_publ_section_title
;
Structure prediction by ZEFSAII (Michael W. Deem and Ramdas Pophale) SiO2 
 PCOD8234763
Probable space group: P B C M
;
_chemical_formula_sum "Si O2"
_cell_formula_units_Z 56
_cell_length_a 5.103453
_cell_length_b 29.648983
_cell_length_c 15.512885
_cell_angle_alpha 90.000000
_cell_angle_beta 90.000000
_cell_angle_gamma 90.000000
_cell_volume 2347.288622
_symmetry_space_group_name_H-M "P B C M"
_symmetry_group_IT_number 57
_symmetry_cell_setting 'orthorhombic'
loop_
_space_group_symop_operation_xyz
x,y,z
-x,-y,1/2+z
x,1/2-y,-z
-x,1/2+y,1/2-z
-x,-y,-z
x,y,1/2-z
-x,1/2+y,z
x,1/2-y,1/2+z
loop_
_atom_site_type_symbol
_atom_site_label
_atom_site_fract_x
_atom_site_fract_y
_atom_site_fract_z
Si Si1 0.715130 0.056985 0.846846
Si Si2 0.452469 0.366917 0.651700
Si Si3 0.813722 0.227788 0.915373
Si Si4 0.695897 0.768592 0.655826
Si Si5 0.873706 0.565314 0.437708
Si Si6 0.782487 0.129482 0.979529
Si Si7 0.236757 0.009864 0.907449
O O1 0.705578 0.076766 0.750000
O O2 0.626705 0.095231 0.915942
O O3 0.504259 0.016206 0.854591
O O4 0.004283 0.038463 0.863780
O O5 0.571425 0.367456 0.750000
O O6 0.271852 0.322299 0.638958
O O7 0.289479 0.413549 0.641032
O O8 0.663033 0.363510 0.574866
O O9 0.517761 0.245505 0.905709
O O10 0.815721 0.174275 0.924261
O O11 0.020390 0.244412 0.844204
O O12 0.937305 0.250000 0.000000
O O13 0.576766 0.760856 0.750000
O O14 0.721827 0.526284 0.492231
O O15 0.934271 0.607155 0.502174
O O16 0.149459 0.542920 0.405225
#
# Coordination Sequence:
#
# PCOD8234763 Si02
#       7
#     8   8   8   8   8   8   8
#     4  11  24  43  67 100 139 183 229 283 338 404
#     4  11  24  43  67 100 139 179 227 288 348 408
#     4  12  24  43  72  97 134 183 230 273 349 421
#     4  11  26  45  67 100 138 178 230 291 343 411
#     4  10  23  42  67  98 133 180 229 281 345 406
#     4  11  25  43  70 101 139 179 228 284 347 409
#     4  10  23  42  70  95 137 179 230 281 340 406
#
# _framework density 23.857313000000001
#
# number of rings (size 3 to 8) (size 9 to 14) (size 15 to 20)
#    0.000    1.143    2.857    2.143    4.000    4.571 
#    0.000    0.000    0.000    0.000    0.000    0.000 
#    0.000    0.000    0.000    0.000    0.000    0.000 
#
# Total GULP energy -694044.509396 kJ/mol
# GULP energy per Si atom -12393.651954 kJ/mol
# Density = 2.380301 g / cm^3
# Si number density = 23.857313 Si / 1000 Ang^3
#
#
#
# Elastic Constant Matrix: (Units=GPa)
#
#
# Indices 1 2 3 4 5 6 
#
# 1 70.7393 13.4661 17.7310 0.0000 0.0000 0.0000
# 2 13.4661 111.0445 26.0229 0.0000 0.0000 0.0000
# 3 17.7310 26.0229 121.3254 0.0000 0.0000 0.0000
# 4 0.0000 0.0000 0.0000 29.3731 0.0000 0.0000
# 5 0.0000 0.0000 0.0000 0.0000 27.6985 0.0000
# 6 0.0000 0.0000 0.0000 0.0000 0.0000 36.2390
#
#
#
# Elastic Compliance Matrix: (Units=1/GPa)
#
#
# Indices 1 2 3 4 5 6 
#
# 1 0.014867 -0.001362 -0.001881 0.000000 0.000000 0.000000
# 2 -0.001362 0.009607 -0.001861 0.000000 0.000000 0.000000
# 3 -0.001881 -0.001861 0.008916 0.000000 0.000000 0.000000
# 4 0.000000 0.000000 0.000000 0.034045 0.000000 0.000000
# 5 0.000000 0.000000 0.000000 0.000000 0.036103 0.000000
# 6 0.000000 0.000000 0.000000 0.000000 0.000000 0.027595
#
#
# Mechanical properties :
#
#
# Convention : Reuss Voigt Hill
#
# Bulk Modulus (GPa) = 43.13723 46.39437 44.76580
# Shear Modulus (GPa) = 33.54166 35.05475 34.29820
#
# Velocity S-wave (km/s) = 3.75364 3.83737 3.79573
# Velocity P-wave (km/s) = 6.07511 6.25481 6.16562
#
# Compressibility (1/GPa) = 0.02318183
#
# Stress axis : x y z
#
# Youngs Moduli (GPa) = 67.26265 104.09276 112.15296
#
# Poissons Ratio (x) = 0.14179 0.21091
# Poissons Ratio (y) = 0.09162 0.20877
# Poissons Ratio (z) = 0.12649 0.19377
#
# Static dielectric constant tensor:
#      x y z
#    x 3.904660 0.000000 0.000000 
#    y 0.000000 4.483460 0.000000 
#    z 0.000000 0.000000 4.303060 
# 
# 
# High freq. dielectric constant tensor:
#      x y z
#    x 1.934630 0.000000 0.000000 
#    y 0.000000 1.951820 0.000000 
#    z 0.000000 0.000000 1.941280 
# 
# From -- ./inp_files/15241.got.cif
#   From: 2010.03.12/outbox.cif.g09.slc.cpg/sg57_8_cif.got.tgz:15241.got - 2010.04.16 15:48:40.
