data_PCOD8234648
_publ_section_title
;
Structure prediction by ZEFSAII (Michael W. Deem and Ramdas Pophale) SiO2 
 PCOD8234648
Probable space group: P B C M
;
_chemical_formula_sum "Si O2"
_cell_formula_units_Z 48
_cell_length_a 11.501370
_cell_length_b 11.878609
_cell_length_c 17.443594
_cell_angle_alpha 90.000000
_cell_angle_beta 90.000000
_cell_angle_gamma 90.000000
_cell_volume 2383.148648
_symmetry_space_group_name_H-M "P B C M"
_symmetry_group_IT_number 57
_symmetry_cell_setting 'orthorhombic'
loop_
_space_group_symop_operation_xyz
x,y,z
-x,-y,1/2+z
x,1/2-y,-z
-x,1/2+y,1/2-z
-x,-y,-z
x,y,1/2-z
-x,1/2+y,z
x,1/2-y,1/2+z
loop_
_atom_site_type_symbol
_atom_site_label
_atom_site_fract_x
_atom_site_fract_y
_atom_site_fract_z
Si Si1 0.925485 0.056926 0.336044
Si Si2 0.789629 0.863840 0.409625
Si Si3 0.668880 0.055611 0.661801
Si Si4 0.840375 0.886261 0.916793
Si Si5 0.440365 0.497126 0.083128
Si Si6 0.697462 0.187411 0.161783
O O1 0.974551 0.055766 0.250000
O O2 0.831993 0.155304 0.348277
O O3 0.031205 0.080048 0.392034
O O4 0.863098 0.937539 0.350153
O O5 0.845521 0.882784 0.492194
O O6 0.800041 0.734295 0.383119
O O7 0.654034 0.897420 0.411670
O O8 0.701570 0.035128 0.750000
O O9 0.749513 0.979749 0.608944
O O10 0.534996 0.026048 0.648225
O O11 0.688135 0.183867 0.637074
O O12 0.381247 0.616341 0.102979
O O13 0.500000 0.500000 0.000000
O O14 0.657262 0.167531 0.250000
#
# Coordination Sequence:
#
# PCOD8234648 Si02
#       6
#     8   8   8   8   8   8
#     4  10  22  42  65  90 125 168 211 256 316 378
#     4  10  24  43  63  93 130 166 209 262 319 383
#     4  11  24  40  64  95 126 162 213 262 312 378
#     4  11  23  41  64  96 127 162 213 265 317 377
#     4  11  22  42  65  91 127 168 212 256 318 378
#     4   9  22  42  62  91 127 165 209 260 317 376
#
# _framework density 20.141421999999999
#
# number of rings (size 3 to 8) (size 9 to 14) (size 15 to 20)
#    0.000    1.667    1.667    1.500    4.667    2.667 
#    0.000    0.000    0.000    0.000    0.000    0.000 
#    0.000    0.000    0.000    0.000    0.000    0.000 
#
# Total GULP energy -595428.326782 kJ/mol
# GULP energy per Si atom -12404.756808 kJ/mol
# Density = 2.009558 g / cm^3
# Si number density = 20.141422 Si / 1000 Ang^3
#
#
#
# Elastic Constant Matrix: (Units=GPa)
#
#
# Indices 1 2 3 4 5 6 
#
# 1 122.7351 47.9371 30.5566 0.0000 0.0000 0.0000
# 2 47.9371 121.2533 22.8240 0.0000 0.0000 0.0000
# 3 30.5566 22.8240 60.1198 0.0000 0.0000 0.0000
# 4 0.0000 0.0000 0.0000 29.5883 0.0000 0.0000
# 5 0.0000 0.0000 0.0000 0.0000 33.1819 0.0000
# 6 0.0000 0.0000 0.0000 0.0000 0.0000 18.6548
#
#
#
# Elastic Compliance Matrix: (Units=1/GPa)
#
#
# Indices 1 2 3 4 5 6 
#
# 1 0.010474 -0.003380 -0.004040 0.000000 0.000000 0.000000
# 2 -0.003380 0.009973 -0.002068 0.000000 0.000000 0.000000
# 3 -0.004040 -0.002068 0.019472 0.000000 0.000000 0.000000
# 4 0.000000 0.000000 0.000000 0.033797 0.000000 0.000000
# 5 0.000000 0.000000 0.000000 0.000000 0.030137 0.000000
# 6 0.000000 0.000000 0.000000 0.000000 0.000000 0.053606
#
#
# Mechanical properties :
#
#
# Convention : Reuss Voigt Hill
#
# Bulk Modulus (GPa) = 47.75151 56.30483 52.02817
# Shear Modulus (GPa) = 27.26050 29.80437 28.53243
#
# Velocity S-wave (km/s) = 3.68292 3.85093 3.76786
# Velocity P-wave (km/s) = 6.46876 6.91291 6.69452
#
# Compressibility (1/GPa) = 0.02094175
#
# Stress axis : x y z
#
# Youngs Moduli (GPa) = 95.47717 100.27225 51.35575
#
# Poissons Ratio (x) = 0.33895 0.20748
# Poissons Ratio (y) = 0.32274 0.10621
# Poissons Ratio (z) = 0.38574 0.20737
#
# Static dielectric constant tensor:
#      x y z
#    x 3.679030 0.000000 0.000000 
#    y 0.000000 3.777320 0.000000 
#    z 0.000000 0.000000 3.610920 
# 
# 
# High freq. dielectric constant tensor:
#      x y z
#    x 1.795050 0.000000 0.000000 
#    y 0.000000 1.793320 0.000000 
#    z 0.000000 0.000000 1.789180 
# 
# From -- ./inp_files/21805.got.cif
#   From: 2010.03.12/outbox.cif.g09.slc.cpg/sg57_11_cif.got.tgz:21805.got - 2010.04.16 15:48:40.
