data_PCOD8234020
_publ_section_title
;
Structure prediction by ZEFSAII (Michael W. Deem and Ramdas Pophale) SiO2 
 PCOD8234020
Probable space group: P B C M
;
_chemical_formula_sum "Si O2"
_cell_formula_units_Z 64
_cell_length_a 14.552930
_cell_length_b 12.410610
_cell_length_c 16.539420
_cell_angle_alpha 90.000000
_cell_angle_beta 90.000000
_cell_angle_gamma 90.000000
_cell_volume 2987.196862
_symmetry_space_group_name_H-M "P B C M"
_symmetry_group_IT_number 57
_symmetry_cell_setting 'orthorhombic'
loop_
_space_group_symop_operation_xyz
x,y,z
-x,-y,1/2+z
x,1/2-y,-z
-x,1/2+y,1/2-z
-x,-y,-z
x,y,1/2-z
-x,1/2+y,z
x,1/2-y,1/2+z
loop_
_atom_site_type_symbol
_atom_site_label
_atom_site_fract_x
_atom_site_fract_y
_atom_site_fract_z
Si Si1 0.855642 0.361750 0.406513
Si Si2 0.825021 0.382342 0.906655
Si Si3 0.368627 0.535346 0.346587
Si Si4 0.252467 0.455652 0.657231
Si Si5 0.558610 0.878075 0.659594
Si Si6 0.953764 0.572691 0.657110
Si Si7 0.634054 0.809927 0.081481
Si Si8 0.838742 0.745725 0.088867
O O1 0.822279 0.382978 0.497075
O O2 0.858152 0.236857 0.379505
O O3 0.780368 0.421857 0.351081
O O4 0.954083 0.417256 0.394806
O O5 0.724100 0.403522 0.871197
O O6 0.895571 0.471467 0.874574
O O7 0.364152 0.509433 0.250000
O O8 0.456211 0.606204 0.374460
O O9 0.388675 0.433508 0.404132
O O10 0.258884 0.420187 0.750000
O O11 0.354511 0.440783 0.616700
O O12 0.176669 0.377511 0.615757
O O13 0.554728 0.921122 0.750000
O O14 0.584551 0.752307 0.654945
O O15 0.979311 0.552514 0.750000
O O16 0.900137 0.686199 0.650800
O O17 0.743136 0.807517 0.084417
O O18 0.596996 0.750000 0.000000
O O19 0.886032 0.750000 0.000000
#
# Coordination Sequence:
#
# PCOD8234020 Si02
#       8
#     8   8   8   8   8   8   8   8
#     4  11  27  45  65  94 136 175 215 268 336 393
#     4  11  26  47  67  94 132 175 219 269 332 393
#     4  11  23  42  69  97 131 175 224 279 328 392
#     4  10  21  40  64  93 132 173 215 269 331 393
#     4   9  21  39  63  95 131 173 219 269 333 394
#     4  12  25  41  69 100 128 170 224 274 321 391
#     4  10  21  38  61  98 131 173 216 275 329 387
#     4  10  21  37  65  93 130 167 216 272 327 381
#
# _framework density 21.424768
#
# number of rings (size 3 to 8) (size 9 to 14) (size 15 to 20)
#    0.000    1.500    1.250    2.625    7.000    4.500 
#    2.250    2.500    0.000    0.000    0.000    0.000 
#    0.000    0.000    0.000    0.000    0.000    0.000 
#
# Total GULP energy -793178.940716 kJ/mol
# GULP energy per Si atom -12393.420949 kJ/mol
# Density = 2.137600 g / cm^3
# Si number density = 21.424768 Si / 1000 Ang^3
#
#
#
# Elastic Constant Matrix: (Units=GPa)
#
#
# Indices 1 2 3 4 5 6 
#
# 1 131.5316 58.8103 25.7026 0.0000 0.0000 0.0000
# 2 58.8103 113.4782 28.7408 0.0000 0.0000 0.0000
# 3 25.7026 28.7408 82.6707 0.0000 0.0000 0.0000
# 4 0.0000 0.0000 0.0000 31.1127 0.0000 0.0000
# 5 0.0000 0.0000 0.0000 0.0000 24.6180 0.0000
# 6 0.0000 0.0000 0.0000 0.0000 0.0000 23.7076
#
#
#
# Elastic Compliance Matrix: (Units=1/GPa)
#
#
# Indices 1 2 3 4 5 6 
#
# 1 0.010050 -0.004843 -0.001441 0.000000 0.000000 0.000000
# 2 -0.004843 0.011997 -0.002665 0.000000 0.000000 0.000000
# 3 -0.001441 -0.002665 0.013471 0.000000 0.000000 0.000000
# 4 0.000000 0.000000 0.000000 0.032141 0.000000 0.000000
# 5 0.000000 0.000000 0.000000 0.000000 0.040621 0.000000
# 6 0.000000 0.000000 0.000000 0.000000 0.000000 0.042181
#
#
# Mechanical properties :
#
#
# Convention : Reuss Voigt Hill
#
# Bulk Modulus (GPa) = 56.75564 61.57643 59.16604
# Shear Modulus (GPa) = 28.69736 30.18278 29.44007
#
# Velocity S-wave (km/s) = 3.66382 3.75744 3.71093
# Velocity P-wave (km/s) = 6.66680 6.90128 6.78505
#
# Compressibility (1/GPa) = 0.01761939
#
# Stress axis : x y z
#
# Youngs Moduli (GPa) = 99.50379 83.35144 74.23556
#
# Poissons Ratio (x) = 0.40371 0.10695
# Poissons Ratio (y) = 0.48194 0.19784
# Poissons Ratio (z) = 0.14335 0.22214
#
# Static dielectric constant tensor:
#      x y z
#    x 3.964170 0.000000 0.000000 
#    y 0.000000 3.889910 0.000000 
#    z 0.000000 0.000000 3.906000 
# 
# 
# High freq. dielectric constant tensor:
#      x y z
#    x 1.844130 0.000000 0.000000 
#    y 0.000000 1.839120 0.000000 
#    z 0.000000 0.000000 1.838780 
# 
# From -- ./inp_files/22692.got.cif
#   From: 2010.03.12/outbox.cif.g09.slc.cpg/sg57_12_cif.got.tgz:22692.got - 2010.04.16 15:48:40.
