data_PCOD8234712
_publ_section_title
;
Structure prediction by ZEFSAII (Michael W. Deem and Ramdas Pophale) SiO2 
 PCOD8234712
Probable space group: P B C M
;
_chemical_formula_sum "Si O2"
_cell_formula_units_Z 40
_cell_length_a 25.773457
_cell_length_b 9.129217
_cell_length_c 8.543776
_cell_angle_alpha 90.000000
_cell_angle_beta 90.000000
_cell_angle_gamma 90.000000
_cell_volume 2010.277715
_symmetry_space_group_name_H-M "P B C M"
_symmetry_group_IT_number 57
_symmetry_cell_setting 'orthorhombic'
loop_
_space_group_symop_operation_xyz
x,y,z
-x,-y,1/2+z
x,1/2-y,-z
-x,1/2+y,1/2-z
-x,-y,-z
x,y,1/2-z
-x,1/2+y,z
x,1/2-y,1/2+z
loop_
_atom_site_type_symbol
_atom_site_label
_atom_site_fract_x
_atom_site_fract_y
_atom_site_fract_z
Si Si1 0.148640 0.911887 0.934533
Si Si2 0.656295 0.088912 0.935160
Si Si3 0.452376 0.910534 0.935416
Si Si4 0.249169 0.410968 0.064073
Si Si5 0.951434 0.912718 0.435587
O O1 0.146966 0.902101 0.750000
O O2 0.201362 0.988662 0.991367
O O3 0.100296 0.006593 0.996876
O O4 0.145334 0.750000 0.000000
O O5 0.652823 0.099445 0.750000
O O6 0.669373 0.250000 0.000000
O O7 0.602166 0.026242 0.002222
O O8 0.699450 0.974390 0.986187
O O9 0.452187 0.911951 0.750000
O O10 0.459654 0.750000 0.000000
O O11 0.500000 0.000000 0.000000
O O12 0.255304 0.408236 0.250000
O O13 0.238698 0.250000 0.000000
O O14 0.951864 0.750000 0.500000
O O15 0.953937 0.908112 0.250000
O O16 0.000000 0.000000 0.500000
#
# Coordination Sequence:
#
# PCOD8234712 Si02
#       5
#     8   8   8   8   8
#     4  10  23  40  61  87 118 154 197 242 293 350
#     4  11  22  39  61  87 117 154 195 240 290 348
#     4  11  22  39  61  88 119 155 196 242 292 348
#     4  11  23  40  60  87 118 153 194 242 294 349
#     4  11  23  40  61  89 121 158 199 246 296 351
#
# _framework density 19.897746999999999
#
# number of rings (size 3 to 8) (size 9 to 14) (size 15 to 20)
#    0.000    1.200    0.000    7.800    0.000    7.200 
#    0.000    4.000    0.000    0.000    0.000    0.000 
#    0.000    0.000    0.000    0.000    0.000    0.000 
#
# Total GULP energy -496180.271863 kJ/mol
# GULP energy per Si atom -12404.506797 kJ/mol
# Density = 1.985246 g / cm^3
# Si number density = 19.897747 Si / 1000 Ang^3
#
#
#
# Elastic Constant Matrix: (Units=GPa)
#
#
# Indices 1 2 3 4 5 6 
#
# 1 186.1968 96.4660 62.1842 0.0000 0.0000 0.0000
# 2 96.4660 152.2383 49.8843 0.0000 0.0000 0.0000
# 3 62.1842 49.8843 134.7718 0.0000 0.0000 0.0000
# 4 0.0000 0.0000 0.0000 40.6119 0.0000 0.0000
# 5 0.0000 0.0000 0.0000 0.0000 33.1120 0.0000
# 6 0.0000 0.0000 0.0000 0.0000 0.0000 51.9114
#
#
#
# Elastic Compliance Matrix: (Units=1/GPa)
#
#
# Indices 1 2 3 4 5 6 
#
# 1 0.008534 -0.004686 -0.002203 0.000000 0.000000 0.000000
# 2 -0.004686 0.010048 -0.001557 0.000000 0.000000 0.000000
# 3 -0.002203 -0.001557 0.009013 0.000000 0.000000 0.000000
# 4 0.000000 0.000000 0.000000 0.024623 0.000000 0.000000
# 5 0.000000 0.000000 0.000000 0.000000 0.030201 0.000000
# 6 0.000000 0.000000 0.000000 0.000000 0.000000 0.019264
#
#
# Mechanical properties :
#
#
# Convention : Reuss Voigt Hill
#
# Bulk Modulus (GPa) = 93.43430 98.91953 96.17691
# Shear Modulus (GPa) = 40.93588 42.77189 41.85389
#
# Velocity S-wave (km/s) = 4.54068 4.64139 4.59131
# Velocity P-wave (km/s) = 8.63421 8.86257 8.74914
#
# Compressibility (1/GPa) = 0.01070271
#
# Stress axis : x y z
#
# Youngs Moduli (GPa) = 117.17724 99.52268 110.95166
#
# Poissons Ratio (x) = 0.46633 0.24446
# Poissons Ratio (y) = 0.54905 0.17277
# Poissons Ratio (z) = 0.25818 0.15497
#
# Static dielectric constant tensor:
#      x y z
#    x 4.208770 0.000000 0.000000 
#    y 0.000000 3.577950 0.000000 
#    z 0.000000 0.000000 3.746520 
# 
# 
# High freq. dielectric constant tensor:
#      x y z
#    x 1.798750 0.000000 0.000000 
#    y 0.000000 1.783430 0.000000 
#    z 0.000000 0.000000 1.790660 
# 
# From -- ./inp_files/8870.got.cif
#   From: 2010.03.12/outbox.cif.g09.slc.cpg/sg57_5_cif.got.tgz:8870.got - 2010.04.16 15:48:40.
