data_PCOD8234266
_publ_section_title
;
Structure prediction by ZEFSAII (Michael W. Deem and Ramdas Pophale) SiO2 
 PCOD8234266
Probable space group: P B C M
;
_chemical_formula_sum "Si O2"
_cell_formula_units_Z 40
_cell_length_a 4.902696
_cell_length_b 19.521739
_cell_length_c 17.009420
_cell_angle_alpha 90.000000
_cell_angle_beta 90.000000
_cell_angle_gamma 90.000000
_cell_volume 1627.957159
_symmetry_space_group_name_H-M "P B C M"
_symmetry_group_IT_number 57
_symmetry_cell_setting 'orthorhombic'
loop_
_space_group_symop_operation_xyz
x,y,z
-x,-y,1/2+z
x,1/2-y,-z
-x,1/2+y,1/2-z
-x,-y,-z
x,y,1/2-z
-x,1/2+y,z
x,1/2-y,1/2+z
loop_
_atom_site_type_symbol
_atom_site_label
_atom_site_fract_x
_atom_site_fract_y
_atom_site_fract_z
Si Si1 0.328455 0.448765 0.157399
Si Si2 0.188614 0.769180 0.838893
Si Si3 0.072052 0.558730 0.439102
Si Si4 0.825812 0.374017 0.411189
Si Si5 0.681397 0.640413 0.161147
O O1 0.288228 0.449790 0.250000
O O2 0.279865 0.526632 0.125227
O O3 0.631213 0.426224 0.135015
O O4 0.127952 0.392955 0.118509
O O5 0.265901 0.747428 0.750000
O O6 0.242585 0.704710 0.894252
O O7 0.379087 0.834052 0.863952
O O8 0.877600 0.793210 0.844635
O O9 0.201156 0.618581 0.493824
O O10 0.000000 0.500000 0.500000
O O11 0.792819 0.582366 0.397077
O O12 0.680624 0.610954 0.250000
#
# Coordination Sequence:
#
# PCOD8234266 Si02
#       5
#     8   8   8   8   8
#     4  11  22  39  65  92 125 170 216 262 313 376
#     4  10  21  39  64  92 122 159 208 258 306 368
#     4  10  24  43  62  92 130 166 207 258 314 374
#     4  11  23  40  63  94 129 165 210 264 321 372
#     4  10  22  41  66  93 123 162 205 252 306 370
#
# _framework density 24.570671000000001
#
# number of rings (size 3 to 8) (size 9 to 14) (size 15 to 20)
#    0.000    1.600    0.000    4.200    0.000    8.800 
#    0.000    8.000    0.000    0.000    0.000    0.000 
#    0.000    0.000    0.000    0.000    0.000    0.000 
#
# Total GULP energy -496158.225447 kJ/mol
# GULP energy per Si atom -12403.955636 kJ/mol
# Density = 2.451475 g / cm^3
# Si number density = 24.570671 Si / 1000 Ang^3
#
#
#
# Elastic Constant Matrix: (Units=GPa)
#
#
# Indices 1 2 3 4 5 6 
#
# 1 56.1084 -22.7648 3.9644 0.0000 0.0000 0.0000
# 2 -22.7648 61.8778 21.6507 0.0000 0.0000 0.0000
# 3 3.9644 21.6507 137.2164 0.0000 0.0000 0.0000
# 4 0.0000 0.0000 0.0000 52.7530 0.0000 0.0000
# 5 0.0000 0.0000 0.0000 0.0000 31.7533 0.0000
# 6 0.0000 0.0000 0.0000 0.0000 0.0000 27.7344
#
#
#
# Elastic Compliance Matrix: (Units=1/GPa)
#
#
# Indices 1 2 3 4 5 6 
#
# 1 0.021443 0.008579 -0.001973 0.000000 0.000000 0.000000
# 2 0.008579 0.020538 -0.003488 0.000000 0.000000 0.000000
# 3 -0.001973 -0.003488 0.007895 0.000000 0.000000 0.000000
# 4 0.000000 0.000000 0.000000 0.018956 0.000000 0.000000
# 5 0.000000 0.000000 0.000000 0.000000 0.031493 0.000000
# 6 0.000000 0.000000 0.000000 0.000000 0.000000 0.036056
#
#
# Mechanical properties :
#
#
# Convention : Reuss Voigt Hill
#
# Bulk Modulus (GPa) = 17.82179 28.98924 23.40552
# Shear Modulus (GPa) = 33.59095 39.27164 36.43130
#
# Velocity S-wave (km/s) = 3.70146 4.00223 3.85478
# Velocity P-wave (km/s) = 5.05340 5.76030 5.41839
#
# Compressibility (1/GPa) = 0.05611108
#
# Stress axis : x y z
#
# Youngs Moduli (GPa) = 46.63550 48.69083 126.65942
#
# Poissons Ratio (x) = -0.41773 0.24992
# Poissons Ratio (y) = -0.40010 0.44184
# Poissons Ratio (z) = 0.09202 0.16985
#
# Static dielectric constant tensor:
#      x y z
#    x 4.424830 0.000000 0.000000 
#    y 0.000000 4.369280 0.000000 
#    z 0.000000 0.000000 4.897460 
# 
# 
# High freq. dielectric constant tensor:
#      x y z
#    x 1.979810 0.000000 0.000000 
#    y 0.000000 1.978370 0.000000 
#    z 0.000000 0.000000 1.989460 
# 
# From -- ./inp_files/19977.got.cif
#   From: 2010.03.12/outbox.cif.g09.slc.cpg/sg57_10_cif.got.tgz:19977.got - 2010.04.16 15:48:40.
