data_PCOD8234112
_publ_section_title
;
Structure prediction by ZEFSAII (Michael W. Deem and Ramdas Pophale) SiO2 
 PCOD8234112
Probable space group: P B C M
;
_chemical_formula_sum "Si O2"
_cell_formula_units_Z 48
_cell_length_a 26.899587
_cell_length_b 5.173150
_cell_length_c 16.653251
_cell_angle_alpha 90.000000
_cell_angle_beta 90.000000
_cell_angle_gamma 90.000000
_cell_volume 2317.393110
_symmetry_space_group_name_H-M "P B C M"
_symmetry_group_IT_number 57
_symmetry_cell_setting 'orthorhombic'
loop_
_space_group_symop_operation_xyz
x,y,z
-x,-y,1/2+z
x,1/2-y,-z
-x,1/2+y,1/2-z
-x,-y,-z
x,y,1/2-z
-x,1/2+y,z
x,1/2-y,1/2+z
loop_
_atom_site_type_symbol
_atom_site_label
_atom_site_fract_x
_atom_site_fract_y
_atom_site_fract_z
Si Si1 0.859048 0.168195 0.345849
Si Si2 0.689452 0.817048 0.656870
Si Si3 0.198059 0.167324 0.345622
Si Si4 0.639490 0.312980 0.591015
Si Si5 0.468150 0.815003 0.843163
Si Si6 0.028704 0.667631 0.345787
O O1 0.859478 0.169217 0.250000
O O2 0.829976 0.416288 0.379887
O O3 0.915182 0.169693 0.379190
O O4 0.830758 0.916761 0.378867
O O5 0.688835 0.741311 0.750000
O O6 0.745503 0.828637 0.622998
O O7 0.659705 0.597717 0.609675
O O8 0.664416 0.096680 0.647057
O O9 0.197475 0.161203 0.250000
O O10 0.652701 0.250000 0.500000
O O11 0.580624 0.312100 0.602996
O O12 0.452409 0.815575 0.750000
O O13 0.500506 0.566800 0.865355
O O14 0.029227 0.667328 0.250000
O O15 0.000251 0.416846 0.378935
#
# Coordination Sequence:
#
# PCOD8234112 Si02
#       6
#     8   8   8   8   8   8
#     4   9  15  24  37  57  86 118 165 224 268 309
#     4  11  22  39  61  83 111 150 197 239 281 339
#     4   9  17  28  45  67  89 122 172 228 271 308
#     4  12  25  40  60  89 122 152 186 233 290 340
#     4  10  21  38  61  87 115 150 191 231 273 326
#     4   9  15  21  30  47  76 118 163 205 255 318
#
# _framework density 20.712928000000002
#
# number of rings (size 3 to 8) (size 9 to 14) (size 15 to 20)
#    0.000    2.000    0.000    5.000    0.000    8.667 
#    0.000    0.000    0.000    0.000    0.000    0.000 
#    0.000    0.000    0.000    0.000    0.000  210.000 
#
# Total GULP energy -595379.687961 kJ/mol
# GULP energy per Si atom -12403.743499 kJ/mol
# Density = 2.066578 g / cm^3
# Si number density = 20.712928 Si / 1000 Ang^3
#
#
#
# Elastic Constant Matrix: (Units=GPa)
#
#
# Indices 1 2 3 4 5 6 
#
# 1 178.2350 80.6407 15.3170 0.0000 0.0000 0.0000
# 2 80.6407 177.7658 5.7320 0.0000 0.0000 0.0000
# 3 15.3170 5.7320 19.1124 0.0000 0.0000 0.0000
# 4 0.0000 0.0000 0.0000 12.5673 0.0000 0.0000
# 5 0.0000 0.0000 0.0000 0.0000 -0.7485 0.0000
# 6 0.0000 0.0000 0.0000 0.0000 0.0000 38.2551
#
#
#
# Elastic Compliance Matrix: (Units=1/GPa)
#
#
# Indices 1 2 3 4 5 6 
#
# 1 0.007513 -0.003245 -0.005047 0.000000 0.000000 0.000000
# 2 -0.003245 0.007082 0.000477 0.000000 0.000000 0.000000
# 3 -0.005047 0.000477 0.056224 0.000000 0.000000 0.000000
# 4 0.000000 0.000000 0.000000 0.079572 0.000000 0.000000
# 5 0.000000 0.000000 0.000000 0.000000 -1.336016 0.000000
# 6 0.000000 0.000000 0.000000 0.000000 0.000000 0.026140
#
#
# Mechanical properties :
#
#
# Convention : Reuss Voigt Hill
#
# Bulk Modulus (GPa) = 18.12014 64.27696 41.19855
# Shear Modulus (GPa) = -4.44264 28.24300 11.90018
#
# Velocity S-wave (km/s) = -1.46612 3.69663 2.39953
# Velocity P-wave (km/s) = 2.42924 7.02280 5.25457
#
# Compressibility (1/GPa) = 0.05518721
#
# Stress axis : x y z
#
# Youngs Moduli (GPa) = 133.10955 141.19998 17.78590
#
# Poissons Ratio (x) = 0.45823 0.08977
# Poissons Ratio (y) = 0.43197 -0.00848
# Poissons Ratio (z) = 0.67187 -0.06732
#
# Static dielectric constant tensor:
#      x y z
#    x 3.924880 0.000000 0.000000 
#    y 0.000000 3.936790 0.000000 
#    z 0.000000 0.000000 3.075940 
# 
# 
# High freq. dielectric constant tensor:
#      x y z
#    x 1.828570 0.000000 0.000000 
#    y 0.000000 1.830340 0.000000 
#    z 0.000000 0.000000 1.751960 
# 
# From -- ./inp_files/19565.got.cif
#   From: 2010.03.12/outbox.cif.g09.slc.cpg/sg57_10_cif.got.tgz:19565.got - 2010.04.16 15:48:40.
