data_PCOD8234853
_publ_section_title
;
Structure prediction by ZEFSAII (Michael W. Deem and Ramdas Pophale) SiO2 
 PCOD8234853
Probable space group: P B C M
;
_chemical_formula_sum "Si O2"
_cell_formula_units_Z 56
_cell_length_a 13.303152
_cell_length_b 8.914461
_cell_length_c 22.420839
_cell_angle_alpha 90.000000
_cell_angle_beta 90.000000
_cell_angle_gamma 90.000000
_cell_volume 2658.896931
_symmetry_space_group_name_H-M "P B C M"
_symmetry_group_IT_number 57
_symmetry_cell_setting 'orthorhombic'
loop_
_space_group_symop_operation_xyz
x,y,z
-x,-y,1/2+z
x,1/2-y,-z
-x,1/2+y,1/2-z
-x,-y,-z
x,y,1/2-z
-x,1/2+y,z
x,1/2-y,1/2+z
loop_
_atom_site_type_symbol
_atom_site_label
_atom_site_fract_x
_atom_site_fract_y
_atom_site_fract_z
Si Si1 0.377206 0.337220 0.681838
Si Si2 0.833746 0.207849 0.130426
Si Si3 0.174457 0.050090 0.142462
Si Si4 0.921703 0.776939 0.750000
Si Si5 0.977783 0.625875 0.453767
Si Si6 0.623470 0.204221 0.432065
Si Si7 0.872279 0.069639 0.250000
Si Si8 0.520841 0.560891 0.871301
O O1 0.339914 0.333989 0.750000
O O2 0.292224 0.409968 0.639685
O O3 0.398209 0.166629 0.661565
O O4 0.474671 0.443948 0.676482
O O5 0.845600 0.375756 0.155859
O O6 0.932329 0.159117 0.093075
O O7 0.738923 0.196563 0.087294
O O8 0.812827 0.101504 0.188141
O O9 0.126147 0.154345 0.191756
O O10 0.124997 0.089021 0.079792
O O11 0.909485 0.599338 0.750000
O O12 0.038636 0.810407 0.750000
O O13 0.949450 0.750000 0.500000
O O14 0.000000 0.500000 0.500000
O O15 0.618017 0.250000 0.500000
O O16 0.566075 0.333891 0.396743
O O17 0.573948 0.039820 0.422410
#
# Coordination Sequence:
#
# PCOD8234853 Si02
#       8
#     8   8   8   4   8   8   4   8
#     4  11  23  43  71 101 142 180 230 289 356 417
#     4  12  26  46  71 103 140 184 231 281 352 408
#     4  12  25  45  70 101 141 182 228 284 345 410
#     4  12  26  46  72  99 142 181 235 283 342 416
#     4  12  27  45  68  98 142 182 229 281 337 413
#     4  11  24  45  73  99 140 180 235 285 348 410
#     4  12  28  44  72 101 140 185 229 287 342 418
#     4  10  24  45  68 103 134 183 234 289 349 416
#
# _framework density 21.061366
#
# number of rings (size 3 to 8) (size 9 to 14) (size 15 to 20)
#    0.000    0.571    5.000    2.571    4.000    0.000 
#    5.143    0.714    0.000    0.000    0.000    0.000 
#    0.000    0.000    0.000    0.000    0.000    0.000 
#
# Total GULP energy -694297.169489 kJ/mol
# GULP energy per Si atom -12398.163741 kJ/mol
# Density = 2.101343 g / cm^3
# Si number density = 21.061366 Si / 1000 Ang^3
#
#
#
# Elastic Constant Matrix: (Units=GPa)
#
#
# Indices 1 2 3 4 5 6 
#
# 1 91.0040 39.6039 33.5450 0.0000 0.0000 0.0000
# 2 39.6039 158.6192 49.6534 0.0000 0.0000 0.0000
# 3 33.5450 49.6534 120.1680 0.0000 0.0000 0.0000
# 4 0.0000 0.0000 0.0000 40.9193 0.0000 0.0000
# 5 0.0000 0.0000 0.0000 0.0000 34.5886 0.0000
# 6 0.0000 0.0000 0.0000 0.0000 0.0000 33.6206
#
#
#
# Elastic Compliance Matrix: (Units=1/GPa)
#
#
# Indices 1 2 3 4 5 6 
#
# 1 0.013014 -0.002426 -0.002630 0.000000 0.000000 0.000000
# 2 -0.002426 0.007693 -0.002502 0.000000 0.000000 0.000000
# 3 -0.002630 -0.002502 0.010090 0.000000 0.000000 0.000000
# 4 0.000000 0.000000 0.000000 0.024438 0.000000 0.000000
# 5 0.000000 0.000000 0.000000 0.000000 0.028911 0.000000
# 6 0.000000 0.000000 0.000000 0.000000 0.000000 0.029744
#
#
# Mechanical properties :
#
#
# Convention : Reuss Voigt Hill
#
# Bulk Modulus (GPa) = 63.77241 68.37732 66.07487
# Shear Modulus (GPa) = 37.24870 38.29162 37.77016
#
# Velocity S-wave (km/s) = 4.21001 4.26854 4.23938
# Velocity P-wave (km/s) = 7.34693 7.53858 7.44337
#
# Compressibility (1/GPa) = 0.01568076
#
# Stress axis : x y z
#
# Youngs Moduli (GPa) = 76.84120 129.98494 99.11137
#
# Poissons Ratio (x) = 0.31533 0.26071
# Poissons Ratio (y) = 0.18641 0.24794
# Poissons Ratio (z) = 0.20213 0.32518
#
# Static dielectric constant tensor:
#      x y z
#    x 3.886510 0.000000 0.000000 
#    y 0.000000 4.027300 0.000000 
#    z 0.000000 0.000000 3.933000 
# 
# 
# High freq. dielectric constant tensor:
#      x y z
#    x 1.828170 0.000000 0.000000 
#    y 0.000000 1.846820 0.000000 
#    z 0.000000 0.000000 1.829670 
# 
# From -- ./inp_files/25470.got.cif
#   From: 2010.03.12/outbox.cif.g09.slc.cpg/sg57_13_cif.got.tgz:25470.got - 2010.04.16 15:48:40.
