data_PCOD8234870
_publ_section_title
;
Structure prediction by ZEFSAII (Michael W. Deem and Ramdas Pophale) SiO2 
 PCOD8234870
Probable space group: P B C M
;
_chemical_formula_sum "Si O2"
_cell_formula_units_Z 32
_cell_length_a 11.339972
_cell_length_b 8.426839
_cell_length_c 14.159349
_cell_angle_alpha 90.000000
_cell_angle_beta 90.000000
_cell_angle_gamma 90.000000
_cell_volume 1353.069066
_symmetry_space_group_name_H-M "P B C M"
_symmetry_group_IT_number 57
_symmetry_cell_setting 'orthorhombic'
loop_
_space_group_symop_operation_xyz
x,y,z
-x,-y,1/2+z
x,1/2-y,-z
-x,1/2+y,1/2-z
-x,-y,-z
x,y,1/2-z
-x,1/2+y,z
x,1/2-y,1/2+z
loop_
_atom_site_type_symbol
_atom_site_label
_atom_site_fract_x
_atom_site_fract_y
_atom_site_fract_z
Si Si1 0.249155 0.387699 0.926226
Si Si2 0.328629 0.591119 0.082447
Si Si3 0.530080 0.712657 0.640881
Si Si4 0.154403 0.853053 0.750000
Si Si5 0.898704 0.983123 0.750000
O O1 0.373472 0.348474 0.877509
O O2 0.152452 0.402925 0.844671
O O3 0.210080 0.250000 0.000000
O O4 0.264557 0.554975 0.982464
O O5 0.421134 0.452447 0.104790
O O6 0.408499 0.750374 0.084346
O O7 0.226398 0.596186 0.158748
O O8 0.496090 0.706175 0.750000
O O9 0.127780 0.668035 0.750000
O O10 0.037436 0.957904 0.750000
#
# Coordination Sequence:
#
# PCOD8234870 Si02
#       5
#     8   8   8   4   4
#     4  10  25  46  79 109 153 197 249 306 375 454
#     4  11  25  45  73 116 149 195 245 305 376 459
#     4  11  20  40  74 105 154 190 234 300 376 447
#     4  12  30  49  79 104 148 203 266 306 370 447
#     4  12  30  53  77 104 150 203 258 322 366 425
#
# _framework density 23.649939
#
# number of rings (size 3 to 8) (size 9 to 14) (size 15 to 20)
#    0.000    1.000    3.750    0.750   10.500    2.000 
#    0.000    0.000    0.000    0.000    0.000    0.000 
#    0.000    0.000    0.000    0.000    0.000    0.000 
#
# Total GULP energy -396867.233115 kJ/mol
# GULP energy per Si atom -12402.101035 kJ/mol
# Density = 2.359611 g / cm^3
# Si number density = 23.649939 Si / 1000 Ang^3
#
#
#
# Elastic Constant Matrix: (Units=GPa)
#
#
# Indices 1 2 3 4 5 6 
#
# 1 150.6759 45.1346 55.5082 0.0000 0.0000 0.0000
# 2 45.1346 69.2911 50.6161 0.0000 0.0000 0.0000
# 3 55.5082 50.6161 155.0748 0.0000 0.0000 0.0000
# 4 0.0000 0.0000 0.0000 34.1813 0.0000 0.0000
# 5 0.0000 0.0000 0.0000 0.0000 -90.8334 0.0000
# 6 0.0000 0.0000 0.0000 0.0000 0.0000 37.7184
#
#
#
# Elastic Compliance Matrix: (Units=1/GPa)
#
#
# Indices 1 2 3 4 5 6 
#
# 1 0.008549 -0.004377 -0.001631 0.000000 0.000000 0.000000
# 2 -0.004377 0.021191 -0.005350 0.000000 0.000000 0.000000
# 3 -0.001631 -0.005350 0.008779 0.000000 0.000000 0.000000
# 4 0.000000 0.000000 0.000000 0.029256 0.000000 0.000000
# 5 0.000000 0.000000 0.000000 0.000000 -0.011009 0.000000
# 6 0.000000 0.000000 0.000000 0.000000 0.000000 0.026512
#
#
# Mechanical properties :
#
#
# Convention : Reuss Voigt Hill
#
# Bulk Modulus (GPa) = 63.28327 75.28441 69.28384
# Shear Modulus (GPa) = 44.93934 11.13211 28.03573
#
# Velocity S-wave (km/s) = 4.36384 2.17192 3.44677
# Velocity P-wave (km/s) = 7.22546 6.17993 6.72305
#
# Compressibility (1/GPa) = 0.01580197
#
# Stress axis : x y z
#
# Youngs Moduli (GPa) = 116.97514 47.19007 113.91203
#
# Poissons Ratio (x) = 0.20654 0.18584
# Poissons Ratio (y) = 0.51197 0.60943
# Poissons Ratio (z) = 0.19084 0.25247
#
# Static dielectric constant tensor:
#      x y z
#    x 4.201090 0.000000 0.000000 
#    y 0.000000 4.492360 0.000000 
#    z 0.000000 0.000000 4.669250 
# 
# 
# High freq. dielectric constant tensor:
#      x y z
#    x 1.921230 0.000000 0.000000 
#    y 0.000000 1.951180 0.000000 
#    z 0.000000 0.000000 1.962070 
# 
# From -- ./inp_files/17201.got.cif
#   From: 2010.03.12/outbox.cif.g09.slc.cpg/sg57_9_cif.got.tgz:17201.got - 2010.04.16 15:48:40.
