data_PCOD8234840
_publ_section_title
;
Structure prediction by ZEFSAII (Michael W. Deem and Ramdas Pophale) SiO2 
 PCOD8234840
Probable space group: P B C M
;
_chemical_formula_sum "Si O2"
_cell_formula_units_Z 64
_cell_length_a 11.958357
_cell_length_b 11.183242
_cell_length_c 22.459395
_cell_angle_alpha 90.000000
_cell_angle_beta 90.000000
_cell_angle_gamma 90.000000
_cell_volume 3003.566769
_symmetry_space_group_name_H-M "P B C M"
_symmetry_group_IT_number 57
_symmetry_cell_setting 'orthorhombic'
loop_
_space_group_symop_operation_xyz
x,y,z
-x,-y,1/2+z
x,1/2-y,-z
-x,1/2+y,1/2-z
-x,-y,-z
x,y,1/2-z
-x,1/2+y,z
x,1/2-y,1/2+z
loop_
_atom_site_type_symbol
_atom_site_label
_atom_site_fract_x
_atom_site_fract_y
_atom_site_fract_z
Si Si1 0.484955 0.128547 0.030282
Si Si2 0.667151 0.667646 0.316362
Si Si3 0.213201 0.767810 0.316608
Si Si4 0.761856 0.619321 0.493237
Si Si5 0.838134 0.998923 0.879433
Si Si6 0.580148 0.378080 0.656055
Si Si7 0.931040 0.467335 0.818466
Si Si8 0.731064 0.589042 0.629353
O O1 0.561217 0.131171 0.086953
O O2 0.528569 0.250000 0.000000
O O3 0.353381 0.141553 0.042860
O O4 0.500000 0.000000 0.000000
O O5 0.708227 0.700920 0.250000
O O6 0.739895 0.560083 0.341409
O O7 0.538394 0.625133 0.310846
O O8 0.683514 0.779118 0.360422
O O9 0.193005 0.819876 0.250000
O O10 0.177462 0.860348 0.367783
O O11 0.343427 0.731762 0.321944
O O12 0.136432 0.653764 0.327672
O O13 0.821106 0.750000 0.500000
O O14 0.833218 0.531489 0.450336
O O15 0.738852 0.562075 0.558266
O O16 0.957443 0.955026 0.856628
O O17 0.646498 0.502311 0.665303
O O18 0.961181 0.492985 0.750000
O O19 0.855202 0.576225 0.843226
#
# Coordination Sequence:
#
# PCOD8234840 Si02
#       8
#     8   8   8   8   8   8   8   8
#     4  11  22  37  63  92 131 183 222 270 327 409
#     4  12  25  39  65  98 129 172 223 273 335 407
#     4  10  24  44  65  96 135 171 219 287 346 409
#     4  11  22  42  63  97 137 172 224 277 330 401
#     4  12  25  42  70  99 130 173 230 283 335 399
#     4  11  24  40  64  95 135 173 220 268 347 396
#     4  10  24  47  70  95 131 178 223 275 341 403
#     4  11  24  45  68  95 132 183 219 270 338 407
#
# _framework density 21.308
#
# number of rings (size 3 to 8) (size 9 to 14) (size 15 to 20)
#    0.000    1.000    3.750    2.625    5.250    2.000 
#    0.000    1.875    0.000    0.000    0.000    0.000 
#    0.000    0.000    0.000    0.000    0.000    0.000 
#
# Total GULP energy -793421.996502 kJ/mol
# GULP energy per Si atom -12397.218695 kJ/mol
# Density = 2.125950 g / cm^3
# Si number density = 21.308000 Si / 1000 Ang^3
#
#
#
# Elastic Constant Matrix: (Units=GPa)
#
#
# Indices 1 2 3 4 5 6 
#
# 1 104.0800 16.6851 33.5897 0.0000 0.0000 0.0000
# 2 16.6851 95.6523 32.7835 0.0000 0.0000 0.0000
# 3 33.5897 32.7835 111.0233 0.0000 0.0000 0.0000
# 4 0.0000 0.0000 0.0000 34.0454 0.0000 0.0000
# 5 0.0000 0.0000 0.0000 0.0000 31.2931 0.0000
# 6 0.0000 0.0000 0.0000 0.0000 0.0000 21.0722
#
#
#
# Elastic Compliance Matrix: (Units=1/GPa)
#
#
# Indices 1 2 3 4 5 6 
#
# 1 0.010708 -0.000843 -0.002991 0.000000 0.000000 0.000000
# 2 -0.000843 0.011698 -0.003199 0.000000 0.000000 0.000000
# 3 -0.002991 -0.003199 0.010857 0.000000 0.000000 0.000000
# 4 0.000000 0.000000 0.000000 0.029373 0.000000 0.000000
# 5 0.000000 0.000000 0.000000 0.000000 0.031956 0.000000
# 6 0.000000 0.000000 0.000000 0.000000 0.000000 0.047456
#
#
# Mechanical properties :
#
#
# Convention : Reuss Voigt Hill
#
# Bulk Modulus (GPa) = 52.09109 52.98579 52.53844
# Shear Modulus (GPa) = 30.76690 32.46198 31.61444
#
# Velocity S-wave (km/s) = 3.80401 3.90739 3.85605
# Velocity P-wave (km/s) = 6.61769 6.72886 6.67350
#
# Compressibility (1/GPa) = 0.01919714
#
# Stress axis : x y z
#
# Youngs Moduli (GPa) = 93.38495 85.48429 92.10900
#
# Poissons Ratio (x) = 0.07205 0.27549
# Poissons Ratio (y) = 0.07871 0.29468
# Poissons Ratio (z) = 0.27931 0.27349
#
# Static dielectric constant tensor:
#      x y z
#    x 3.865880 0.000000 0.000000 
#    y 0.000000 3.780960 0.000000 
#    z 0.000000 0.000000 3.955030 
# 
# 
# High freq. dielectric constant tensor:
#      x y z
#    x 1.831230 0.000000 0.000000 
#    y 0.000000 1.834420 0.000000 
#    z 0.000000 0.000000 1.844240 
# 
# From -- ./inp_files/27279.got.cif
#   From: 2010.03.12/outbox.cif.g09.slc.cpg/sg57_14_cif.got.tgz:27279.got - 2010.04.16 15:48:40.
