data_PCOD8234943
_publ_section_title
;
Structure prediction by ZEFSAII (Michael W. Deem and Ramdas Pophale) SiO2 
 PCOD8234943
Probable space group: P B C M
;
_chemical_formula_sum "Si O2"
_cell_formula_units_Z 32
_cell_length_a 6.950790
_cell_length_b 10.883183
_cell_length_c 17.583317
_cell_angle_alpha 90.000000
_cell_angle_beta 90.000000
_cell_angle_gamma 90.000000
_cell_volume 1330.120250
_symmetry_space_group_name_H-M "P B C M"
_symmetry_group_IT_number 57
_symmetry_cell_setting 'orthorhombic'
loop_
_space_group_symop_operation_xyz
x,y,z
-x,-y,1/2+z
x,1/2-y,-z
-x,1/2+y,1/2-z
-x,-y,-z
x,y,1/2-z
-x,1/2+y,z
x,1/2-y,1/2+z
loop_
_atom_site_type_symbol
_atom_site_label
_atom_site_fract_x
_atom_site_fract_y
_atom_site_fract_z
Si Si1 0.847780 0.088907 0.063865
Si Si2 0.598784 0.909482 0.337063
Si Si3 0.880384 0.711461 0.166167
Si Si4 0.199828 0.646230 0.600789
O O1 0.733244 0.217677 0.073843
O O2 0.058279 0.104601 0.106313
O O3 0.718067 0.986291 0.101985
O O4 0.875831 0.067303 0.972862
O O5 0.629454 0.955606 0.250000
O O6 0.665853 0.766318 0.345076
O O7 0.374215 0.921735 0.357108
O O8 0.904774 0.655157 0.250000
O O9 0.019019 0.832854 0.157167
#
# Coordination Sequence:
#
# PCOD8234943 Si02
#       4
#     8   8   8   8
#     4   9  20  40  55  84 116 148 185 237 282 330
#     4  11  21  35  61  83 111 156 186 233 292 333
#     4   9  19  37  55  82 116 142 189 236 274 340
#     4   9  20  40  54  84 115 146 190 235 277 336
#
# _framework density 24.057973
#
# number of rings (size 3 to 8) (size 9 to 14) (size 15 to 20)
#    1.500    1.000    0.000    2.250    0.000    1.000 
#   13.500    0.000    0.000    0.000    0.000    0.000 
#    0.000    0.000    0.000    0.000    0.000    0.000 
#
# Total GULP energy -396432.684642 kJ/mol
# GULP energy per Si atom -12388.521395 kJ/mol
# Density = 2.400322 g / cm^3
# Si number density = 24.057973 Si / 1000 Ang^3
#
#
#
# Elastic Constant Matrix: (Units=GPa)
#
#
# Indices 1 2 3 4 5 6 
#
# 1 64.3282 -13.7147 12.9421 0.0000 0.0000 0.0000
# 2 -13.7147 23.6211 13.8292 0.0000 0.0000 0.0000
# 3 12.9421 13.8292 135.9853 0.0000 0.0000 0.0000
# 4 0.0000 0.0000 0.0000 39.9011 0.0000 0.0000
# 5 0.0000 0.0000 0.0000 0.0000 34.9489 0.0000
# 6 0.0000 0.0000 0.0000 0.0000 0.0000 19.6087
#
#
#
# Elastic Compliance Matrix: (Units=1/GPa)
#
#
# Indices 1 2 3 4 5 6 
#
# 1 0.018894 0.012784 -0.003098 0.000000 0.000000 0.000000
# 2 0.012784 0.053665 -0.006674 0.000000 0.000000 0.000000
# 3 -0.003098 -0.006674 0.008327 0.000000 0.000000 0.000000
# 4 0.000000 0.000000 0.000000 0.025062 0.000000 0.000000
# 5 0.000000 0.000000 0.000000 0.000000 0.028613 0.000000
# 6 0.000000 0.000000 0.000000 0.000000 0.000000 0.050998
#
#
# Mechanical properties :
#
#
# Convention : Reuss Voigt Hill
#
# Bulk Modulus (GPa) = 11.50617 27.78310 19.64464
# Shear Modulus (GPa) = 23.98006 32.95027 28.46517
#
# Velocity S-wave (km/s) = 3.16058 3.70485 3.44349
# Velocity P-wave (km/s) = 4.25583 5.46578 4.89830
#
# Compressibility (1/GPa) = 0.08690989
#
# Stress axis : x y z
#
# Youngs Moduli (GPa) = 52.92634 18.63404 120.08601
#
# Poissons Ratio (x) = -0.23822 0.37206
# Poissons Ratio (y) = -0.67662 0.80149
# Poissons Ratio (z) = 0.16398 0.12437
#
# Static dielectric constant tensor:
#      x y z
#    x 3.953060 0.000000 0.000000 
#    y 0.000000 4.033560 0.000000 
#    z 0.000000 0.000000 4.228800 
# 
# 
# High freq. dielectric constant tensor:
#      x y z
#    x 1.935850 0.000000 0.000000 
#    y 0.000000 1.951650 0.000000 
#    z 0.000000 0.000000 1.961810 
# 
# From -- ./inp_files/15667.got.cif
#   From: 2010.03.12/outbox.cif.g09.slc.cpg/sg57_8_cif.got.tgz:15667.got - 2010.04.16 15:48:40.
