data_PCOD8234461
_publ_section_title
;
Structure prediction by ZEFSAII (Michael W. Deem and Ramdas Pophale) SiO2 
 PCOD8234461
Probable space group: P B C M
;
_chemical_formula_sum "Si O2"
_cell_formula_units_Z 64
_cell_length_a 19.159555
_cell_length_b 9.337861
_cell_length_c 17.643359
_cell_angle_alpha 90.000000
_cell_angle_beta 90.000000
_cell_angle_gamma 90.000000
_cell_volume 3156.560328
_symmetry_space_group_name_H-M "P B C M"
_symmetry_group_IT_number 57
_symmetry_cell_setting 'orthorhombic'
loop_
_space_group_symop_operation_xyz
x,y,z
-x,-y,1/2+z
x,1/2-y,-z
-x,1/2+y,1/2-z
-x,-y,-z
x,y,1/2-z
-x,1/2+y,z
x,1/2-y,1/2+z
loop_
_atom_site_type_symbol
_atom_site_label
_atom_site_fract_x
_atom_site_fract_y
_atom_site_fract_z
Si Si1 0.803634 0.893707 0.405681
Si Si2 0.644965 0.976905 0.421495
Si Si3 0.053871 0.605448 0.840173
Si Si4 0.170713 0.423278 0.580563
Si Si5 0.710280 0.370898 0.444301
Si Si6 0.602126 0.247930 0.160761
Si Si7 0.493017 0.133204 0.945371
Si Si8 0.078655 0.572480 0.338005
O O1 0.721285 0.924804 0.394707
O O2 0.817743 0.730784 0.378976
O O3 0.833114 0.907734 0.490238
O O4 0.844791 0.012311 0.357300
O O5 0.589812 0.845635 0.426084
O O6 0.653159 0.046195 0.504950
O O7 0.602432 0.081611 0.364288
O O8 0.067328 0.594730 0.750000
O O9 0.103406 0.496156 0.884141
O O10 0.064076 0.767896 0.872216
O O11 0.977085 0.548278 0.863122
O O12 0.235340 0.526084 0.596214
O O13 0.745243 0.250000 0.500000
O O14 0.675406 0.301903 0.371488
O O15 0.600520 0.260371 0.250000
O O16 0.539114 0.349267 0.130640
O O17 0.524577 0.250000 0.000000
O O18 0.500000 0.000000 0.000000
O O19 0.072944 0.597476 0.250000
#
# Coordination Sequence:
#
# PCOD8234461 Si02
#       8
#     8   8   8   8   8   8   8   8
#     4  10  23  40  62  92 124 159 205 263 314 366
#     4  10  22  40  63  88 123 163 211 253 312 380
#     4  10  22  39  63  90 122 166 211 251 303 375
#     4  10  22  37  61  95 124 156 205 262 306 363
#     4   9  19  37  60  87 120 167 203 248 306 380
#     4  11  23  39  60  93 130 159 203 264 319 376
#     4  12  22  41  69  92 116 169 215 255 311 384
#     4  10  22  41  63  88 122 168 210 250 308 374
#
# _framework density 20.275234999999999
#
# number of rings (size 3 to 8) (size 9 to 14) (size 15 to 20)
#    0.000    1.750    2.500    1.125    8.750    3.500 
#    0.000    0.000    0.000    0.000    0.000    0.000 
#    0.000    0.000    0.000    0.000    0.000    0.000 
#
# Total GULP energy -792921.839449 kJ/mol
# GULP energy per Si atom -12389.403741 kJ/mol
# Density = 2.022909 g / cm^3
# Si number density = 20.275235 Si / 1000 Ang^3
#
#
#
# Elastic Constant Matrix: (Units=GPa)
#
#
# Indices 1 2 3 4 5 6 
#
# 1 114.1588 45.7589 35.4002 0.0000 0.0000 0.0000
# 2 45.7589 112.8194 14.4171 0.0000 0.0000 0.0000
# 3 35.4002 14.4171 63.5005 0.0000 0.0000 0.0000
# 4 0.0000 0.0000 0.0000 24.1124 0.0000 0.0000
# 5 0.0000 0.0000 0.0000 0.0000 22.0506 0.0000
# 6 0.0000 0.0000 0.0000 0.0000 0.0000 40.3609
#
#
#
# Elastic Compliance Matrix: (Units=1/GPa)
#
#
# Indices 1 2 3 4 5 6 
#
# 1 0.012280 -0.004228 -0.005886 0.000000 0.000000 0.000000
# 2 -0.004228 0.010585 -0.000046 0.000000 0.000000 0.000000
# 3 -0.005886 -0.000046 0.019039 0.000000 0.000000 0.000000
# 4 0.000000 0.000000 0.000000 0.041472 0.000000 0.000000
# 5 0.000000 0.000000 0.000000 0.000000 0.045350 0.000000
# 6 0.000000 0.000000 0.000000 0.000000 0.000000 0.024776
#
#
# Mechanical properties :
#
#
# Convention : Reuss Voigt Hill
#
# Bulk Modulus (GPa) = 46.33090 53.51454 49.92272
# Shear Modulus (GPa) = 27.62161 30.29828 28.95995
#
# Velocity S-wave (km/s) = 3.69498 3.86988 3.78344
# Velocity P-wave (km/s) = 6.41128 6.81317 6.61527
#
# Compressibility (1/GPa) = 0.02158387
#
# Stress axis : x y z
#
# Youngs Moduli (GPa) = 81.43469 94.47661 52.52250
#
# Poissons Ratio (x) = 0.39949 0.30913
# Poissons Ratio (y) = 0.34434 0.00241
# Poissons Ratio (z) = 0.47930 0.00433
#
# Static dielectric constant tensor:
#      x y z
#    x 3.870940 0.000000 0.000000 
#    y 0.000000 3.969710 0.000000 
#    z 0.000000 0.000000 3.415750 
# 
# 
# High freq. dielectric constant tensor:
#      x y z
#    x 1.799070 0.000000 0.000000 
#    y 0.000000 1.804780 0.000000 
#    z 0.000000 0.000000 1.762990 
# 
# From -- ./inp_files/23037.got.cif
#   From: 2010.03.12/outbox.cif.g09.slc.cpg/sg57_12_cif.got.tgz:23037.got - 2010.04.16 15:48:40.
