data_PCOD8234191
_publ_section_title
;
Structure prediction by ZEFSAII (Michael W. Deem and Ramdas Pophale) SiO2 
 PCOD8234191
Probable space group: P B C M
;
_chemical_formula_sum "Si O2"
_cell_formula_units_Z 64
_cell_length_a 23.749396
_cell_length_b 15.487605
_cell_length_c 8.673535
_cell_angle_alpha 90.000000
_cell_angle_beta 90.000000
_cell_angle_gamma 90.000000
_cell_volume 3190.310609
_symmetry_space_group_name_H-M "P B C M"
_symmetry_group_IT_number 57
_symmetry_cell_setting 'orthorhombic'
loop_
_space_group_symop_operation_xyz
x,y,z
-x,-y,1/2+z
x,1/2-y,-z
-x,1/2+y,1/2-z
-x,-y,-z
x,y,1/2-z
-x,1/2+y,z
x,1/2-y,1/2+z
loop_
_atom_site_type_symbol
_atom_site_label
_atom_site_fract_x
_atom_site_fract_y
_atom_site_fract_z
Si Si1 0.884535 0.160888 0.933026
Si Si2 0.811105 0.498602 0.066888
Si Si3 0.504837 0.593928 0.428264
Si Si4 0.880744 0.660119 0.431468
Si Si5 0.616419 0.660369 0.567973
Si Si6 0.997895 0.094886 0.432360
Si Si7 0.316814 0.498852 0.567777
Si Si8 0.380950 0.658736 0.428729
O O1 0.885677 0.164127 0.750000
O O2 0.844354 0.084899 0.995757
O O3 0.860071 0.250000 0.000000
O O4 0.947505 0.148400 0.993909
O O5 0.813819 0.498558 0.250000
O O6 0.841365 0.584093 0.000869
O O7 0.747182 0.495461 0.008286
O O8 0.500000 0.500000 0.500000
O O9 0.521397 0.584048 0.250000
O O10 0.552388 0.647924 0.514568
O O11 0.447278 0.645522 0.450560
O O12 0.859240 0.750000 0.500000
O O13 0.874252 0.663847 0.250000
O O14 0.944983 0.643261 0.480255
O O15 0.640081 0.750000 0.500000
O O16 0.618099 0.664661 0.750000
O O17 0.654993 0.582643 0.512163
O O18 0.990615 0.089428 0.250000
O O19 0.000000 0.000000 0.500000
O O20 0.320470 0.486626 0.750000
O O21 0.348184 0.585646 0.520966
O O22 0.363054 0.750000 0.500000
O O23 0.363728 0.654953 0.250000
#
# Coordination Sequence:
#
# PCOD8234191 Si02
#       8
#     8   8   8   8   8   8   8   8
#     4  11  22  40  62  89 125 160 202 251 302 366
#     4   9  21  42  63  85 119 161 202 253 308 359
#     4  11  22  38  64  95 129 164 201 249 308 369
#     4  10  21  39  60  87 121 156 195 243 299 360
#     4  12  25  42  64  93 128 164 208 256 307 368
#     4  11  21  36  61  90 123 160 198 246 306 366
#     4  11  23  42  67  90 120 162 209 259 313 365
#     4  11  24  41  63  93 127 162 203 251 305 366
#
# _framework density 20.060742999999999
#
# number of rings (size 3 to 8) (size 9 to 14) (size 15 to 20)
#    0.000    1.250    2.500    3.750    0.000    5.500 
#    0.000    6.250    0.000    0.000    0.000    0.000 
#    0.000    0.000    0.000    0.000    0.000    0.000 
#
# Total GULP energy -793928.443248 kJ/mol
# GULP energy per Si atom -12405.131926 kJ/mol
# Density = 2.001508 g / cm^3
# Si number density = 20.060743 Si / 1000 Ang^3
#
#
#
# Elastic Constant Matrix: (Units=GPa)
#
#
# Indices 1 2 3 4 5 6 
#
# 1 123.7011 58.3693 43.5219 0.0000 0.0000 0.0000
# 2 58.3693 175.9456 45.7000 0.0000 0.0000 0.0000
# 3 43.5219 45.7000 98.8797 0.0000 0.0000 0.0000
# 4 0.0000 0.0000 0.0000 38.4703 0.0000 0.0000
# 5 0.0000 0.0000 0.0000 0.0000 22.0886 0.0000
# 6 0.0000 0.0000 0.0000 0.0000 0.0000 13.2576
#
#
#
# Elastic Compliance Matrix: (Units=1/GPa)
#
#
# Indices 1 2 3 4 5 6 
#
# 1 0.010516 -0.002598 -0.003428 0.000000 0.000000 0.000000
# 2 -0.002598 0.007101 -0.002138 0.000000 0.000000 0.000000
# 3 -0.003428 -0.002138 0.012610 0.000000 0.000000 0.000000
# 4 0.000000 0.000000 0.000000 0.025994 0.000000 0.000000
# 5 0.000000 0.000000 0.000000 0.000000 0.045272 0.000000
# 6 0.000000 0.000000 0.000000 0.000000 0.000000 0.075428
#
#
# Mechanical properties :
#
#
# Convention : Reuss Voigt Hill
#
# Bulk Modulus (GPa) = 71.94965 77.07877 74.51421
# Shear Modulus (GPa) = 25.26740 31.49231 28.37985
#
# Velocity S-wave (km/s) = 3.55286 3.96643 3.76532
# Velocity P-wave (km/s) = 7.26458 7.71251 7.49189
#
# Compressibility (1/GPa) = 0.01389861
#
# Stress axis : x y z
#
# Youngs Moduli (GPa) = 95.09293 140.82621 79.30044
#
# Poissons Ratio (x) = 0.36591 0.27182
# Poissons Ratio (y) = 0.24708 0.16956
# Poissons Ratio (z) = 0.32595 0.30112
#
# Static dielectric constant tensor:
#      x y z
#    x 3.858150 0.000000 0.000000 
#    y 0.000000 3.878840 0.000000 
#    z 0.000000 0.000000 3.677280 
# 
# 
# High freq. dielectric constant tensor:
#      x y z
#    x 1.781750 0.000000 0.000000 
#    y 0.000000 1.802240 0.000000 
#    z 0.000000 0.000000 1.781460 
# 
# From -- ./inp_files/9448.got.cif
#   From: 2010.03.12/outbox.cif.g09.slc.cpg/sg57_5_cif.got.tgz:9448.got - 2010.04.16 15:48:40.
