data_PCOD8234860
_publ_section_title
;
Structure prediction by ZEFSAII (Michael W. Deem and Ramdas Pophale) SiO2 
 PCOD8234860
Probable space group: P B C M
;
_chemical_formula_sum "Si O2"
_cell_formula_units_Z 40
_cell_length_a 4.928029
_cell_length_b 10.262653
_cell_length_c 27.744344
_cell_angle_alpha 90.000000
_cell_angle_beta 90.000000
_cell_angle_gamma 90.000000
_cell_volume 1403.160532
_symmetry_space_group_name_H-M "P B C M"
_symmetry_group_IT_number 57
_symmetry_cell_setting 'orthorhombic'
loop_
_space_group_symop_operation_xyz
x,y,z
-x,-y,1/2+z
x,1/2-y,-z
-x,1/2+y,1/2-z
-x,-y,-z
x,y,1/2-z
-x,1/2+y,z
x,1/2-y,1/2+z
loop_
_atom_site_type_symbol
_atom_site_label
_atom_site_fract_x
_atom_site_fract_y
_atom_site_fract_z
Si Si1 0.823842 0.842490 0.379237
Si Si2 0.579661 0.302442 0.945289
Si Si3 0.077226 0.468667 0.553432
Si Si4 0.198986 0.727409 0.803625
Si Si5 0.437279 0.510523 0.303910
O O1 0.548594 0.794333 0.405511
O O2 0.971072 0.738131 0.343837
O O3 0.039474 0.895864 0.418495
O O4 0.767213 0.964931 0.344849
O O5 0.883666 0.347642 0.929579
O O6 0.391334 0.431239 0.942956
O O7 0.575082 0.250000 0.000000
O O8 0.000000 0.500000 0.500000
O O9 0.075401 0.746610 0.750000
O O10 0.291281 0.576312 0.810617
O O11 0.452505 0.830796 0.810396
O O12 0.324466 0.480502 0.250000
#
# Coordination Sequence:
#
# PCOD8234860 Si02
#       5
#     8   8   8   8   8
#     4  12  27  43  78 108 157 206 274 336 413 485
#     4  12  28  48  76 109 156 208 270 330 409 482
#     4  12  28  49  74 112 154 212 267 338 404 485
#     4  10  24  48  77 116 161 213 273 337 411 491
#     4  10  24  46  75 111 156 208 264 334 406 487
#
# _framework density 28.507072000000001
#
# number of rings (size 3 to 8) (size 9 to 14) (size 15 to 20)
#    0.000    0.800    2.000    3.000    8.400    1.600 
#    0.000    4.000    0.000    0.000    0.000    0.000 
#    0.000    0.000    0.000    0.000    0.000    0.000 
#
# Total GULP energy -495621.048720 kJ/mol
# GULP energy per Si atom -12390.526218 kJ/mol
# Density = 2.844219 g / cm^3
# Si number density = 28.507072 Si / 1000 Ang^3
#
#
#
# Elastic Constant Matrix: (Units=GPa)
#
#
# Indices 1 2 3 4 5 6 
#
# 1 48.0844 9.3576 4.9594 0.0000 0.0000 0.0000
# 2 9.3576 110.2444 26.1929 0.0000 0.0000 0.0000
# 3 4.9594 26.1929 167.1406 0.0000 0.0000 0.0000
# 4 0.0000 0.0000 0.0000 30.4546 0.0000 0.0000
# 5 0.0000 0.0000 0.0000 0.0000 32.9293 0.0000
# 6 0.0000 0.0000 0.0000 0.0000 0.0000 44.0396
#
#
#
# Elastic Compliance Matrix: (Units=1/GPa)
#
#
# Indices 1 2 3 4 5 6 
#
# 1 0.021167 -0.001711 -0.000360 0.000000 0.000000 0.000000
# 2 -0.001711 0.009560 -0.001447 0.000000 0.000000 0.000000
# 3 -0.000360 -0.001447 0.006220 0.000000 0.000000 0.000000
# 4 0.000000 0.000000 0.000000 0.032836 0.000000 0.000000
# 5 0.000000 0.000000 0.000000 0.000000 0.030368 0.000000
# 6 0.000000 0.000000 0.000000 0.000000 0.000000 0.022707
#
#
# Mechanical properties :
#
#
# Convention : Reuss Voigt Hill
#
# Bulk Modulus (GPa) = 33.43317 45.16544 39.29931
# Shear Modulus (GPa) = 35.74880 40.48201 38.11541
#
# Velocity S-wave (km/s) = 3.54507 3.77247 3.66054
# Velocity P-wave (km/s) = 5.33950 5.90367 5.62866
#
# Compressibility (1/GPa) = 0.02991041
#
# Stress axis : x y z
#
# Youngs Moduli (GPa) = 47.24362 104.60383 160.75918
#
# Poissons Ratio (x) = 0.17899 0.05786
# Poissons Ratio (y) = 0.08084 0.23268
# Poissons Ratio (z) = 0.01700 0.15140
#
# Static dielectric constant tensor:
#      x y z
#    x 5.114480 0.000000 0.000000 
#    y 0.000000 5.530010 0.000000 
#    z 0.000000 0.000000 5.720520 
# 
# 
# High freq. dielectric constant tensor:
#      x y z
#    x 2.130950 0.000000 0.000000 
#    y 0.000000 2.159940 0.000000 
#    z 0.000000 0.000000 2.191310 
# 
# From -- ./inp_files/27785.got.cif
#   From: 2010.03.12/outbox.cif.g09.slc.cpg/sg57_14_cif.got.tgz:27785.got - 2010.04.16 15:48:40.
