data_PCOD8234299
_publ_section_title
;
Structure prediction by ZEFSAII (Michael W. Deem and Ramdas Pophale) SiO2 
 PCOD8234299
Probable space group: P B C M
;
_chemical_formula_sum "Si O2"
_cell_formula_units_Z 40
_cell_length_a 7.989423
_cell_length_b 16.130200
_cell_length_c 13.943407
_cell_angle_alpha 90.000000
_cell_angle_beta 90.000000
_cell_angle_gamma 90.000000
_cell_volume 1796.900676
_symmetry_space_group_name_H-M "P B C M"
_symmetry_group_IT_number 57
_symmetry_cell_setting 'orthorhombic'
loop_
_space_group_symop_operation_xyz
x,y,z
-x,-y,1/2+z
x,1/2-y,-z
-x,1/2+y,1/2-z
-x,-y,-z
x,y,1/2-z
-x,1/2+y,z
x,1/2-y,1/2+z
loop_
_atom_site_type_symbol
_atom_site_label
_atom_site_fract_x
_atom_site_fract_y
_atom_site_fract_z
Si Si1 0.461825 0.233182 0.639615
Si Si2 0.808133 0.175105 0.570081
Si Si3 0.855743 0.867609 0.358159
Si Si4 0.250008 0.505218 0.016751
Si Si5 0.543877 0.921608 0.865683
O O1 0.426784 0.245893 0.750000
O O2 0.628954 0.178758 0.623571
O O3 0.297606 0.187245 0.597044
O O4 0.484647 0.326319 0.597504
O O5 0.826853 0.250000 0.500000
O O6 0.829184 0.092659 0.508141
O O7 0.966443 0.180618 0.642157
O O8 0.811030 0.893026 0.250000
O O9 0.879554 0.949465 0.423170
O O10 0.401435 0.519146 0.091672
O O11 0.290696 0.456931 0.917156
O O12 0.555519 0.929580 0.750000
#
# Coordination Sequence:
#
# PCOD8234299 Si02
#       5
#     8   8   8   8   8
#     4  10  22  43  69  95 132 178 218 269 329 390
#     4  12  25  42  67  98 131 176 223 276 329 397
#     4  11  26  45  68  98 134 176 223 273 330 398
#     4  11  23  40  67  96 134 178 217 278 338 387
#     4  10  21  39  67 102 134 174 226 272 330 399
#
# _framework density 22.260553000000002
#
# number of rings (size 3 to 8) (size 9 to 14) (size 15 to 20)
#    0.000    1.200    2.000    4.200    2.800    3.200 
#    0.000    0.000    0.000    0.000    0.000    0.000 
#    0.000    0.000    0.000    0.000    0.000    0.000 
#
# Total GULP energy -495830.091424 kJ/mol
# GULP energy per Si atom -12395.752286 kJ/mol
# Density = 2.220989 g / cm^3
# Si number density = 22.260553 Si / 1000 Ang^3
#
#
#
# Elastic Constant Matrix: (Units=GPa)
#
#
# Indices 1 2 3 4 5 6 
#
# 1 136.9598 43.1434 31.4499 0.0000 0.0000 0.0000
# 2 43.1434 118.1803 32.8329 0.0000 0.0000 0.0000
# 3 31.4499 32.8329 87.3859 0.0000 0.0000 0.0000
# 4 0.0000 0.0000 0.0000 34.3338 0.0000 0.0000
# 5 0.0000 0.0000 0.0000 0.0000 -7.1183 0.0000
# 6 0.0000 0.0000 0.0000 0.0000 0.0000 67.9672
#
#
#
# Elastic Compliance Matrix: (Units=1/GPa)
#
#
# Indices 1 2 3 4 5 6 
#
# 1 0.008593 -0.002543 -0.002137 0.000000 0.000000 0.000000
# 2 -0.002543 0.010201 -0.002917 0.000000 0.000000 0.000000
# 3 -0.002137 -0.002917 0.013309 0.000000 0.000000 0.000000
# 4 0.000000 0.000000 0.000000 0.029126 0.000000 0.000000
# 5 0.000000 0.000000 0.000000 0.000000 -0.140484 0.000000
# 6 0.000000 0.000000 0.000000 0.000000 0.000000 0.014713
#
#
# Mechanical properties :
#
#
# Convention : Reuss Voigt Hill
#
# Bulk Modulus (GPa) = 59.14650 61.93096 60.53873
# Shear Modulus (GPa) = -114.38760 34.70986 -39.83887
#
# Velocity S-wave (km/s) = -7.17616 3.95302 -4.23503
# Velocity P-wave (km/s) = 6.48347 6.97972 1.82773
#
# Compressibility (1/GPa) = 0.01690717
#
# Stress axis : x y z
#
# Youngs Moduli (GPa) = 116.36915 98.03323 75.13876
#
# Poissons Ratio (x) = 0.24934 0.16058
# Poissons Ratio (y) = 0.29597 0.21920
# Poissons Ratio (z) = 0.24869 0.28599
#
# Static dielectric constant tensor:
#      x y z
#    x 4.132200 0.000000 0.000000 
#    y 0.000000 4.456060 0.000000 
#    z 0.000000 0.000000 4.244590 
# 
# 
# High freq. dielectric constant tensor:
#      x y z
#    x 1.873400 0.000000 0.000000 
#    y 0.000000 1.884810 0.000000 
#    z 0.000000 0.000000 1.877150 
# 
# From -- ./inp_files/15889.got.cif
#   From: 2010.03.12/outbox.cif.g09.slc.cpg/sg57_8_cif.got.tgz:15889.got - 2010.04.16 15:48:40.
