data_PCOD8234359
_publ_section_title
;
Structure prediction by ZEFSAII (Michael W. Deem and Ramdas Pophale) SiO2 
 PCOD8234359
Probable space group: P B C M
;
_chemical_formula_sum "Si O2"
_cell_formula_units_Z 64
_cell_length_a 13.608745
_cell_length_b 12.390582
_cell_length_c 17.213876
_cell_angle_alpha 90.000000
_cell_angle_beta 90.000000
_cell_angle_gamma 90.000000
_cell_volume 2902.608433
_symmetry_space_group_name_H-M "P B C M"
_symmetry_group_IT_number 57
_symmetry_cell_setting 'orthorhombic'
loop_
_space_group_symop_operation_xyz
x,y,z
-x,-y,1/2+z
x,1/2-y,-z
-x,1/2+y,1/2-z
-x,-y,-z
x,y,1/2-z
-x,1/2+y,z
x,1/2-y,1/2+z
loop_
_atom_site_type_symbol
_atom_site_label
_atom_site_fract_x
_atom_site_fract_y
_atom_site_fract_z
Si Si1 0.661811 0.076039 0.956105
Si Si2 0.704556 0.239078 0.665133
Si Si3 0.914507 0.309469 0.387064
Si Si4 0.398007 0.558815 0.112734
Si Si5 0.869725 0.086564 0.034470
Si Si6 0.680923 0.664049 0.838520
Si Si7 0.105875 0.406800 0.163089
Si Si8 0.612105 0.603972 0.160931
O O1 0.643492 0.180023 0.902341
O O2 0.668653 0.974222 0.898705
O O3 0.576194 0.075912 0.020858
O O4 0.754061 0.085890 0.015357
O O5 0.661008 0.211740 0.750000
O O6 0.815920 0.193586 0.664980
O O7 0.690835 0.366958 0.648487
O O8 0.911952 0.195309 0.429042
O O9 0.916316 0.411551 0.447628
O O10 0.012376 0.326199 0.336642
O O11 0.367008 0.434516 0.116045
O O12 0.495888 0.583297 0.160599
O O13 0.900458 0.991897 0.092693
O O14 0.650572 0.647543 0.750000
O O15 0.798436 0.666717 0.849998
O O16 0.636692 0.776219 0.869173
O O17 0.110236 0.461222 0.250000
O O18 0.649484 0.586654 0.250000
#
# Coordination Sequence:
#
# PCOD8234359 Si02
#       8
#     8   8   8   8   8   8   8   8
#     4  11  23  44  67  96 136 176 226 282 341 408
#     4  11  22  39  67  99 134 175 226 285 344 404
#     4  10  21  40  66  96 134 173 222 280 336 403
#     4  12  23  44  72  98 135 183 227 283 345 411
#     4  10  21  43  65  95 135 175 220 279 336 404
#     4  10  23  44  66  97 134 172 229 276 333 414
#     4  11  22  41  67  95 131 176 225 278 334 402
#     4  11  26  45  68 100 136 175 226 288 349 409
#
# _framework density 22.049133999999999
#
# number of rings (size 3 to 8) (size 9 to 14) (size 15 to 20)
#    0.000    1.250    2.500    3.000    1.750    2.500 
#   11.250    0.000    0.000    0.000    0.000    0.000 
#    0.000    0.000    0.000    0.000    0.000    0.000 
#
# Total GULP energy -792892.529202 kJ/mol
# GULP energy per Si atom -12388.945769 kJ/mol
# Density = 2.199895 g / cm^3
# Si number density = 22.049134 Si / 1000 Ang^3
#
#
#
# Elastic Constant Matrix: (Units=GPa)
#
#
# Indices 1 2 3 4 5 6 
#
# 1 61.3488 8.6861 -5.0060 0.0000 0.0000 0.0000
# 2 8.6861 72.2014 -1.3385 0.0000 0.0000 0.0000
# 3 -5.0060 -1.3385 64.0546 0.0000 0.0000 0.0000
# 4 0.0000 0.0000 0.0000 -0.8759 0.0000 0.0000
# 5 0.0000 0.0000 0.0000 0.0000 389.1497 0.0000
# 6 0.0000 0.0000 0.0000 0.0000 0.0000 24.7148
#
#
#
# Elastic Compliance Matrix: (Units=1/GPa)
#
#
# Indices 1 2 3 4 5 6 
#
# 1 0.016684 -0.001984 0.001262 0.000000 0.000000 0.000000
# 2 -0.001984 0.014091 0.000139 0.000000 0.000000 0.000000
# 3 0.001262 0.000139 0.015713 0.000000 0.000000 0.000000
# 4 0.000000 0.000000 0.000000 -1.141662 0.000000 0.000000
# 5 0.000000 0.000000 0.000000 0.000000 0.002570 0.000000
# 6 0.000000 0.000000 0.000000 0.000000 0.000000 0.040462
#
#
# Mechanical properties :
#
#
# Convention : Reuss Voigt Hill
#
# Bulk Modulus (GPa) = 22.06288 22.47644 22.26966
# Shear Modulus (GPa) = -4.82686 95.61525 45.39419
#
# Velocity S-wave (km/s) = -1.48118 6.59233 4.54229
# Velocity P-wave (km/s) = 2.66510 8.25596 6.13448
#
# Compressibility (1/GPa) = 0.04532499
#
# Stress axis : x y z
#
# Youngs Moduli (GPa) = 59.93722 70.96531 63.64050
#
# Poissons Ratio (x) = 0.14078 -0.08034
# Poissons Ratio (y) = 0.11890 -0.00887
# Poissons Ratio (z) = -0.07567 -0.00989
#
# Static dielectric constant tensor:
#      x y z
#    x 3.846340 0.000000 0.000000 
#    y 0.000000 3.896050 0.000000 
#    z 0.000000 0.000000 4.254930 
# 
# 
# High freq. dielectric constant tensor:
#      x y z
#    x 1.853720 0.000000 0.000000 
#    y 0.000000 1.854640 0.000000 
#    z 0.000000 0.000000 1.888680 
# 
# From -- ./inp_files/22671.got.cif
#   From: 2010.03.12/outbox.cif.g09.slc.cpg/sg57_12_cif.got.tgz:22671.got - 2010.04.16 15:48:40.
