data_PCOD8234046
_publ_section_title
;
Structure prediction by ZEFSAII (Michael W. Deem and Ramdas Pophale) SiO2 
 PCOD8234046
Probable space group: P B C M
;
_chemical_formula_sum "Si O2"
_cell_formula_units_Z 64
_cell_length_a 25.958672
_cell_length_b 14.718485
_cell_length_c 8.738996
_cell_angle_alpha 90.000000
_cell_angle_beta 90.000000
_cell_angle_gamma 90.000000
_cell_volume 3338.928515
_symmetry_space_group_name_H-M "P B C M"
_symmetry_group_IT_number 57
_symmetry_cell_setting 'orthorhombic'
loop_
_space_group_symop_operation_xyz
x,y,z
-x,-y,1/2+z
x,1/2-y,-z
-x,1/2+y,1/2-z
-x,-y,-z
x,y,1/2-z
-x,1/2+y,z
x,1/2-y,1/2+z
loop_
_atom_site_type_symbol
_atom_site_label
_atom_site_fract_x
_atom_site_fract_y
_atom_site_fract_z
Si Si1 0.633356 0.851751 0.932471
Si Si2 0.106935 0.159450 0.069590
Si Si3 0.818326 0.996593 0.926911
Si Si4 0.003006 0.597996 0.069301
Si Si5 0.634170 0.149881 0.071920
Si Si6 0.892829 0.161859 0.573900
Si Si7 0.291269 0.492641 0.430021
Si Si8 0.556156 0.994455 0.431042
O O1 0.631069 0.845512 0.750000
O O2 0.633544 0.750000 0.000000
O O3 0.584463 0.908093 0.994140
O O4 0.684685 0.905888 0.983242
O O5 0.108362 0.161709 0.250000
O O6 0.143841 0.080455 0.009676
O O7 0.048346 0.148874 0.010765
O O8 0.130825 0.250000 0.000000
O O9 0.802507 0.982580 0.750000
O O10 0.849945 0.087400 0.951756
O O11 0.768526 0.998672 0.032328
O O12 0.003356 0.590268 0.250000
O O13 0.053762 0.647491 0.013323
O O14 0.000000 0.500000 0.000000
O O15 0.637391 0.168031 0.250000
O O16 0.682681 0.088127 0.017489
O O17 0.583785 0.090357 0.029179
O O18 0.633418 0.250000 0.000000
O O19 0.866849 0.250000 0.500000
O O20 0.906987 0.174189 0.750000
O O21 0.300583 0.477930 0.250000
O O22 0.554704 0.978549 0.250000
O O23 0.500000 0.000000 0.500000
#
# Coordination Sequence:
#
# PCOD8234046 Si02
#       8
#     8   8   8   8   8   8   8   8
#     4  11  22  39  63  89 118 158 202 247 300 353
#     4  10  22  39  57  82 112 144 183 227 279 340
#     4  10  22  41  59  80 115 151 187 235 291 347
#     4  11  21  37  60  84 113 149 186 231 285 343
#     4   9  20  37  58  84 116 151 194 241 286 340
#     4  11  23  40  59  84 116 150 191 237 286 348
#     4  10  22  40  60  86 116 148 193 246 296 350
#     4  10  21  38  58  88 127 164 203 249 294 346
#
# _framework density 19.167826000000002
#
# number of rings (size 3 to 8) (size 9 to 14) (size 15 to 20)
#    0.000    1.750    1.250    3.750    0.000    8.000 
#    0.000    5.000    0.000    0.000    0.000    0.000 
#    0.000    0.000    0.000    0.000    0.000    0.000 
#
# Total GULP energy -793510.762277 kJ/mol
# GULP energy per Si atom -12398.605661 kJ/mol
# Density = 1.912420 g / cm^3
# Si number density = 19.167826 Si / 1000 Ang^3
#
#
#
# Elastic Constant Matrix: (Units=GPa)
#
#
# Indices 1 2 3 4 5 6 
#
# 1 119.7463 42.4432 55.7314 0.0000 0.0000 0.0000
# 2 42.4432 155.0202 65.2629 0.0000 0.0000 0.0000
# 3 55.7314 65.2629 92.7222 0.0000 0.0000 0.0000
# 4 0.0000 0.0000 0.0000 37.2913 0.0000 0.0000
# 5 0.0000 0.0000 0.0000 0.0000 35.0157 0.0000
# 6 0.0000 0.0000 0.0000 0.0000 0.0000 42.6643
#
#
#
# Elastic Compliance Matrix: (Units=1/GPa)
#
#
# Indices 1 2 3 4 5 6 
#
# 1 0.011607 -0.000342 -0.006736 0.000000 0.000000 0.000000
# 2 -0.000342 0.009177 -0.006254 0.000000 0.000000 0.000000
# 3 -0.006736 -0.006254 0.019235 0.000000 0.000000 0.000000
# 4 0.000000 0.000000 0.000000 0.026816 0.000000 0.000000
# 5 0.000000 0.000000 0.000000 0.000000 0.028559 0.000000
# 6 0.000000 0.000000 0.000000 0.000000 0.000000 0.023439
#
#
# Mechanical properties :
#
#
# Convention : Reuss Voigt Hill
#
# Bulk Modulus (GPa) = 74.87137 77.15153 76.01145
# Shear Modulus (GPa) = 33.34481 36.59768 34.97124
#
# Velocity S-wave (km/s) = 4.17540 4.37433 4.27602
# Velocity P-wave (km/s) = 7.89880 8.11486 8.00756
#
# Compressibility (1/GPa) = 0.01335624
#
# Stress axis : x y z
#
# Youngs Moduli (GPa) = 86.15366 108.96481 51.98814
#
# Poissons Ratio (x) = 0.03729 0.35018
# Poissons Ratio (y) = 0.02949 0.32512
# Poissons Ratio (z) = 0.58030 0.68144
#
# Static dielectric constant tensor:
#      x y z
#    x 2.422560 0.000000 0.000000 
#    y 0.000000 3.488480 0.000000 
#    z 0.000000 0.000000 3.519670 
# 
# 
# High freq. dielectric constant tensor:
#      x y z
#    x 1.746340 0.000000 0.000000 
#    y 0.000000 1.758970 0.000000 
#    z 0.000000 0.000000 1.750780 
# 
# From -- ./inp_files/9323.got.cif
#   From: 2010.03.12/outbox.cif.g09.slc.cpg/sg57_5_cif.got.tgz:9323.got - 2010.04.16 15:48:40.
