data_PCOD8234370
_publ_section_title
;
Structure prediction by ZEFSAII (Michael W. Deem and Ramdas Pophale) SiO2 
 PCOD8234370
Probable space group: P B C M
;
_chemical_formula_sum "Si O2"
_cell_formula_units_Z 48
_cell_length_a 8.950491
_cell_length_b 14.758575
_cell_length_c 17.501622
_cell_angle_alpha 90.000000
_cell_angle_beta 90.000000
_cell_angle_gamma 90.000000
_cell_volume 2311.902883
_symmetry_space_group_name_H-M "P B C M"
_symmetry_group_IT_number 57
_symmetry_cell_setting 'orthorhombic'
loop_
_space_group_symop_operation_xyz
x,y,z
-x,-y,1/2+z
x,1/2-y,-z
-x,1/2+y,1/2-z
-x,-y,-z
x,y,1/2-z
-x,1/2+y,z
x,1/2-y,1/2+z
loop_
_atom_site_type_symbol
_atom_site_label
_atom_site_fract_x
_atom_site_fract_y
_atom_site_fract_z
Si Si1 0.293276 0.392562 0.083875
Si Si2 0.123819 0.954294 0.663812
Si Si3 0.364116 0.882394 0.054516
Si Si4 0.175697 0.445326 0.578446
Si Si5 0.654875 0.314263 0.611545
Si Si6 0.672019 0.708803 0.335803
O O1 0.233208 0.461425 0.147485
O O2 0.469187 0.411476 0.076659
O O3 0.272704 0.288795 0.108964
O O4 0.203943 0.402671 0.004673
O O5 0.059562 0.964588 0.750000
O O6 0.213495 0.859112 0.660887
O O7 0.998998 0.955531 0.597511
O O8 0.305947 0.788944 0.090806
O O9 0.250390 0.956745 0.085010
O O10 0.363249 0.876648 0.963181
O O11 0.240182 0.381523 0.643897
O O12 0.502495 0.313371 0.658437
O O13 0.710546 0.737551 0.250000
#
# Coordination Sequence:
#
# PCOD8234370 Si02
#       6
#     8   8   8   8   8   8
#     4  11  22  42  68  94 122 168 223 272 312 381
#     4  12  26  42  61  95 139 175 210 262 331 391
#     4  10  21  40  70  99 118 162 227 274 309 372
#     4  12  23  41  65  94 128 172 216 262 315 389
#     4  10  21  41  66  96 129 161 215 270 319 379
#     4  11  23  41  65  95 128 165 210 268 329 376
#
# _framework density 20.762117
#
# number of rings (size 3 to 8) (size 9 to 14) (size 15 to 20)
#    0.000    1.000    3.333    4.000    0.000    1.333 
#    3.000   10.833    0.000    0.000    0.000    0.000 
#    0.000    0.000    0.000    0.000    0.000    0.000 
#
# Total GULP energy -595392.213230 kJ/mol
# GULP energy per Si atom -12404.004442 kJ/mol
# Density = 2.071486 g / cm^3
# Si number density = 20.762117 Si / 1000 Ang^3
#
#
#
# Elastic Constant Matrix: (Units=GPa)
#
#
# Indices 1 2 3 4 5 6 
#
# 1 89.4450 70.0557 56.3990 0.0000 0.0000 0.0000
# 2 70.0557 121.0591 37.0097 0.0000 0.0000 0.0000
# 3 56.3990 37.0097 86.2908 0.0000 0.0000 0.0000
# 4 0.0000 0.0000 0.0000 24.0542 0.0000 0.0000
# 5 0.0000 0.0000 0.0000 0.0000 4.1206 0.0000
# 6 0.0000 0.0000 0.0000 0.0000 0.0000 3.4685
#
#
#
# Elastic Compliance Matrix: (Units=1/GPa)
#
#
# Indices 1 2 3 4 5 6 
#
# 1 0.030691 -0.013383 -0.014320 0.000000 0.000000 0.000000
# 2 -0.013383 0.015343 0.002167 0.000000 0.000000 0.000000
# 3 -0.014320 0.002167 0.020019 0.000000 0.000000 0.000000
# 4 0.000000 0.000000 0.000000 0.041573 0.000000 0.000000
# 5 0.000000 0.000000 0.000000 0.000000 0.242682 0.000000
# 6 0.000000 0.000000 0.000000 0.000000 0.000000 0.288307
#
#
# Mechanical properties :
#
#
# Convention : Reuss Voigt Hill
#
# Bulk Modulus (GPa) = 66.75325 69.30263 68.02794
# Shear Modulus (GPa) = 7.19757 15.21737 11.20747
#
# Velocity S-wave (km/s) = 1.86392 2.71022 2.32589
# Velocity P-wave (km/s) = 6.07071 6.57614 6.32847
#
# Compressibility (1/GPa) = 0.01498054
#
# Stress axis : x y z
#
# Youngs Moduli (GPa) = 32.58288 65.17803 49.95346
#
# Poissons Ratio (x) = 0.87227 0.71531
# Poissons Ratio (y) = 0.43605 -0.10823
# Poissons Ratio (z) = 0.46657 -0.14121
#
# Static dielectric constant tensor:
#      x y z
#    x 3.638550 0.000000 0.000000 
#    y 0.000000 3.906450 0.000000 
#    z 0.000000 0.000000 3.662330 
# 
# 
# High freq. dielectric constant tensor:
#      x y z
#    x 1.804770 0.000000 0.000000 
#    y 0.000000 1.827710 0.000000 
#    z 0.000000 0.000000 1.810820 
# 
# From -- ./inp_files/20977.got.cif
#   From: 2010.03.12/outbox.cif.g09.slc.cpg/sg57_11_cif.got.tgz:20977.got - 2010.04.16 15:48:40.
