data_PCOD8234776
_publ_section_title
;
Structure prediction by ZEFSAII (Michael W. Deem and Ramdas Pophale) SiO2 
 PCOD8234776
Probable space group: P B C M
;
_chemical_formula_sum "Si O2"
_cell_formula_units_Z 32
_cell_length_a 7.512095
_cell_length_b 12.170951
_cell_length_c 15.832012
_cell_angle_alpha 90.000000
_cell_angle_beta 90.000000
_cell_angle_gamma 90.000000
_cell_volume 1447.510410
_symmetry_space_group_name_H-M "P B C M"
_symmetry_group_IT_number 57
_symmetry_cell_setting 'orthorhombic'
loop_
_space_group_symop_operation_xyz
x,y,z
-x,-y,1/2+z
x,1/2-y,-z
-x,1/2+y,1/2-z
-x,-y,-z
x,y,1/2-z
-x,1/2+y,z
x,1/2-y,1/2+z
loop_
_atom_site_type_symbol
_atom_site_label
_atom_site_fract_x
_atom_site_fract_y
_atom_site_fract_z
Si Si1 0.642142 0.960780 0.434097
Si Si2 0.083719 0.882540 0.884686
Si Si3 0.281463 0.757247 0.250000
Si Si4 0.384687 0.104438 0.750000
Si Si5 0.823512 0.750000 0.500000
Si Si6 0.988052 0.449691 0.250000
O O1 0.574776 0.965467 0.335902
O O2 0.698633 0.836559 0.453165
O O3 0.500000 0.000000 0.500000
O O4 0.803829 0.045250 0.450821
O O5 0.226212 0.810926 0.832198
O O6 0.975538 0.970484 0.829919
O O7 0.945619 0.803457 0.928992
O O8 0.494164 0.784712 0.250000
O O9 0.183077 0.873837 0.250000
O O10 0.169636 0.125151 0.750000
#
# Coordination Sequence:
#
# PCOD8234776 Si02
#       6
#     8   8   4   4   4   4
#     4  11  27  46  69 107 145 187 243 302 367 441
#     4  10  23  43  66 100 140 179 246 292 355 441
#     4  11  23  41  78  97 137 196 229 301 366 433
#     4  10  24  44  68 101 144 185 241 291 369 435
#     4  12  26  42  74 100 142 196 234 310 372 428
#     4   9  21  45  64 104 133 183 242 292 361 442
#
# _framework density 22.106919999999999
#
# number of rings (size 3 to 8) (size 9 to 14) (size 15 to 20)
#    0.000    1.500    0.000    4.500   10.500    1.000 
#    0.000    2.500    0.000    0.000    0.000    0.000 
#    0.000    0.000    0.000    0.000    0.000    0.000 
#
# Total GULP energy -396712.409328 kJ/mol
# GULP energy per Si atom -12397.262792 kJ/mol
# Density = 2.205660 g / cm^3
# Si number density = 22.106920 Si / 1000 Ang^3
#
#
#
# Elastic Constant Matrix: (Units=GPa)
#
#
# Indices 1 2 3 4 5 6 
#
# 1 80.6836 61.1328 51.5578 0.0000 0.0000 0.0000
# 2 61.1328 148.9928 49.4132 0.0000 0.0000 0.0000
# 3 51.5578 49.4132 132.7063 0.0000 0.0000 0.0000
# 4 0.0000 0.0000 0.0000 28.2190 0.0000 0.0000
# 5 0.0000 0.0000 0.0000 0.0000 0.3490 0.0000
# 6 0.0000 0.0000 0.0000 0.0000 0.0000 56.1414
#
#
#
# Elastic Compliance Matrix: (Units=1/GPa)
#
#
# Indices 1 2 3 4 5 6 
#
# 1 0.021192 -0.006805 -0.005700 0.000000 0.000000 0.000000
# 2 -0.006805 0.009843 -0.001021 0.000000 0.000000 0.000000
# 3 -0.005700 -0.001021 0.010130 0.000000 0.000000 0.000000
# 4 0.000000 0.000000 0.000000 0.035437 0.000000 0.000000
# 5 0.000000 0.000000 0.000000 0.000000 2.864946 0.000000
# 6 0.000000 0.000000 0.000000 0.000000 0.000000 0.017812
#
#
# Mechanical properties :
#
#
# Convention : Reuss Voigt Hill
#
# Bulk Modulus (GPa) = 70.85443 76.28781 73.57112
# Shear Modulus (GPa) = 1.67162 30.29383 15.98272
#
# Velocity S-wave (km/s) = 0.87051 3.70582 2.69173
# Velocity P-wave (km/s) = 5.75593 7.27284 6.55839
#
# Compressibility (1/GPa) = 0.01411344
#
# Stress axis : x y z
#
# Youngs Moduli (GPa) = 47.18689 101.59982 98.71717
#
# Poissons Ratio (x) = 0.69140 0.56264
# Poissons Ratio (y) = 0.32111 0.10079
# Poissons Ratio (z) = 0.26894 0.10373
#
# Static dielectric constant tensor:
#      x y z
#    x 3.811320 0.000000 0.000000 
#    y 0.000000 4.225800 0.000000 
#    z 0.000000 0.000000 4.242960 
# 
# 
# High freq. dielectric constant tensor:
#      x y z
#    x 1.857670 0.000000 0.000000 
#    y 0.000000 1.878420 0.000000 
#    z 0.000000 0.000000 1.879530 
# 
# From -- ./inp_files/15577.got.cif
#   From: 2010.03.12/outbox.cif.g09.slc.cpg/sg57_8_cif.got.tgz:15577.got - 2010.04.16 15:48:40.
