data_PCOD8234545
_publ_section_title
;
Structure prediction by ZEFSAII (Michael W. Deem and Ramdas Pophale) SiO2 
 PCOD8234545
Probable space group: P B C M
;
_chemical_formula_sum "Si O2"
_cell_formula_units_Z 32
_cell_length_a 10.019044
_cell_length_b 16.270574
_cell_length_c 10.041553
_cell_angle_alpha 90.000000
_cell_angle_beta 90.000000
_cell_angle_gamma 90.000000
_cell_volume 1636.929755
_symmetry_space_group_name_H-M "P B C M"
_symmetry_group_IT_number 57
_symmetry_cell_setting 'orthorhombic'
loop_
_space_group_symop_operation_xyz
x,y,z
-x,-y,1/2+z
x,1/2-y,-z
-x,1/2+y,1/2-z
-x,-y,-z
x,y,1/2-z
-x,1/2+y,z
x,1/2-y,1/2+z
loop_
_atom_site_type_symbol
_atom_site_label
_atom_site_fract_x
_atom_site_fract_y
_atom_site_fract_z
Si Si1 0.258693 0.332043 0.250000
Si Si2 0.825108 0.922408 0.513394
Si Si3 0.538930 0.272749 0.250000
Si Si4 0.877097 0.094707 0.096557
Si Si5 0.284074 0.750000 0.500000
Si Si6 0.683124 0.652748 0.250000
O O1 0.193989 0.372721 0.121714
O O2 0.420609 0.341257 0.250000
O O3 0.223254 0.234697 0.250000
O O4 0.709426 0.900455 0.618094
O O5 0.965486 0.896776 0.576203
O O6 0.817891 0.019684 0.488899
O O7 0.625751 0.285098 0.118533
O O8 0.472245 0.181116 0.250000
O O9 0.845030 0.077564 0.250000
O O10 0.809098 0.177919 0.051229
#
# Coordination Sequence:
#
# PCOD8234545 Si02
#       6
#     4   8   4   8   4   4
#     4  10  22  39  71  91 131 165 213 276 305 374
#     4  11  22  42  67  99 127 168 213 268 328 362
#     4  10  24  42  64  98 128 168 222 266 296 386
#     4  11  25  42  64  97 140 160 210 272 320 401
#     4  12  24  44  66  88 136 180 200 258 340 374
#     4  10  22  39  69  93 129 165 219 270 301 378
#
# _framework density 19.54879
#
# number of rings (size 3 to 8) (size 9 to 14) (size 15 to 20)
#    0.750    0.500    3.750    2.250    3.500    2.000 
#    0.000    7.500    0.000    0.000    0.000    0.000 
#    0.000    0.000    0.000    0.000    0.000    0.000 
#
# Total GULP energy -396856.954804 kJ/mol
# GULP energy per Si atom -12401.779838 kJ/mol
# Density = 1.950430 g / cm^3
# Si number density = 19.548790 Si / 1000 Ang^3
#
#
#
# Elastic Constant Matrix: (Units=GPa)
#
#
# Indices 1 2 3 4 5 6 
#
# 1 49.8553 22.9587 11.4249 0.0000 0.0000 0.0000
# 2 22.9587 62.9045 9.4299 0.0000 0.0000 0.0000
# 3 11.4249 9.4299 117.5388 0.0000 0.0000 0.0000
# 4 0.0000 0.0000 0.0000 36.7511 0.0000 0.0000
# 5 0.0000 0.0000 0.0000 0.0000 14.9349 0.0000
# 6 0.0000 0.0000 0.0000 0.0000 0.0000 8.8030
#
#
#
# Elastic Compliance Matrix: (Units=1/GPa)
#
#
# Indices 1 2 3 4 5 6 
#
# 1 0.024434 -0.008666 -0.001680 0.000000 0.000000 0.000000
# 2 -0.008666 0.019164 -0.000695 0.000000 0.000000 0.000000
# 3 -0.001680 -0.000695 0.008727 0.000000 0.000000 0.000000
# 4 0.000000 0.000000 0.000000 0.027210 0.000000 0.000000
# 5 0.000000 0.000000 0.000000 0.000000 0.066957 0.000000
# 6 0.000000 0.000000 0.000000 0.000000 0.000000 0.113598
#
#
# Mechanical properties :
#
#
# Convention : Reuss Voigt Hill
#
# Bulk Modulus (GPa) = 33.06540 35.32507 34.19524
# Shear Modulus (GPa) = 17.10848 24.53013 20.81931
#
# Velocity S-wave (km/s) = 2.96153 3.54618 3.26696
# Velocity P-wave (km/s) = 5.35213 5.90564 5.63569
#
# Compressibility (1/GPa) = 0.03024309
#
# Stress axis : x y z
#
# Youngs Moduli (GPa) = 40.92707 52.18061 114.58856
#
# Poissons Ratio (x) = 0.45219 0.19248
# Poissons Ratio (y) = 0.35467 0.07966
# Poissons Ratio (z) = 0.06875 0.03627
#
# Static dielectric constant tensor:
#      x y z
#    x 3.464860 0.000000 0.000000 
#    y 0.000000 3.485120 0.000000 
#    z 0.000000 0.000000 3.799800 
# 
# 
# High freq. dielectric constant tensor:
#      x y z
#    x 1.754660 0.000000 0.000000 
#    y 0.000000 1.757360 0.000000 
#    z 0.000000 0.000000 1.780610 
# 
# From -- ./inp_files/2444.got.cif
#   From: 2010.03.12/outbox.cif.g09.slc.cpg/sg57_2_cif.got.tgz:2444.got - 2010.04.16 15:48:40.
