data_PCOD8234645
_publ_section_title
;
Structure prediction by ZEFSAII (Michael W. Deem and Ramdas Pophale) SiO2 
 PCOD8234645
Probable space group: P B C M
;
_chemical_formula_sum "Si O2"
_cell_formula_units_Z 48
_cell_length_a 6.962302
_cell_length_b 13.533349
_cell_length_c 26.080975
_cell_angle_alpha 90.000000
_cell_angle_beta 90.000000
_cell_angle_gamma 90.000000
_cell_volume 2457.434562
_symmetry_space_group_name_H-M "P B C M"
_symmetry_group_IT_number 57
_symmetry_cell_setting 'orthorhombic'
loop_
_space_group_symop_operation_xyz
x,y,z
-x,-y,1/2+z
x,1/2-y,-z
-x,1/2+y,1/2-z
-x,-y,-z
x,y,1/2-z
-x,1/2+y,z
x,1/2-y,1/2+z
loop_
_atom_site_type_symbol
_atom_site_label
_atom_site_fract_x
_atom_site_fract_y
_atom_site_fract_z
Si Si1 0.311812 0.374241 0.189610
Si Si2 0.013799 0.153165 0.032732
Si Si3 0.996383 0.968284 0.807579
Si Si4 0.712449 0.094285 0.634691
Si Si5 0.292798 0.971930 0.480213
Si Si6 0.008073 0.267567 0.646236
O O1 0.339977 0.354199 0.250000
O O2 0.511701 0.391941 0.162212
O O3 0.209314 0.280966 0.162942
O O4 0.187584 0.471651 0.178469
O O5 0.023550 0.181834 0.091478
O O6 0.175366 0.072957 0.020980
O O7 0.058591 0.250000 0.000000
O O8 0.806737 0.106329 0.018722
O O9 0.932435 0.992921 0.750000
O O10 0.819208 0.997342 0.844054
O O11 0.043463 0.852946 0.813326
O O12 0.688339 0.082069 0.574217
O O13 0.837942 0.189464 0.648052
O O14 0.500000 0.000000 0.500000
#
# Coordination Sequence:
#
# PCOD8234645 Si02
#       6
#     8   8   8   8   8   8
#     4  10  24  41  63  93 127 162 206 260 313 370
#     4  11  24  44  63  92 127 163 205 262 308 371
#     4  10  22  42  64  88 122 163 208 255 311 372
#     4  11  23  41  63  93 126 166 204 258 310 374
#     4  11  26  40  65  93 126 164 212 255 313 374
#     4  11  23  41  66  91 124 164 210 254 314 372
#
# _framework density 19.532565000000002
#
# number of rings (size 3 to 8) (size 9 to 14) (size 15 to 20)
#    0.000    1.333    3.333    1.000    4.667    5.333 
#    0.000    1.667    0.000    0.000    0.000    0.000 
#    0.000    0.000    0.000    0.000    0.000    0.000 
#
# Total GULP energy -595379.727116 kJ/mol
# GULP energy per Si atom -12403.744315 kJ/mol
# Density = 1.948811 g / cm^3
# Si number density = 19.532565 Si / 1000 Ang^3
#
#
#
# Elastic Constant Matrix: (Units=GPa)
#
#
# Indices 1 2 3 4 5 6 
#
# 1 145.9242 57.5189 60.8925 0.0000 0.0000 0.0000
# 2 57.5189 123.8081 44.1414 0.0000 0.0000 0.0000
# 3 60.8925 44.1414 84.3180 0.0000 0.0000 0.0000
# 4 0.0000 0.0000 0.0000 39.5437 0.0000 0.0000
# 5 0.0000 0.0000 0.0000 0.0000 35.4457 0.0000
# 6 0.0000 0.0000 0.0000 0.0000 0.0000 18.4779
#
#
#
# Elastic Compliance Matrix: (Units=1/GPa)
#
#
# Indices 1 2 3 4 5 6 
#
# 1 0.010480 -0.002669 -0.006171 0.000000 0.000000 0.000000
# 2 -0.002669 0.010610 -0.003627 0.000000 0.000000 0.000000
# 3 -0.006171 -0.003627 0.018216 0.000000 0.000000 0.000000
# 4 0.000000 0.000000 0.000000 0.025288 0.000000 0.000000
# 5 0.000000 0.000000 0.000000 0.000000 0.028212 0.000000
# 6 0.000000 0.000000 0.000000 0.000000 0.000000 0.054119
#
#
# Mechanical properties :
#
#
# Convention : Reuss Voigt Hill
#
# Bulk Modulus (GPa) = 69.58376 75.46176 72.52276
# Shear Modulus (GPa) = 28.30458 31.45996 29.88227
#
# Velocity S-wave (km/s) = 3.81083 4.01763 3.91560
# Velocity P-wave (km/s) = 7.42058 7.76141 7.59291
#
# Compressibility (1/GPa) = 0.01437117
#
# Stress axis : x y z
#
# Youngs Moduli (GPa) = 95.42015 94.25068 54.89791
#
# Poissons Ratio (x) = 0.25151 0.33880
# Poissons Ratio (y) = 0.25463 0.19913
# Poissons Ratio (z) = 0.58888 0.34188
#
# Static dielectric constant tensor:
#      x y z
#    x 3.499850 0.000000 0.000000 
#    y 0.000000 2.014260 0.000000 
#    z 0.000000 0.000000 2.354240 
# 
# 
# High freq. dielectric constant tensor:
#      x y z
#    x 1.757890 0.000000 0.000000 
#    y 0.000000 1.776350 0.000000 
#    z 0.000000 0.000000 1.777330 
# 
# From -- ./inp_files/27964.got.cif
#   From: 2010.03.12/outbox.cif.g09.slc.cpg/sg57_14_cif.got.tgz:27964.got - 2010.04.16 15:48:40.
