data_PCOD8234984
_publ_section_title
;
Structure prediction by ZEFSAII (Michael W. Deem and Ramdas Pophale) SiO2 
 PCOD8234984
Probable space group: P B C M
;
_chemical_formula_sum "Si O2"
_cell_formula_units_Z 64
_cell_length_a 15.083826
_cell_length_b 23.790362
_cell_length_c 8.740636
_cell_angle_alpha 90.000000
_cell_angle_beta 90.000000
_cell_angle_gamma 90.000000
_cell_volume 3136.574439
_symmetry_space_group_name_H-M "P B C M"
_symmetry_group_IT_number 57
_symmetry_cell_setting 'orthorhombic'
loop_
_space_group_symop_operation_xyz
x,y,z
-x,-y,1/2+z
x,1/2-y,-z
-x,1/2+y,1/2-z
-x,-y,-z
x,y,1/2-z
-x,1/2+y,z
x,1/2-y,1/2+z
loop_
_atom_site_type_symbol
_atom_site_label
_atom_site_fract_x
_atom_site_fract_y
_atom_site_fract_z
Si Si1 0.714887 0.308882 0.572900
Si Si2 0.447571 0.876630 0.925474
Si Si3 0.640752 0.896824 0.928034
Si Si4 0.147318 0.609852 0.570262
Si Si5 0.015706 0.190034 0.930363
Si Si6 0.903067 0.504401 0.931811
Si Si7 0.408320 0.516424 0.572786
Si Si8 0.832542 0.619421 0.067339
O O1 0.739911 0.250000 0.500000
O O2 0.743295 0.309378 0.750000
O O3 0.608565 0.319400 0.554567
O O4 0.767626 0.355789 0.481352
O O5 0.460284 0.893247 0.750000
O O6 0.547188 0.873793 0.001489
O O7 0.382489 0.924418 0.996711
O O8 0.632299 0.885180 0.750000
O O9 0.730692 0.866764 0.986071
O O10 0.656400 0.963722 0.960215
O O11 0.152277 0.597770 0.750000
O O12 0.151036 0.550709 0.482239
O O13 0.058900 0.644447 0.527121
O O14 0.027025 0.196418 0.750000
O O15 0.988214 0.250000 0.000000
O O16 0.107869 0.169801 0.003571
O O17 0.908043 0.508478 0.750000
O O18 0.858340 0.560093 0.996004
O O19 0.000000 0.500000 0.000000
O O20 0.500000 0.500000 0.500000
O O21 0.418977 0.527737 0.750000
O O22 0.841056 0.615875 0.250000
#
# Coordination Sequence:
#
# PCOD8234984 Si02
#       8
#     8   8   8   8   8   8   8   8
#     4  11  24  41  62  89 121 159 206 259 312 370
#     4   9  19  37  57  81 114 152 197 247 298 354
#     4   8  17  34  56  83 116 155 195 240 297 354
#     4  11  24  42  65  91 123 160 202 252 309 370
#     4  11  24  42  64  88 117 156 201 251 302 361
#     4  12  24  40  62  92 129 166 205 250 307 369
#     4   9  16  29  50  78 110 146 186 233 287 349
#     4  11  22  38  62  91 126 166 206 253 304 362
#
# _framework density 20.404425
#
# number of rings (size 3 to 8) (size 9 to 14) (size 15 to 20)
#    0.000    1.750    1.250    4.125    1.750    3.500 
#    0.000    6.250    0.000    1.500    0.000    0.000 
#    0.000    0.000    0.000    0.000    0.000    0.000 
#
# Total GULP energy -793169.383360 kJ/mol
# GULP energy per Si atom -12393.271615 kJ/mol
# Density = 2.035798 g / cm^3
# Si number density = 20.404425 Si / 1000 Ang^3
#
#
#
# Elastic Constant Matrix: (Units=GPa)
#
#
# Indices 1 2 3 4 5 6 
#
# 1 94.0024 11.4448 24.5683 0.0000 0.0000 0.0000
# 2 11.4448 71.0319 23.2573 0.0000 0.0000 0.0000
# 3 24.5683 23.2573 80.3379 0.0000 0.0000 0.0000
# 4 0.0000 0.0000 0.0000 34.7298 0.0000 0.0000
# 5 0.0000 0.0000 0.0000 0.0000 21.3315 0.0000
# 6 0.0000 0.0000 0.0000 0.0000 0.0000 32.3128
#
#
#
# Elastic Compliance Matrix: (Units=1/GPa)
#
#
# Indices 1 2 3 4 5 6 
#
# 1 0.011601 -0.000782 -0.003322 0.000000 0.000000 0.000000
# 2 -0.000782 0.015605 -0.004278 0.000000 0.000000 0.000000
# 3 -0.003322 -0.004278 0.014702 0.000000 0.000000 0.000000
# 4 0.000000 0.000000 0.000000 0.028794 0.000000 0.000000
# 5 0.000000 0.000000 0.000000 0.000000 0.046879 0.000000
# 6 0.000000 0.000000 0.000000 0.000000 0.000000 0.030947
#
#
# Mechanical properties :
#
#
# Convention : Reuss Voigt Hill
#
# Bulk Modulus (GPa) = 39.76986 40.43478 40.10232
# Shear Modulus (GPa) = 28.78969 30.08161 29.43565
#
# Velocity S-wave (km/s) = 3.76034 3.84379 3.80229
# Velocity P-wave (km/s) = 6.19570 6.28962 6.24283
#
# Compressibility (1/GPa) = 0.02514467
#
# Stress axis : x y z
#
# Youngs Moduli (GPa) = 86.19715 64.08208 68.01893
#
# Poissons Ratio (x) = 0.05009 0.22593
# Poissons Ratio (y) = 0.06738 0.29102
# Poissons Ratio (z) = 0.28631 0.27417
#
# Static dielectric constant tensor:
#      x y z
#    x 4.019620 0.000000 0.000000 
#    y 0.000000 5.236000 0.000000 
#    z 0.000000 0.000000 4.736380 
# 
# 
# High freq. dielectric constant tensor:
#      x y z
#    x 1.806240 0.000000 0.000000 
#    y 0.000000 1.786830 0.000000 
#    z 0.000000 0.000000 1.793270 
# 
# From -- ./inp_files/5759.got.cif
#   From: 2010.03.12/outbox.cif.g09.slc.cpg/sg57_3_cif.got.tgz:5759.got - 2010.04.16 15:48:40.
