data_PCOD8234238
_publ_section_title
;
Structure prediction by ZEFSAII (Michael W. Deem and Ramdas Pophale) SiO2 
 PCOD8234238
Probable space group: P B C M
;
_chemical_formula_sum "Si O2"
_cell_formula_units_Z 48
_cell_length_a 9.649927
_cell_length_b 16.746610
_cell_length_c 15.284225
_cell_angle_alpha 90.000000
_cell_angle_beta 90.000000
_cell_angle_gamma 90.000000
_cell_volume 2469.985233
_symmetry_space_group_name_H-M "P B C M"
_symmetry_group_IT_number 57
_symmetry_cell_setting 'orthorhombic'
loop_
_space_group_symop_operation_xyz
x,y,z
-x,-y,1/2+z
x,1/2-y,-z
-x,1/2+y,1/2-z
-x,-y,-z
x,y,1/2-z
-x,1/2+y,z
x,1/2-y,1/2+z
loop_
_atom_site_type_symbol
_atom_site_label
_atom_site_fract_x
_atom_site_fract_y
_atom_site_fract_z
Si Si1 0.129258 0.947194 0.024928
Si Si2 0.372866 0.057509 0.487059
Si Si3 0.704109 0.839557 0.350704
Si Si4 0.474138 0.314864 0.651588
Si Si5 0.982473 0.184516 0.650351
Si Si6 0.771817 0.195209 0.081708
O O1 0.089175 0.888927 0.102653
O O2 0.249027 0.007140 0.055934
O O3 0.184902 0.894507 0.943886
O O4 0.000000 0.000000 0.000000
O O5 0.329714 0.089162 0.582910
O O6 0.409923 0.127015 0.420000
O O7 0.500000 0.000000 0.500000
O O8 0.699679 0.870987 0.250000
O O9 0.590761 0.771560 0.365651
O O10 0.856206 0.805155 0.374353
O O11 0.437650 0.344093 0.750000
O O12 0.640009 0.308675 0.645001
O O13 0.963913 0.162793 0.750000
O O14 0.905825 0.267181 0.628619
O O15 0.727931 0.250000 0.000000
#
# Coordination Sequence:
#
# PCOD8234238 Si02
#       6
#     8   8   8   8   8   8
#     4  11  23  40  62  91 121 162 202 245 309 365
#     4  12  24  41  63  90 126 163 200 253 307 363
#     4  10  23  42  64  90 122 164 207 250 302 362
#     4  11  24  41  63  91 121 161 209 250 300 363
#     4  10  22  41  63  90 121 158 205 253 300 360
#     4  10  21  39  63  89 120 160 205 247 300 363
#
# _framework density 19.433313999999999
#
# number of rings (size 3 to 8) (size 9 to 14) (size 15 to 20)
#    0.000    1.333    3.333    2.000    4.667    2.667 
#    0.000    1.667    0.000    0.000    0.000    0.000 
#    0.000    0.000    0.000    0.000    0.000    0.000 
#
# Total GULP energy -595307.143721 kJ/mol
# GULP energy per Si atom -12402.232161 kJ/mol
# Density = 1.938908 g / cm^3
# Si number density = 19.433314 Si / 1000 Ang^3
#
#
#
# Elastic Constant Matrix: (Units=GPa)
#
#
# Indices 1 2 3 4 5 6 
#
# 1 134.6324 43.6756 43.0277 0.0000 0.0000 0.0000
# 2 43.6756 86.3048 37.5283 0.0000 0.0000 0.0000
# 3 43.0277 37.5283 91.4525 0.0000 0.0000 0.0000
# 4 0.0000 0.0000 0.0000 20.3628 0.0000 0.0000
# 5 0.0000 0.0000 0.0000 0.0000 33.6550 0.0000
# 6 0.0000 0.0000 0.0000 0.0000 0.0000 48.1662
#
#
#
# Elastic Compliance Matrix: (Units=1/GPa)
#
#
# Indices 1 2 3 4 5 6 
#
# 1 0.009538 -0.003500 -0.003051 0.000000 0.000000 0.000000
# 2 -0.003500 0.015388 -0.004668 0.000000 0.000000 0.000000
# 3 -0.003051 -0.004668 0.014286 0.000000 0.000000 0.000000
# 4 0.000000 0.000000 0.000000 0.049109 0.000000 0.000000
# 5 0.000000 0.000000 0.000000 0.000000 0.029713 0.000000
# 6 0.000000 0.000000 0.000000 0.000000 0.000000 0.020761
#
#
# Mechanical properties :
#
#
# Convention : Reuss Voigt Hill
#
# Bulk Modulus (GPa) = 59.61836 62.31696 60.96766
# Shear Modulus (GPa) = 29.97148 32.98067 31.47608
#
# Velocity S-wave (km/s) = 3.93144 4.12408 4.02891
# Velocity P-wave (km/s) = 7.16612 7.40365 7.28586
#
# Compressibility (1/GPa) = 0.01677336
#
# Stress axis : x y z
#
# Youngs Moduli (GPa) = 104.84046 64.98650 69.99987
#
# Poissons Ratio (x) = 0.22746 0.21360
# Poissons Ratio (y) = 0.36695 0.32674
# Poissons Ratio (z) = 0.31991 0.30334
#
# Static dielectric constant tensor:
#      x y z
#    x 3.825120 0.000000 0.000000 
#    y 0.000000 3.765410 0.000000 
#    z 0.000000 0.000000 3.593190 
# 
# 
# High freq. dielectric constant tensor:
#      x y z
#    x 1.778310 0.000000 0.000000 
#    y 0.000000 1.756690 0.000000 
#    z 0.000000 0.000000 1.754990 
# 
# From -- ./inp_files/16311.got.cif
#   From: 2010.03.12/outbox.cif.g09.slc.cpg/sg57_9_cif.got.tgz:16311.got - 2010.04.16 15:48:40.
