data_PCOD8234642
_publ_section_title
;
Structure prediction by ZEFSAII (Michael W. Deem and Ramdas Pophale) SiO2 
 PCOD8234642
Probable space group: P B C M
;
_chemical_formula_sum "Si O2"
_cell_formula_units_Z 44
_cell_length_a 19.138029
_cell_length_b 5.388246
_cell_length_c 19.621419
_cell_angle_alpha 90.000000
_cell_angle_beta 90.000000
_cell_angle_gamma 90.000000
_cell_volume 2023.368737
_symmetry_space_group_name_H-M "P B C M"
_symmetry_group_IT_number 57
_symmetry_cell_setting 'orthorhombic'
loop_
_space_group_symop_operation_xyz
x,y,z
-x,-y,1/2+z
x,1/2-y,-z
-x,1/2+y,1/2-z
-x,-y,-z
x,y,1/2-z
-x,1/2+y,z
x,1/2-y,1/2+z
loop_
_atom_site_type_symbol
_atom_site_label
_atom_site_fract_x
_atom_site_fract_y
_atom_site_fract_z
Si Si1 0.968440 0.763823 0.922101
Si Si2 0.178372 0.095722 0.894416
Si Si3 0.710792 0.455433 0.250000
Si Si4 0.467956 0.250179 0.421715
Si Si5 0.754492 0.250000 0.500000
Si Si6 0.204836 0.037081 0.750000
Si Si7 0.317545 0.405123 0.606149
O O1 0.884391 0.776342 0.916460
O O2 0.998452 0.510246 0.887193
O O3 0.993106 0.750000 0.000000
O O4 0.251539 0.230407 0.886495
O O5 0.190130 0.892142 0.952413
O O6 0.159686 0.989514 0.818974
O O7 0.736870 0.174027 0.250000
O O8 0.666055 0.473555 0.180067
O O9 0.767996 0.677053 0.250000
O O10 0.491512 0.250000 0.500000
O O11 0.499571 0.500247 0.387171
O O12 0.384370 0.254981 0.415091
O O13 0.700838 0.403427 0.453628
#
# Coordination Sequence:
#
# PCOD8234642 Si02
#       7
#     8   8   4   8   4   4   8
#     4  10  23  39  60  90 130 165 205 261 324 380
#     4  11  24  40  64  96 125 168 217 268 320 388
#     4  10  22  42  62  90 130 166 207 263 328 378
#     4  10  23  39  60  90 130 165 205 261 324 380
#     4  12  22  34  68  94 128 146 228 268 318 370
#     4  10  22  42  62  90 130 166 207 263 328 378
#     4  11  24  40  64  96 125 168 217 268 320 388
#
# _framework density 21.745912000000001
#
# number of rings (size 3 to 8) (size 9 to 14) (size 15 to 20)
#    0.000    1.455    1.818    2.727   12.727    0.000 
#    0.000    1.818    0.000    0.000    0.000    0.000 
#    0.000    0.000    0.000    0.000    0.000    0.000 
#
# Total GULP energy -545218.475471 kJ/mol
# GULP energy per Si atom -12391.328988 kJ/mol
# Density = 2.169642 g / cm^3
# Si number density = 21.745912 Si / 1000 Ang^3
#
#
#
# Elastic Constant Matrix: (Units=GPa)
#
#
# Indices 1 2 3 4 5 6 
#
# 1 116.1794 47.5120 4.7396 0.0000 0.0000 0.0000
# 2 47.5120 130.4969 27.5743 0.0000 0.0000 0.0000
# 3 4.7396 27.5743 128.3203 0.0000 0.0000 0.0000
# 4 0.0000 0.0000 0.0000 30.3393 0.0000 0.0000
# 5 0.0000 0.0000 0.0000 0.0000 6.0458 0.0000
# 6 0.0000 0.0000 0.0000 0.0000 0.0000 37.1971
#
#
#
# Elastic Compliance Matrix: (Units=1/GPa)
#
#
# Indices 1 2 3 4 5 6 
#
# 1 0.010137 -0.003783 0.000439 0.000000 0.000000 0.000000
# 2 -0.003783 0.009440 -0.001889 0.000000 0.000000 0.000000
# 3 0.000439 -0.001889 0.008183 0.000000 0.000000 0.000000
# 4 0.000000 0.000000 0.000000 0.032961 0.000000 0.000000
# 5 0.000000 0.000000 0.000000 0.000000 0.165405 0.000000
# 6 0.000000 0.000000 0.000000 0.000000 0.000000 0.026884
#
#
# Mechanical properties :
#
#
# Convention : Reuss Voigt Hill
#
# Bulk Modulus (GPa) = 57.83000 59.40537 58.61769
# Shear Modulus (GPa) = 18.57084 34.39448 26.48266
#
# Velocity S-wave (km/s) = 2.92548 3.98131 3.49352
# Velocity P-wave (km/s) = 6.16948 6.96504 6.57930
#
# Compressibility (1/GPa) = 0.01729206
#
# Stress axis : x y z
#
# Youngs Moduli (GPa) = 98.65171 105.93736 122.20972
#
# Poissons Ratio (x) = 0.40079 -0.05360
# Poissons Ratio (y) = 0.37323 0.23082
# Poissons Ratio (z) = -0.04327 0.20008
#
# Static dielectric constant tensor:
#      x y z
#    x 3.564960 0.000000 0.000000 
#    y 0.000000 4.260890 0.000000 
#    z 0.000000 0.000000 4.749980 
# 
# 
# High freq. dielectric constant tensor:
#      x y z
#    x 1.832360 0.000000 0.000000 
#    y 0.000000 1.863240 0.000000 
#    z 0.000000 0.000000 1.844340 
# 
# From -- ./inp_files/27549.got.cif
#   From: 2010.03.12/outbox.cif.g09.slc.cpg/sg57_14_cif.got.tgz:27549.got - 2010.04.16 15:48:40.
