data_PCOD8234723
_publ_section_title
;
Structure prediction by ZEFSAII (Michael W. Deem and Ramdas Pophale) SiO2 
 PCOD8234723
Probable space group: P B C M
;
_chemical_formula_sum "Si O2"
_cell_formula_units_Z 64
_cell_length_a 20.088369
_cell_length_b 9.430323
_cell_length_c 17.374509
_cell_angle_alpha 90.000000
_cell_angle_beta 90.000000
_cell_angle_gamma 90.000000
_cell_volume 3291.423653
_symmetry_space_group_name_H-M "P B C M"
_symmetry_group_IT_number 57
_symmetry_cell_setting 'orthorhombic'
loop_
_space_group_symop_operation_xyz
x,y,z
-x,-y,1/2+z
x,1/2-y,-z
-x,1/2+y,1/2-z
-x,-y,-z
x,y,1/2-z
-x,1/2+y,z
x,1/2-y,1/2+z
loop_
_atom_site_type_symbol
_atom_site_label
_atom_site_fract_x
_atom_site_fract_y
_atom_site_fract_z
Si Si1 0.333254 0.618058 0.557192
Si Si2 0.806813 0.150858 0.601954
Si Si3 0.450237 0.544311 0.660312
Si Si4 0.057626 0.672579 0.663365
Si Si5 0.820831 0.458179 0.569032
Si Si6 0.033675 0.533136 0.417616
Si Si7 0.422159 0.279071 0.160775
Si Si8 0.694409 0.625289 0.947149
O O1 0.321189 0.750000 0.500000
O O2 0.269493 0.598300 0.615266
O O3 0.397156 0.634417 0.611212
O O4 0.344112 0.485387 0.501242
O O5 0.868247 0.100734 0.655202
O O6 0.808088 0.318675 0.618941
O O7 0.823218 0.095418 0.517783
O O8 0.435205 0.570731 0.750000
O O9 0.522140 0.605989 0.637941
O O10 0.447782 0.378203 0.638930
O O11 0.048314 0.729098 0.750000
O O12 0.041483 0.798406 0.601777
O O13 0.007198 0.543871 0.648935
O O14 0.891666 0.532044 0.585390
O O15 0.761010 0.563237 0.590958
O O16 0.000000 0.500000 0.500000
O O17 0.404811 0.287510 0.250000
O O18 0.354836 0.316257 0.117243
O O19 0.721086 0.750000 0.000000
#
# Coordination Sequence:
#
# PCOD8234723 Si02
#       8
#     8   8   8   8   8   8   8   8
#     4  11  21  37  62  90 117 149 196 249 288 350
#     4   9  17  36  58  79 113 151 194 233 286 350
#     4  10  23  41  60  84 117 157 199 241 295 362
#     4  11  23  38  58  88 124 154 195 255 302 346
#     4   9  18  35  58  85 109 149 200 238 278 348
#     4  11  21  38  64  86 115 161 204 243 293 364
#     4  10  23  42  59  82 118 158 196 240 298 360
#     4  11  21  37  59  89 120 148 189 248 297 337
#
# _framework density 19.444474
#
# number of rings (size 3 to 8) (size 9 to 14) (size 15 to 20)
#    0.000    1.750    5.000    0.750    1.750    2.500 
#    0.000    3.125    0.000    0.000    0.000    0.000 
#    0.000    0.000    0.000    0.000    0.000    0.000 
#
# Total GULP energy -793031.368796 kJ/mol
# GULP energy per Si atom -12391.115137 kJ/mol
# Density = 1.940022 g / cm^3
# Si number density = 19.444474 Si / 1000 Ang^3
#
#
#
# Elastic Constant Matrix: (Units=GPa)
#
#
# Indices 1 2 3 4 5 6 
#
# 1 154.3436 43.4595 42.4135 0.0000 0.0000 0.0000
# 2 43.4595 72.1297 16.5309 0.0000 0.0000 0.0000
# 3 42.4135 16.5309 51.3806 0.0000 0.0000 0.0000
# 4 0.0000 0.0000 0.0000 23.1963 0.0000 0.0000
# 5 0.0000 0.0000 0.0000 0.0000 58.0033 0.0000
# 6 0.0000 0.0000 0.0000 0.0000 0.0000 34.6421
#
#
#
# Elastic Compliance Matrix: (Units=1/GPa)
#
#
# Indices 1 2 3 4 5 6 
#
# 1 0.009431 -0.004209 -0.006431 0.000000 0.000000 0.000000
# 2 -0.004209 0.016846 -0.001946 0.000000 0.000000 0.000000
# 3 -0.006431 -0.001946 0.025398 0.000000 0.000000 0.000000
# 4 0.000000 0.000000 0.000000 0.043110 0.000000 0.000000
# 5 0.000000 0.000000 0.000000 0.000000 0.017240 0.000000
# 6 0.000000 0.000000 0.000000 0.000000 0.000000 0.028867
#
#
# Mechanical properties :
#
#
# Convention : Reuss Voigt Hill
#
# Bulk Modulus (GPa) = 37.73126 53.62907 45.68016
# Shear Modulus (GPa) = 28.58812 34.86501 31.72656
#
# Velocity S-wave (km/s) = 3.83854 4.23904 4.04375
# Velocity P-wave (km/s) = 6.25240 7.18330 6.73396
#
# Compressibility (1/GPa) = 0.02650322
#
# Stress axis : x y z
#
# Youngs Moduli (GPa) = 106.02834 59.36258 39.37387
#
# Poissons Ratio (x) = 0.24984 0.25323
# Poissons Ratio (y) = 0.44624 0.07661
# Poissons Ratio (z) = 0.68191 0.11550
#
# Static dielectric constant tensor:
#      x y z
#    x 3.830280 0.000000 0.000000 
#    y 0.000000 3.166250 0.000000 
#    z 0.000000 0.000000 3.276590 
# 
# 
# High freq. dielectric constant tensor:
#      x y z
#    x 1.772710 0.000000 0.000000 
#    y 0.000000 1.750030 0.000000 
#    z 0.000000 0.000000 1.731870 
# 
# From -- ./inp_files/23063.got.cif
#   From: 2010.03.12/outbox.cif.g09.slc.cpg/sg57_12_cif.got.tgz:23063.got - 2010.04.16 15:48:40.
