data_PCOD8234262
_publ_section_title
;
Structure prediction by ZEFSAII (Michael W. Deem and Ramdas Pophale) SiO2 
 PCOD8234262
Probable space group: P B C M
;
_chemical_formula_sum "Si O2"
_cell_formula_units_Z 40
_cell_length_a 5.188265
_cell_length_b 17.557368
_cell_length_c 21.260264
_cell_angle_alpha 90.000000
_cell_angle_beta 90.000000
_cell_angle_gamma 90.000000
_cell_volume 1936.645876
_symmetry_space_group_name_H-M "P B C M"
_symmetry_group_IT_number 57
_symmetry_cell_setting 'orthorhombic'
loop_
_space_group_symop_operation_xyz
x,y,z
-x,-y,1/2+z
x,1/2-y,-z
-x,1/2+y,1/2-z
-x,-y,-z
x,y,1/2-z
-x,1/2+y,z
x,1/2-y,1/2+z
loop_
_atom_site_type_symbol
_atom_site_label
_atom_site_fract_x
_atom_site_fract_y
_atom_site_fract_z
Si Si1 0.879205 0.083634 0.989660
Si Si2 0.472187 0.937363 0.677887
Si Si3 0.149365 0.285168 0.436093
Si Si4 0.004133 0.366190 0.874188
Si Si5 0.623519 0.937980 0.078569
O O1 0.615925 0.046331 0.966694
O O2 0.896775 0.168061 0.958497
O O3 0.125773 0.033997 0.962949
O O4 0.109602 0.905985 0.935845
O O5 0.525336 0.957559 0.750000
O O6 0.732716 0.904504 0.648433
O O7 0.232636 0.877471 0.674549
O O8 0.397017 0.016051 0.643295
O O9 0.277104 0.250000 0.500000
O O10 0.069274 0.222724 0.384686
O O11 0.345593 0.347567 0.405744
#
# Coordination Sequence:
#
# PCOD8234262 Si02
#       5
#     8   8   8   8   8
#     4   9  20  36  65  98 118 149 197 257 329 374
#     4  12  27  43  58  86 128 176 218 254 291 358
#     4   8  20  38  62  97 125 152 188 258 325 383
#     4  11  23  40  68  91 131 157 204 265 319 367
#     4  10  21  39  64  90 130 161 199 253 315 382
#
# _framework density 20.654264999999999
#
# number of rings (size 3 to 8) (size 9 to 14) (size 15 to 20)
#    1.200    0.800    0.000    3.000    2.800    5.600 
#    0.000    2.000    0.000    0.000    0.000    0.000 
#    0.000    0.000    0.000    0.000    0.000    0.000 
#
# Total GULP energy -495731.263660 kJ/mol
# GULP energy per Si atom -12393.281592 kJ/mol
# Density = 2.060725 g / cm^3
# Si number density = 20.654265 Si / 1000 Ang^3
#
#
#
# Elastic Constant Matrix: (Units=GPa)
#
#
# Indices 1 2 3 4 5 6 
#
# 1 125.0076 39.6313 44.0491 0.0000 0.0000 0.0000
# 2 39.6313 122.9597 54.1362 0.0000 0.0000 0.0000
# 3 44.0491 54.1362 109.8669 0.0000 0.0000 0.0000
# 4 0.0000 0.0000 0.0000 23.2633 0.0000 0.0000
# 5 0.0000 0.0000 0.0000 0.0000 21.3488 0.0000
# 6 0.0000 0.0000 0.0000 0.0000 0.0000 26.5808
#
#
#
# Elastic Compliance Matrix: (Units=1/GPa)
#
#
# Indices 1 2 3 4 5 6 
#
# 1 0.009615 -0.001790 -0.002973 0.000000 0.000000 0.000000
# 2 -0.001790 0.010719 -0.004564 0.000000 0.000000 0.000000
# 3 -0.002973 -0.004564 0.012543 0.000000 0.000000 0.000000
# 4 0.000000 0.000000 0.000000 0.042986 0.000000 0.000000
# 5 0.000000 0.000000 0.000000 0.000000 0.046841 0.000000
# 6 0.000000 0.000000 0.000000 0.000000 0.000000 0.037621
#
#
# Mechanical properties :
#
#
# Convention : Reuss Voigt Hill
#
# Bulk Modulus (GPa) = 70.31050 70.38527 70.34788
# Shear Modulus (GPa) = 27.21545 28.90645 28.06095
#
# Velocity S-wave (km/s) = 3.63391 3.74510 3.68992
# Velocity P-wave (km/s) = 7.19184 7.27000 7.23102
#
# Compressibility (1/GPa) = 0.01422263
#
# Stress axis : x y z
#
# Youngs Moduli (GPa) = 104.00936 93.29085 79.72753
#
# Poissons Ratio (x) = 0.16700 0.23701
# Poissons Ratio (y) = 0.18618 0.36389
# Poissons Ratio (z) = 0.30919 0.42579
#
# Static dielectric constant tensor:
#      x y z
#    x 3.726580 0.000000 0.000000 
#    y 0.000000 4.069470 0.000000 
#    z 0.000000 0.000000 3.374960 
# 
# 
# High freq. dielectric constant tensor:
#      x y z
#    x 1.816410 0.000000 0.000000 
#    y 0.000000 1.833600 0.000000 
#    z 0.000000 0.000000 1.770950 
# 
# From -- ./inp_files/27869.got.cif
#   From: 2010.03.12/outbox.cif.g09.slc.cpg/sg57_14_cif.got.tgz:27869.got - 2010.04.16 15:48:40.
