data_PCOD8234684
_publ_section_title
;
Structure prediction by ZEFSAII (Michael W. Deem and Ramdas Pophale) SiO2 
 PCOD8234684
Probable space group: P B C M
;
_chemical_formula_sum "Si O2"
_cell_formula_units_Z 48
_cell_length_a 17.232074
_cell_length_b 13.780013
_cell_length_c 9.755204
_cell_angle_alpha 90.000000
_cell_angle_beta 90.000000
_cell_angle_gamma 90.000000
_cell_volume 2316.453219
_symmetry_space_group_name_H-M "P B C M"
_symmetry_group_IT_number 57
_symmetry_cell_setting 'orthorhombic'
loop_
_space_group_symop_operation_xyz
x,y,z
-x,-y,1/2+z
x,1/2-y,-z
-x,1/2+y,1/2-z
-x,-y,-z
x,y,1/2-z
-x,1/2+y,z
x,1/2-y,1/2+z
loop_
_atom_site_type_symbol
_atom_site_label
_atom_site_fract_x
_atom_site_fract_y
_atom_site_fract_z
Si Si1 0.104775 0.026431 0.403930
Si Si2 0.495135 0.896880 0.250000
Si Si3 0.609931 0.144725 0.513257
Si Si4 0.649189 0.672765 0.250000
Si Si5 0.282560 0.031613 0.035450
Si Si6 0.486510 0.891500 0.750000
Si Si7 0.321668 0.111019 0.750000
Si Si8 0.998885 0.846312 0.412674
O O1 0.079959 0.060199 0.250000
O O2 0.070711 0.919482 0.432937
O O3 0.196728 0.019028 0.408619
O O4 0.076372 0.103352 0.517994
O O5 0.460962 0.842126 0.380957
O O6 0.586886 0.903937 0.250000
O O7 0.464708 0.008191 0.250000
O O8 0.650278 0.250000 0.500000
O O9 0.571445 0.108836 0.375533
O O10 0.674749 0.070093 0.563406
O O11 0.672786 0.616928 0.386888
O O12 0.554813 0.690275 0.250000
O O13 0.694683 0.774253 0.250000
O O14 0.281073 0.059183 0.877040
O O15 0.018248 0.750000 0.500000
O O16 0.983754 0.824579 0.250000
#
# Coordination Sequence:
#
# PCOD8234684 Si02
#       8
#     8   4   8   4   8   4   4   8
#     4  10  23  44  68  97 137 175 214 264 318 386
#     4  12  22  43  63  84 125 167 221 283 327 383
#     4  12  24  40  65  91 123 169 223 276 336 384
#     4  12  24  41  64  86 124 175 221 267 338 390
#     4  12  24  43  62  92 135 169 211 270 325 391
#     4  12  22  43  63  88 121 167 221 287 325 385
#     4  12  26  39  60  94 126 169 223 275 334 386
#     4  10  22  43  74 105 133 170 215 259 316 389
#
# _framework density 20.721332
#
# number of rings (size 3 to 8) (size 9 to 14) (size 15 to 20)
#    0.000    0.667    4.167    4.000    1.167    2.667 
#    0.000    0.000    0.000    0.000    0.000    0.000 
#    0.000    0.000    0.000    0.000    0.000    0.000 
#
# Total GULP energy -595320.374665 kJ/mol
# GULP energy per Si atom -12402.507806 kJ/mol
# Density = 2.067417 g / cm^3
# Si number density = 20.721332 Si / 1000 Ang^3
#
#
#
# Elastic Constant Matrix: (Units=GPa)
#
#
# Indices 1 2 3 4 5 6 
#
# 1 85.1032 16.1623 16.8701 0.0000 0.0000 0.0000
# 2 16.1623 118.4756 30.7055 0.0000 0.0000 0.0000
# 3 16.8701 30.7055 144.4806 0.0000 0.0000 0.0000
# 4 0.0000 0.0000 0.0000 28.0646 0.0000 0.0000
# 5 0.0000 0.0000 0.0000 0.0000 1.9898 0.0000
# 6 0.0000 0.0000 0.0000 0.0000 0.0000 13.0500
#
#
#
# Elastic Compliance Matrix: (Units=1/GPa)
#
#
# Indices 1 2 3 4 5 6 
#
# 1 0.012237 -0.001375 -0.001137 0.000000 0.000000 0.000000
# 2 -0.001375 0.009087 -0.001771 0.000000 0.000000 0.000000
# 3 -0.001137 -0.001771 0.007430 0.000000 0.000000 0.000000
# 4 0.000000 0.000000 0.000000 0.035632 0.000000 0.000000
# 5 0.000000 0.000000 0.000000 0.000000 0.502566 0.000000
# 6 0.000000 0.000000 0.000000 0.000000 0.000000 0.076629
#
#
# Mechanical properties :
#
#
# Convention : Reuss Voigt Hill
#
# Bulk Modulus (GPa) = 49.52933 52.83726 51.18330
# Shear Modulus (GPa) = 7.58870 27.57564 17.58217
#
# Velocity S-wave (km/s) = 1.91578 3.65195 2.91607
# Velocity P-wave (km/s) = 5.37104 6.58306 6.00769
#
# Compressibility (1/GPa) = 0.02019006
#
# Stress axis : x y z
#
# Youngs Moduli (GPa) = 81.72043 110.04723 134.58266
#
# Poissons Ratio (x) = 0.15129 0.15297
# Poissons Ratio (y) = 0.11234 0.23830
# Poissons Ratio (z) = 0.09289 0.19486
#
# Static dielectric constant tensor:
#      x y z
#    x 3.459220 0.000000 0.000000 
#    y 0.000000 3.973810 0.000000 
#    z 0.000000 0.000000 3.952450 
# 
# 
# High freq. dielectric constant tensor:
#      x y z
#    x 1.790550 0.000000 0.000000 
#    y 0.000000 1.823100 0.000000 
#    z 0.000000 0.000000 1.831030 
# 
# From -- ./inp_files/6634.got.cif
#   From: 2010.03.12/outbox.cif.g09.slc.cpg/sg57_4_cif.got.tgz:6634.got - 2010.04.16 15:48:40.
