data_PCOD8234504
_publ_section_title
;
Structure prediction by ZEFSAII (Michael W. Deem and Ramdas Pophale) SiO2 
 PCOD8234504
Probable space group: P B C M
;
_chemical_formula_sum "Si O2"
_cell_formula_units_Z 56
_cell_length_a 13.847766
_cell_length_b 9.728031
_cell_length_c 22.665787
_cell_angle_alpha 90.000000
_cell_angle_beta 90.000000
_cell_angle_gamma 90.000000
_cell_volume 3053.342096
_symmetry_space_group_name_H-M "P B C M"
_symmetry_group_IT_number 57
_symmetry_cell_setting 'orthorhombic'
loop_
_space_group_symop_operation_xyz
x,y,z
-x,-y,1/2+z
x,1/2-y,-z
-x,1/2+y,1/2-z
-x,-y,-z
x,y,1/2-z
-x,1/2+y,z
x,1/2-y,1/2+z
loop_
_atom_site_type_symbol
_atom_site_label
_atom_site_fract_x
_atom_site_fract_y
_atom_site_fract_z
Si Si1 0.125645 0.478525 0.121046
Si Si2 0.207832 0.224370 0.316950
Si Si3 0.417752 0.350015 0.679519
Si Si4 0.798224 0.259349 0.679918
Si Si5 0.898978 0.490305 0.129079
Si Si6 0.586549 0.342516 0.180283
Si Si7 0.097047 0.414292 0.504340
O O1 0.143725 0.329186 0.146926
O O2 0.190676 0.586481 0.156253
O O3 0.157844 0.467603 0.052274
O O4 0.013267 0.515022 0.129439
O O5 0.211919 0.273880 0.250000
O O6 0.316412 0.213196 0.342542
O O7 0.153924 0.077705 0.320171
O O8 0.418118 0.355416 0.750000
O O9 0.429129 0.504701 0.654556
O O10 0.504649 0.257888 0.653689
O O11 0.817269 0.253230 0.750000
O O12 0.691416 0.211811 0.662463
O O13 0.875320 0.167746 0.643832
O O14 0.853914 0.541509 0.066196
O O15 0.575490 0.344137 0.250000
O O16 0.078629 0.250000 0.500000
O O17 0.000000 0.500000 0.500000
#
# Coordination Sequence:
#
# PCOD8234504 Si02
#       7
#     8   8   8   8   8   8   8
#     4  11  24  36  55  82 113 150 192 232 272 326
#     4  11  21  35  54  82 116 150 182 222 283 344
#     4   9  18  32  52  76 106 144 184 226 273 326
#     4  11  23  37  54  85 121 150 184 226 280 347
#     4  11  22  38  58  77 114 152 191 232 272 323
#     4   9  18  33  52  76 108 144 183 227 271 325
#     4  10  22  39  59  80 104 143 202 248 273 311
#
# _framework density 18.34056
#
# number of rings (size 3 to 8) (size 9 to 14) (size 15 to 20)
#    0.000    1.714    2.857    1.714    8.000    3.429 
#    0.000    0.000    0.000    0.000    0.000    6.000 
#    0.000    0.000    0.000    0.000    0.000    0.000 
#
# Total GULP energy -694247.189039 kJ/mol
# GULP energy per Si atom -12397.271233 kJ/mol
# Density = 1.829882 g / cm^3
# Si number density = 18.340560 Si / 1000 Ang^3
#
#
#
# Elastic Constant Matrix: (Units=GPa)
#
#
# Indices 1 2 3 4 5 6 
#
# 1 84.6654 34.3347 32.5704 0.0000 0.0000 0.0000
# 2 34.3347 89.1469 35.2978 0.0000 0.0000 0.0000
# 3 32.5704 35.2978 71.4354 0.0000 0.0000 0.0000
# 4 0.0000 0.0000 0.0000 27.4698 0.0000 0.0000
# 5 0.0000 0.0000 0.0000 0.0000 3.2524 0.0000
# 6 0.0000 0.0000 0.0000 0.0000 0.0000 34.4399
#
#
#
# Elastic Compliance Matrix: (Units=1/GPa)
#
#
# Indices 1 2 3 4 5 6 
#
# 1 0.015343 -0.003903 -0.005067 0.000000 0.000000 0.000000
# 2 -0.003903 0.014939 -0.005602 0.000000 0.000000 0.000000
# 3 -0.005067 -0.005602 0.019077 0.000000 0.000000 0.000000
# 4 0.000000 0.000000 0.000000 0.036404 0.000000 0.000000
# 5 0.000000 0.000000 0.000000 0.000000 0.307465 0.000000
# 6 0.000000 0.000000 0.000000 0.000000 0.000000 0.029036
#
#
# Mechanical properties :
#
#
# Convention : Reuss Voigt Hill
#
# Bulk Modulus (GPa) = 49.46868 49.96150 49.71509
# Shear Modulus (GPa) = 10.91355 22.56875 16.74115
#
# Velocity S-wave (km/s) = 2.44201 3.51171 3.02453
# Velocity P-wave (km/s) = 5.91456 6.61384 6.27395
#
# Compressibility (1/GPa) = 0.02021481
#
# Stress axis : x y z
#
# Youngs Moduli (GPa) = 65.17495 66.93958 52.41913
#
# Poissons Ratio (x) = 0.26128 0.26561
# Poissons Ratio (y) = 0.25439 0.29365
# Poissons Ratio (z) = 0.33024 0.37500
#
# Static dielectric constant tensor:
#      x y z
#    x 3.300040 0.000000 0.000000 
#    y 0.000000 3.507950 0.000000 
#    z 0.000000 0.000000 3.573650 
# 
# 
# High freq. dielectric constant tensor:
#      x y z
#    x 1.696760 0.000000 0.000000 
#    y 0.000000 1.729950 0.000000 
#    z 0.000000 0.000000 1.681430 
# 
# From -- ./inp_files/25364.got.cif
#   From: 2010.03.12/outbox.cif.g09.slc.cpg/sg57_13_cif.got.tgz:25364.got - 2010.04.16 15:48:40.
