data_PCOD8234133
_publ_section_title
;
Structure prediction by ZEFSAII (Michael W. Deem and Ramdas Pophale) SiO2 
 PCOD8234133
Probable space group: P B C M
;
_chemical_formula_sum "Si O2"
_cell_formula_units_Z 64
_cell_length_a 16.770594
_cell_length_b 20.749667
_cell_length_c 8.847737
_cell_angle_alpha 90.000000
_cell_angle_beta 90.000000
_cell_angle_gamma 90.000000
_cell_volume 3078.873044
_symmetry_space_group_name_H-M "P B C M"
_symmetry_group_IT_number 57
_symmetry_cell_setting 'orthorhombic'
loop_
_space_group_symop_operation_xyz
x,y,z
-x,-y,1/2+z
x,1/2-y,-z
-x,1/2+y,1/2-z
-x,-y,-z
x,y,1/2-z
-x,1/2+y,z
x,1/2-y,1/2+z
loop_
_atom_site_type_symbol
_atom_site_label
_atom_site_fract_x
_atom_site_fract_y
_atom_site_fract_z
Si Si1 0.924715 0.107545 0.927463
Si Si2 0.946467 0.815035 0.928023
Si Si3 0.502060 0.431109 0.077521
Si Si4 0.684310 0.406030 0.082329
Si Si5 0.207513 0.141144 0.573657
Si Si6 0.188293 0.490877 0.921068
Si Si7 0.385368 0.181101 0.571116
Si Si8 0.791149 0.314163 0.575300
O O1 0.937688 0.112825 0.750000
O O2 0.883296 0.039541 0.970267
O O3 0.869159 0.165104 0.984312
O O4 0.009363 0.120174 0.009751
O O5 0.955261 0.812055 0.750000
O O6 0.984107 0.750000 0.000000
O O7 0.854034 0.817186 0.975984
O O8 0.477607 0.442601 0.250000
O O9 0.590885 0.405742 0.058950
O O10 0.443042 0.376324 0.008816
O O11 0.500000 0.500000 0.000000
O O12 0.705653 0.378062 0.250000
O O13 0.724736 0.476202 0.071239
O O14 0.719726 0.364263 0.946912
O O15 0.192980 0.153865 0.750000
O O16 0.191420 0.066380 0.539803
O O17 0.295736 0.162340 0.523358
O O18 0.172173 0.465724 0.750000
O O19 0.409323 0.250000 0.500000
O O20 0.394907 0.187435 0.750000
O O21 0.758422 0.250000 0.500000
O O22 0.812412 0.306484 0.750000
#
# Coordination Sequence:
#
# PCOD8234133 Si02
#       8
#     8   8   8   8   8   8   8   8
#     4  10  21  39  60  85 118 152 190 234 285 346
#     4  12  25  41  61  85 114 149 193 241 292 349
#     4  10  21  38  61  90 122 155 197 248 302 361
#     4   9  19  36  56  81 115 151 189 235 286 345
#     4  11  23  39  60  85 115 152 196 246 297 353
#     4   9  19  36  59  86 116 152 191 234 287 347
#     4  10  23  41  61  88 121 159 204 254 307 364
#     4  11  21  34  54  80 112 150 190 231 280 339
#
# _framework density 20.786825
#
# number of rings (size 3 to 8) (size 9 to 14) (size 15 to 20)
#    0.000    1.750    0.000    5.250    0.000    6.500 
#    0.000    1.250    0.000    0.000    0.000    0.000 
#    0.000    0.000    0.000    0.000    0.000    0.000 
#
# Total GULP energy -793531.797412 kJ/mol
# GULP energy per Si atom -12398.934335 kJ/mol
# Density = 2.073951 g / cm^3
# Si number density = 20.786825 Si / 1000 Ang^3
#
#
#
# Elastic Constant Matrix: (Units=GPa)
#
#
# Indices 1 2 3 4 5 6 
#
# 1 101.7017 37.1883 30.4993 0.0000 0.0000 0.0000
# 2 37.1883 115.2825 40.3753 0.0000 0.0000 0.0000
# 3 30.4993 40.3753 90.1353 0.0000 0.0000 0.0000
# 4 0.0000 0.0000 0.0000 37.7114 0.0000 0.0000
# 5 0.0000 0.0000 0.0000 0.0000 23.1078 0.0000
# 6 0.0000 0.0000 0.0000 0.0000 0.0000 27.0304
#
#
#
# Elastic Compliance Matrix: (Units=1/GPa)
#
#
# Indices 1 2 3 4 5 6 
#
# 1 0.011670 -0.002825 -0.002684 0.000000 0.000000 0.000000
# 2 -0.002825 0.010972 -0.003959 0.000000 0.000000 0.000000
# 3 -0.002684 -0.003959 0.013776 0.000000 0.000000 0.000000
# 4 0.000000 0.000000 0.000000 0.026517 0.000000 0.000000
# 5 0.000000 0.000000 0.000000 0.000000 0.043275 0.000000
# 6 0.000000 0.000000 0.000000 0.000000 0.000000 0.036995
#
#
# Mechanical properties :
#
#
# Convention : Reuss Voigt Hill
#
# Bulk Modulus (GPa) = 57.19658 58.13836 57.66747
# Shear Modulus (GPa) = 29.76737 30.84036 30.30386
#
# Velocity S-wave (km/s) = 3.78832 3.85600 3.82231
# Velocity P-wave (km/s) = 6.83452 6.91769 6.87623
#
# Compressibility (1/GPa) = 0.01748356
#
# Stress axis : x y z
#
# Youngs Moduli (GPa) = 85.68706 91.13978 72.59054
#
# Poissons Ratio (x) = 0.25745 0.19480
# Poissons Ratio (y) = 0.24205 0.28739
# Poissons Ratio (z) = 0.22995 0.36083
#
# Static dielectric constant tensor:
#      x y z
#    x 4.653750 0.000000 0.000000 
#    y 0.000000 4.145060 0.000000 
#    z 0.000000 0.000000 3.694160 
# 
# 
# High freq. dielectric constant tensor:
#      x y z
#    x 1.818500 0.000000 0.000000 
#    y 0.000000 1.814970 0.000000 
#    z 0.000000 0.000000 1.808700 
# 
# From -- ./inp_files/7192.got.cif
#   From: 2010.03.12/outbox.cif.g09.slc.cpg/sg57_4_cif.got.tgz:7192.got - 2010.04.16 15:48:40.
