data_PCOD8234311
_publ_section_title
;
Structure prediction by ZEFSAII (Michael W. Deem and Ramdas Pophale) SiO2 
 PCOD8234311
Probable space group: P B C M
;
_chemical_formula_sum "Si O2"
_cell_formula_units_Z 40
_cell_length_a 14.541113
_cell_length_b 8.774628
_cell_length_c 15.151905
_cell_angle_alpha 90.000000
_cell_angle_beta 90.000000
_cell_angle_gamma 90.000000
_cell_volume 1933.274852
_symmetry_space_group_name_H-M "P B C M"
_symmetry_group_IT_number 57
_symmetry_cell_setting 'orthorhombic'
loop_
_space_group_symop_operation_xyz
x,y,z
-x,-y,1/2+z
x,1/2-y,-z
-x,1/2+y,1/2-z
-x,-y,-z
x,y,1/2-z
-x,1/2+y,z
x,1/2-y,1/2+z
loop_
_atom_site_type_symbol
_atom_site_label
_atom_site_fract_x
_atom_site_fract_y
_atom_site_fract_z
Si Si1 0.433031 0.017129 0.348276
Si Si2 0.767470 0.034063 0.149137
Si Si3 0.099419 0.928739 0.002054
Si Si4 0.759348 0.110776 0.648356
Si Si5 0.595501 0.833738 0.408058
O O1 0.449491 0.951661 0.250000
O O2 0.333809 0.967656 0.385351
O O3 0.511260 0.953031 0.413594
O O4 0.434862 0.200037 0.341786
O O5 0.799032 0.005986 0.250000
O O6 0.851070 0.998706 0.083381
O O7 0.741377 0.210219 0.133896
O O8 0.683358 0.923932 0.127237
O O9 0.086449 0.750000 0.000000
O O10 0.158374 0.962210 0.090576
O O11 0.000000 0.000000 0.000000
O O12 0.781704 0.071991 0.750000
O O13 0.616114 0.750000 0.500000
#
# Coordination Sequence:
#
# PCOD8234311 Si02
#       5
#     8   8   8   8   8
#     4  11  22  37  57  84 117 156 196 240 293 355
#     4  10  21  40  62  85 117 159 200 245 300 360
#     4  10  22  39  60  86 116 150 193 246 302 358
#     4   9  20  39  62  86 118 158 201 246 298 357
#     4  12  24  37  57  87 121 157 201 247 298 358
#
# _framework density 20.690280999999999
#
# number of rings (size 3 to 8) (size 9 to 14) (size 15 to 20)
#    0.000    1.600    0.000    4.800    0.000    7.200 
#    0.000    0.000    0.000    0.000    0.000    0.000 
#    0.000    0.000    0.000    0.000    0.000    0.000 
#
# Total GULP energy -495916.398987 kJ/mol
# GULP energy per Si atom -12397.909975 kJ/mol
# Density = 2.064319 g / cm^3
# Si number density = 20.690281 Si / 1000 Ang^3
#
#
#
# Elastic Constant Matrix: (Units=GPa)
#
#
# Indices 1 2 3 4 5 6 
#
# 1 167.0657 67.7546 69.7613 0.0000 0.0000 0.0000
# 2 67.7546 82.7431 38.9618 0.0000 0.0000 0.0000
# 3 69.7613 38.9618 129.9789 0.0000 0.0000 0.0000
# 4 0.0000 0.0000 0.0000 23.2854 0.0000 0.0000
# 5 0.0000 0.0000 0.0000 0.0000 28.8355 0.0000
# 6 0.0000 0.0000 0.0000 0.0000 0.0000 44.8832
#
#
#
# Elastic Compliance Matrix: (Units=1/GPa)
#
#
# Indices 1 2 3 4 5 6 
#
# 1 0.010127 -0.006675 -0.003434 0.000000 0.000000 0.000000
# 2 -0.006675 0.018472 -0.001954 0.000000 0.000000 0.000000
# 3 -0.003434 -0.001954 0.010123 0.000000 0.000000 0.000000
# 4 0.000000 0.000000 0.000000 0.042945 0.000000 0.000000
# 5 0.000000 0.000000 0.000000 0.000000 0.034679 0.000000
# 6 0.000000 0.000000 0.000000 0.000000 0.000000 0.022280
#
#
# Mechanical properties :
#
#
# Convention : Reuss Voigt Hill
#
# Bulk Modulus (GPa) = 68.52319 81.41591 74.96955
# Shear Modulus (GPa) = 29.82955 32.95481 31.39218
#
# Velocity S-wave (km/s) = 3.80112 3.99528 3.89941
# Velocity P-wave (km/s) = 7.24259 7.79219 7.52241
#
# Compressibility (1/GPa) = 0.01459360
#
# Stress axis : x y z
#
# Youngs Moduli (GPa) = 98.74619 54.13592 98.78887
#
# Poissons Ratio (x) = 0.36138 0.33927
# Poissons Ratio (y) = 0.65917 0.19306
# Poissons Ratio (z) = 0.33912 0.10580
#
# Static dielectric constant tensor:
#      x y z
#    x 3.985410 0.000000 0.000000 
#    y 0.000000 3.825420 0.000000 
#    z 0.000000 0.000000 3.960970 
# 
# 
# High freq. dielectric constant tensor:
#      x y z
#    x 1.799350 0.000000 0.000000 
#    y 0.000000 1.812580 0.000000 
#    z 0.000000 0.000000 1.824160 
# 
# From -- ./inp_files/18196.got.cif
#   From: 2010.03.12/outbox.cif.g09.slc.cpg/sg57_10_cif.got.tgz:18196.got - 2010.04.16 15:48:40.
