data_PCOD8234491
_publ_section_title
;
Structure prediction by ZEFSAII (Michael W. Deem and Ramdas Pophale) SiO2 
 PCOD8234491
Probable space group: P B C M
;
_chemical_formula_sum "Si O2"
_cell_formula_units_Z 48
_cell_length_a 5.962872
_cell_length_b 18.393452
_cell_length_c 22.030066
_cell_angle_alpha 90.000000
_cell_angle_beta 90.000000
_cell_angle_gamma 90.000000
_cell_volume 2416.209171
_symmetry_space_group_name_H-M "P B C M"
_symmetry_group_IT_number 57
_symmetry_cell_setting 'orthorhombic'
loop_
_space_group_symop_operation_xyz
x,y,z
-x,-y,1/2+z
x,1/2-y,-z
-x,1/2+y,1/2-z
-x,-y,-z
x,y,1/2-z
-x,1/2+y,z
x,1/2-y,1/2+z
loop_
_atom_site_type_symbol
_atom_site_label
_atom_site_fract_x
_atom_site_fract_y
_atom_site_fract_z
Si Si1 0.699602 0.102694 0.601824
Si Si2 0.328025 0.675550 0.403435
Si Si3 0.075245 0.777554 0.321486
Si Si4 0.688726 0.710513 0.908567
Si Si5 0.017249 0.141535 0.003776
Si Si6 0.399621 0.041907 0.058089
O O1 0.836569 0.143977 0.654325
O O2 0.452255 0.136942 0.599244
O O3 0.825663 0.104572 0.537060
O O4 0.667497 0.016074 0.611134
O O5 0.244927 0.710939 0.339424
O O6 0.531337 0.723444 0.428877
O O7 0.416523 0.592717 0.406990
O O8 0.108346 0.686721 0.444173
O O9 0.060486 0.780314 0.250000
O O10 0.823964 0.767858 0.347457
O O11 0.856028 0.700194 0.963705
O O12 0.179767 0.083792 0.035748
O O13 0.500000 0.000000 0.000000
#
# Coordination Sequence:
#
# PCOD8234491 Si02
#       6
#     8   8   8   8   8   8
#     4  10  22  38  62  91 124 161 203 243 306 367
#     4  11  24  36  60  91 125 161 201 247 305 367
#     4  10  24  44  63  82 112 160 217 266 303 346
#     4  10  22  39  58  89 120 159 203 252 302 357
#     4  11  21  36  59  92 133 161 191 239 302 378
#     4  12  22  37  58  95 137 163 187 234 305 378
#
# _framework density 19.865829000000002
#
# number of rings (size 3 to 8) (size 9 to 14) (size 15 to 20)
#    0.000    1.333    3.333    1.500    0.000   18.667 
#    0.000    0.833    0.000    5.000    0.000    0.000 
#    0.000    0.000    0.000    0.000    0.000    0.000 
#
# Total GULP energy -594859.110357 kJ/mol
# GULP energy per Si atom -12392.898132 kJ/mol
# Density = 1.982061 g / cm^3
# Si number density = 19.865829 Si / 1000 Ang^3
#
#
#
# Elastic Constant Matrix: (Units=GPa)
#
#
# Indices 1 2 3 4 5 6 
#
# 1 118.3508 56.3814 50.5652 0.0000 0.0000 0.0000
# 2 56.3814 117.2713 67.9851 0.0000 0.0000 0.0000
# 3 50.5652 67.9851 100.2244 0.0000 0.0000 0.0000
# 4 0.0000 0.0000 0.0000 18.9332 0.0000 0.0000
# 5 0.0000 0.0000 0.0000 0.0000 20.6622 0.0000
# 6 0.0000 0.0000 0.0000 0.0000 0.0000 39.2085
#
#
#
# Elastic Compliance Matrix: (Units=1/GPa)
#
#
# Indices 1 2 3 4 5 6 
#
# 1 0.011630 -0.003609 -0.003419 0.000000 0.000000 0.000000
# 2 -0.003609 0.015174 -0.008472 0.000000 0.000000 0.000000
# 3 -0.003419 -0.008472 0.017449 0.000000 0.000000 0.000000
# 4 0.000000 0.000000 0.000000 0.052817 0.000000 0.000000
# 5 0.000000 0.000000 0.000000 0.000000 0.048397 0.000000
# 6 0.000000 0.000000 0.000000 0.000000 0.000000 0.025505
#
#
# Mechanical properties :
#
#
# Convention : Reuss Voigt Hill
#
# Bulk Modulus (GPa) = 75.45839 76.19000 75.82419
# Shear Modulus (GPa) = 24.22592 26.48844 25.35718
#
# Velocity S-wave (km/s) = 3.49589 3.65549 3.57658
# Velocity P-wave (km/s) = 7.37302 7.50016 7.43686
#
# Compressibility (1/GPa) = 0.01325234
#
# Stress axis : x y z
#
# Youngs Moduli (GPa) = 85.98706 65.90307 57.30827
#
# Poissons Ratio (x) = 0.23785 0.19595
# Poissons Ratio (y) = 0.31033 0.48551
# Poissons Ratio (z) = 0.29401 0.55833
#
# Static dielectric constant tensor:
#      x y z
#    x 4.132090 0.000000 0.000000 
#    y 0.000000 3.855770 0.000000 
#    z 0.000000 0.000000 3.162650 
# 
# 
# High freq. dielectric constant tensor:
#      x y z
#    x 1.804620 0.000000 0.000000 
#    y 0.000000 1.782960 0.000000 
#    z 0.000000 0.000000 1.721960 
# 
# From -- ./inp_files/26214.got.cif
#   From: 2010.03.12/outbox.cif.g09.slc.cpg/sg57_14_cif.got.tgz:26214.got - 2010.04.16 15:48:40.
