data_PCOD8234782
_publ_section_title
;
Structure prediction by ZEFSAII (Michael W. Deem and Ramdas Pophale) SiO2 
 PCOD8234782
Probable space group: P B C M
;
_chemical_formula_sum "Si O2"
_cell_formula_units_Z 48
_cell_length_a 5.562070
_cell_length_b 14.293771
_cell_length_c 27.108018
_cell_angle_alpha 90.000000
_cell_angle_beta 90.000000
_cell_angle_gamma 90.000000
_cell_volume 2155.167532
_symmetry_space_group_name_H-M "P B C M"
_symmetry_group_IT_number 57
_symmetry_cell_setting 'orthorhombic'
loop_
_space_group_symop_operation_xyz
x,y,z
-x,-y,1/2+z
x,1/2-y,-z
-x,1/2+y,1/2-z
-x,-y,-z
x,y,1/2-z
-x,1/2+y,z
x,1/2-y,1/2+z
loop_
_atom_site_type_symbol
_atom_site_label
_atom_site_fract_x
_atom_site_fract_y
_atom_site_fract_z
Si Si1 0.268034 0.681972 0.619432
Si Si2 0.463589 0.295456 0.951807
Si Si3 0.254587 0.532066 0.474067
Si Si4 0.119781 0.165093 0.131283
Si Si5 0.651882 0.821718 0.191989
Si Si6 0.079047 0.470378 0.126168
O O1 0.478409 0.703411 0.580774
O O2 0.376694 0.666963 0.674409
O O3 0.105122 0.772869 0.617128
O O4 0.139035 0.587935 0.602104
O O5 0.701508 0.355720 0.967908
O O6 0.274342 0.354712 0.918850
O O7 0.338097 0.250000 0.000000
O O8 0.500000 0.500000 0.500000
O O9 0.260352 0.492007 0.418337
O O10 0.000000 0.500000 0.500000
O O11 0.264117 0.218314 0.174487
O O12 0.024904 0.065143 0.150733
O O13 0.670256 0.829405 0.250000
O O14 0.805843 0.905944 0.168477
#
# Coordination Sequence:
#
# PCOD8234782 Si02
#       6
#     8   8   8   8   8   8
#     4  10  23  43  68  94 144 182 237 302 366 436
#     4  11  24  40  66  99 146 193 244 292 358 426
#     4  12  27  42  69 108 149 197 252 298 357 438
#     4  10  23  45  69  98 141 189 237 303 366 451
#     4  10  25  45  72 104 136 181 244 313 385 452
#     4  11  24  45  71 101 146 188 243 303 376 441
#
# _framework density 22.272051000000001
#
# number of rings (size 3 to 8) (size 9 to 14) (size 15 to 20)
#    0.000    1.333    1.667    2.000   11.667    4.000 
#    0.000    1.667    0.000    0.000    0.000    0.000 
#    0.000    0.000    0.000    0.000    0.000    0.000 
#
# Total GULP energy -594743.277345 kJ/mol
# GULP energy per Si atom -12390.484945 kJ/mol
# Density = 2.222136 g / cm^3
# Si number density = 22.272051 Si / 1000 Ang^3
#
#
#
# Elastic Constant Matrix: (Units=GPa)
#
#
# Indices 1 2 3 4 5 6 
#
# 1 105.0460 40.5249 45.5231 0.0000 0.0000 0.0000
# 2 40.5249 151.1862 45.3885 0.0000 0.0000 0.0000
# 3 45.5231 45.3885 149.5977 0.0000 0.0000 0.0000
# 4 0.0000 0.0000 0.0000 25.4274 0.0000 0.0000
# 5 0.0000 0.0000 0.0000 0.0000 29.5999 0.0000
# 6 0.0000 0.0000 0.0000 0.0000 0.0000 29.4410
#
#
#
# Elastic Compliance Matrix: (Units=1/GPa)
#
#
# Indices 1 2 3 4 5 6 
#
# 1 0.011628 -0.002260 -0.002853 0.000000 0.000000 0.000000
# 2 -0.002260 0.007717 -0.001653 0.000000 0.000000 0.000000
# 3 -0.002853 -0.001653 0.008054 0.000000 0.000000 0.000000
# 4 0.000000 0.000000 0.000000 0.039328 0.000000 0.000000
# 5 0.000000 0.000000 0.000000 0.000000 0.033784 0.000000
# 6 0.000000 0.000000 0.000000 0.000000 0.000000 0.033966
#
#
# Mechanical properties :
#
#
# Convention : Reuss Voigt Hill
#
# Bulk Modulus (GPa) = 72.11886 74.30030 73.20958
# Shear Modulus (GPa) = 32.75867 35.18656 33.97261
#
# Velocity S-wave (km/s) = 3.83932 3.97905 3.90981
# Velocity P-wave (km/s) = 7.21838 7.38534 7.30233
#
# Compressibility (1/GPa) = 0.01386600
#
# Stress axis : x y z
#
# Youngs Moduli (GPa) = 86.00022 129.59014 124.15738
#
# Poissons Ratio (x) = 0.29293 0.35417
# Poissons Ratio (y) = 0.19440 0.20528
# Poissons Ratio (z) = 0.24532 0.21426
#
# Static dielectric constant tensor:
#      x y z
#    x 4.183150 0.000000 0.000000 
#    y 0.000000 4.307770 0.000000 
#    z 0.000000 0.000000 3.823700 
# 
# 
# High freq. dielectric constant tensor:
#      x y z
#    x 1.881450 0.000000 0.000000 
#    y 0.000000 1.889760 0.000000 
#    z 0.000000 0.000000 1.855050 
# 
# From -- ./inp_files/27932.got.cif
#   From: 2010.03.12/outbox.cif.g09.slc.cpg/sg57_14_cif.got.tgz:27932.got - 2010.04.16 15:48:40.
