data_PCOD8234081
_publ_section_title
;
Structure prediction by ZEFSAII (Michael W. Deem and Ramdas Pophale) SiO2 
 PCOD8234081
Probable space group: P B C M
;
_chemical_formula_sum "Si O2"
_cell_formula_units_Z 48
_cell_length_a 30.368733
_cell_length_b 9.420949
_cell_length_c 8.634322
_cell_angle_alpha 90.000000
_cell_angle_beta 90.000000
_cell_angle_gamma 90.000000
_cell_volume 2470.299252
_symmetry_space_group_name_H-M "P B C M"
_symmetry_group_IT_number 57
_symmetry_cell_setting 'orthorhombic'
loop_
_space_group_symop_operation_xyz
x,y,z
-x,-y,1/2+z
x,1/2-y,-z
-x,1/2+y,1/2-z
-x,-y,-z
x,y,1/2-z
-x,1/2+y,z
x,1/2-y,1/2+z
loop_
_atom_site_type_symbol
_atom_site_label
_atom_site_fract_x
_atom_site_fract_y
_atom_site_fract_z
Si Si1 0.961527 0.905923 0.431170
Si Si2 0.629679 0.402534 0.568206
Si Si3 0.786224 0.098820 0.567109
Si Si4 0.712508 0.595598 0.931627
Si Si5 0.461614 0.594629 0.566543
Si Si6 0.119373 0.898659 0.567996
O O1 0.962242 0.750000 0.500000
O O2 0.969162 0.894949 0.250000
O O3 0.915099 0.978394 0.472109
O O4 0.000000 0.000000 0.500000
O O5 0.642507 0.250000 0.500000
O O6 0.621232 0.386416 0.750000
O O7 0.668767 0.508857 0.528462
O O8 0.585672 0.464748 0.488778
O O9 0.770639 0.250000 0.500000
O O10 0.785886 0.109883 0.750000
O O11 0.834790 0.058139 0.509885
O O12 0.754042 0.975835 0.512604
O O13 0.721557 0.602906 0.750000
O O14 0.705670 0.750000 0.000000
O O15 0.468470 0.750000 0.500000
O O16 0.500000 0.500000 0.500000
O O17 0.463753 0.596556 0.750000
O O18 0.101584 0.750000 0.500000
O O19 0.126608 0.879848 0.750000
#
# Coordination Sequence:
#
# PCOD8234081 Si02
#       6
#     8   8   8   8   8   8
#     4  11  24  40  61  87 118 155 195 240 289 344
#     4  10  21  38  60  85 113 149 193 237 285 342
#     4  11  22  38  62  88 117 154 195 238 285 342
#     4  11  24  40  59  85 118 153 192 239 290 343
#     4  11  22  38  60  86 117 152 192 237 286 341
#     4  10  21  38  60  87 117 151 193 239 288 342
#
# _framework density 19.430844
#
# number of rings (size 3 to 8) (size 9 to 14) (size 15 to 20)
#    0.000    1.333    0.000    8.000    0.000    9.333 
#    0.000    3.333    0.000    0.000    0.000    0.000 
#    0.000    0.000    0.000    0.000    0.000    0.000 
#
# Total GULP energy -595439.574286 kJ/mol
# GULP energy per Si atom -12404.991131 kJ/mol
# Density = 1.938662 g / cm^3
# Si number density = 19.430844 Si / 1000 Ang^3
#
#
#
# Elastic Constant Matrix: (Units=GPa)
#
#
# Indices 1 2 3 4 5 6 
#
# 1 136.2144 97.3705 88.2590 0.0000 0.0000 0.0000
# 2 97.3705 144.0068 76.2114 0.0000 0.0000 0.0000
# 3 88.2590 76.2114 159.3409 0.0000 0.0000 0.0000
# 4 0.0000 0.0000 0.0000 37.9545 0.0000 0.0000
# 5 0.0000 0.0000 0.0000 0.0000 32.9391 0.0000
# 6 0.0000 0.0000 0.0000 0.0000 0.0000 39.4344
#
#
#
# Elastic Compliance Matrix: (Units=1/GPa)
#
#
# Indices 1 2 3 4 5 6 
#
# 1 0.016937 -0.008686 -0.005227 0.000000 0.000000 0.000000
# 2 -0.008686 0.013752 -0.001766 0.000000 0.000000 0.000000
# 3 -0.005227 -0.001766 0.010016 0.000000 0.000000 0.000000
# 4 0.000000 0.000000 0.000000 0.026347 0.000000 0.000000
# 5 0.000000 0.000000 0.000000 0.000000 0.030359 0.000000
# 6 0.000000 0.000000 0.000000 0.000000 0.000000 0.025359
#
#
# Mechanical properties :
#
#
# Convention : Reuss Voigt Hill
#
# Bulk Modulus (GPa) = 106.99264 107.02712 107.00988
# Shear Modulus (GPa) = 31.79777 33.91368 32.85573
#
# Velocity S-wave (km/s) = 4.04970 4.18227 4.11652
# Velocity P-wave (km/s) = 8.77779 8.86129 8.81964
#
# Compressibility (1/GPa) = 0.00934644
#
# Stress axis : x y z
#
# Youngs Moduli (GPa) = 59.04196 72.71790 99.84033
#
# Poissons Ratio (x) = 0.63161 0.52188
# Poissons Ratio (y) = 0.51282 0.17635
# Poissons Ratio (z) = 0.30862 0.12844
#
# Static dielectric constant tensor:
#      x y z
#    x 3.978790 0.000000 0.000000 
#    y 0.000000 3.508640 0.000000 
#    z 0.000000 0.000000 3.785790 
# 
# 
# High freq. dielectric constant tensor:
#      x y z
#    x 1.772150 0.000000 0.000000 
#    y 0.000000 1.756780 0.000000 
#    z 0.000000 0.000000 1.779710 
# 
# From -- ./inp_files/10084.got.cif
#   From: 2010.03.12/outbox.cif.g09.slc.cpg/sg57_6_cif.got.tgz:10084.got - 2010.04.16 15:48:40.
