data_PCOD8234296
_publ_section_title
;
Structure prediction by ZEFSAII (Michael W. Deem and Ramdas Pophale) SiO2 
 PCOD8234296
Probable space group: P B C M
;
_chemical_formula_sum "Si O2"
_cell_formula_units_Z 48
_cell_length_a 9.838644
_cell_length_b 13.923035
_cell_length_c 16.556851
_cell_angle_alpha 90.000000
_cell_angle_beta 90.000000
_cell_angle_gamma 90.000000
_cell_volume 2268.020114
_symmetry_space_group_name_H-M "P B C M"
_symmetry_group_IT_number 57
_symmetry_cell_setting 'orthorhombic'
loop_
_space_group_symop_operation_xyz
x,y,z
-x,-y,1/2+z
x,1/2-y,-z
-x,1/2+y,1/2-z
-x,-y,-z
x,y,1/2-z
-x,1/2+y,z
x,1/2-y,1/2+z
loop_
_atom_site_type_symbol
_atom_site_label
_atom_site_fract_x
_atom_site_fract_y
_atom_site_fract_z
Si Si1 0.596536 0.185536 0.657009
Si Si2 0.862750 0.791494 0.157421
Si Si3 0.242377 0.404180 0.909156
Si Si4 0.356214 0.418601 0.412671
Si Si5 0.465430 0.899899 0.842408
Si Si6 0.120775 0.909377 0.156579
O O1 0.551087 0.168615 0.750000
O O2 0.509705 0.120226 0.596187
O O3 0.572920 0.294038 0.629678
O O4 0.752907 0.161053 0.644892
O O5 0.886736 0.761768 0.250000
O O6 0.837822 0.694497 0.107119
O O7 0.733974 0.862110 0.152445
O O8 0.991962 0.850085 0.122750
O O9 0.373172 0.417252 0.851771
O O10 0.139766 0.492577 0.894055
O O11 0.294618 0.400540 0.000142
O O12 0.368208 0.531693 0.395308
O O13 0.428180 0.919083 0.750000
O O14 0.098433 0.937679 0.250000
#
# Coordination Sequence:
#
# PCOD8234296 Si02
#       6
#     8   8   8   8   8   8
#     4  10  21  39  66  99 130 170 227 282 324 390
#     4  11  24  43  68  94 129 181 227 272 329 404
#     4  12  24  41  66  98 135 173 217 277 349 395
#     4  12  24  40  65  98 135 170 220 275 338 401
#     4  11  22  38  66  98 130 172 222 275 325 393
#     4  10  23  43  67  94 130 173 225 278 330 395
#
# _framework density 21.163833
#
# number of rings (size 3 to 8) (size 9 to 14) (size 15 to 20)
#    0.000    1.000    3.333    4.000    0.000    2.000 
#    0.000    5.000    0.000    0.000    0.000    0.000 
#    0.000    0.000    0.000    0.000    0.000    0.000 
#
# Total GULP energy -595422.508096 kJ/mol
# GULP energy per Si atom -12404.635585 kJ/mol
# Density = 2.111566 g / cm^3
# Si number density = 21.163833 Si / 1000 Ang^3
#
#
#
# Elastic Constant Matrix: (Units=GPa)
#
#
# Indices 1 2 3 4 5 6 
#
# 1 88.4003 36.1949 13.2451 0.0000 0.0000 0.0000
# 2 36.1949 131.3062 35.1599 0.0000 0.0000 0.0000
# 3 13.2451 35.1599 71.4544 0.0000 0.0000 0.0000
# 4 0.0000 0.0000 0.0000 27.4646 0.0000 0.0000
# 5 0.0000 0.0000 0.0000 0.0000 27.4865 0.0000
# 6 0.0000 0.0000 0.0000 0.0000 0.0000 50.3018
#
#
#
# Elastic Compliance Matrix: (Units=1/GPa)
#
#
# Indices 1 2 3 4 5 6 
#
# 1 0.012785 -0.003328 -0.000732 0.000000 0.000000 0.000000
# 2 -0.003328 0.009638 -0.004126 0.000000 0.000000 0.000000
# 3 -0.000732 -0.004126 0.016161 0.000000 0.000000 0.000000
# 4 0.000000 0.000000 0.000000 0.036410 0.000000 0.000000
# 5 0.000000 0.000000 0.000000 0.000000 0.036381 0.000000
# 6 0.000000 0.000000 0.000000 0.000000 0.000000 0.019880
#
#
# Mechanical properties :
#
#
# Convention : Reuss Voigt Hill
#
# Bulk Modulus (GPa) = 45.02161 51.15119 48.08640
# Shear Modulus (GPa) = 32.25176 34.82133 33.53654
#
# Velocity S-wave (km/s) = 3.90796 4.06066 3.98504
# Velocity P-wave (km/s) = 6.45616 6.79756 6.62906
#
# Compressibility (1/GPa) = 0.02221156
#
# Stress axis : x y z
#
# Youngs Moduli (GPa) = 78.21961 103.75754 61.87862
#
# Poissons Ratio (x) = 0.34531 0.04531
# Poissons Ratio (y) = 0.26032 0.25528
# Poissons Ratio (z) = 0.05727 0.42805
#
# Static dielectric constant tensor:
#      x y z
#    x 3.856510 0.000000 0.000000 
#    y 0.000000 3.985720 0.000000 
#    z 0.000000 0.000000 3.666730 
# 
# 
# High freq. dielectric constant tensor:
#      x y z
#    x 1.823170 0.000000 0.000000 
#    y 0.000000 1.845870 0.000000 
#    z 0.000000 0.000000 1.820150 
# 
# From -- ./inp_files/20910.got.cif
#   From: 2010.03.12/outbox.cif.g09.slc.cpg/sg57_11_cif.got.tgz:20910.got - 2010.04.16 15:48:40.
