data_PCOD8234263
_publ_section_title
;
Structure prediction by ZEFSAII (Michael W. Deem and Ramdas Pophale) SiO2 
 PCOD8234263
Probable space group: P B C M
;
_chemical_formula_sum "Si O2"
_cell_formula_units_Z 64
_cell_length_a 23.954874
_cell_length_b 8.919233
_cell_length_c 14.723824
_cell_angle_alpha 90.000000
_cell_angle_beta 90.000000
_cell_angle_gamma 90.000000
_cell_volume 3145.879024
_symmetry_space_group_name_H-M "P B C M"
_symmetry_group_IT_number 57
_symmetry_cell_setting 'orthorhombic'
loop_
_space_group_symop_operation_xyz
x,y,z
-x,-y,1/2+z
x,1/2-y,-z
-x,1/2+y,1/2-z
-x,-y,-z
x,y,1/2-z
-x,1/2+y,z
x,1/2-y,1/2+z
loop_
_atom_site_type_symbol
_atom_site_label
_atom_site_fract_x
_atom_site_fract_y
_atom_site_fract_z
Si Si1 0.449873 0.919081 0.355164
Si Si2 0.747787 0.076431 0.991174
Si Si3 0.843581 0.118961 0.646894
Si Si4 0.565908 0.426901 0.855018
Si Si5 0.172382 0.965679 0.646867
Si Si6 0.632619 0.572380 0.491624
Si Si7 0.954407 0.539743 0.358201
Si Si8 0.937822 0.872195 0.358266
O O1 0.435727 0.944971 0.250000
O O2 0.445647 0.744995 0.382376
O O3 0.511944 0.973970 0.377863
O O4 0.407259 0.018959 0.411245
O O5 0.792872 0.055050 0.911902
O O6 0.729831 0.250000 0.000000
O O7 0.773034 0.013001 0.085231
O O8 0.694930 0.976290 0.965611
O O9 0.832887 0.065772 0.750000
O O10 0.848904 0.296426 0.639734
O O11 0.901818 0.057128 0.608230
O O12 0.583082 0.439958 0.750000
O O13 0.616559 0.492073 0.913836
O O14 0.188846 0.007883 0.750000
O O15 0.122129 0.067726 0.609052
O O16 0.628560 0.750000 0.500000
O O17 0.957014 0.539150 0.250000
O O18 0.946393 0.706019 0.397037
O O19 0.012035 0.473517 0.397926
O O20 0.939647 0.874884 0.250000
#
# Coordination Sequence:
#
# PCOD8234263 Si02
#       8
#     8   8   8   8   8   8   8   8
#     4  10  21  39  64  92 122 155 192 235 283 336
#     4  10  22  39  56  77 106 142 189 234 273 326
#     4   9  18  34  55  76 101 135 174 221 276 328
#     4  10  21  39  64  92 122 155 192 235 283 336
#     4   9  18  34  55  76 101 135 174 221 276 328
#     4  12  25  39  58  85 120 158 195 238 284 334
#     4   9  16  27  47  75 104 133 168 212 264 325
#     4   9  16  27  47  75 104 133 168 212 264 325
#
# _framework density 20.344073999999999
#
# number of rings (size 3 to 8) (size 9 to 14) (size 15 to 20)
#    0.000    2.250    0.000    3.000    0.000    6.500 
#    0.000    3.125    0.000    0.000    0.000    0.000 
#    0.000    0.000    0.000    0.000    0.000    0.000 
#
# Total GULP energy -793775.462780 kJ/mol
# GULP energy per Si atom -12402.741606 kJ/mol
# Density = 2.029777 g / cm^3
# Si number density = 20.344074 Si / 1000 Ang^3
#
#
#
# Elastic Constant Matrix: (Units=GPa)
#
#
# Indices 1 2 3 4 5 6 
#
# 1 65.3123 13.8090 5.3679 0.0000 0.0000 0.0000
# 2 13.8090 86.5336 3.2725 0.0000 0.0000 0.0000
# 3 5.3679 3.2725 43.7264 0.0000 0.0000 0.0000
# 4 0.0000 0.0000 0.0000 19.1720 0.0000 0.0000
# 5 0.0000 0.0000 0.0000 0.0000 14.1774 0.0000
# 6 0.0000 0.0000 0.0000 0.0000 0.0000 35.6971
#
#
#
# Elastic Compliance Matrix: (Units=1/GPa)
#
#
# Indices 1 2 3 4 5 6 
#
# 1 0.015982 -0.002483 -0.001776 0.000000 0.000000 0.000000
# 2 -0.002483 0.011975 -0.000591 0.000000 0.000000 0.000000
# 3 -0.001776 -0.000591 0.023132 0.000000 0.000000 0.000000
# 4 0.000000 0.000000 0.000000 0.052159 0.000000 0.000000
# 5 0.000000 0.000000 0.000000 0.000000 0.070535 0.000000
# 6 0.000000 0.000000 0.000000 0.000000 0.000000 0.028014
#
#
# Mechanical properties :
#
#
# Convention : Reuss Voigt Hill
#
# Bulk Modulus (GPa) = 24.16206 26.71903 25.44054
# Shear Modulus (GPa) = 22.19326 25.35082 23.77204
#
# Velocity S-wave (km/s) = 3.30645 3.53385 3.42204
# Velocity P-wave (km/s) = 5.14581 5.46012 5.30529
#
# Compressibility (1/GPa) = 0.04138720
#
# Stress axis : x y z
#
# Youngs Moduli (GPa) = 62.57015 83.50840 43.23061
#
# Poissons Ratio (x) = 0.20737 0.07678
# Poissons Ratio (y) = 0.15538 0.02557
# Poissons Ratio (z) = 0.11113 0.04938
#
# Static dielectric constant tensor:
#      x y z
#    x 3.603070 0.000000 0.000000 
#    y 0.000000 3.753640 0.000000 
#    z 0.000000 0.000000 3.717890 
# 
# 
# High freq. dielectric constant tensor:
#      x y z
#    x 1.790550 0.000000 0.000000 
#    y 0.000000 1.797140 0.000000 
#    z 0.000000 0.000000 1.792560 
# 
# From -- ./inp_files/19494.got.cif
#   From: 2010.03.12/outbox.cif.g09.slc.cpg/sg57_10_cif.got.tgz:19494.got - 2010.04.16 15:48:40.
