data_PCOD8234110
_publ_section_title
;
Structure prediction by ZEFSAII (Michael W. Deem and Ramdas Pophale) SiO2 
 PCOD8234110
Probable space group: P B C M
;
_chemical_formula_sum "Si O2"
_cell_formula_units_Z 40
_cell_length_a 12.174529
_cell_length_b 9.820135
_cell_length_c 16.773277
_cell_angle_alpha 90.000000
_cell_angle_beta 90.000000
_cell_angle_gamma 90.000000
_cell_volume 2005.337826
_symmetry_space_group_name_H-M "P B C M"
_symmetry_group_IT_number 57
_symmetry_cell_setting 'orthorhombic'
loop_
_space_group_symop_operation_xyz
x,y,z
-x,-y,1/2+z
x,1/2-y,-z
-x,1/2+y,1/2-z
-x,-y,-z
x,y,1/2-z
-x,1/2+y,z
x,1/2-y,1/2+z
loop_
_atom_site_type_symbol
_atom_site_label
_atom_site_fract_x
_atom_site_fract_y
_atom_site_fract_z
Si Si1 0.883861 0.098736 0.585494
Si Si2 0.714264 0.015843 0.339662
Si Si3 0.338281 0.826518 0.157685
Si Si4 0.067332 0.603587 0.400399
Si Si5 0.543446 0.618874 0.945526
O O1 0.756887 0.089454 0.611618
O O2 0.937530 0.236599 0.623156
O O3 0.891101 0.096991 0.490807
O O4 0.949714 0.966054 0.616393
O O5 0.684133 0.970207 0.250000
O O6 0.672563 0.167113 0.358274
O O7 0.845749 0.017636 0.348702
O O8 0.659137 0.914451 0.403209
O O9 0.330352 0.865560 0.250000
O O10 0.456459 0.865919 0.125211
O O11 0.560792 0.750000 0.000000
O O12 0.500000 0.500000 0.000000
#
# Coordination Sequence:
#
# PCOD8234110 Si02
#       5
#     8   8   8   8   8
#     4   9  18  34  58  83 115 152 194 235 281 340
#     4  10  21  39  60  86 120 154 191 243 299 348
#     4  10  21  38  61  86 118 156 195 239 296 355
#     4   9  18  35  57  84 115 152 193 236 282 340
#     4  12  23  40  63  86 113 152 198 243 290 353
#
# _framework density 19.946764000000002
#
# number of rings (size 3 to 8) (size 9 to 14) (size 15 to 20)
#    0.000    2.000    2.000    1.800    2.800    0.800 
#   10.800    0.000    0.000    0.000    0.000    0.000 
#    0.000    0.000    0.000    0.000    0.000    0.000 
#
# Total GULP energy -495969.306619 kJ/mol
# GULP energy per Si atom -12399.232665 kJ/mol
# Density = 1.990136 g / cm^3
# Si number density = 19.946764 Si / 1000 Ang^3
#
#
#
# Elastic Constant Matrix: (Units=GPa)
#
#
# Indices 1 2 3 4 5 6 
#
# 1 68.9351 25.4183 30.5277 0.0000 0.0000 0.0000
# 2 25.4183 72.8094 33.0215 0.0000 0.0000 0.0000
# 3 30.5277 33.0215 75.6346 0.0000 0.0000 0.0000
# 4 0.0000 0.0000 0.0000 25.2436 0.0000 0.0000
# 5 0.0000 0.0000 0.0000 0.0000 30.5063 0.0000
# 6 0.0000 0.0000 0.0000 0.0000 0.0000 35.3793
#
#
#
# Elastic Compliance Matrix: (Units=1/GPa)
#
#
# Indices 1 2 3 4 5 6 
#
# 1 0.018481 -0.003826 -0.005789 0.000000 0.000000 0.000000
# 2 -0.003826 0.017918 -0.006278 0.000000 0.000000 0.000000
# 3 -0.005789 -0.006278 0.018299 0.000000 0.000000 0.000000
# 4 0.000000 0.000000 0.000000 0.039614 0.000000 0.000000
# 5 0.000000 0.000000 0.000000 0.000000 0.032780 0.000000
# 6 0.000000 0.000000 0.000000 0.000000 0.000000 0.028265
#
#
# Mechanical properties :
#
#
# Convention : Reuss Voigt Hill
#
# Bulk Modulus (GPa) = 43.64775 43.92379 43.78577
# Shear Modulus (GPa) = 25.66992 26.78661 26.22826
#
# Velocity S-wave (km/s) = 3.59126 3.66854 3.63011
# Velocity P-wave (km/s) = 6.25506 6.32555 6.29041
#
# Compressibility (1/GPa) = 0.02291069
#
# Stress axis : x y z
#
# Youngs Moduli (GPa) = 54.11021 55.81056 54.64794
#
# Poissons Ratio (x) = 0.21355 0.31634
# Poissons Ratio (y) = 0.20705 0.34310
# Poissons Ratio (z) = 0.31323 0.35040
#
# Static dielectric constant tensor:
#      x y z
#    x 4.272950 0.000000 0.000000 
#    y 0.000000 3.766990 0.000000 
#    z 0.000000 0.000000 3.595280 
# 
# 
# High freq. dielectric constant tensor:
#      x y z
#    x 1.775900 0.000000 0.000000 
#    y 0.000000 1.764520 0.000000 
#    z 0.000000 0.000000 1.779170 
# 
# From -- ./inp_files/21605.got.cif
#   From: 2010.03.12/outbox.cif.g09.slc.cpg/sg57_11_cif.got.tgz:21605.got - 2010.04.16 15:48:40.
