data_PCOD8234126
_publ_section_title
;
Structure prediction by ZEFSAII (Michael W. Deem and Ramdas Pophale) SiO2 
 PCOD8234126
Probable space group: P B C M
;
_chemical_formula_sum "Si O2"
_cell_formula_units_Z 40
_cell_length_a 20.609039
_cell_length_b 5.237767
_cell_length_c 18.750092
_cell_angle_alpha 90.000000
_cell_angle_beta 90.000000
_cell_angle_gamma 90.000000
_cell_volume 2023.985138
_symmetry_space_group_name_H-M "P B C M"
_symmetry_group_IT_number 57
_symmetry_cell_setting 'orthorhombic'
loop_
_space_group_symop_operation_xyz
x,y,z
-x,-y,1/2+z
x,1/2-y,-z
-x,1/2+y,1/2-z
-x,-y,-z
x,y,1/2-z
-x,1/2+y,z
x,1/2-y,1/2+z
loop_
_atom_site_type_symbol
_atom_site_label
_atom_site_fract_x
_atom_site_fract_y
_atom_site_fract_z
Si Si1 0.757497 0.250000 0.500000
Si Si2 0.708184 0.685176 0.332597
Si Si3 0.656724 0.342079 0.602677
Si Si4 0.543365 0.250000 0.500000
Si Si5 0.041231 0.115089 0.168033
Si Si6 0.170786 0.363919 0.921051
O O1 0.706561 0.439112 0.540000
O O2 0.803084 0.352953 0.436696
O O3 0.723042 0.651739 0.250000
O O4 0.681059 0.418377 0.361264
O O5 0.776151 0.768857 0.370150
O O6 0.655985 0.915690 0.343705
O O7 0.586280 0.278636 0.571340
O O8 0.500000 0.500000 0.500000
O O9 0.064514 0.123181 0.250000
O O10 0.994419 0.350834 0.150904
O O11 0.102058 0.134598 0.116607
O O12 0.165359 0.250000 0.000000
#
# Coordination Sequence:
#
# PCOD8234126 Si02
#       6
#     4   8   8   4   8   8
#     4   9  20  36  56  90 120 149 182 256 312 347
#     4  11  22  38  62  91 122 161 197 244 309 366
#     4  10  21  38  61  88 128 155 198 248 295 348
#     4  11  22  38  66  96 124 163 210 246 288 347
#     4  10  24  43  59  79 114 159 202 243 295 365
#     4  11  22  37  61  88 119 151 196 256 303 362
#
# _framework density 19.762991
#
# number of rings (size 3 to 8) (size 9 to 14) (size 15 to 20)
#    0.000    1.600    2.000    2.400    2.800    0.800 
#    0.000    4.000    0.000   12.000    0.000    0.000 
#    0.000    0.000    0.000    0.000    0.000    0.000 
#
# Total GULP energy -495549.270068 kJ/mol
# GULP energy per Si atom -12388.731752 kJ/mol
# Density = 1.971801 g / cm^3
# Si number density = 19.762991 Si / 1000 Ang^3
#
#
#
# Elastic Constant Matrix: (Units=GPa)
#
#
# Indices 1 2 3 4 5 6 
#
# 1 103.9722 22.3623 74.1620 0.0000 0.0000 0.0000
# 2 22.3623 86.2835 30.9504 0.0000 0.0000 0.0000
# 3 74.1620 30.9504 126.5517 0.0000 0.0000 0.0000
# 4 0.0000 0.0000 0.0000 21.1506 0.0000 0.0000
# 5 0.0000 0.0000 0.0000 0.0000 7.4225 0.0000
# 6 0.0000 0.0000 0.0000 0.0000 0.0000 23.3316
#
#
#
# Elastic Compliance Matrix: (Units=1/GPa)
#
#
# Indices 1 2 3 4 5 6 
#
# 1 0.016588 -0.000890 -0.009503 0.000000 0.000000 0.000000
# 2 -0.000890 0.012752 -0.002597 0.000000 0.000000 0.000000
# 3 -0.009503 -0.002597 0.014106 0.000000 0.000000 0.000000
# 4 0.000000 0.000000 0.000000 0.047280 0.000000 0.000000
# 5 0.000000 0.000000 0.000000 0.000000 0.134726 0.000000
# 6 0.000000 0.000000 0.000000 0.000000 0.000000 0.042860
#
#
# Mechanical properties :
#
#
# Convention : Reuss Voigt Hill
#
# Bulk Modulus (GPa) = 57.25685 63.52852 60.39268
# Shear Modulus (GPa) = 16.66029 23.00312 19.83170
#
# Velocity S-wave (km/s) = 2.90660 3.41537 3.17121
# Velocity P-wave (km/s) = 6.34816 6.91144 6.63578
#
# Compressibility (1/GPa) = 0.01746516
#
# Stress axis : x y z
#
# Youngs Moduli (GPa) = 60.28499 78.41910 70.89151
#
# Poissons Ratio (x) = 0.06982 0.67369
# Poissons Ratio (y) = 0.05367 0.18410
# Poissons Ratio (z) = 0.57289 0.20365
#
# Static dielectric constant tensor:
#      x y z
#    x 3.517370 0.000000 0.000000 
#    y 0.000000 3.708700 0.000000 
#    z 0.000000 0.000000 4.446490 
# 
# 
# High freq. dielectric constant tensor:
#      x y z
#    x 1.761600 0.000000 0.000000 
#    y 0.000000 1.778050 0.000000 
#    z 0.000000 0.000000 1.773290 
# 
# From -- ./inp_files/22804.got.cif
#   From: 2010.03.12/outbox.cif.g09.slc.cpg/sg57_12_cif.got.tgz:22804.got - 2010.04.16 15:48:40.
