data_PCOD8234794
_publ_section_title
;
Structure prediction by ZEFSAII (Michael W. Deem and Ramdas Pophale) SiO2 
 PCOD8234794
Probable space group: P B C M
;
_chemical_formula_sum "Si O2"
_cell_formula_units_Z 52
_cell_length_a 6.888056
_cell_length_b 20.319074
_cell_length_c 18.170955
_cell_angle_alpha 90.000000
_cell_angle_beta 90.000000
_cell_angle_gamma 90.000000
_cell_volume 2543.187230
_symmetry_space_group_name_H-M "P B C M"
_symmetry_group_IT_number 57
_symmetry_cell_setting 'orthorhombic'
loop_
_space_group_symop_operation_xyz
x,y,z
-x,-y,1/2+z
x,1/2-y,-z
-x,1/2+y,1/2-z
-x,-y,-z
x,y,1/2-z
-x,1/2+y,z
x,1/2-y,1/2+z
loop_
_atom_site_type_symbol
_atom_site_label
_atom_site_fract_x
_atom_site_fract_y
_atom_site_fract_z
Si Si1 0.280041 0.834582 0.464856
Si Si2 0.038866 0.179639 0.090551
Si Si3 0.037406 0.696738 0.832062
Si Si4 0.575395 0.032041 0.573166
Si Si5 0.365289 0.250000 0.500000
Si Si6 0.208467 0.071732 0.834762
Si Si7 0.890237 0.959984 0.662890
O O1 0.278887 0.912872 0.457240
O O2 0.495948 0.805919 0.467197
O O3 0.142074 0.813530 0.533285
O O4 0.213333 0.807435 0.387115
O O5 0.026677 0.227331 0.161560
O O6 0.047037 0.106067 0.121057
O O7 0.234445 0.205679 0.053184
O O8 0.109122 0.680640 0.750000
O O9 0.873116 0.643990 0.855436
O O10 0.397704 0.062553 0.617248
O O11 0.500000 0.000000 0.500000
O O12 0.687076 0.982197 0.627180
O O13 0.269772 0.068724 0.750000
O O14 0.051389 0.015315 0.852363
O O15 0.860852 0.947972 0.750000
#
# Coordination Sequence:
#
# PCOD8234794 Si02
#       7
#     8   8   8   8   4   8   8
#     4  12  24  41  68  96 130 173 221 272 328 385
#     4  12  24  44  69  95 137 173 220 275 332 400
#     4  11  22  43  68  93 128 175 220 267 328 391
#     4  12  25  39  67 101 132 170 224 270 329 396
#     4  12  22  42  68  96 132 172 218 278 328 388
#     4  10  23  44  69  95 131 177 220 271 326 393
#     4  11  25  44  67  97 137 176 217 275 338 396
#
# _framework density 20.446785999999999
#
# number of rings (size 3 to 8) (size 9 to 14) (size 15 to 20)
#    0.000    0.615    4.615    3.692    2.154    1.846 
#    0.000    1.538    0.000    0.000    0.000    0.000 
#    0.000    0.000    0.000    0.000    0.000    0.000 
#
# Total GULP energy -644473.791935 kJ/mol
# GULP energy per Si atom -12393.726768 kJ/mol
# Density = 2.040025 g / cm^3
# Si number density = 20.446786 Si / 1000 Ang^3
#
#
#
# Elastic Constant Matrix: (Units=GPa)
#
#
# Indices 1 2 3 4 5 6 
#
# 1 82.9431 30.9909 51.5115 0.0000 0.0000 0.0000
# 2 30.9909 131.7010 50.3322 0.0000 0.0000 0.0000
# 3 51.5115 50.3322 108.2707 0.0000 0.0000 0.0000
# 4 0.0000 0.0000 0.0000 39.7087 0.0000 0.0000
# 5 0.0000 0.0000 0.0000 0.0000 16.1512 0.0000
# 6 0.0000 0.0000 0.0000 0.0000 0.0000 34.1645
#
#
#
# Elastic Compliance Matrix: (Units=1/GPa)
#
#
# Indices 1 2 3 4 5 6 
#
# 1 0.017248 -0.001122 -0.007685 0.000000 0.000000 0.000000
# 2 -0.001122 0.009306 -0.003793 0.000000 0.000000 0.000000
# 3 -0.007685 -0.003793 0.014655 0.000000 0.000000 0.000000
# 4 0.000000 0.000000 0.000000 0.025183 0.000000 0.000000
# 5 0.000000 0.000000 0.000000 0.000000 0.061915 0.000000
# 6 0.000000 0.000000 0.000000 0.000000 0.000000 0.029270
#
#
# Mechanical properties :
#
#
# Convention : Reuss Voigt Hill
#
# Bulk Modulus (GPa) = 62.45408 65.39820 63.92614
# Shear Modulus (GPa) = 26.57977 30.67691 28.62834
#
# Velocity S-wave (km/s) = 3.60939 3.87761 3.74590
# Velocity P-wave (km/s) = 6.92685 7.21816 7.07401
#
# Compressibility (1/GPa) = 0.01601176
#
# Stress axis : x y z
#
# Youngs Moduli (GPa) = 57.97745 107.45363 68.23526
#
# Poissons Ratio (x) = 0.12055 0.52435
# Poissons Ratio (y) = 0.06504 0.25878
# Poissons Ratio (z) = 0.44553 0.40752
#
# Static dielectric constant tensor:
#      x y z
#    x 3.557260 0.000000 0.000000 
#    y 0.000000 3.952680 0.000000 
#    z 0.000000 0.000000 3.615430 
# 
# 
# High freq. dielectric constant tensor:
#      x y z
#    x 1.797530 0.000000 0.000000 
#    y 0.000000 1.823880 0.000000 
#    z 0.000000 0.000000 1.805930 
# 
# From -- ./inp_files/23733.got.cif
#   From: 2010.03.12/outbox.cif.g09.slc.cpg/sg57_12_cif.got.tgz:23733.got - 2010.04.16 15:48:40.
