data_PCOD8234483
_publ_section_title
;
Structure prediction by ZEFSAII (Michael W. Deem and Ramdas Pophale) SiO2 
 PCOD8234483
Probable space group: P B C M
;
_chemical_formula_sum "Si O2"
_cell_formula_units_Z 56
_cell_length_a 13.798238
_cell_length_b 9.919892
_cell_length_c 22.516111
_cell_angle_alpha 90.000000
_cell_angle_beta 90.000000
_cell_angle_gamma 90.000000
_cell_volume 3081.938418
_symmetry_space_group_name_H-M "P B C M"
_symmetry_group_IT_number 57
_symmetry_cell_setting 'orthorhombic'
loop_
_space_group_symop_operation_xyz
x,y,z
-x,-y,1/2+z
x,1/2-y,-z
-x,1/2+y,1/2-z
-x,-y,-z
x,y,1/2-z
-x,1/2+y,z
x,1/2-y,1/2+z
loop_
_atom_site_type_symbol
_atom_site_label
_atom_site_fract_x
_atom_site_fract_y
_atom_site_fract_z
Si Si1 0.075151 0.896351 0.426440
Si Si2 0.591069 0.264620 0.626566
Si Si3 0.286010 0.518475 0.914526
Si Si4 0.436307 0.629813 0.250000
Si Si5 0.300539 0.979204 0.554981
Si Si6 0.390069 0.327489 0.250000
Si Si7 0.912663 0.404851 0.932579
Si Si8 0.361437 0.266880 0.376234
O O1 0.174508 0.951812 0.398514
O O2 0.059968 0.741757 0.406493
O O3 0.078536 0.905330 0.496986
O O4 0.985267 0.986215 0.403250
O O5 0.644828 0.123813 0.618133
O O6 0.620917 0.323142 0.691112
O O7 0.620320 0.372283 0.576791
O O8 0.476998 0.241912 0.621369
O O9 0.310765 0.372989 0.889803
O O10 0.301775 0.528305 0.984507
O O11 0.449576 0.468012 0.250000
O O12 0.541419 0.696871 0.250000
O O13 0.326862 0.129561 0.573931
O O14 0.197443 0.940519 0.583874
O O15 0.327354 0.317642 0.310570
#
# Coordination Sequence:
#
# PCOD8234483 Si02
#       8
#     8   8   8   4   8   4   8   8
#     4   9  18  33  51  77 107 144 184 225 272 322
#     4  11  22  38  57  78 112 150 191 230 271 322
#     4  11  23  35  54  85 118 148 182 223 278 344
#     4  10  22  38  60  78 101 144 199 241 273 308
#     4  11  21  37  54  82 119 150 181 222 280 342
#     4  10  22  40  58  78 103 142 199 245 269 306
#     4   9  18  32  53  75 108 145 182 227 270 323
#     4  11  24  36  56  81 113 150 190 230 268 323
#
# _framework density 18.170380999999999
#
# number of rings (size 3 to 8) (size 9 to 14) (size 15 to 20)
#    0.000    1.714    2.857    1.714    8.000    3.429 
#    0.000    0.000    0.000    0.000    0.000    6.000 
#    0.000    0.000    0.000    0.000    0.000    0.000 
#
# Total GULP energy -694403.756077 kJ/mol
# GULP energy per Si atom -12400.067073 kJ/mol
# Density = 1.812902 g / cm^3
# Si number density = 18.170381 Si / 1000 Ang^3
#
#
#
# Elastic Constant Matrix: (Units=GPa)
#
#
# Indices 1 2 3 4 5 6 
#
# 1 94.8543 45.3717 18.6400 0.0000 0.0000 0.0000
# 2 45.3717 141.3837 11.2052 0.0000 0.0000 0.0000
# 3 18.6400 11.2052 53.9725 0.0000 0.0000 0.0000
# 4 0.0000 0.0000 0.0000 25.5731 0.0000 0.0000
# 5 0.0000 0.0000 0.0000 0.0000 1.1600 0.0000
# 6 0.0000 0.0000 0.0000 0.0000 0.0000 32.8068
#
#
#
# Elastic Compliance Matrix: (Units=1/GPa)
#
#
# Indices 1 2 3 4 5 6 
#
# 1 0.013153 -0.003925 -0.003727 0.000000 0.000000 0.000000
# 2 -0.003925 0.008363 -0.000381 0.000000 0.000000 0.000000
# 3 -0.003727 -0.000381 0.019894 0.000000 0.000000 0.000000
# 4 0.000000 0.000000 0.000000 0.039104 0.000000 0.000000
# 5 0.000000 0.000000 0.000000 0.000000 0.862077 0.000000
# 6 0.000000 0.000000 0.000000 0.000000 0.000000 0.030481
#
#
# Mechanical properties :
#
#
# Convention : Reuss Voigt Hill
#
# Bulk Modulus (GPa) = 39.45871 48.96049 44.20960
# Shear Modulus (GPa) = 5.01210 26.24087 15.62648
#
# Velocity S-wave (km/s) = 1.66264 3.80433 2.93575
# Velocity P-wave (km/s) = 5.04469 6.80448 5.98957
#
# Compressibility (1/GPa) = 0.02534295
#
# Stress axis : x y z
#
# Youngs Moduli (GPa) = 76.03048 119.57689 50.26567
#
# Poissons Ratio (x) = 0.46939 0.18736
# Poissons Ratio (y) = 0.29845 0.01913
# Poissons Ratio (z) = 0.28340 0.04550
#
# Static dielectric constant tensor:
#      x y z
#    x 3.500370 0.000000 0.000000 
#    y 0.000000 3.649110 0.000000 
#    z 0.000000 0.000000 3.496290 
# 
# 
# High freq. dielectric constant tensor:
#      x y z
#    x 1.690440 0.000000 0.000000 
#    y 0.000000 1.728550 0.000000 
#    z 0.000000 0.000000 1.675920 
# 
# From -- ./inp_files/25447.got.cif
#   From: 2010.03.12/outbox.cif.g09.slc.cpg/sg57_13_cif.got.tgz:25447.got - 2010.04.16 15:48:40.
