data_PCOD8234293
_publ_section_title
;
Structure prediction by ZEFSAII (Michael W. Deem and Ramdas Pophale) SiO2 
 PCOD8234293
Probable space group: P B C M
;
_chemical_formula_sum "Si O2"
_cell_formula_units_Z 36
_cell_length_a 18.610350
_cell_length_b 5.038071
_cell_length_c 17.790704
_cell_angle_alpha 90.000000
_cell_angle_beta 90.000000
_cell_angle_gamma 90.000000
_cell_volume 1668.061115
_symmetry_space_group_name_H-M "P B C M"
_symmetry_group_IT_number 57
_symmetry_cell_setting 'orthorhombic'
loop_
_space_group_symop_operation_xyz
x,y,z
-x,-y,1/2+z
x,1/2-y,-z
-x,1/2+y,1/2-z
-x,-y,-z
x,y,1/2-z
-x,1/2+y,z
x,1/2-y,1/2+z
loop_
_atom_site_type_symbol
_atom_site_label
_atom_site_fract_x
_atom_site_fract_y
_atom_site_fract_z
Si Si1 0.259129 0.502523 0.049921
Si Si2 0.452845 0.014355 0.250000
Si Si3 0.672636 0.305797 0.331300
Si Si4 0.041298 0.933793 0.160796
Si Si5 0.189780 0.330612 0.835939
O O1 0.328190 0.595213 0.100357
O O2 0.195961 0.424901 0.109088
O O3 0.282306 0.250000 0.000000
O O4 0.231816 0.750000 0.000000
O O5 0.521279 0.817731 0.250000
O O6 0.403705 0.960845 0.175470
O O7 0.687014 0.161824 0.250000
O O8 0.736728 0.510369 0.346976
O O9 0.037360 0.932129 0.250000
O O10 0.122833 0.993907 0.135639
O O11 0.985940 0.154235 0.128476
O O12 0.178050 0.233680 0.750000
#
# Coordination Sequence:
#
# PCOD8234293 Si02
#       5
#     8   4   8   8   8
#     4  12  24  39  61  94 130 166 211 269 310 367
#     4  10  24  40  68 102 134 156 198 262 314 372
#     4   9  22  40  68  97 125 161 216 253 315 362
#     4   9  19  33  53  87 124 159 200 262 328 368
#     4  10  21  39  66  94 127 162 219 271 310 375
#
# _framework density 21.581941
#
# number of rings (size 3 to 8) (size 9 to 14) (size 15 to 20)
#    0.667    1.333    2.222    0.667    6.222    0.000 
#    0.000    0.000    0.000    8.000    0.000    0.000 
#    0.000    0.000    0.000    0.000    0.000    0.000 
#
# Total GULP energy -446004.387131 kJ/mol
# GULP energy per Si atom -12389.010754 kJ/mol
# Density = 2.153282 g / cm^3
# Si number density = 21.581941 Si / 1000 Ang^3
#
#
#
# Elastic Constant Matrix: (Units=GPa)
#
#
# Indices 1 2 3 4 5 6 
#
# 1 91.6664 1.5249 4.5674 0.0000 0.0000 0.0000
# 2 1.5249 73.5387 24.0404 0.0000 0.0000 0.0000
# 3 4.5674 24.0404 97.6826 0.0000 0.0000 0.0000
# 4 0.0000 0.0000 0.0000 28.5516 0.0000 0.0000
# 5 0.0000 0.0000 0.0000 0.0000 0.7298 0.0000
# 6 0.0000 0.0000 0.0000 0.0000 0.0000 37.9694
#
#
#
# Elastic Compliance Matrix: (Units=1/GPa)
#
#
# Indices 1 2 3 4 5 6 
#
# 1 0.010935 -0.000065 -0.000495 0.000000 0.000000 0.000000
# 2 -0.000065 0.014788 -0.003637 0.000000 0.000000 0.000000
# 3 -0.000495 -0.003637 0.011155 0.000000 0.000000 0.000000
# 4 0.000000 0.000000 0.000000 0.035024 0.000000 0.000000
# 5 0.000000 0.000000 0.000000 0.000000 1.370176 0.000000
# 6 0.000000 0.000000 0.000000 0.000000 0.000000 0.026337
#
#
# Mechanical properties :
#
#
# Convention : Reuss Voigt Hill
#
# Bulk Modulus (GPa) = 35.10575 35.90590 35.50582
# Shear Modulus (GPa) = 3.36405 28.96716 16.16560
#
# Velocity S-wave (km/s) = 1.24985 3.66757 2.73982
# Velocity P-wave (km/s) = 4.28770 5.88285 5.14744
#
# Compressibility (1/GPa) = 0.02848537
#
# Stress axis : x y z
#
# Youngs Moduli (GPa) = 91.45047 67.62039 89.64293
#
# Poissons Ratio (x) = 0.00438 0.04440
# Poissons Ratio (y) = 0.00593 0.32599
# Poissons Ratio (z) = 0.04530 0.24590
#
# Static dielectric constant tensor:
#      x y z
#    x 3.714640 0.000000 0.000000 
#    y 0.000000 4.017020 0.000000 
#    z 0.000000 0.000000 3.960680 
# 
# 
# High freq. dielectric constant tensor:
#      x y z
#    x 1.820870 0.000000 0.000000 
#    y 0.000000 1.853440 0.000000 
#    z 0.000000 0.000000 1.821110 
# 
# From -- ./inp_files/22964.got.cif
#   From: 2010.03.12/outbox.cif.g09.slc.cpg/sg57_12_cif.got.tgz:22964.got - 2010.04.16 15:48:40.
