data_PCOD8234343
_publ_section_title
;
Structure prediction by ZEFSAII (Michael W. Deem and Ramdas Pophale) SiO2 
 PCOD8234343
Probable space group: P B C M
;
_chemical_formula_sum "Si O2"
_cell_formula_units_Z 48
_cell_length_a 9.797192
_cell_length_b 16.818802
_cell_length_c 14.113510
_cell_angle_alpha 90.000000
_cell_angle_beta 90.000000
_cell_angle_gamma 90.000000
_cell_volume 2325.582295
_symmetry_space_group_name_H-M "P B C M"
_symmetry_group_IT_number 57
_symmetry_cell_setting 'orthorhombic'
loop_
_space_group_symop_operation_xyz
x,y,z
-x,-y,1/2+z
x,1/2-y,-z
-x,1/2+y,1/2-z
-x,-y,-z
x,y,1/2-z
-x,1/2+y,z
x,1/2-y,1/2+z
loop_
_atom_site_type_symbol
_atom_site_label
_atom_site_fract_x
_atom_site_fract_y
_atom_site_fract_z
Si Si1 0.934839 0.833037 0.049667
Si Si2 0.375376 0.668368 0.250000
Si Si3 0.760245 0.106616 0.949844
Si Si4 0.057999 0.133443 0.750000
Si Si5 0.727869 0.508414 0.750000
Si Si6 0.687390 0.558634 0.538777
Si Si7 0.475498 0.671564 0.452012
Si Si8 0.745289 0.339301 0.250000
O O1 0.892331 0.817735 0.158750
O O2 0.811512 0.883857 0.007946
O O3 0.077567 0.880392 0.044589
O O4 0.951505 0.750000 0.000000
O O5 0.283864 0.587520 0.250000
O O6 0.480086 0.672982 0.338219
O O7 0.272573 0.743591 0.250000
O O8 0.688150 0.123507 0.847323
O O9 0.685300 0.166954 0.021731
O O10 0.725312 0.019185 0.982011
O O11 0.116152 0.041811 0.750000
O O12 0.897886 0.129600 0.750000
O O13 0.663071 0.542963 0.651849
O O14 0.549728 0.594266 0.494540
O O15 0.541890 0.750000 0.500000
#
# Coordination Sequence:
#
# PCOD8234343 Si02
#       8
#     8   4   8   4   4   8   8   4
#     4  10  21  40  64  92 128 170 210 262 318 381
#     4  12  24  40  68  96 124 168 220 265 317 384
#     4  11  22  40  64  94 125 166 215 258 315 376
#     4   8  20  38  60  92 126 162 209 256 320 371
#     4  10  22  40  65  90 127 168 213 259 322 386
#     4  11  24  42  63  94 131 168 209 268 325 379
#     4  12  25  43  64  95 126 165 217 264 317 381
#     4  10  22  40  63  94 131 166 206 268 315 375
#
# _framework density 20.639991999999999
#
# number of rings (size 3 to 8) (size 9 to 14) (size 15 to 20)
#    0.000    1.333    3.333    2.000    2.333    2.000 
#    0.000    3.333    0.000    0.000    0.000    0.000 
#    0.000    0.000    0.000    0.000    0.000    0.000 
#
# Total GULP energy -594742.451219 kJ/mol
# GULP energy per Si atom -12390.467734 kJ/mol
# Density = 2.059301 g / cm^3
# Si number density = 20.639992 Si / 1000 Ang^3
#
#
#
# Elastic Constant Matrix: (Units=GPa)
#
#
# Indices 1 2 3 4 5 6 
#
# 1 72.8539 35.6924 41.2704 0.0000 0.0000 0.0000
# 2 35.6924 135.3709 71.0520 0.0000 0.0000 0.0000
# 3 41.2704 71.0520 159.1201 0.0000 0.0000 0.0000
# 4 0.0000 0.0000 0.0000 34.6233 0.0000 0.0000
# 5 0.0000 0.0000 0.0000 0.0000 21.8431 0.0000
# 6 0.0000 0.0000 0.0000 0.0000 0.0000 29.0245
#
#
#
# Elastic Compliance Matrix: (Units=1/GPa)
#
#
# Indices 1 2 3 4 5 6 
#
# 1 0.016871 -0.002810 -0.003121 0.000000 0.000000 0.000000
# 2 -0.002810 0.010116 -0.003788 0.000000 0.000000 0.000000
# 3 -0.003121 -0.003788 0.008786 0.000000 0.000000 0.000000
# 4 0.000000 0.000000 0.000000 0.028882 0.000000 0.000000
# 5 0.000000 0.000000 0.000000 0.000000 0.045781 0.000000
# 6 0.000000 0.000000 0.000000 0.000000 0.000000 0.034454
#
#
# Mechanical properties :
#
#
# Convention : Reuss Voigt Hill
#
# Bulk Modulus (GPa) = 61.22225 73.70828 67.46526
# Shear Modulus (GPa) = 29.45099 31.72020 30.58560
#
# Velocity S-wave (km/s) = 3.78152 3.92450 3.85367
# Velocity P-wave (km/s) = 6.98519 7.50496 7.24974
#
# Compressibility (1/GPa) = 0.01633393
#
# Stress axis : x y z
#
# Youngs Moduli (GPa) = 59.27409 98.84847 113.82158
#
# Poissons Ratio (x) = 0.27778 0.35522
# Poissons Ratio (y) = 0.16657 0.43121
# Poissons Ratio (z) = 0.18499 0.37448
#
# Static dielectric constant tensor:
#      x y z
#    x 3.746130 0.000000 0.000000 
#    y 0.000000 3.730480 0.000000 
#    z 0.000000 0.000000 4.510720 
# 
# 
# High freq. dielectric constant tensor:
#      x y z
#    x 1.795430 0.000000 0.000000 
#    y 0.000000 1.807560 0.000000 
#    z 0.000000 0.000000 1.826250 
# 
# From -- ./inp_files/16448.got.cif
#   From: 2010.03.12/outbox.cif.g09.slc.cpg/sg57_9_cif.got.tgz:16448.got - 2010.04.16 15:48:40.
