data_PCOD8234833
_publ_section_title
;
Structure prediction by ZEFSAII (Michael W. Deem and Ramdas Pophale) SiO2 
 PCOD8234833
Probable space group: P B C M
;
_chemical_formula_sum "Si O2"
_cell_formula_units_Z 44
_cell_length_a 15.745985
_cell_length_b 5.065638
_cell_length_c 26.804713
_cell_angle_alpha 90.000000
_cell_angle_beta 90.000000
_cell_angle_gamma 90.000000
_cell_volume 2138.036652
_symmetry_space_group_name_H-M "P B C M"
_symmetry_group_IT_number 57
_symmetry_cell_setting 'orthorhombic'
loop_
_space_group_symop_operation_xyz
x,y,z
-x,-y,1/2+z
x,1/2-y,-z
-x,1/2+y,1/2-z
-x,-y,-z
x,y,1/2-z
-x,1/2+y,z
x,1/2-y,1/2+z
loop_
_atom_site_type_symbol
_atom_site_label
_atom_site_fract_x
_atom_site_fract_y
_atom_site_fract_z
Si Si1 0.767602 0.580602 0.750000
Si Si2 0.181508 0.060428 0.642413
Si Si3 0.445184 0.597260 0.853915
Si Si4 0.728914 0.429238 0.401033
Si Si5 0.352383 0.579170 0.750000
Si Si6 0.055409 0.458644 0.438987
Si Si7 0.808920 0.250000 0.000000
O O1 0.828789 0.591555 0.798218
O O2 0.708770 0.327048 0.750000
O O3 0.705327 0.824358 0.750000
O O4 0.220525 0.318046 0.617450
O O5 0.088776 0.011549 0.617898
O O6 0.243723 0.816723 0.632815
O O7 0.520490 0.390549 0.863202
O O8 0.371387 0.534238 0.893792
O O9 0.412240 0.571863 0.797794
O O10 0.748928 0.385313 0.459101
O O11 0.133511 0.521053 0.475560
O O12 0.978346 0.662853 0.448919
#
# Coordination Sequence:
#
# PCOD8234833 Si02
#       7
#     4   8   8   8   4   8   4
#     4  12  20  39  64  91 120 168 212 246 292 377
#     4  11  22  40  63  89 127 165 204 251 302 380
#     4  12  23  39  59  92 130 158 201 266 315 361
#     4  11  23  42  61  91 121 166 213 252 311 371
#     4  12  22  37  64  91 124 158 216 254 306 367
#     4  11  23  40  64  97 125 152 198 261 319 357
#     4  10  24  42  70  90 122 166 214 264 308 378
#
# _framework density 20.579626999999999
#
# number of rings (size 3 to 8) (size 9 to 14) (size 15 to 20)
#    0.000    0.727    3.636    5.455    0.000    5.818 
#    0.000    1.818    0.000    0.000    0.000    0.000 
#    0.000    0.000    0.000    0.000    0.000    0.000 
#
# Total GULP energy -545812.966008 kJ/mol
# GULP energy per Si atom -12404.840137 kJ/mol
# Density = 2.053279 g / cm^3
# Si number density = 20.579627 Si / 1000 Ang^3
#
#
#
# Elastic Constant Matrix: (Units=GPa)
#
#
# Indices 1 2 3 4 5 6 
#
# 1 81.0758 14.1527 55.6778 0.0000 0.0000 0.0000
# 2 14.1527 119.9962 27.4512 0.0000 0.0000 0.0000
# 3 55.6778 27.4512 175.9763 0.0000 0.0000 0.0000
# 4 0.0000 0.0000 0.0000 -98.2533 0.0000 0.0000
# 5 0.0000 0.0000 0.0000 0.0000 51.8545 0.0000
# 6 0.0000 0.0000 0.0000 0.0000 0.0000 27.0584
#
#
#
# Elastic Compliance Matrix: (Units=1/GPa)
#
#
# Indices 1 2 3 4 5 6 
#
# 1 0.015822 -0.000748 -0.004890 0.000000 0.000000 0.000000
# 2 -0.000748 0.008677 -0.001117 0.000000 0.000000 0.000000
# 3 -0.004890 -0.001117 0.007404 0.000000 0.000000 0.000000
# 4 0.000000 0.000000 0.000000 -0.010178 0.000000 0.000000
# 5 0.000000 0.000000 0.000000 0.000000 0.019285 0.000000
# 6 0.000000 0.000000 0.000000 0.000000 0.000000 0.036957
#
#
# Mechanical properties :
#
#
# Convention : Reuss Voigt Hill
#
# Bulk Modulus (GPa) = 54.36175 63.51240 58.93707
# Shear Modulus (GPa) = 51.22546 14.78303 33.00424
#
# Velocity S-wave (km/s) = 4.99454 2.68308 4.00901
# Velocity P-wave (km/s) = 7.72872 6.36611 7.08027
#
# Compressibility (1/GPa) = 0.01839529
#
# Stress axis : x y z
#
# Youngs Moduli (GPa) = 63.20133 115.24294 135.06480
#
# Poissons Ratio (x) = 0.08615 0.66040
# Poissons Ratio (y) = 0.04725 0.15088
# Poissons Ratio (z) = 0.30902 0.12874
#
# Static dielectric constant tensor:
#      x y z
#    x 3.666220 0.000000 0.000000 
#    y 0.000000 3.825260 0.000000 
#    z 0.000000 0.000000 4.120110 
# 
# 
# High freq. dielectric constant tensor:
#      x y z
#    x 1.790330 0.000000 0.000000 
#    y 0.000000 1.827590 0.000000 
#    z 0.000000 0.000000 1.808250 
# 
# From -- ./inp_files/28731.got.cif
#   From: 2010.03.12/outbox.cif.g09.slc.cpg/sg57_15_cif.got.tgz:28731.got - 2010.04.16 15:48:40.
