data_PCOD8234790
_publ_section_title
;
Structure prediction by ZEFSAII (Michael W. Deem and Ramdas Pophale) SiO2 
 PCOD8234790
Probable space group: P B C M
;
_chemical_formula_sum "Si O2"
_cell_formula_units_Z 48
_cell_length_a 14.432860
_cell_length_b 9.450891
_cell_length_c 16.782185
_cell_angle_alpha 90.000000
_cell_angle_beta 90.000000
_cell_angle_gamma 90.000000
_cell_volume 2289.146870
_symmetry_space_group_name_H-M "P B C M"
_symmetry_group_IT_number 57
_symmetry_cell_setting 'orthorhombic'
loop_
_space_group_symop_operation_xyz
x,y,z
-x,-y,1/2+z
x,1/2-y,-z
-x,1/2+y,1/2-z
-x,-y,-z
x,y,1/2-z
-x,1/2+y,z
x,1/2-y,1/2+z
loop_
_atom_site_type_symbol
_atom_site_label
_atom_site_fract_x
_atom_site_fract_y
_atom_site_fract_z
Si Si1 0.711584 0.614438 0.550421
Si Si2 0.062377 0.014139 0.157837
Si Si3 0.111138 0.169103 0.657718
Si Si4 0.777918 0.367886 0.060112
Si Si5 0.602525 0.292442 0.342258
Si Si6 0.528815 0.010624 0.408575
O O1 0.682732 0.750000 0.500000
O O2 0.799137 0.646045 0.605120
O O3 0.728478 0.490773 0.488051
O O4 0.625840 0.570757 0.606327
O O5 0.084913 0.987500 0.250000
O O6 0.136785 0.927536 0.108849
O O7 0.960762 0.955320 0.136518
O O8 0.065117 0.179885 0.136290
O O9 0.140281 0.164240 0.750000
O O10 0.703966 0.296200 0.118967
O O11 0.816810 0.250000 0.000000
O O12 0.615736 0.257487 0.250000
O O13 0.539732 0.173531 0.384212
O O14 0.550153 0.441519 0.353470
O O15 0.500000 0.000000 0.500000
#
# Coordination Sequence:
#
# PCOD8234790 Si02
#       6
#     8   8   8   8   8   8
#     4  12  24  43  68  97 130 172 222 268 330 394
#     4  10  23  44  67  93 134 177 218 274 335 397
#     4  10  24  43  65  97 132 173 221 272 333 395
#     4  12  24  44  65  96 130 175 222 271 332 394
#     4  12  26  44  67 100 132 173 225 273 331 398
#     4  12  24  46  69  96 134 175 219 275 335 400
#
# _framework density 20.968510999999999
#
# number of rings (size 3 to 8) (size 9 to 14) (size 15 to 20)
#    0.000    0.667    5.000    2.500    2.333    2.667 
#    0.000    0.000    0.000    0.000    0.000    0.000 
#    0.000    0.000    0.000    0.000    0.000    0.000 
#
# Total GULP energy -595518.606040 kJ/mol
# GULP energy per Si atom -12406.637626 kJ/mol
# Density = 2.092079 g / cm^3
# Si number density = 20.968511 Si / 1000 Ang^3
#
#
#
# Elastic Constant Matrix: (Units=GPa)
#
#
# Indices 1 2 3 4 5 6 
#
# 1 77.6499 7.2968 26.6212 0.0000 0.0000 0.0000
# 2 7.2968 87.6913 28.3743 0.0000 0.0000 0.0000
# 3 26.6212 28.3743 85.9369 0.0000 0.0000 0.0000
# 4 0.0000 0.0000 0.0000 28.6578 0.0000 0.0000
# 5 0.0000 0.0000 0.0000 0.0000 43.1748 0.0000
# 6 0.0000 0.0000 0.0000 0.0000 0.0000 44.5329
#
#
#
# Elastic Compliance Matrix: (Units=1/GPa)
#
#
# Indices 1 2 3 4 5 6 
#
# 1 0.014414 0.000275 -0.004556 0.000000 0.000000 0.000000
# 2 0.000275 0.012773 -0.004302 0.000000 0.000000 0.000000
# 3 -0.004556 -0.004302 0.014468 0.000000 0.000000 0.000000
# 4 0.000000 0.000000 0.000000 0.034895 0.000000 0.000000
# 5 0.000000 0.000000 0.000000 0.000000 0.023162 0.000000
# 6 0.000000 0.000000 0.000000 0.000000 0.000000 0.022455
#
#
# Mechanical properties :
#
#
# Convention : Reuss Voigt Hill
#
# Bulk Modulus (GPa) = 40.83564 41.76252 41.29908
# Shear Modulus (GPa) = 33.89892 35.87214 34.88553
#
# Velocity S-wave (km/s) = 4.02513 4.14062 4.08329
# Velocity P-wave (km/s) = 6.41243 6.54368 6.47839
#
# Compressibility (1/GPa) = 0.02448842
#
# Stress axis : x y z
#
# Youngs Moduli (GPa) = 69.37480 78.29068 69.11644
#
# Poissons Ratio (x) = -0.02151 0.31489
# Poissons Ratio (y) = -0.01906 0.29737
# Poissons Ratio (z) = 0.31607 0.33684
#
# Static dielectric constant tensor:
#      x y z
#    x 3.864670 0.000000 0.000000 
#    y 0.000000 4.058460 0.000000 
#    z 0.000000 0.000000 3.766200 
# 
# 
# High freq. dielectric constant tensor:
#      x y z
#    x 1.827770 0.000000 0.000000 
#    y 0.000000 1.838400 0.000000 
#    z 0.000000 0.000000 1.820610 
# 
# From -- ./inp_files/22411.got.cif
#   From: 2010.03.12/outbox.cif.g09.slc.cpg/sg57_12_cif.got.tgz:22411.got - 2010.04.16 15:48:40.
