data_PCOD8234523
_publ_section_title
;
Structure prediction by ZEFSAII (Michael W. Deem and Ramdas Pophale) SiO2 
 PCOD8234523
Probable space group: P B C M
;
_chemical_formula_sum "Si O2"
_cell_formula_units_Z 48
_cell_length_a 13.486131
_cell_length_b 19.204372
_cell_length_c 8.723661
_cell_angle_alpha 90.000000
_cell_angle_beta 90.000000
_cell_angle_gamma 90.000000
_cell_volume 2259.364312
_symmetry_space_group_name_H-M "P B C M"
_symmetry_group_IT_number 57
_symmetry_cell_setting 'orthorhombic'
loop_
_space_group_symop_operation_xyz
x,y,z
-x,-y,1/2+z
x,1/2-y,-z
-x,1/2+y,1/2-z
-x,-y,-z
x,y,1/2-z
-x,1/2+y,z
x,1/2-y,1/2+z
loop_
_atom_site_type_symbol
_atom_site_label
_atom_site_fract_x
_atom_site_fract_y
_atom_site_fract_z
Si Si1 0.590186 0.958889 0.571936
Si Si2 0.925377 0.828130 0.433104
Si Si3 0.503850 0.180759 0.071572
Si Si4 0.724213 0.320452 0.571213
Si Si5 0.810832 0.550976 0.432858
Si Si6 0.101520 0.580666 0.431224
O O1 0.582572 0.973588 0.750000
O O2 0.573242 0.878716 0.529486
O O3 0.701377 0.975532 0.513259
O O4 0.500000 0.000000 0.500000
O O5 0.921814 0.750000 0.500000
O O6 0.926253 0.823772 0.250000
O O7 0.831559 0.873290 0.492536
O O8 0.021091 0.869492 0.492877
O O9 0.514560 0.191718 0.250000
O O10 0.614018 0.164304 0.004459
O O11 0.458332 0.250000 0.000000
O O12 0.769061 0.250000 0.500000
O O13 0.721751 0.307766 0.750000
O O14 0.792361 0.385636 0.530175
O O15 0.817135 0.557895 0.250000
O O16 0.893798 0.496246 0.492749
O O17 0.080351 0.573918 0.250000
#
# Coordination Sequence:
#
# PCOD8234523 Si02
#       6
#     8   8   8   8   8   8
#     4  10  22  39  61  88 121 159 204 253 303 360
#     4  12  26  45  67  92 123 161 203 251 303 364
#     4   9  18  34  53  79 113 151 194 242 294 353
#     4   9  18  31  52  81 116 154 195 243 299 357
#     4  11  24  42  63  91 124 161 205 255 307 364
#     4  11  22  39  63  91 122 160 203 252 308 368
#
# _framework density 21.244913
#
# number of rings (size 3 to 8) (size 9 to 14) (size 15 to 20)
#    0.000    1.667    0.000    4.500    0.000    6.667 
#    0.000    5.000    0.000    0.000    0.000    0.000 
#    0.000    0.000    0.000    0.000    0.000    0.000 
#
# Total GULP energy -595050.505702 kJ/mol
# GULP energy per Si atom -12396.885535 kJ/mol
# Density = 2.119656 g / cm^3
# Si number density = 21.244913 Si / 1000 Ang^3
#
#
#
# Elastic Constant Matrix: (Units=GPa)
#
#
# Indices 1 2 3 4 5 6 
#
# 1 108.8192 54.9984 44.9102 0.0000 0.0000 0.0000
# 2 54.9984 122.4432 62.3335 0.0000 0.0000 0.0000
# 3 44.9102 62.3335 94.8231 0.0000 0.0000 0.0000
# 4 0.0000 0.0000 0.0000 41.1052 0.0000 0.0000
# 5 0.0000 0.0000 0.0000 0.0000 27.8732 0.0000
# 6 0.0000 0.0000 0.0000 0.0000 0.0000 9.3080
#
#
#
# Elastic Compliance Matrix: (Units=1/GPa)
#
#
# Indices 1 2 3 4 5 6 
#
# 1 0.012566 -0.003929 -0.003368 0.000000 0.000000 0.000000
# 2 -0.003929 0.013504 -0.007016 0.000000 0.000000 0.000000
# 3 -0.003368 -0.007016 0.016753 0.000000 0.000000 0.000000
# 4 0.000000 0.000000 0.000000 0.024328 0.000000 0.000000
# 5 0.000000 0.000000 0.000000 0.000000 0.035877 0.000000
# 6 0.000000 0.000000 0.000000 0.000000 0.000000 0.107434
#
#
# Mechanical properties :
#
#
# Convention : Reuss Voigt Hill
#
# Bulk Modulus (GPa) = 70.44492 72.28551 71.36521
# Shear Modulus (GPa) = 20.50694 26.58019 23.54357
#
# Velocity S-wave (km/s) = 3.11024 3.54097 3.33257
# Velocity P-wave (km/s) = 6.79180 7.12858 6.96223
#
# Compressibility (1/GPa) = 0.01419549
#
# Stress axis : x y z
#
# Youngs Moduli (GPa) = 79.58212 74.05395 59.69019
#
# Poissons Ratio (x) = 0.29099 0.20105
# Poissons Ratio (y) = 0.31271 0.41877
# Poissons Ratio (z) = 0.26805 0.51955
#
# Static dielectric constant tensor:
#      x y z
#    x 4.030780 0.000000 0.000000 
#    y 0.000000 4.093410 0.000000 
#    z 0.000000 0.000000 3.754410 
# 
# 
# High freq. dielectric constant tensor:
#      x y z
#    x 1.839490 0.000000 0.000000 
#    y 0.000000 1.843680 0.000000 
#    z 0.000000 0.000000 1.827370 
# 
# From -- ./inp_files/4594.got.cif
#   From: 2010.03.12/outbox.cif.g09.slc.cpg/sg57_3_cif.got.tgz:4594.got - 2010.04.16 15:48:40.
