data_PCOD8234373
_publ_section_title
;
Structure prediction by ZEFSAII (Michael W. Deem and Ramdas Pophale) SiO2 
 PCOD8234373
Probable space group: P B C M
;
_chemical_formula_sum "Si O2"
_cell_formula_units_Z 28
_cell_length_a 8.360285
_cell_length_b 15.268137
_cell_length_c 9.778130
_cell_angle_alpha 90.000000
_cell_angle_beta 90.000000
_cell_angle_gamma 90.000000
_cell_volume 1248.138955
_symmetry_space_group_name_H-M "P B C M"
_symmetry_group_IT_number 57
_symmetry_cell_setting 'orthorhombic'
loop_
_space_group_symop_operation_xyz
x,y,z
-x,-y,1/2+z
x,1/2-y,-z
-x,1/2+y,1/2-z
-x,-y,-z
x,y,1/2-z
-x,1/2+y,z
x,1/2-y,1/2+z
loop_
_atom_site_type_symbol
_atom_site_label
_atom_site_fract_x
_atom_site_fract_y
_atom_site_fract_z
Si Si1 0.252292 0.897114 0.024847
Si Si2 0.231696 0.469095 0.750000
Si Si3 0.496844 0.840116 0.250000
Si Si4 0.203169 0.270052 0.750000
Si Si5 0.604318 0.025446 0.250000
Si Si6 0.001904 0.750000 0.500000
O O1 0.384666 0.844086 0.114820
O O2 0.180296 0.976780 0.114965
O O3 0.324187 0.934310 0.886378
O O4 0.111605 0.834187 0.976582
O O5 0.158782 0.372930 0.750000
O O6 0.419209 0.454216 0.750000
O O7 0.605829 0.752220 0.250000
O O8 0.623968 0.920141 0.250000
O O9 0.116217 0.227067 0.622431
#
# Coordination Sequence:
#
# PCOD8234373 Si02
#       6
#     8   4   4   4   4   4
#     4  10  23  46  72  96 137 181 229 269 352 404
#     4  10  23  43  69 102 135 176 230 284 333 400
#     4  10  23  44  71  99 133 170 232 290 324 403
#     4  12  29  43  67 105 142 172 235 283 341 386
#     4  10  21  40  75 104 124 172 235 289 334 393
#     4  12  28  46  64 102 142 186 220 274 346 418
#
# _framework density 22.433399999999999
#
# number of rings (size 3 to 8) (size 9 to 14) (size 15 to 20)
#    0.000    1.714    0.000    6.000   12.000    1.143 
#    5.143    0.000    0.000    0.000    0.000    0.000 
#    0.000    0.000    0.000    0.000    0.000    0.000 
#
# Total GULP energy -347142.392231 kJ/mol
# GULP energy per Si atom -12397.942580 kJ/mol
# Density = 2.238234 g / cm^3
# Si number density = 22.433400 Si / 1000 Ang^3
#
#
#
# Elastic Constant Matrix: (Units=GPa)
#
#
# Indices 1 2 3 4 5 6 
#
# 1 57.7792 17.0021 17.2482 0.0000 0.0000 0.0000
# 2 17.0021 68.7733 0.0119 0.0000 0.0000 0.0000
# 3 17.2482 0.0119 146.3255 0.0000 0.0000 0.0000
# 4 0.0000 0.0000 0.0000 38.9262 0.0000 0.0000
# 5 0.0000 0.0000 0.0000 0.0000 5.2486 0.0000
# 6 0.0000 0.0000 0.0000 0.0000 0.0000 44.0131
#
#
#
# Elastic Compliance Matrix: (Units=1/GPa)
#
#
# Indices 1 2 3 4 5 6 
#
# 1 0.019401 -0.004796 -0.002287 0.000000 0.000000 0.000000
# 2 -0.004796 0.015726 0.000564 0.000000 0.000000 0.000000
# 3 -0.002287 0.000564 0.007104 0.000000 0.000000 0.000000
# 4 0.000000 0.000000 0.000000 0.025690 0.000000 0.000000
# 5 0.000000 0.000000 0.000000 0.000000 0.190525 0.000000
# 6 0.000000 0.000000 0.000000 0.000000 0.000000 0.022720
#
#
# Mechanical properties :
#
#
# Convention : Reuss Voigt Hill
#
# Bulk Modulus (GPa) = 34.25374 37.93361 36.09367
# Shear Modulus (GPa) = 16.45093 33.54531 24.99812
#
# Velocity S-wave (km/s) = 2.71093 3.87114 3.34177
# Velocity P-wave (km/s) = 5.01010 6.07677 5.56903
#
# Compressibility (1/GPa) = 0.02919389
#
# Stress axis : x y z
#
# Youngs Moduli (GPa) = 51.54350 63.58868 140.77457
#
# Poissons Ratio (x) = 0.30497 0.32188
# Poissons Ratio (y) = 0.24720 -0.07940
# Poissons Ratio (z) = 0.11786 -0.03587
#
# Static dielectric constant tensor:
#      x y z
#    x 3.854370 0.000000 0.000000 
#    y 0.000000 4.395360 0.000000 
#    z 0.000000 0.000000 4.207250 
# 
# 
# High freq. dielectric constant tensor:
#      x y z
#    x 1.875070 0.000000 0.000000 
#    y 0.000000 1.887960 0.000000 
#    z 0.000000 0.000000 1.898620 
# 
# From -- ./inp_files/1173.got.cif
#   From: 2010.03.12/outbox.cif.g09.slc.cpg/sg57_1_cif.got.tgz:1173.got - 2010.04.16 15:48:40.
