data_PCOD8234583
_publ_section_title
;
Structure prediction by ZEFSAII (Michael W. Deem and Ramdas Pophale) SiO2 
 PCOD8234583
Probable space group: P B C M
;
_chemical_formula_sum "Si O2"
_cell_formula_units_Z 40
_cell_length_a 23.784128
_cell_length_b 8.675988
_cell_length_c 9.270261
_cell_angle_alpha 90.000000
_cell_angle_beta 90.000000
_cell_angle_gamma 90.000000
_cell_volume 1912.925858
_symmetry_space_group_name_H-M "P B C M"
_symmetry_group_IT_number 57
_symmetry_cell_setting 'orthorhombic'
loop_
_space_group_symop_operation_xyz
x,y,z
-x,-y,1/2+z
x,1/2-y,-z
-x,1/2+y,1/2-z
-x,-y,-z
x,y,1/2-z
-x,1/2+y,z
x,1/2-y,1/2+z
loop_
_atom_site_type_symbol
_atom_site_label
_atom_site_fract_x
_atom_site_fract_y
_atom_site_fract_z
Si Si1 0.377996 0.068048 0.021213
Si Si2 0.839286 0.407327 0.917665
Si Si3 0.575485 0.072017 0.250000
Si Si4 0.952604 0.592841 0.917645
Si Si5 0.267271 0.594228 0.915224
Si Si6 0.456577 0.930387 0.250000
O O1 0.318495 0.025977 0.091777
O O2 0.431254 0.015413 0.113047
O O3 0.381545 0.250000 0.000000
O O4 0.383039 0.966613 0.879232
O O5 0.824972 0.377355 0.750000
O O6 0.892589 0.514636 0.932863
O O7 0.853584 0.250000 0.000000
O O8 0.785427 0.482571 0.999408
O O9 0.556379 0.248858 0.250000
O O10 0.523237 0.954230 0.250000
O O11 0.969621 0.615072 0.750000
O O12 0.946626 0.750000 0.000000
O O13 0.000000 0.500000 0.000000
O O14 0.250492 0.632888 0.750000
O O15 0.284233 0.750000 0.000000
#
# Coordination Sequence:
#
# PCOD8234583 Si02
#       6
#     8   8   4   8   8   4
#     4  12  26  43  64  97 130 167 213 265 323 384
#     4  10  22  40  64  96 130 170 218 265 321 384
#     4  12  26  42  74  90 132 168 207 268 315 392
#     4  11  24  41  64  95 131 175 222 276 333 395
#     4  11  23  41  66  94 127 168 216 263 321 387
#     4  12  24  48  64 100 124 168 215 256 327 386
#
# _framework density 20.910375999999999
#
# number of rings (size 3 to 8) (size 9 to 14) (size 15 to 20)
#    0.000    0.800    1.000    7.800    2.800    5.600 
#    0.000    2.000    0.000    0.000    0.000    0.000 
#    0.000    0.000    0.000    0.000    0.000    0.000 
#
# Total GULP energy -495945.680057 kJ/mol
# GULP energy per Si atom -12398.642001 kJ/mol
# Density = 2.086278 g / cm^3
# Si number density = 20.910376 Si / 1000 Ang^3
#
#
#
# Elastic Constant Matrix: (Units=GPa)
#
#
# Indices 1 2 3 4 5 6 
#
# 1 109.8818 39.4949 49.6062 0.0000 0.0000 0.0000
# 2 39.4949 116.3661 46.4598 0.0000 0.0000 0.0000
# 3 49.6062 46.4598 173.9525 0.0000 0.0000 0.0000
# 4 0.0000 0.0000 0.0000 32.2482 0.0000 0.0000
# 5 0.0000 0.0000 0.0000 0.0000 39.0908 0.0000
# 6 0.0000 0.0000 0.0000 0.0000 0.0000 34.1539
#
#
#
# Elastic Compliance Matrix: (Units=1/GPa)
#
#
# Indices 1 2 3 4 5 6 
#
# 1 0.011222 -0.002833 -0.002444 0.000000 0.000000 0.000000
# 2 -0.002833 0.010335 -0.001952 0.000000 0.000000 0.000000
# 3 -0.002444 -0.001952 0.006967 0.000000 0.000000 0.000000
# 4 0.000000 0.000000 0.000000 0.031010 0.000000 0.000000
# 5 0.000000 0.000000 0.000000 0.000000 0.025581 0.000000
# 6 0.000000 0.000000 0.000000 0.000000 0.000000 0.029279
#
#
# Mechanical properties :
#
#
# Convention : Reuss Voigt Hill
#
# Bulk Modulus (GPa) = 71.09494 74.59135 72.84315
# Shear Modulus (GPa) = 37.44184 38.74123 38.09154
#
# Velocity S-wave (km/s) = 4.23612 4.30900 4.27272
# Velocity P-wave (km/s) = 7.61577 7.77856 7.69760
#
# Compressibility (1/GPa) = 0.01406570
#
# Stress axis : x y z
#
# Youngs Moduli (GPa) = 89.10929 96.76217 143.53531
#
# Poissons Ratio (x) = 0.27415 0.35073
# Poissons Ratio (y) = 0.25247 0.28022
# Poissons Ratio (z) = 0.21774 0.18890
#
# Static dielectric constant tensor:
#      x y z
#    x 3.909990 0.000000 0.000000 
#    y 0.000000 3.587210 0.000000 
#    z 0.000000 0.000000 4.151620 
# 
# 
# High freq. dielectric constant tensor:
#      x y z
#    x 1.834030 0.000000 0.000000 
#    y 0.000000 1.812550 0.000000 
#    z 0.000000 0.000000 1.844310 
# 
# From -- ./inp_files/9005.got.cif
#   From: 2010.03.12/outbox.cif.g09.slc.cpg/sg57_5_cif.got.tgz:9005.got - 2010.04.16 15:48:40.
