data_PCOD8234757
_publ_section_title
;
Structure prediction by ZEFSAII (Michael W. Deem and Ramdas Pophale) SiO2 
 PCOD8234757
Probable space group: P B C M
;
_chemical_formula_sum "Si O2"
_cell_formula_units_Z 48
_cell_length_a 28.426090
_cell_length_b 8.699663
_cell_length_c 9.362109
_cell_angle_alpha 90.000000
_cell_angle_beta 90.000000
_cell_angle_gamma 90.000000
_cell_volume 2315.225246
_symmetry_space_group_name_H-M "P B C M"
_symmetry_group_IT_number 57
_symmetry_cell_setting 'orthorhombic'
loop_
_space_group_symop_operation_xyz
x,y,z
-x,-y,1/2+z
x,1/2-y,-z
-x,1/2+y,1/2-z
-x,-y,-z
x,y,1/2-z
-x,1/2+y,z
x,1/2-y,1/2+z
loop_
_atom_site_type_symbol
_atom_site_label
_atom_site_fract_x
_atom_site_fract_y
_atom_site_fract_z
Si Si1 0.038009 0.595808 0.413786
Si Si2 0.793074 0.408823 0.419917
Si Si3 0.600149 0.569467 0.479274
Si Si4 0.536392 0.422387 0.250000
Si Si5 0.295475 0.099394 0.408673
Si Si6 0.868936 0.600616 0.585641
Si Si7 0.437268 0.566810 0.250000
O O1 0.045860 0.750000 0.500000
O O2 0.020937 0.625466 0.250000
O O3 0.087821 0.514080 0.411796
O O4 0.000000 0.500000 0.500000
O O5 0.801789 0.250000 0.500000
O O6 0.803637 0.392565 0.250000
O O7 0.739650 0.462250 0.450924
O O8 0.826315 0.533677 0.493189
O O9 0.591777 0.750000 0.500000
O O10 0.558118 0.504451 0.385811
O O11 0.651416 0.536345 0.415416
O O12 0.597426 0.470770 0.621531
O O13 0.480735 0.448527 0.250000
O O14 0.545434 0.241130 0.250000
O O15 0.287164 0.250000 0.500000
O O16 0.284000 0.154367 0.250000
O O17 0.886056 0.750000 0.500000
O O18 0.853396 0.636830 0.750000
#
# Coordination Sequence:
#
# PCOD8234757 Si02
#       7
#     8   8   8   4   8   8   4
#     4  11  24  41  64  94 131 172 219 270 327 388
#     4  11  24  42  64  95 130 169 213 265 320 382
#     4  11  23  43  65  93 126 163 208 258 313 377
#     4  12  24  44  64  92 130 160 210 256 311 380
#     4  10  23  42  66  93 124 162 206 254 310 375
#     4  11  24  42  65  95 129 171 218 271 327 388
#     4  12  26  40  66  94 122 170 204 258 315 372
#
# _framework density 20.732322
#
# number of rings (size 3 to 8) (size 9 to 14) (size 15 to 20)
#    0.000    1.000    0.833    5.500    3.500    9.333 
#    0.000    0.000    0.000    0.000    0.000    0.000 
#    0.000    0.000    0.000    0.000    0.000    0.000 
#
# Total GULP energy -595251.519404 kJ/mol
# GULP energy per Si atom -12401.073321 kJ/mol
# Density = 2.068513 g / cm^3
# Si number density = 20.732322 Si / 1000 Ang^3
#
#
#
# Elastic Constant Matrix: (Units=GPa)
#
#
# Indices 1 2 3 4 5 6 
#
# 1 74.6330 23.3827 31.8591 0.0000 0.0000 0.0000
# 2 23.3827 115.1075 46.7318 0.0000 0.0000 0.0000
# 3 31.8591 46.7318 148.7613 0.0000 0.0000 0.0000
# 4 0.0000 0.0000 0.0000 40.2445 0.0000 0.0000
# 5 0.0000 0.0000 0.0000 0.0000 33.5464 0.0000
# 6 0.0000 0.0000 0.0000 0.0000 0.0000 27.6184
#
#
#
# Elastic Compliance Matrix: (Units=1/GPa)
#
#
# Indices 1 2 3 4 5 6 
#
# 1 0.015145 -0.002017 -0.002610 0.000000 0.000000 0.000000
# 2 -0.002017 0.010226 -0.002780 0.000000 0.000000 0.000000
# 3 -0.002610 -0.002780 0.008155 0.000000 0.000000 0.000000
# 4 0.000000 0.000000 0.000000 0.024848 0.000000 0.000000
# 5 0.000000 0.000000 0.000000 0.000000 0.029809 0.000000
# 6 0.000000 0.000000 0.000000 0.000000 0.000000 0.036208
#
#
# Mechanical properties :
#
#
# Convention : Reuss Voigt Hill
#
# Bulk Modulus (GPa) = 53.44451 60.27212 56.85832
# Shear Modulus (GPa) = 34.37786 36.05039 35.21413
#
# Velocity S-wave (km/s) = 4.07649 4.17448 4.12577
# Velocity P-wave (km/s) = 6.92758 7.23669 7.08382
#
# Compressibility (1/GPa) = 0.01871100
#
# Stress axis : x y z
#
# Youngs Moduli (GPa) = 66.02882 97.78929 122.63061
#
# Poissons Ratio (x) = 0.19724 0.32005
# Poissons Ratio (y) = 0.13318 0.34097
# Poissons Ratio (z) = 0.17233 0.27190
#
# Static dielectric constant tensor:
#      x y z
#    x 3.805010 0.000000 0.000000 
#    y 0.000000 3.603810 0.000000 
#    z 0.000000 0.000000 2.651600 
# 
# 
# High freq. dielectric constant tensor:
#      x y z
#    x 1.820520 0.000000 0.000000 
#    y 0.000000 1.816560 0.000000 
#    z 0.000000 0.000000 1.833600 
# 
# From -- ./inp_files/10131.got.cif
#   From: 2010.03.12/outbox.cif.g09.slc.cpg/sg57_6_cif.got.tgz:10131.got - 2010.04.16 15:48:40.
