data_PCOD8234659
_publ_section_title
;
Structure prediction by ZEFSAII (Michael W. Deem and Ramdas Pophale) SiO2 
 PCOD8234659
Probable space group: P B C M
;
_chemical_formula_sum "Si O2"
_cell_formula_units_Z 48
_cell_length_a 8.631481
_cell_length_b 9.747248
_cell_length_c 27.638610
_cell_angle_alpha 90.000000
_cell_angle_beta 90.000000
_cell_angle_gamma 90.000000
_cell_volume 2325.324314
_symmetry_space_group_name_H-M "P B C M"
_symmetry_group_IT_number 57
_symmetry_cell_setting 'orthorhombic'
loop_
_space_group_symop_operation_xyz
x,y,z
-x,-y,1/2+z
x,1/2-y,-z
-x,1/2+y,1/2-z
-x,-y,-z
x,y,1/2-z
-x,1/2+y,z
x,1/2-y,1/2+z
loop_
_atom_site_type_symbol
_atom_site_label
_atom_site_fract_x
_atom_site_fract_y
_atom_site_fract_z
Si Si1 0.828146 0.014113 0.061752
Si Si2 0.849187 0.157309 0.804950
Si Si3 0.814246 0.980440 0.950353
Si Si4 0.853370 0.660086 0.194972
Si Si5 0.675500 0.224637 0.896448
Si Si6 0.318376 0.241605 0.894675
O O1 0.731794 0.915485 0.097407
O O2 0.010583 0.983642 0.064846
O O3 0.790442 0.167922 0.078202
O O4 0.776673 0.994462 0.006624
O O5 0.792250 0.178500 0.750000
O O6 0.711341 0.207534 0.839521
O O7 0.996676 0.250190 0.816710
O O8 0.894067 0.999001 0.814834
O O9 0.699023 0.079406 0.921993
O O10 0.778332 0.825923 0.934354
O O11 0.797021 0.682666 0.250000
O O12 0.717405 0.710392 0.159884
O O13 0.498907 0.267839 0.903188
#
# Coordination Sequence:
#
# PCOD8234659 Si02
#       6
#     8   8   8   8   8   8
#     4  11  25  41  68  91 122 169 215 260 306 371
#     4  10  22  42  68  95 125 165 213 260 309 374
#     4  11  23  45  64  91 124 167 219 258 304 371
#     4  10  22  42  68  95 125 165 213 260 309 374
#     4  12  25  40  63  96 131 165 203 259 323 374
#     4  12  25  40  63  96 131 165 203 259 323 374
#
# _framework density 20.642281000000001
#
# number of rings (size 3 to 8) (size 9 to 14) (size 15 to 20)
#    0.000    1.000    1.667    5.000    2.333    7.333 
#    0.000    0.000    0.000    0.000    0.000    0.000 
#    0.000    0.000    0.000    0.000    0.000    0.000 
#
# Total GULP energy -595521.962877 kJ/mol
# GULP energy per Si atom -12406.707560 kJ/mol
# Density = 2.059530 g / cm^3
# Si number density = 20.642281 Si / 1000 Ang^3
#
#
#
# Elastic Constant Matrix: (Units=GPa)
#
#
# Indices 1 2 3 4 5 6 
#
# 1 86.6611 26.4761 55.8086 0.0000 0.0000 0.0000
# 2 26.4761 69.3256 22.0075 0.0000 0.0000 0.0000
# 3 55.8086 22.0075 113.0448 0.0000 0.0000 0.0000
# 4 0.0000 0.0000 0.0000 37.6244 0.0000 0.0000
# 5 0.0000 0.0000 0.0000 0.0000 19.6870 0.0000
# 6 0.0000 0.0000 0.0000 0.0000 0.0000 30.7484
#
#
#
# Elastic Compliance Matrix: (Units=1/GPa)
#
#
# Indices 1 2 3 4 5 6 
#
# 1 0.018063 -0.004335 -0.008073 0.000000 0.000000 0.000000
# 2 -0.004335 0.016415 -0.001055 0.000000 0.000000 0.000000
# 3 -0.008073 -0.001055 0.013037 0.000000 0.000000 0.000000
# 4 0.000000 0.000000 0.000000 0.026578 0.000000 0.000000
# 5 0.000000 0.000000 0.000000 0.000000 0.050795 0.000000
# 6 0.000000 0.000000 0.000000 0.000000 0.000000 0.032522
#
#
# Mechanical properties :
#
#
# Convention : Reuss Voigt Hill
#
# Bulk Modulus (GPa) = 48.57407 53.06843 50.82125
# Shear Modulus (GPa) = 26.15038 28.59459 27.37248
#
# Velocity S-wave (km/s) = 3.56312 3.72592 3.64543
# Velocity P-wave (km/s) = 6.36477 6.65390 6.51094
#
# Compressibility (1/GPa) = 0.02058712
#
# Stress axis : x y z
#
# Youngs Moduli (GPa) = 55.36219 60.91812 76.70356
#
# Poissons Ratio (x) = 0.26411 0.61925
# Poissons Ratio (y) = 0.24002 0.08095
# Poissons Ratio (z) = 0.44696 0.06429
#
# Static dielectric constant tensor:
#      x y z
#    x 3.439190 0.000000 0.000000 
#    y 0.000000 3.811210 0.000000 
#    z 0.000000 0.000000 3.906760 
# 
# 
# High freq. dielectric constant tensor:
#      x y z
#    x 1.791600 0.000000 0.000000 
#    y 0.000000 1.822720 0.000000 
#    z 0.000000 0.000000 1.823190 
# 
# From -- ./inp_files/29478.got.cif
#   From: 2010.03.12/outbox.cif.g09.slc.cpg/sg57_15_cif.got.tgz:29478.got - 2010.04.16 15:48:40.
