data_PCOD8234963
_publ_section_title
;
Structure prediction by ZEFSAII (Michael W. Deem and Ramdas Pophale) SiO2 
 PCOD8234963
Probable space group: P B C M
;
_chemical_formula_sum "Si O2"
_cell_formula_units_Z 48
_cell_length_a 14.664921
_cell_length_b 11.184575
_cell_length_c 14.431479
_cell_angle_alpha 90.000000
_cell_angle_beta 90.000000
_cell_angle_gamma 90.000000
_cell_volume 2367.064301
_symmetry_space_group_name_H-M "P B C M"
_symmetry_group_IT_number 57
_symmetry_cell_setting 'orthorhombic'
loop_
_space_group_symop_operation_xyz
x,y,z
-x,-y,1/2+z
x,1/2-y,-z
-x,1/2+y,1/2-z
-x,-y,-z
x,y,1/2-z
-x,1/2+y,z
x,1/2-y,1/2+z
loop_
_atom_site_type_symbol
_atom_site_label
_atom_site_fract_x
_atom_site_fract_y
_atom_site_fract_z
Si Si1 0.906908 0.992582 0.891619
Si Si2 0.109465 0.515158 0.100328
Si Si3 0.769935 0.613501 0.250000
Si Si4 0.624868 0.227725 0.897533
Si Si5 0.415716 0.958652 0.250000
Si Si6 0.821238 0.233974 0.858151
Si Si7 0.393558 0.925872 0.750000
Si Si8 0.231465 0.106679 0.750000
O O1 0.897021 0.133532 0.871734
O O2 0.009019 0.965803 0.855421
O O3 0.830820 0.916022 0.839262
O O4 0.898090 0.956979 0.999056
O O5 0.151982 0.645910 0.089544
O O6 0.172595 0.428161 0.160365
O O7 0.678541 0.533162 0.250000
O O8 0.745392 0.752967 0.250000
O O9 0.572497 0.124172 0.841458
O O10 0.729199 0.183792 0.904751
O O11 0.625834 0.352400 0.842968
O O12 0.582609 0.250000 0.000000
O O13 0.499555 0.047420 0.250000
O O14 0.804250 0.263339 0.750000
O O15 0.329447 0.042037 0.750000
#
# Coordination Sequence:
#
# PCOD8234963 Si02
#       8
#     8   8   4   8   4   8   4   4
#     4  11  24  40  62  93 129 169 213 260 309 369
#     4  11  24  40  62  93 129 169 213 260 309 369
#     4  12  26  42  62  90 129 174 205 257 320 380
#     4  11  21  42  73  97 121 163 215 267 315 368
#     4  11  25  45  68  96 129 163 210 264 321 379
#     4  12  20  39  69  94 122 167 214 266 313 363
#     4  11  25  45  68  96 129 163 210 264 321 379
#     4  12  26  42  62  90 129 174 205 257 320 380
#
# _framework density 20.278283999999999
#
# number of rings (size 3 to 8) (size 9 to 14) (size 15 to 20)
#    0.000    0.667    6.667    2.000    4.667    1.333 
#    0.000    0.000    0.000    0.000    0.000    0.000 
#    0.000    0.000    0.000    0.000    0.000    0.000 
#
# Total GULP energy -595289.910174 kJ/mol
# GULP energy per Si atom -12401.873129 kJ/mol
# Density = 2.023213 g / cm^3
# Si number density = 20.278284 Si / 1000 Ang^3
#
#
#
# Elastic Constant Matrix: (Units=GPa)
#
#
# Indices 1 2 3 4 5 6 
#
# 1 100.4684 18.2674 27.9443 0.0000 0.0000 0.0000
# 2 18.2674 107.7106 29.2507 0.0000 0.0000 0.0000
# 3 27.9443 29.2507 116.7790 0.0000 0.0000 0.0000
# 4 0.0000 0.0000 0.0000 13.5173 0.0000 0.0000
# 5 0.0000 0.0000 0.0000 0.0000 12.7311 0.0000
# 6 0.0000 0.0000 0.0000 0.0000 0.0000 27.7717
#
#
#
# Elastic Compliance Matrix: (Units=1/GPa)
#
#
# Indices 1 2 3 4 5 6 
#
# 1 0.010809 -0.001213 -0.002283 0.000000 0.000000 0.000000
# 2 -0.001213 0.010098 -0.002239 0.000000 0.000000 0.000000
# 3 -0.002283 -0.002239 0.009670 0.000000 0.000000 0.000000
# 4 0.000000 0.000000 0.000000 0.073979 0.000000 0.000000
# 5 0.000000 0.000000 0.000000 0.000000 0.078548 0.000000
# 6 0.000000 0.000000 0.000000 0.000000 0.000000 0.036008
#
#
# Mechanical properties :
#
#
# Convention : Reuss Voigt Hill
#
# Bulk Modulus (GPa) = 52.33599 52.87587 52.60593
# Shear Modulus (GPa) = 21.10142 27.43705 24.26924
#
# Velocity S-wave (km/s) = 3.22932 3.68234 3.46325
# Velocity P-wave (km/s) = 6.30631 6.64915 6.48000
#
# Compressibility (1/GPa) = 0.01910731
#
# Stress axis : x y z
#
# Youngs Moduli (GPa) = 92.51676 99.03004 103.41036
#
# Poissons Ratio (x) = 0.12015 0.23604
# Poissons Ratio (y) = 0.11225 0.23154
# Poissons Ratio (z) = 0.21118 0.22173
#
# Static dielectric constant tensor:
#      x y z
#    x 3.621880 0.000000 0.000000 
#    y 0.000000 3.553540 0.000000 
#    z 0.000000 0.000000 3.808540 
# 
# 
# High freq. dielectric constant tensor:
#      x y z
#    x 1.788330 0.000000 0.000000 
#    y 0.000000 1.785220 0.000000 
#    z 0.000000 0.000000 1.801010 
# 
# From -- ./inp_files/18457.got.cif
#   From: 2010.03.12/outbox.cif.g09.slc.cpg/sg57_10_cif.got.tgz:18457.got - 2010.04.16 15:48:40.
