data_PCOD8234576
_publ_section_title
;
Structure prediction by ZEFSAII (Michael W. Deem and Ramdas Pophale) SiO2 
 PCOD8234576
Probable space group: P B C M
;
_chemical_formula_sum "Si O2"
_cell_formula_units_Z 32
_cell_length_a 6.193134
_cell_length_b 10.125035
_cell_length_c 22.235753
_cell_angle_alpha 90.000000
_cell_angle_beta 90.000000
_cell_angle_gamma 90.000000
_cell_volume 1394.308424
_symmetry_space_group_name_H-M "P B C M"
_symmetry_group_IT_number 57
_symmetry_cell_setting 'orthorhombic'
loop_
_space_group_symop_operation_xyz
x,y,z
-x,-y,1/2+z
x,1/2-y,-z
-x,1/2+y,1/2-z
-x,-y,-z
x,y,1/2-z
-x,1/2+y,z
x,1/2-y,1/2+z
loop_
_atom_site_type_symbol
_atom_site_label
_atom_site_fract_x
_atom_site_fract_y
_atom_site_fract_z
Si Si1 0.214721 0.909930 0.559686
Si Si2 0.547930 0.974931 0.652325
Si Si3 0.135669 0.621667 0.925785
Si Si4 0.827147 0.845052 0.750000
Si Si5 0.213950 0.050188 0.750000
O O1 0.442648 0.903391 0.594348
O O2 0.079083 0.777362 0.576220
O O3 0.256516 0.915004 0.488265
O O4 0.083219 0.038388 0.580922
O O5 0.682775 0.869890 0.690977
O O6 0.707654 0.089556 0.629641
O O7 0.360761 0.041314 0.691192
O O8 0.903193 0.692758 0.750000
O O9 0.038236 0.935182 0.750000
#
# Coordination Sequence:
#
# PCOD8234576 Si02
#       5
#     8   8   8   4   4
#     4  10  22  40  63  93 127 161 199 246 300 359
#     4  11  23  40  66  90 119 161 208 250 298 361
#     4  10  22  40  63  93 127 161 199 246 300 359
#     4  11  26  44  63  89 121 159 205 257 308 358
#     4  11  26  44  63  89 121 159 205 257 308 358
#
# _framework density 22.950445999999999
#
# number of rings (size 3 to 8) (size 9 to 14) (size 15 to 20)
#    0.000    1.500    0.000    3.750    0.000   14.000 
#    0.000    5.000    0.000    0.000    0.000    0.000 
#    0.000    0.000    0.000    0.000    0.000    0.000 
#
# Total GULP energy -396891.950836 kJ/mol
# GULP energy per Si atom -12402.873464 kJ/mol
# Density = 2.289821 g / cm^3
# Si number density = 22.950446 Si / 1000 Ang^3
#
#
#
# Elastic Constant Matrix: (Units=GPa)
#
#
# Indices 1 2 3 4 5 6 
#
# 1 43.5020 -3.2335 13.7966 0.0000 0.0000 0.0000
# 2 -3.2335 108.3121 -12.7746 0.0000 0.0000 0.0000
# 3 13.7966 -12.7746 73.0727 0.0000 0.0000 0.0000
# 4 0.0000 0.0000 0.0000 17.0073 0.0000 0.0000
# 5 0.0000 0.0000 0.0000 0.0000 50.1182 0.0000
# 6 0.0000 0.0000 0.0000 0.0000 0.0000 32.6183
#
#
#
# Elastic Compliance Matrix: (Units=1/GPa)
#
#
# Indices 1 2 3 4 5 6 
#
# 1 0.024455 0.000189 -0.004584 0.000000 0.000000 0.000000
# 2 0.000189 0.009428 0.001613 0.000000 0.000000 0.000000
# 3 -0.004584 0.001613 0.014832 0.000000 0.000000 0.000000
# 4 0.000000 0.000000 0.000000 0.058798 0.000000 0.000000
# 5 0.000000 0.000000 0.000000 0.000000 0.019953 0.000000
# 6 0.000000 0.000000 0.000000 0.000000 0.000000 0.030658
#
#
# Mechanical properties :
#
#
# Convention : Reuss Voigt Hill
#
# Bulk Modulus (GPa) = 23.17412 24.49601 23.83507
# Shear Modulus (GPa) = 28.07830 35.08865 31.58348
#
# Velocity S-wave (km/s) = 3.50155 3.91434 3.71369
# Velocity P-wave (km/s) = 5.14463 5.57907 5.36625
#
# Compressibility (1/GPa) = 0.04315158
#
# Stress axis : x y z
#
# Youngs Moduli (GPa) = 40.89078 106.06238 67.41977
#
# Poissons Ratio (x) = -0.02009 0.30907
# Poissons Ratio (y) = -0.00774 -0.10872
# Poissons Ratio (z) = 0.18745 -0.17103
#
# Static dielectric constant tensor:
#      x y z
#    x 3.866560 0.000000 0.000000 
#    y 0.000000 3.970960 0.000000 
#    z 0.000000 0.000000 4.463910 
# 
# 
# High freq. dielectric constant tensor:
#      x y z
#    x 1.890330 0.000000 0.000000 
#    y 0.000000 1.902700 0.000000 
#    z 0.000000 0.000000 1.928020 
# 
# From -- ./inp_files/23337.got.cif
#   From: 2010.03.12/outbox.cif.g09.slc.cpg/sg57_12_cif.got.tgz:23337.got - 2010.04.16 15:48:40.
