data_PCOD8234035
_publ_section_title
;
Structure prediction by ZEFSAII (Michael W. Deem and Ramdas Pophale) SiO2 
 PCOD8234035
Probable space group: P B C M
;
_chemical_formula_sum "Si O2"
_cell_formula_units_Z 48
_cell_length_a 11.605027
_cell_length_b 25.494630
_cell_length_c 8.772093
_cell_angle_alpha 90.000000
_cell_angle_beta 90.000000
_cell_angle_gamma 90.000000
_cell_volume 2595.362923
_symmetry_space_group_name_H-M "P B C M"
_symmetry_group_IT_number 57
_symmetry_cell_setting 'orthorhombic'
loop_
_space_group_symop_operation_xyz
x,y,z
-x,-y,1/2+z
x,1/2-y,-z
-x,1/2+y,1/2-z
-x,-y,-z
x,y,1/2-z
-x,1/2+y,z
x,1/2-y,1/2+z
loop_
_atom_site_type_symbol
_atom_site_label
_atom_site_fract_x
_atom_site_fract_y
_atom_site_fract_z
Si Si1 0.632354 0.304011 0.930116
Si Si2 0.999114 0.942486 0.429117
Si Si3 0.226352 0.097342 0.424257
Si Si4 0.623180 0.005007 0.924824
Si Si5 0.628659 0.803888 0.569831
Si Si6 0.227448 0.904876 0.930569
O O1 0.636159 0.299332 0.750000
O O2 0.501824 0.314508 0.987660
O O3 0.712138 0.351514 0.987205
O O4 0.680590 0.250000 0.000000
O O5 0.013924 0.948974 0.250000
O O6 0.102587 0.907479 0.493358
O O7 0.881618 0.912763 0.467399
O O8 0.000000 0.000000 0.500000
O O9 0.183671 0.103782 0.250000
O O10 0.289117 0.149398 0.485982
O O11 0.317482 0.051017 0.435968
O O12 0.612242 0.023477 0.750000
O O13 0.696955 0.046100 0.019252
O O14 0.500000 0.000000 0.000000
O O15 0.676809 0.750000 0.500000
O O16 0.630534 0.799719 0.750000
O O17 0.213840 0.906394 0.750000
#
# Coordination Sequence:
#
# PCOD8234035 Si02
#       6
#     8   8   8   8   8   8
#     4   9  19  36  59  86 116 151 187 232 286 341
#     4  12  24  39  59  83 112 151 194 236 287 343
#     4  10  21  38  58  81 113 151 191 235 284 338
#     4  11  22  35  55  83 116 150 187 234 290 345
#     4   9  18  35  58  84 115 149 186 231 283 338
#     4  11  22  38  59  84 115 150 192 238 288 342
#
# _framework density 18.494523000000001
#
# number of rings (size 3 to 8) (size 9 to 14) (size 15 to 20)
#    0.000    1.667    1.667    3.500    0.000    5.333 
#    0.000    4.167    0.000    0.000    0.000    0.000 
#    0.000    0.000    0.000    0.000    0.000    0.000 
#
# Total GULP energy -595389.165831 kJ/mol
# GULP energy per Si atom -12403.940955 kJ/mol
# Density = 1.845243 g / cm^3
# Si number density = 18.494523 Si / 1000 Ang^3
#
#
#
# Elastic Constant Matrix: (Units=GPa)
#
#
# Indices 1 2 3 4 5 6 
#
# 1 115.1337 57.5927 42.5249 0.0000 0.0000 0.0000
# 2 57.5927 142.7320 41.6676 0.0000 0.0000 0.0000
# 3 42.5249 41.6676 79.1709 0.0000 0.0000 0.0000
# 4 0.0000 0.0000 0.0000 31.4056 0.0000 0.0000
# 5 0.0000 0.0000 0.0000 0.0000 22.3826 0.0000
# 6 0.0000 0.0000 0.0000 0.0000 0.0000 -99.4100
#
#
#
# Elastic Compliance Matrix: (Units=1/GPa)
#
#
# Indices 1 2 3 4 5 6 
#
# 1 0.012191 -0.003553 -0.004678 0.000000 0.000000 0.000000
# 2 -0.003553 0.009314 -0.002993 0.000000 0.000000 0.000000
# 3 -0.004678 -0.002993 0.016719 0.000000 0.000000 0.000000
# 4 0.000000 0.000000 0.000000 0.031841 0.000000 0.000000
# 5 0.000000 0.000000 0.000000 0.000000 0.044678 0.000000
# 6 0.000000 0.000000 0.000000 0.000000 0.000000 -0.010059
#
#
# Mechanical properties :
#
#
# Convention : Reuss Voigt Hill
#
# Bulk Modulus (GPa) = 63.39358 68.95632 66.17495
# Shear Modulus (GPa) = 37.76713 3.89238 20.82976
#
# Velocity S-wave (km/s) = 4.52383 1.45230 3.35963
# Velocity P-wave (km/s) = 7.85099 6.33860 7.13498
#
# Compressibility (1/GPa) = 0.01577447
#
# Stress axis : x y z
#
# Youngs Moduli (GPa) = 82.02870 107.36813 59.81282
#
# Poissons Ratio (x) = 0.38153 0.27980
# Poissons Ratio (y) = 0.29148 0.17903
# Poissons Ratio (z) = 0.38372 0.32137
#
# Static dielectric constant tensor:
#      x y z
#    x 3.605160 0.000000 0.000000 
#    y 0.000000 3.544710 0.000000 
#    z 0.000000 0.000000 3.465960 
# 
# 
# High freq. dielectric constant tensor:
#      x y z
#    x 1.719350 0.000000 0.000000 
#    y 0.000000 1.720880 0.000000 
#    z 0.000000 0.000000 1.720100 
# 
# From -- ./inp_files/3134.got.cif
#   From: 2010.03.12/outbox.cif.g09.slc.cpg/sg57_2_cif.got.tgz:3134.got - 2010.04.16 15:48:40.
