data_PCOD8234252
_publ_section_title
;
Structure prediction by ZEFSAII (Michael W. Deem and Ramdas Pophale) SiO2 
 PCOD8234252
Probable space group: P B C M
;
_chemical_formula_sum "Si O2"
_cell_formula_units_Z 28
_cell_length_a 9.273388
_cell_length_b 13.737711
_cell_length_c 10.132714
_cell_angle_alpha 90.000000
_cell_angle_beta 90.000000
_cell_angle_gamma 90.000000
_cell_volume 1290.858360
_symmetry_space_group_name_H-M "P B C M"
_symmetry_group_IT_number 57
_symmetry_cell_setting 'orthorhombic'
loop_
_space_group_symop_operation_xyz
x,y,z
-x,-y,1/2+z
x,1/2-y,-z
-x,1/2+y,1/2-z
-x,-y,-z
x,y,1/2-z
-x,1/2+y,z
x,1/2-y,1/2+z
loop_
_atom_site_type_symbol
_atom_site_label
_atom_site_fract_x
_atom_site_fract_y
_atom_site_fract_z
Si Si1 0.854208 0.598698 0.899212
Si Si2 0.083050 0.876384 0.604333
Si Si3 0.675755 0.250000 0.000000
Si Si4 0.531042 0.912585 0.400460
O O1 0.902345 0.624195 0.750000
O O2 0.860982 0.483994 0.927606
O O3 0.690315 0.630929 0.926638
O O4 0.961788 0.655104 0.997939
O O5 0.013405 0.870721 0.750000
O O6 0.222022 0.807340 0.601241
O O7 0.579690 0.324560 0.082844
O O8 0.520278 0.952354 0.250000
O O9 0.500000 0.000000 0.500000
#
# Coordination Sequence:
#
# PCOD8234252 Si02
#       4
#     8   8   4   8
#     4   9  20  41  64  91 127 168 215 268 325 386
#     4  10  21  39  63  93 127 167 217 269 321 388
#     4  12  24  40  66 102 134 174 220 276 334 394
#     4  11  24  43  68  98 136 177 222 277 334 397
#
# _framework density 21.690992999999999
#
# number of rings (size 3 to 8) (size 9 to 14) (size 15 to 20)
#    0.000    1.714    2.857    0.857    0.000    5.714 
#    0.000    2.857    0.000    0.000    0.000    0.000 
#    0.000    0.000    0.000    0.000    0.000    0.000 
#
# Total GULP energy -347237.463007 kJ/mol
# GULP energy per Si atom -12401.337965 kJ/mol
# Density = 2.164162 g / cm^3
# Si number density = 21.690993 Si / 1000 Ang^3
#
#
#
# Elastic Constant Matrix: (Units=GPa)
#
#
# Indices 1 2 3 4 5 6 
#
# 1 167.0430 50.9042 90.5710 0.0000 0.0000 0.0000
# 2 50.9042 76.6114 40.6970 0.0000 0.0000 0.0000
# 3 90.5710 40.6970 153.3972 0.0000 0.0000 0.0000
# 4 0.0000 0.0000 0.0000 12.8218 0.0000 0.0000
# 5 0.0000 0.0000 0.0000 0.0000 36.4108 0.0000
# 6 0.0000 0.0000 0.0000 0.0000 0.0000 42.1363
#
#
#
# Elastic Compliance Matrix: (Units=1/GPa)
#
#
# Indices 1 2 3 4 5 6 
#
# 1 0.009747 -0.003980 -0.004699 0.000000 0.000000 0.000000
# 2 -0.003980 0.016820 -0.002112 0.000000 0.000000 0.000000
# 3 -0.004699 -0.002112 0.009854 0.000000 0.000000 0.000000
# 4 0.000000 0.000000 0.000000 0.077992 0.000000 0.000000
# 5 0.000000 0.000000 0.000000 0.000000 0.027464 0.000000
# 6 0.000000 0.000000 0.000000 0.000000 0.000000 0.023732
#
#
# Mechanical properties :
#
#
# Convention : Reuss Voigt Hill
#
# Bulk Modulus (GPa) = 67.39665 84.59954 75.99810
# Shear Modulus (GPa) = 26.02280 32.59907 29.31094
#
# Velocity S-wave (km/s) = 3.46743 3.88091 3.67998
# Velocity P-wave (km/s) = 6.86801 7.69213 7.29172
#
# Compressibility (1/GPa) = 0.01483753
#
# Stress axis : x y z
#
# Youngs Moduli (GPa) = 102.59223 59.45431 101.48221
#
# Poissons Ratio (x) = 0.23665 0.47688
# Poissons Ratio (y) = 0.40835 0.21435
# Poissons Ratio (z) = 0.48210 0.12558
#
# Static dielectric constant tensor:
#      x y z
#    x 4.112020 0.000000 0.000000 
#    y 0.000000 3.782820 0.000000 
#    z 0.000000 0.000000 3.904620 
# 
# 
# High freq. dielectric constant tensor:
#      x y z
#    x 1.859340 0.000000 0.000000 
#    y 0.000000 1.846370 0.000000 
#    z 0.000000 0.000000 1.852820 
# 
# From -- ./inp_files/11246.got.cif
#   From: 2010.03.12/outbox.cif.g09.slc.cpg/sg57_6_cif.got.tgz:11246.got - 2010.04.16 15:48:40.
