data_PCOD8234647
_publ_section_title
;
Structure prediction by ZEFSAII (Michael W. Deem and Ramdas Pophale) SiO2 
 PCOD8234647
Probable space group: P B C M
;
_chemical_formula_sum "Si O2"
_cell_formula_units_Z 40
_cell_length_a 5.106029
_cell_length_b 15.949258
_cell_length_c 21.286478
_cell_angle_alpha 90.000000
_cell_angle_beta 90.000000
_cell_angle_gamma 90.000000
_cell_volume 1733.514867
_symmetry_space_group_name_H-M "P B C M"
_symmetry_group_IT_number 57
_symmetry_cell_setting 'orthorhombic'
loop_
_space_group_symop_operation_xyz
x,y,z
-x,-y,1/2+z
x,1/2-y,-z
-x,1/2+y,1/2-z
-x,-y,-z
x,y,1/2-z
-x,1/2+y,z
x,1/2-y,1/2+z
loop_
_atom_site_type_symbol
_atom_site_label
_atom_site_fract_x
_atom_site_fract_y
_atom_site_fract_z
Si Si1 0.006446 0.251071 0.868387
Si Si2 0.420367 0.077972 0.958408
Si Si3 0.508225 0.813043 0.925240
Si Si4 0.764994 0.593459 0.319365
Si Si5 0.915063 0.427195 0.123004
O O1 0.776662 0.274184 0.916806
O O2 0.967224 0.159039 0.837503
O O3 0.273185 0.242655 0.909489
O O4 0.036147 0.326173 0.817783
O O5 0.620264 0.083890 0.901115
O O6 0.123360 0.065532 0.933822
O O7 0.451366 0.159198 0.003110
O O8 0.500000 0.000000 0.000000
O O9 0.552453 0.890733 0.874977
O O10 0.635624 0.586363 0.250000
O O11 0.930082 0.508834 0.332898
#
# Coordination Sequence:
#
# PCOD8234647 Si02
#       5
#     8   8   8   8   8
#     4  10  23  43  63  99 128 166 223 263 320 391
#     4  12  22  40  67  99 139 168 212 273 324 396
#     4  10  22  42  64  92 132 170 209 265 334 374
#     4  10  25  46  67  91 132 175 219 270 324 386
#     4  12  25  40  70  99 131 173 219 266 329 389
#
# _framework density 23.074504999999998
#
# number of rings (size 3 to 8) (size 9 to 14) (size 15 to 20)
#    1.200    0.000    2.000    4.200    0.000    6.400 
#    0.000    0.000    0.000    0.000    0.000    0.000 
#    0.000    0.000    0.000    0.000    0.000    0.000 
#
# Total GULP energy -495640.580142 kJ/mol
# GULP energy per Si atom -12391.014504 kJ/mol
# Density = 2.302199 g / cm^3
# Si number density = 23.074505 Si / 1000 Ang^3
#
#
#
# Elastic Constant Matrix: (Units=GPa)
#
#
# Indices 1 2 3 4 5 6 
#
# 1 102.2537 -6.7797 10.7827 0.0000 0.0000 0.0000
# 2 -6.7797 149.3560 14.1634 0.0000 0.0000 0.0000
# 3 10.7827 14.1634 89.2898 0.0000 0.0000 0.0000
# 4 0.0000 0.0000 0.0000 7.8385 0.0000 0.0000
# 5 0.0000 0.0000 0.0000 0.0000 18.2344 0.0000
# 6 0.0000 0.0000 0.0000 0.0000 0.0000 25.4307
#
#
#
# Elastic Compliance Matrix: (Units=1/GPa)
#
#
# Indices 1 2 3 4 5 6 
#
# 1 0.009954 0.000574 -0.001293 0.000000 0.000000 0.000000
# 2 0.000574 0.006831 -0.001153 0.000000 0.000000 0.000000
# 3 -0.001293 -0.001153 0.011539 0.000000 0.000000 0.000000
# 4 0.000000 0.000000 0.000000 0.127575 0.000000 0.000000
# 5 0.000000 0.000000 0.000000 0.000000 0.054841 0.000000
# 6 0.000000 0.000000 0.000000 0.000000 0.000000 0.039323
#
#
# Mechanical properties :
#
#
# Convention : Reuss Voigt Hill
#
# Bulk Modulus (GPa) = 40.68319 41.91472 41.29895
# Shear Modulus (GPa) = 19.08404 31.81626 25.45015
#
# Velocity S-wave (km/s) = 2.87899 3.71731 3.32468
# Velocity P-wave (km/s) = 5.35919 6.05219 5.71620
#
# Compressibility (1/GPa) = 0.02458018
#
# Stress axis : x y z
#
# Youngs Moduli (GPa) = 100.46159 146.39529 86.66619
#
# Poissons Ratio (x) = -0.08410 0.11208
# Poissons Ratio (y) = -0.05771 0.09992
# Poissons Ratio (z) = 0.12992 0.16878
#
# Static dielectric constant tensor:
#      x y z
#    x 4.045270 0.000000 0.000000 
#    y 0.000000 4.575030 0.000000 
#    z 0.000000 0.000000 3.671570 
# 
# 
# High freq. dielectric constant tensor:
#      x y z
#    x 1.904070 0.000000 0.000000 
#    y 0.000000 1.941970 0.000000 
#    z 0.000000 0.000000 1.869410 
# 
# From -- ./inp_files/23574.got.cif
#   From: 2010.03.12/outbox.cif.g09.slc.cpg/sg57_12_cif.got.tgz:23574.got - 2010.04.16 15:48:40.
