data_PCOD8234582
_publ_section_title
;
Structure prediction by ZEFSAII (Michael W. Deem and Ramdas Pophale) SiO2 
 PCOD8234582
Probable space group: P B C M
;
_chemical_formula_sum "Si O2"
_cell_formula_units_Z 32
_cell_length_a 6.439500
_cell_length_b 22.302040
_cell_length_c 9.481765
_cell_angle_alpha 90.000000
_cell_angle_beta 90.000000
_cell_angle_gamma 90.000000
_cell_volume 1361.714071
_symmetry_space_group_name_H-M "P B C M"
_symmetry_group_IT_number 57
_symmetry_cell_setting 'orthorhombic'
loop_
_space_group_symop_operation_xyz
x,y,z
-x,-y,1/2+z
x,1/2-y,-z
-x,1/2+y,1/2-z
-x,-y,-z
x,y,1/2-z
-x,1/2+y,z
x,1/2-y,1/2+z
loop_
_atom_site_type_symbol
_atom_site_label
_atom_site_fract_x
_atom_site_fract_y
_atom_site_fract_z
Si Si1 0.322043 0.307943 0.590076
Si Si2 0.971985 0.593738 0.010144
Si Si3 0.604272 0.389173 0.092520
Si Si4 0.699226 0.005793 0.096201
O O1 0.261637 0.250000 0.500000
O O2 0.386286 0.290681 0.750000
O O3 0.121730 0.351005 0.597574
O O4 0.515380 0.340078 0.513934
O O5 0.775387 0.562745 0.932205
O O6 0.146088 0.619398 0.901922
O O7 0.087549 0.545061 0.108960
O O8 0.512938 0.382811 0.250000
O O9 0.563171 0.458405 0.030265
O O10 0.589954 0.010222 0.250000
#
# Coordination Sequence:
#
# PCOD8234582 Si02
#       4
#     8   8   8   8
#     4  12  27  45  65  90 124 168 219 266 311 375
#     4   9  22  39  68  94 129 165 206 260 318 373
#     4  10  22  40  64  95 130 166 206 257 315 375
#     4   9  18  38  67  97 129 164 207 258 316 380
#
# _framework density 23.499794999999999
#
# number of rings (size 3 to 8) (size 9 to 14) (size 15 to 20)
#    1.500    0.500    0.000    3.000    0.000    7.000 
#    0.000    0.000    0.000    0.000    0.000    0.000 
#    0.000    0.000    0.000    0.000    0.000    0.000 
#
# Total GULP energy -396677.164518 kJ/mol
# GULP energy per Si atom -12396.161391 kJ/mol
# Density = 2.344631 g / cm^3
# Si number density = 23.499795 Si / 1000 Ang^3
#
#
#
# Elastic Constant Matrix: (Units=GPa)
#
#
# Indices 1 2 3 4 5 6 
#
# 1 115.8054 40.9034 44.3636 0.0000 0.0000 0.0000
# 2 40.9034 126.7112 56.5863 0.0000 0.0000 0.0000
# 3 44.3636 56.5863 214.0044 0.0000 0.0000 0.0000
# 4 0.0000 0.0000 0.0000 24.9573 0.0000 0.0000
# 5 0.0000 0.0000 0.0000 0.0000 32.8728 0.0000
# 6 0.0000 0.0000 0.0000 0.0000 0.0000 33.1331
#
#
#
# Elastic Compliance Matrix: (Units=1/GPa)
#
#
# Indices 1 2 3 4 5 6 
#
# 1 0.010102 -0.002637 -0.001397 0.000000 0.000000 0.000000
# 2 -0.002637 0.009637 -0.002002 0.000000 0.000000 0.000000
# 3 -0.001397 -0.002002 0.005492 0.000000 0.000000 0.000000
# 4 0.000000 0.000000 0.000000 0.040068 0.000000 0.000000
# 5 0.000000 0.000000 0.000000 0.000000 0.030420 0.000000
# 6 0.000000 0.000000 0.000000 0.000000 0.000000 0.030181
#
#
# Mechanical properties :
#
#
# Convention : Reuss Voigt Hill
#
# Bulk Modulus (GPa) = 75.99085 82.24751 79.11918
# Shear Modulus (GPa) = 35.12272 39.17046 37.14659
#
# Velocity S-wave (km/s) = 3.87020 4.08713 3.98014
# Velocity P-wave (km/s) = 7.23728 7.57285 7.40697
#
# Compressibility (1/GPa) = 0.01315948
#
# Stress axis : x y z
#
# Youngs Moduli (GPa) = 98.99291 103.76578 182.09638
#
# Poissons Ratio (x) = 0.27365 0.25435
# Poissons Ratio (y) = 0.26106 0.36447
# Poissons Ratio (z) = 0.13827 0.20769
#
# Static dielectric constant tensor:
#      x y z
#    x 4.371760 0.000000 0.000000 
#    y 0.000000 4.150030 0.000000 
#    z 0.000000 0.000000 3.901750 
# 
# 
# High freq. dielectric constant tensor:
#      x y z
#    x 1.961640 0.000000 0.000000 
#    y 0.000000 1.924270 0.000000 
#    z 0.000000 0.000000 1.920140 
# 
# From -- ./inp_files/1428.got.cif
#   From: 2010.03.12/outbox.cif.g09.slc.cpg/sg57_1_cif.got.tgz:1428.got - 2010.04.16 15:48:40.
