data_PCOD8234752
_publ_section_title
;
Structure prediction by ZEFSAII (Michael W. Deem and Ramdas Pophale) SiO2 
 PCOD8234752
Probable space group: P B C M
;
_chemical_formula_sum "Si O2"
_cell_formula_units_Z 40
_cell_length_a 7.772278
_cell_length_b 28.226042
_cell_length_c 8.945143
_cell_angle_alpha 90.000000
_cell_angle_beta 90.000000
_cell_angle_gamma 90.000000
_cell_volume 1962.391243
_symmetry_space_group_name_H-M "P B C M"
_symmetry_group_IT_number 57
_symmetry_cell_setting 'orthorhombic'
loop_
_space_group_symop_operation_xyz
x,y,z
-x,-y,1/2+z
x,1/2-y,-z
-x,1/2+y,1/2-z
-x,-y,-z
x,y,1/2-z
-x,1/2+y,z
x,1/2-y,1/2+z
loop_
_atom_site_type_symbol
_atom_site_label
_atom_site_fract_x
_atom_site_fract_y
_atom_site_fract_z
Si Si1 0.417659 0.644871 0.579009
Si Si2 0.929404 0.354101 0.579015
Si Si3 0.759807 0.801011 0.072857
Si Si4 0.424914 0.454248 0.421728
Si Si5 0.924301 0.545723 0.421338
O O1 0.378503 0.658486 0.750000
O O2 0.257738 0.661588 0.479066
O O3 0.588301 0.671406 0.521733
O O4 0.440744 0.588452 0.563084
O O5 0.949768 0.337579 0.750000
O O6 0.073972 0.329178 0.481268
O O7 0.943227 0.410910 0.564599
O O8 0.769702 0.796619 0.250000
O O9 0.756080 0.750000 0.000000
O O10 0.500000 0.500000 0.500000
O O11 0.385348 0.466344 0.250000
O O12 0.250171 0.438041 0.499941
O O13 0.885438 0.532882 0.250000
O O14 0.000000 0.500000 0.500000
#
# Coordination Sequence:
#
# PCOD8234752 Si02
#       5
#     8   8   8   8   8
#     4  10  23  42  65  92 128 172 213 263 323 383
#     4  11  24  41  65  96 130 170 214 267 321 381
#     4  11  24  45  70  96 127 167 214 268 326 385
#     4  11  22  38  60  90 127 171 216 264 321 381
#     4  11  23  38  59  90 128 172 218 266 321 381
#
# _framework density 20.383296000000001
#
# number of rings (size 3 to 8) (size 9 to 14) (size 15 to 20)
#    0.000    1.200    2.000    3.600    0.000    9.600 
#    0.000    2.000    0.000    0.000    0.000    0.000 
#    0.000    0.000    0.000    0.000    0.000    0.000 
#
# Total GULP energy -496225.440257 kJ/mol
# GULP energy per Si atom -12405.636006 kJ/mol
# Density = 2.033690 g / cm^3
# Si number density = 20.383296 Si / 1000 Ang^3
#
#
#
# Elastic Constant Matrix: (Units=GPa)
#
#
# Indices 1 2 3 4 5 6 
#
# 1 145.7979 38.6427 65.5031 0.0000 0.0000 0.0000
# 2 38.6427 102.8992 49.0071 0.0000 0.0000 0.0000
# 3 65.5031 49.0071 132.7890 0.0000 0.0000 0.0000
# 4 0.0000 0.0000 0.0000 35.5240 0.0000 0.0000
# 5 0.0000 0.0000 0.0000 0.0000 38.9998 0.0000
# 6 0.0000 0.0000 0.0000 0.0000 0.0000 26.0151
#
#
#
# Elastic Compliance Matrix: (Units=1/GPa)
#
#
# Indices 1 2 3 4 5 6 
#
# 1 0.009008 -0.001537 -0.003876 0.000000 0.000000 0.000000
# 2 -0.001537 0.012053 -0.003690 0.000000 0.000000 0.000000
# 3 -0.003876 -0.003690 0.010805 0.000000 0.000000 0.000000
# 4 0.000000 0.000000 0.000000 0.028150 0.000000 0.000000
# 5 0.000000 0.000000 0.000000 0.000000 0.025641 0.000000
# 6 0.000000 0.000000 0.000000 0.000000 0.000000 0.038439
#
#
# Mechanical properties :
#
#
# Convention : Reuss Voigt Hill
#
# Bulk Modulus (GPa) = 73.21158 76.42132 74.81645
# Shear Modulus (GPa) = 34.04728 35.32998 34.68863
#
# Velocity S-wave (km/s) = 4.09143 4.16779 4.12978
# Velocity P-wave (km/s) = 7.63643 7.79321 7.71522
#
# Compressibility (1/GPa) = 0.01365904
#
# Stress axis : x y z
#
# Youngs Moduli (GPa) = 111.01794 82.96807 92.55187
#
# Poissons Ratio (x) = 0.12749 0.35875
# Poissons Ratio (y) = 0.17059 0.34154
# Poissons Ratio (z) = 0.43033 0.30617
#
# Static dielectric constant tensor:
#      x y z
#    x 3.810700 0.000000 0.000000 
#    y 0.000000 3.695220 0.000000 
#    z 0.000000 0.000000 3.840710 
# 
# 
# High freq. dielectric constant tensor:
#      x y z
#    x 1.805180 0.000000 0.000000 
#    y 0.000000 1.796600 0.000000 
#    z 0.000000 0.000000 1.808510 
# 
# From -- ./inp_files/1709.got.cif
#   From: 2010.03.12/outbox.cif.g09.slc.cpg/sg57_1_cif.got.tgz:1709.got - 2010.04.16 15:48:40.
