data_PCOD8234809
_publ_section_title
;
Structure prediction by ZEFSAII (Michael W. Deem and Ramdas Pophale) SiO2 
 PCOD8234809
Probable space group: P B C M
;
_chemical_formula_sum "Si O2"
_cell_formula_units_Z 36
_cell_length_a 8.484569
_cell_length_b 19.851952
_cell_length_c 10.248523
_cell_angle_alpha 90.000000
_cell_angle_beta 90.000000
_cell_angle_gamma 90.000000
_cell_volume 1726.212601
_symmetry_space_group_name_H-M "P B C M"
_symmetry_group_IT_number 57
_symmetry_cell_setting 'orthorhombic'
loop_
_space_group_symop_operation_xyz
x,y,z
-x,-y,1/2+z
x,1/2-y,-z
-x,1/2+y,1/2-z
-x,-y,-z
x,y,1/2-z
-x,1/2+y,z
x,1/2-y,1/2+z
loop_
_atom_site_type_symbol
_atom_site_label
_atom_site_fract_x
_atom_site_fract_y
_atom_site_fract_z
Si Si1 0.201634 0.644477 0.104682
Si Si2 0.518437 0.172941 0.250000
Si Si3 0.813982 0.001503 0.006060
Si Si4 0.960743 0.750000 0.500000
Si Si5 0.663318 0.932150 0.250000
Si Si6 0.371364 0.026936 0.250000
Si Si7 0.247901 0.219027 0.750000
O O1 0.138092 0.624466 0.250000
O O2 0.368526 0.684540 0.122438
O O3 0.241156 0.578137 0.022816
O O4 0.069974 0.686931 0.032079
O O5 0.471021 0.094831 0.250000
O O6 0.372538 0.221273 0.250000
O O7 0.757029 0.954776 0.122884
O O8 0.740437 0.972839 0.874721
O O9 0.000000 0.000000 0.000000
O O10 0.857001 0.773157 0.378381
O O11 0.657836 0.851015 0.250000
O O12 0.487473 0.962542 0.250000
#
# Coordination Sequence:
#
# PCOD8234809 Si02
#       7
#     8   4   8   4   4   4   4
#     4  10  23  48  70  98 143 192 227 281 359 424
#     4  10  25  47  70 103 146 193 228 287 371 418
#     4  12  25  44  74 104 141 183 237 295 353 416
#     4  12  26  48  74 104 150 180 244 286 352 424
#     4  12  25  47  67 107 143 177 244 289 351 423
#     4  12  27  43  74 105 143 183 238 298 352 419
#     4  12  29  43  73 111 136 189 234 306 340 418
#
# _framework density 20.854906
#
# number of rings (size 3 to 8) (size 9 to 14) (size 15 to 20)
#    0.667    0.000    4.444    2.667    6.222    3.556 
#    0.000    0.000    0.000    0.000    0.000    0.000 
#    0.000    0.000    0.000    0.000    0.000    0.000 
#
# Total GULP energy -446347.920083 kJ/mol
# GULP energy per Si atom -12398.553336 kJ/mol
# Density = 2.080744 g / cm^3
# Si number density = 20.854906 Si / 1000 Ang^3
#
#
#
# Elastic Constant Matrix: (Units=GPa)
#
#
# Indices 1 2 3 4 5 6 
#
# 1 140.8285 33.1243 60.6993 0.0000 0.0000 0.0000
# 2 33.1243 110.2918 28.2086 0.0000 0.0000 0.0000
# 3 60.6993 28.2086 148.6510 0.0000 0.0000 0.0000
# 4 0.0000 0.0000 0.0000 24.8054 0.0000 0.0000
# 5 0.0000 0.0000 0.0000 0.0000 46.4073 0.0000
# 6 0.0000 0.0000 0.0000 0.0000 0.0000 43.5902
#
#
#
# Elastic Compliance Matrix: (Units=1/GPa)
#
#
# Indices 1 2 3 4 5 6 
#
# 1 0.008961 -0.001845 -0.003309 0.000000 0.000000 0.000000
# 2 -0.001845 0.009909 -0.001127 0.000000 0.000000 0.000000
# 3 -0.003309 -0.001127 0.008292 0.000000 0.000000 0.000000
# 4 0.000000 0.000000 0.000000 0.040314 0.000000 0.000000
# 5 0.000000 0.000000 0.000000 0.000000 0.021548 0.000000
# 6 0.000000 0.000000 0.000000 0.000000 0.000000 0.022941
#
#
# Mechanical properties :
#
#
# Convention : Reuss Voigt Hill
#
# Bulk Modulus (GPa) = 68.49107 71.53729 70.01418
# Shear Modulus (GPa) = 38.64157 41.47653 40.05905
#
# Velocity S-wave (km/s) = 4.30918 4.46445 4.38750
# Velocity P-wave (km/s) = 7.59419 7.80717 7.70142
#
# Compressibility (1/GPa) = 0.01460044
#
# Stress axis : x y z
#
# Youngs Moduli (GPa) = 111.59450 100.91612 120.59517
#
# Poissons Ratio (x) = 0.18619 0.39905
# Poissons Ratio (y) = 0.20589 0.13592
# Poissons Ratio (z) = 0.36926 0.11374
#
# Static dielectric constant tensor:
#      x y z
#    x 3.864500 0.000000 0.000000 
#    y 0.000000 3.765020 0.000000 
#    z 0.000000 0.000000 3.870870 
# 
# 
# High freq. dielectric constant tensor:
#      x y z
#    x 1.831250 0.000000 0.000000 
#    y 0.000000 1.819260 0.000000 
#    z 0.000000 0.000000 1.823780 
# 
# From -- ./inp_files/1381.got.cif
#   From: 2010.03.12/outbox.cif.g09.slc.cpg/sg57_1_cif.got.tgz:1381.got - 2010.04.16 15:48:40.
