data_PCOD8234330
_publ_section_title
;
Structure prediction by ZEFSAII (Michael W. Deem and Ramdas Pophale) SiO2 
 PCOD8234330
Probable space group: P B C M
;
_chemical_formula_sum "Si O2"
_cell_formula_units_Z 56
_cell_length_a 13.500874
_cell_length_b 9.492098
_cell_length_c 22.186426
_cell_angle_alpha 90.000000
_cell_angle_beta 90.000000
_cell_angle_gamma 90.000000
_cell_volume 2843.226414
_symmetry_space_group_name_H-M "P B C M"
_symmetry_group_IT_number 57
_symmetry_cell_setting 'orthorhombic'
loop_
_space_group_symop_operation_xyz
x,y,z
-x,-y,1/2+z
x,1/2-y,-z
-x,1/2+y,1/2-z
-x,-y,-z
x,y,1/2-z
-x,1/2+y,z
x,1/2-y,1/2+z
loop_
_atom_site_type_symbol
_atom_site_label
_atom_site_fract_x
_atom_site_fract_y
_atom_site_fract_z
Si Si1 0.597257 0.192469 0.435471
Si Si2 0.298383 0.932183 0.129815
Si Si3 0.901721 0.335558 0.319338
Si Si4 0.602080 0.075460 0.750000
Si Si5 0.397268 0.585088 0.250000
Si Si6 0.906150 0.009078 0.180714
Si Si7 0.700210 0.537700 0.868729
Si Si8 0.365864 0.304237 0.566349
O O1 0.627364 0.250000 0.500000
O O2 0.626565 0.307182 0.386359
O O3 0.481476 0.156304 0.430546
O O4 0.660828 0.051489 0.425656
O O5 0.186611 0.876482 0.135586
O O6 0.337346 0.985727 0.193772
O O7 0.303151 0.055601 0.080278
O O8 0.870428 0.365718 0.250000
O O9 0.928560 0.173075 0.328038
O O10 0.996292 0.425601 0.338776
O O11 0.591485 0.245725 0.750000
O O12 0.498739 0.997324 0.750000
O O13 0.337939 0.536598 0.308454
O O14 0.877983 0.974418 0.250000
O O15 0.818960 0.958967 0.136093
O O16 0.659702 0.693909 0.880644
O O17 0.335800 0.250000 0.500000
#
# Coordination Sequence:
#
# PCOD8234330 Si02
#       8
#     8   8   8   4   4   8   8   8
#     4  11  22  41  66  89 120 175 221 254 306 368
#     4  12  23  40  64  91 131 166 204 265 317 372
#     4  10  21  40  63  92 125 161 205 254 315 385
#     4  12  24  38  59  94 134 167 200 253 325 391
#     4  12  24  38  59  94 134 167 200 253 325 391
#     4  10  21  40  63  92 125 161 205 254 315 385
#     4  12  23  40  64  91 131 166 204 265 317 372
#     4  11  26  43  62  93 128 169 225 262 292 368
#
# _framework density 19.695934999999999
#
# number of rings (size 3 to 8) (size 9 to 14) (size 15 to 20)
#    0.000    0.857    4.286    3.429    4.000    2.286 
#    0.000    0.000    0.000    5.143    0.000    0.000 
#    0.000    0.000    0.000    0.000    0.000    0.000 
#
# Total GULP energy -694575.259033 kJ/mol
# GULP energy per Si atom -12403.129626 kJ/mol
# Density = 1.965111 g / cm^3
# Si number density = 19.695935 Si / 1000 Ang^3
#
#
#
# Elastic Constant Matrix: (Units=GPa)
#
#
# Indices 1 2 3 4 5 6 
#
# 1 88.6525 23.2088 30.1749 0.0000 0.0000 0.0000
# 2 23.2088 76.7940 8.0860 0.0000 0.0000 0.0000
# 3 30.1749 8.0860 59.8597 0.0000 0.0000 0.0000
# 4 0.0000 0.0000 0.0000 40.5926 0.0000 0.0000
# 5 0.0000 0.0000 0.0000 0.0000 24.3538 0.0000
# 6 0.0000 0.0000 0.0000 0.0000 0.0000 34.4250
#
#
#
# Elastic Compliance Matrix: (Units=1/GPa)
#
#
# Indices 1 2 3 4 5 6 
#
# 1 0.014576 -0.003684 -0.006850 0.000000 0.000000 0.000000
# 2 -0.003684 0.014141 -0.000053 0.000000 0.000000 0.000000
# 3 -0.006850 -0.000053 0.020166 0.000000 0.000000 0.000000
# 4 0.000000 0.000000 0.000000 0.024635 0.000000 0.000000
# 5 0.000000 0.000000 0.000000 0.000000 0.041061 0.000000
# 6 0.000000 0.000000 0.000000 0.000000 0.000000 0.029049
#
#
# Mechanical properties :
#
#
# Convention : Reuss Voigt Hill
#
# Bulk Modulus (GPa) = 36.08987 38.69394 37.39191
# Shear Modulus (GPa) = 28.72935 30.79674 29.76304
#
# Velocity S-wave (km/s) = 3.82336 3.95854 3.89154
# Velocity P-wave (km/s) = 6.15257 6.37037 6.26242
#
# Compressibility (1/GPa) = 0.02770861
#
# Stress axis : x y z
#
# Youngs Moduli (GPa) = 68.60604 70.71731 49.58853
#
# Poissons Ratio (x) = 0.26052 0.33968
# Poissons Ratio (y) = 0.25274 0.00264
# Poissons Ratio (z) = 0.46995 0.00376
#
# Static dielectric constant tensor:
#      x y z
#    x 3.566890 0.000000 0.000000 
#    y 0.000000 3.723160 0.000000 
#    z 0.000000 0.000000 3.633040 
# 
# 
# High freq. dielectric constant tensor:
#      x y z
#    x 1.761170 0.000000 0.000000 
#    y 0.000000 1.779370 0.000000 
#    z 0.000000 0.000000 1.759160 
# 
# From -- ./inp_files/25426.got.cif
#   From: 2010.03.12/outbox.cif.g09.slc.cpg/sg57_13_cif.got.tgz:25426.got - 2010.04.16 15:48:40.
