data_PCOD8234460
_publ_section_title
;
Structure prediction by ZEFSAII (Michael W. Deem and Ramdas Pophale) SiO2 
 PCOD8234460
Probable space group: P B C M
;
_chemical_formula_sum "Si O2"
_cell_formula_units_Z 48
_cell_length_a 11.047303
_cell_length_b 11.597831
_cell_length_c 18.321955
_cell_angle_alpha 90.000000
_cell_angle_beta 90.000000
_cell_angle_gamma 90.000000
_cell_volume 2347.495963
_symmetry_space_group_name_H-M "P B C M"
_symmetry_group_IT_number 57
_symmetry_cell_setting 'orthorhombic'
loop_
_space_group_symop_operation_xyz
x,y,z
-x,-y,1/2+z
x,1/2-y,-z
-x,1/2+y,1/2-z
-x,-y,-z
x,y,1/2-z
-x,1/2+y,z
x,1/2-y,1/2+z
loop_
_atom_site_type_symbol
_atom_site_label
_atom_site_fract_x
_atom_site_fract_y
_atom_site_fract_z
Si Si1 0.192052 0.306146 0.427080
Si Si2 0.705717 0.368032 0.667569
Si Si3 0.372164 0.881968 0.334156
Si Si4 0.424213 0.042633 0.568679
Si Si5 0.940953 0.510610 0.834264
Si Si6 0.198272 0.086420 0.164240
O O1 0.134545 0.250000 0.500000
O O2 0.306227 0.383411 0.452369
O O3 0.091039 0.381077 0.385450
O O4 0.235778 0.205500 0.373228
O O5 0.661688 0.393993 0.750000
O O6 0.706618 0.232196 0.651427
O O7 0.612785 0.429646 0.613718
O O8 0.841850 0.411121 0.656179
O O9 0.409039 0.892913 0.250000
O O10 0.493803 0.875309 0.381085
O O11 0.293799 0.990416 0.360541
O O12 0.500000 0.000000 0.500000
O O13 0.949136 0.553053 0.750000
O O14 0.066334 0.456375 0.861282
O O15 0.200780 0.107154 0.250000
#
# Coordination Sequence:
#
# PCOD8234460 Si02
#       6
#     8   8   8   8   8   8
#     4  11  24  40  61  89 124 163 203 250 303 363
#     4   9  20  39  61  88 118 154 200 249 305 360
#     4  10  22  37  60  90 120 153 199 252 302 358
#     4  11  24  40  61  84 120 165 204 247 299 362
#     4   9  20  40  66  91 120 157 200 250 306 364
#     4  10  22  39  65  95 122 154 201 255 305 362
#
# _framework density 20.447320000000001
#
# number of rings (size 3 to 8) (size 9 to 14) (size 15 to 20)
#    0.000    2.000    0.000    2.000    7.000    2.667 
#    0.000    0.000    0.000    0.000    0.000    0.000 
#    0.000    0.000    0.000    0.000    0.000    0.000 
#
# Total GULP energy -595360.901623 kJ/mol
# GULP energy per Si atom -12403.352117 kJ/mol
# Density = 2.040078 g / cm^3
# Si number density = 20.447320 Si / 1000 Ang^3
#
#
#
# Elastic Constant Matrix: (Units=GPa)
#
#
# Indices 1 2 3 4 5 6 
#
# 1 61.2850 6.4735 26.5152 0.0000 0.0000 0.0000
# 2 6.4735 101.9941 35.3078 0.0000 0.0000 0.0000
# 3 26.5152 35.3078 70.1436 0.0000 0.0000 0.0000
# 4 0.0000 0.0000 0.0000 31.1848 0.0000 0.0000
# 5 0.0000 0.0000 0.0000 0.0000 25.9259 0.0000
# 6 0.0000 0.0000 0.0000 0.0000 0.0000 24.2230
#
#
#
# Elastic Compliance Matrix: (Units=1/GPa)
#
#
# Indices 1 2 3 4 5 6 
#
# 1 0.019723 0.001610 -0.008266 0.000000 0.000000 0.000000
# 2 0.001610 0.012005 -0.006651 0.000000 0.000000 0.000000
# 3 -0.008266 -0.006651 0.020729 0.000000 0.000000 0.000000
# 4 0.000000 0.000000 0.000000 0.032067 0.000000 0.000000
# 5 0.000000 0.000000 0.000000 0.000000 0.038572 0.000000
# 6 0.000000 0.000000 0.000000 0.000000 0.000000 0.041283
#
#
# Mechanical properties :
#
#
# Convention : Reuss Voigt Hill
#
# Bulk Modulus (GPa) = 38.69633 41.11285 39.90459
# Shear Modulus (GPa) = 25.04908 27.27516 26.16212
#
# Velocity S-wave (km/s) = 3.50387 3.65625 3.58087
# Velocity P-wave (km/s) = 5.94437 6.16236 6.05434
#
# Compressibility (1/GPa) = 0.02584224
#
# Stress axis : x y z
#
# Youngs Moduli (GPa) = 50.70098 83.29974 48.24131
#
# Poissons Ratio (x) = -0.13408 0.39876
# Poissons Ratio (y) = -0.08161 0.32087
# Poissons Ratio (z) = 0.41909 0.55405
#
# Static dielectric constant tensor:
#      x y z
#    x 3.654800 0.000000 0.000000 
#    y 0.000000 3.729600 0.000000 
#    z 0.000000 0.000000 3.722100 
# 
# 
# High freq. dielectric constant tensor:
#      x y z
#    x 1.794770 0.000000 0.000000 
#    y 0.000000 1.807360 0.000000 
#    z 0.000000 0.000000 1.798460 
# 
# From -- ./inp_files/21813.got.cif
#   From: 2010.03.12/outbox.cif.g09.slc.cpg/sg57_11_cif.got.tgz:21813.got - 2010.04.16 15:48:40.
