data_PCOD8234018
_publ_section_title
;
Structure prediction by ZEFSAII (Michael W. Deem and Ramdas Pophale) SiO2 
 PCOD8234018
Probable space group: P B C M
;
_chemical_formula_sum "Si O2"
_cell_formula_units_Z 48
_cell_length_a 29.320588
_cell_length_b 5.291032
_cell_length_c 13.198617
_cell_angle_alpha 90.000000
_cell_angle_beta 90.000000
_cell_angle_gamma 90.000000
_cell_volume 2047.582882
_symmetry_space_group_name_H-M "P B C M"
_symmetry_group_IT_number 57
_symmetry_cell_setting 'orthorhombic'
loop_
_space_group_symop_operation_xyz
x,y,z
-x,-y,1/2+z
x,1/2-y,-z
-x,1/2+y,1/2-z
-x,-y,-z
x,y,1/2-z
-x,1/2+y,z
x,1/2-y,1/2+z
loop_
_atom_site_type_symbol
_atom_site_label
_atom_site_fract_x
_atom_site_fract_y
_atom_site_fract_z
Si Si1 0.601781 0.996480 0.750000
Si Si2 0.726822 0.005959 0.436135
Si Si3 0.339690 0.998272 0.750000
Si Si4 0.828656 0.404921 0.869047
Si Si5 0.019139 0.478512 0.611449
Si Si6 0.480815 0.505984 0.884842
Si Si7 0.874539 0.905033 0.869140
O O1 0.623402 0.719748 0.750000
O O2 0.638378 0.220127 0.750000
O O3 0.572877 0.019292 0.643843
O O4 0.711431 0.250000 0.500000
O O5 0.690584 0.966130 0.348649
O O6 0.728140 0.750000 0.500000
O O7 0.775722 0.058553 0.388100
O O8 0.838411 0.395808 0.750000
O O9 0.844937 0.136324 0.916870
O O10 0.858109 0.637206 0.916934
O O11 0.072956 0.451293 0.608263
O O12 0.000000 0.500000 0.500000
O O13 0.003764 0.737018 0.667970
O O14 0.498119 0.251656 0.831171
O O15 0.500000 0.500000 0.000000
O O16 0.865143 0.895104 0.750000
#
# Coordination Sequence:
#
# PCOD8234018 Si02
#       7
#     4   8   4   8   8   8   8
#     4  12  24  45  74 108 148 206 250 295 378 424
#     4  12  26  50  74 108 145 192 239 295 382 430
#     4  12  28  51  74 110 158 198 244 309 354 462
#     4  10  21  43  69  96 134 169 220 296 346 416
#     4  10  21  38  52  77 122 163 197 259 336 401
#     4  10  21  41  67 103 146 191 251 313 357 410
#     4  10  21  37  64  94 119 168 228 272 338 418
#
# _framework density 23.442274999999999
#
# number of rings (size 3 to 8) (size 9 to 14) (size 15 to 20)
#    0.000    1.333    0.833    4.500    0.000    0.667 
#   36.000    0.000    0.000    0.000    0.000    0.000 
#    0.000    0.000    0.000    0.000    0.000    0.000 
#
# Total GULP energy -594791.584217 kJ/mol
# GULP energy per Si atom -12391.491338 kJ/mol
# Density = 2.338892 g / cm^3
# Si number density = 23.442275 Si / 1000 Ang^3
#
#
#
# Elastic Constant Matrix: (Units=GPa)
#
#
# Indices 1 2 3 4 5 6 
#
# 1 137.4848 55.7576 20.3029 0.0000 0.0000 0.0000
# 2 55.7576 238.5241 30.8112 0.0000 0.0000 0.0000
# 3 20.3029 30.8112 64.8237 0.0000 0.0000 0.0000
# 4 0.0000 0.0000 0.0000 235.7646 0.0000 0.0000
# 5 0.0000 0.0000 0.0000 0.0000 -21.4368 0.0000
# 6 0.0000 0.0000 0.0000 0.0000 0.0000-2196.9678
#
#
#
# Elastic Compliance Matrix: (Units=1/GPa)
#
#
# Indices 1 2 3 4 5 6 
#
# 1 0.008222 -0.001693 -0.001770 0.000000 0.000000 0.000000
# 2 -0.001693 0.004815 -0.001758 0.000000 0.000000 0.000000
# 3 -0.001770 -0.001758 0.016817 0.000000 0.000000 0.000000
# 4 0.000000 0.000000 0.000000 0.004242 0.000000 0.000000
# 5 0.000000 0.000000 0.000000 0.000000 -0.046649 0.000000
# 6 0.000000 0.000000 0.000000 0.000000 0.000000 -0.000455
#
#
# Mechanical properties :
#
#
# Convention : Reuss Voigt Hill
#
# Bulk Modulus (GPa) = 51.52013 72.73069 62.12541
# Shear Modulus (GPa) = 1280.34714 -374.26395 453.04160
#
# Velocity S-wave (km/s) = 23.39564 -12.64911 13.91682
# Velocity P-wave (km/s) = 27.41957 13.49965 16.87591
#
# Compressibility (1/GPa) = 0.01940989
#
# Stress axis : x y z
#
# Youngs Moduli (GPa) = 121.63015 207.66662 59.46463
#
# Poissons Ratio (x) = 0.35163 0.10527
# Poissons Ratio (y) = 0.20595 0.10457
# Poissons Ratio (z) = 0.21531 0.36518
#
# Static dielectric constant tensor:
#      x y z
#    x 3.957230 0.000000 0.000000 
#    y 0.000000 3.243280 0.000000 
#    z 0.000000 0.000000 4.286130 
# 
# 
# High freq. dielectric constant tensor:
#      x y z
#    x 1.916120 0.000000 0.000000 
#    y 0.000000 1.968200 0.000000 
#    z 0.000000 0.000000 1.951380 
# 
# From -- ./inp_files/19589.got.cif
#   From: 2010.03.12/outbox.cif.g09.slc.cpg/sg57_10_cif.got.tgz:19589.got - 2010.04.16 15:48:40.
