data_PCOD8234823
_publ_section_title
;
Structure prediction by ZEFSAII (Michael W. Deem and Ramdas Pophale) SiO2 
 PCOD8234823
Probable space group: P B C M
;
_chemical_formula_sum "Si O2"
_cell_formula_units_Z 48
_cell_length_a 7.998526
_cell_length_b 14.973692
_cell_length_c 18.759069
_cell_angle_alpha 90.000000
_cell_angle_beta 90.000000
_cell_angle_gamma 90.000000
_cell_volume 2246.726136
_symmetry_space_group_name_H-M "P B C M"
_symmetry_group_IT_number 57
_symmetry_cell_setting 'orthorhombic'
loop_
_space_group_symop_operation_xyz
x,y,z
-x,-y,1/2+z
x,1/2-y,-z
-x,1/2+y,1/2-z
-x,-y,-z
x,y,1/2-z
-x,1/2+y,z
x,1/2-y,1/2+z
loop_
_atom_site_type_symbol
_atom_site_label
_atom_site_fract_x
_atom_site_fract_y
_atom_site_fract_z
Si Si1 0.161063 0.627153 0.117116
Si Si2 0.228431 0.127146 0.099306
Si Si3 0.313780 0.817692 0.112208
Si Si4 0.510456 0.643439 0.750000
Si Si5 0.294335 0.539090 0.250000
Si Si6 0.174140 0.542453 0.522644
Si Si7 0.559851 0.750000 0.000000
Si Si8 0.380140 0.156358 0.250000
O O1 0.250245 0.720396 0.135280
O O2 0.178149 0.557443 0.181581
O O3 0.969270 0.645180 0.097406
O O4 0.255686 0.583041 0.049277
O O5 0.282622 0.122520 0.181051
O O6 0.281776 0.035699 0.059360
O O7 0.322240 0.204216 0.057771
O O8 0.394511 0.864900 0.180577
O O9 0.160932 0.878472 0.082115
O O10 0.446051 0.815835 0.047175
O O11 0.642974 0.562589 0.750000
O O12 0.610947 0.736325 0.750000
O O13 0.439531 0.612055 0.250000
O O14 0.000000 0.500000 0.500000
#
# Coordination Sequence:
#
# PCOD8234823 Si02
#       8
#     8   8   8   4   4   8   4   4
#     4  11  23  45  71  96 144 188 238 288 367 435
#     4  11  26  42  69 102 146 180 239 306 359 425
#     4  12  23  46  71 103 141 194 235 292 364 435
#     4  12  26  43  72 107 140 186 247 291 356 439
#     4  12  25  45  73  98 143 191 235 295 352 435
#     4  10  24  41  68 104 135 181 236 295 351 424
#     4  12  24  38  72 106 136 188 230 298 366 412
#     4  12  23  48  63 105 141 189 238 300 364 430
#
# _framework density 21.364421
#
# number of rings (size 3 to 8) (size 9 to 14) (size 15 to 20)
#    0.000    0.667    5.000    1.500    7.000    0.667 
#    3.000    0.833    0.000    0.000    0.000    0.000 
#    0.000    0.000    0.000    0.000    0.000    0.000 
#
# Total GULP energy -595106.975058 kJ/mol
# GULP energy per Si atom -12398.061980 kJ/mol
# Density = 2.131579 g / cm^3
# Si number density = 21.364421 Si / 1000 Ang^3
#
#
#
# Elastic Constant Matrix: (Units=GPa)
#
#
# Indices 1 2 3 4 5 6 
#
# 1 78.3062 24.7445 33.4134 0.0000 0.0000 0.0000
# 2 24.7445 105.2595 30.2503 0.0000 0.0000 0.0000
# 3 33.4134 30.2503 155.3017 0.0000 0.0000 0.0000
# 4 0.0000 0.0000 0.0000 42.9953 0.0000 0.0000
# 5 0.0000 0.0000 0.0000 0.0000 40.2675 0.0000
# 6 0.0000 0.0000 0.0000 0.0000 0.0000 36.2642
#
#
#
# Elastic Compliance Matrix: (Units=1/GPa)
#
#
# Indices 1 2 3 4 5 6 
#
# 1 0.014756 -0.002708 -0.002647 0.000000 0.000000 0.000000
# 2 -0.002708 0.010561 -0.001474 0.000000 0.000000 0.000000
# 3 -0.002647 -0.001474 0.007296 0.000000 0.000000 0.000000
# 4 0.000000 0.000000 0.000000 0.023258 0.000000 0.000000
# 5 0.000000 0.000000 0.000000 0.000000 0.024834 0.000000
# 6 0.000000 0.000000 0.000000 0.000000 0.000000 0.027575
#
#
# Mechanical properties :
#
#
# Convention : Reuss Voigt Hill
#
# Bulk Modulus (GPa) = 52.76245 57.29820 55.03033
# Shear Modulus (GPa) = 38.98432 40.60270 39.79351
#
# Velocity S-wave (km/s) = 4.27632 4.36418 4.32047
# Velocity P-wave (km/s) = 7.00946 7.22997 7.12057
#
# Compressibility (1/GPa) = 0.01895287
#
# Stress axis : x y z
#
# Youngs Moduli (GPa) = 67.77058 94.69106 137.06465
#
# Poissons Ratio (x) = 0.25642 0.36284
# Poissons Ratio (y) = 0.18352 0.20209
# Poissons Ratio (z) = 0.17940 0.13961
#
# Static dielectric constant tensor:
#      x y z
#    x 3.673860 0.000000 0.000000 
#    y 0.000000 4.068520 0.000000 
#    z 0.000000 0.000000 4.434300 
# 
# 
# High freq. dielectric constant tensor:
#      x y z
#    x 1.821050 0.000000 0.000000 
#    y 0.000000 1.844810 0.000000 
#    z 0.000000 0.000000 1.864650 
# 
# From -- ./inp_files/21046.got.cif
#   From: 2010.03.12/outbox.cif.g09.slc.cpg/sg57_11_cif.got.tgz:21046.got - 2010.04.16 15:48:40.
