data_PCOD8234669
_publ_section_title
;
Structure prediction by ZEFSAII (Michael W. Deem and Ramdas Pophale) SiO2 
 PCOD8234669
Probable space group: P B C M
;
_chemical_formula_sum "Si O2"
_cell_formula_units_Z 64
_cell_length_a 11.914249
_cell_length_b 30.854729
_cell_length_c 8.682239
_cell_angle_alpha 90.000000
_cell_angle_beta 90.000000
_cell_angle_gamma 90.000000
_cell_volume 3191.685902
_symmetry_space_group_name_H-M "P B C M"
_symmetry_group_IT_number 57
_symmetry_cell_setting 'orthorhombic'
loop_
_space_group_symop_operation_xyz
x,y,z
-x,-y,1/2+z
x,1/2-y,-z
-x,1/2+y,1/2-z
-x,-y,-z
x,y,1/2-z
-x,1/2+y,z
x,1/2-y,1/2+z
loop_
_atom_site_type_symbol
_atom_site_label
_atom_site_fract_x
_atom_site_fract_y
_atom_site_fract_z
Si Si1 0.001274 0.795381 0.931920
Si Si2 0.011126 0.953370 0.427217
Si Si3 0.463644 0.954647 0.567463
Si Si4 0.525839 0.293674 0.069442
Si Si5 0.133934 0.374047 0.069233
Si Si6 0.248053 0.821068 0.930261
Si Si7 0.604613 0.621053 0.930927
Si Si8 0.251362 0.586733 0.571374
O O1 0.997682 0.793246 0.750000
O O2 0.127793 0.804388 0.990792
O O3 0.958372 0.750000 0.000000
O O4 0.918679 0.832825 0.986604
O O5 0.983943 0.959353 0.250000
O O6 0.135150 0.936764 0.458789
O O7 0.923400 0.918136 0.495548
O O8 0.000000 0.000000 0.500000
O O9 0.446583 0.957171 0.750000
O O10 0.556246 0.918736 0.527316
O O11 0.347454 0.945491 0.482169
O O12 0.500000 0.000000 0.500000
O O13 0.517050 0.290493 0.250000
O O14 0.456934 0.335374 0.010499
O O15 0.471178 0.250000 0.000000
O O16 0.655507 0.295532 0.019743
O O17 0.109840 0.369310 0.250000
O O18 0.264738 0.375286 0.030620
O O19 0.263842 0.812999 0.750000
O O20 0.258936 0.871543 0.964913
O O21 0.582981 0.613179 0.750000
O O22 0.267208 0.599915 0.750000
#
# Coordination Sequence:
#
# PCOD8234669 Si02
#       8
#     8   8   8   8   8   8   8   8
#     4  11  24  40  62  92 125 163 208 258 311 370
#     4  10  23  40  63  93 126 165 206 254 308 367
#     4  12  26  43  66  94 127 166 209 258 309 368
#     4  11  23  39  62  90 124 163 204 257 311 370
#     4  10  22  43  65  89 123 165 208 255 311 367
#     4  11  22  38  62  94 126 162 206 255 314 370
#     4  10  23  43  65  91 125 165 209 258 311 367
#     4  11  22  40  65  95 128 164 205 254 314 369
#
# _framework density 20.052098000000001
#
# number of rings (size 3 to 8) (size 9 to 14) (size 15 to 20)
#    0.000    1.250    2.500    3.000    1.750    5.500 
#    0.000    1.250    0.000    0.000    0.000    0.000 
#    0.000    0.000    0.000    0.000    0.000    0.000 
#
# Total GULP energy -793894.471222 kJ/mol
# GULP energy per Si atom -12404.601113 kJ/mol
# Density = 2.000646 g / cm^3
# Si number density = 20.052098 Si / 1000 Ang^3
#
#
#
# Elastic Constant Matrix: (Units=GPa)
#
#
# Indices 1 2 3 4 5 6 
#
# 1 122.1934 55.8248 42.8604 0.0000 0.0000 0.0000
# 2 55.8248 160.0239 30.6432 0.0000 0.0000 0.0000
# 3 42.8604 30.6432 31.4756 0.0000 0.0000 0.0000
# 4 0.0000 0.0000 0.0000 39.8269 0.0000 0.0000
# 5 0.0000 0.0000 0.0000 0.0000 22.8736 0.0000
# 6 0.0000 0.0000 0.0000 0.0000 0.0000 25.6575
#
#
#
# Elastic Compliance Matrix: (Units=1/GPa)
#
#
# Indices 1 2 3 4 5 6 
#
# 1 0.016050 -0.001738 -0.020164 0.000000 0.000000 0.000000
# 2 -0.001738 0.007869 -0.005294 0.000000 0.000000 0.000000
# 3 -0.020164 -0.005294 0.064382 0.000000 0.000000 0.000000
# 4 0.000000 0.000000 0.000000 0.025109 0.000000 0.000000
# 5 0.000000 0.000000 0.000000 0.000000 0.043719 0.000000
# 6 0.000000 0.000000 0.000000 0.000000 0.000000 0.038975
#
#
# Mechanical properties :
#
#
# Convention : Reuss Voigt Hill
#
# Bulk Modulus (GPa) = 29.49045 63.59443 46.54244
# Shear Modulus (GPa) = 19.09856 29.96258 24.53057
#
# Velocity S-wave (km/s) = 3.08952 3.86973 3.50142
# Velocity P-wave (km/s) = 5.24077 7.19374 6.29347
#
# Compressibility (1/GPa) = 0.03390929
#
# Stress axis : x y z
#
# Youngs Moduli (GPa) = 62.30363 127.07736 15.53222
#
# Poissons Ratio (x) = 0.22086 0.31319
# Poissons Ratio (y) = 0.10829 0.08223
# Poissons Ratio (z) = 1.25628 0.67280
#
# Static dielectric constant tensor:
#      x y z
#    x 3.856990 0.000000 0.000000 
#    y 0.000000 3.787610 0.000000 
#    z 0.000000 0.000000 3.669290 
# 
# 
# High freq. dielectric constant tensor:
#      x y z
#    x 1.789280 0.000000 0.000000 
#    y 0.000000 1.799650 0.000000 
#    z 0.000000 0.000000 1.781460 
# 
# From -- ./inp_files/3825.got.cif
#   From: 2010.03.12/outbox.cif.g09.slc.cpg/sg57_2_cif.got.tgz:3825.got - 2010.04.16 15:48:40.
