data_PCOD8234307
_publ_section_title
;
Structure prediction by ZEFSAII (Michael W. Deem and Ramdas Pophale) SiO2 
 PCOD8234307
Probable space group: P B C M
;
_chemical_formula_sum "Si O2"
_cell_formula_units_Z 40
_cell_length_a 5.522846
_cell_length_b 9.958135
_cell_length_c 27.598589
_cell_angle_alpha 90.000000
_cell_angle_beta 90.000000
_cell_angle_gamma 90.000000
_cell_volume 1517.846390
_symmetry_space_group_name_H-M "P B C M"
_symmetry_group_IT_number 57
_symmetry_cell_setting 'orthorhombic'
loop_
_space_group_symop_operation_xyz
x,y,z
-x,-y,1/2+z
x,1/2-y,-z
-x,1/2+y,1/2-z
-x,-y,-z
x,y,1/2-z
-x,1/2+y,z
x,1/2-y,1/2+z
loop_
_atom_site_type_symbol
_atom_site_label
_atom_site_fract_x
_atom_site_fract_y
_atom_site_fract_z
Si Si1 0.461450 0.125197 0.964678
Si Si2 0.041073 0.526985 0.944024
Si Si3 0.567550 0.581174 0.307001
Si Si4 0.842663 0.776576 0.882093
Si Si5 0.342650 0.693213 0.857688
O O1 0.708982 0.110803 0.931739
O O2 0.204510 0.113892 0.932718
O O3 0.452799 0.250000 0.000000
O O4 0.500000 0.000000 0.000000
O O5 0.047657 0.383031 0.919389
O O6 0.000000 0.500000 0.000000
O O7 0.592965 0.571675 0.250000
O O8 0.804810 0.653574 0.329719
O O9 0.546829 0.431795 0.328452
O O10 0.336901 0.673769 0.322957
O O11 0.559812 0.730875 0.898062
O O12 0.060872 0.666244 0.874478
#
# Coordination Sequence:
#
# PCOD8234307 Si02
#       5
#     8   8   8   8   8
#     4  10  21  40  61  93 121 169 217 265 318 386
#     4  10  21  43  64  95 131 178 217 273 330 398
#     4  10  24  45  71  99 136 179 226 282 347 413
#     4  10  24  44  66 103 135 177 227 285 338 405
#     4  10  24  44  66 102 134 178 221 285 338 411
#
# _framework density 26.353124000000001
#
# number of rings (size 3 to 8) (size 9 to 14) (size 15 to 20)
#    1.200    0.800    0.000    2.400    2.800    1.600 
#   21.600    0.000    0.000    0.000    0.000    0.000 
#    0.000    0.000    0.000    0.000    0.000    0.000 
#
# Total GULP energy -495791.383607 kJ/mol
# GULP energy per Si atom -12394.784590 kJ/mol
# Density = 2.629314 g / cm^3
# Si number density = 26.353124 Si / 1000 Ang^3
#
#
#
# Elastic Constant Matrix: (Units=GPa)
#
#
# Indices 1 2 3 4 5 6 
#
# 1 211.2140 91.1035 91.9107 0.0000 0.0000 0.0000
# 2 91.1035 152.4233 32.8205 0.0000 0.0000 0.0000
# 3 91.9107 32.8205 117.8991 0.0000 0.0000 0.0000
# 4 0.0000 0.0000 0.0000 51.4760 0.0000 0.0000
# 5 0.0000 0.0000 0.0000 0.0000 37.5635 0.0000
# 6 0.0000 0.0000 0.0000 0.0000 0.0000 57.2173
#
#
#
# Elastic Compliance Matrix: (Units=1/GPa)
#
#
# Indices 1 2 3 4 5 6 
#
# 1 0.009124 -0.004172 -0.005951 0.000000 0.000000 0.000000
# 2 -0.004172 0.008887 0.000778 0.000000 0.000000 0.000000
# 3 -0.005951 0.000778 0.012905 0.000000 0.000000 0.000000
# 4 0.000000 0.000000 0.000000 0.019427 0.000000 0.000000
# 5 0.000000 0.000000 0.000000 0.000000 0.026622 0.000000
# 6 0.000000 0.000000 0.000000 0.000000 0.000000 0.017477
#
#
# Mechanical properties :
#
#
# Convention : Reuss Voigt Hill
#
# Bulk Modulus (GPa) = 81.79612 101.46732 91.63172
# Shear Modulus (GPa) = 42.66052 46.96482 44.81267
#
# Velocity S-wave (km/s) = 4.02780 4.22611 4.12815
# Velocity P-wave (km/s) = 7.26201 7.89936 7.58738
#
# Compressibility (1/GPa) = 0.01222552
#
# Stress axis : x y z
#
# Youngs Moduli (GPa) = 109.60543 112.52976 77.49224
#
# Poissons Ratio (x) = 0.46945 0.46117
# Poissons Ratio (y) = 0.45725 -0.06032
# Poissons Ratio (z) = 0.65228 -0.08759
#
# Static dielectric constant tensor:
#      x y z
#    x 3.994970 0.000000 0.000000 
#    y 0.000000 5.413800 0.000000 
#    z 0.000000 0.000000 4.835030 
# 
# 
# High freq. dielectric constant tensor:
#      x y z
#    x 2.100430 0.000000 0.000000 
#    y 0.000000 2.086660 0.000000 
#    z 0.000000 0.000000 2.080960 
# 
# From -- ./inp_files/29063.got.cif
#   From: 2010.03.12/outbox.cif.g09.slc.cpg/sg57_15_cif.got.tgz:29063.got - 2010.04.16 15:48:40.
