data_PCOD8234738
_publ_section_title
;
Structure prediction by ZEFSAII (Michael W. Deem and Ramdas Pophale) SiO2 
 PCOD8234738
Probable space group: P B C M
;
_chemical_formula_sum "Si O2"
_cell_formula_units_Z 40
_cell_length_a 5.090268
_cell_length_b 24.155881
_cell_length_c 15.375222
_cell_angle_alpha 90.000000
_cell_angle_beta 90.000000
_cell_angle_gamma 90.000000
_cell_volume 1890.535884
_symmetry_space_group_name_H-M "P B C M"
_symmetry_group_IT_number 57
_symmetry_cell_setting 'orthorhombic'
loop_
_space_group_symop_operation_xyz
x,y,z
-x,-y,1/2+z
x,1/2-y,-z
-x,1/2+y,1/2-z
-x,-y,-z
x,y,1/2-z
-x,1/2+y,z
x,1/2-y,1/2+z
loop_
_atom_site_type_symbol
_atom_site_label
_atom_site_fract_x
_atom_site_fract_y
_atom_site_fract_z
Si Si1 0.761033 0.836474 0.650496
Si Si2 0.265601 0.470084 0.395339
Si Si3 0.725060 0.881427 0.250000
Si Si4 0.775744 0.191186 0.750000
Si Si5 0.734770 0.225026 0.406176
Si Si6 0.235613 0.459267 0.596095
O O1 0.727810 0.817168 0.750000
O O2 0.544256 0.805728 0.592541
O O3 0.725484 0.902097 0.645822
O O4 0.046618 0.820567 0.615490
O O5 0.223443 0.417128 0.335702
O O6 0.254289 0.448043 0.493455
O O7 0.543046 0.497891 0.372953
O O8 0.043479 0.515594 0.377344
O O9 0.428554 0.859248 0.250000
O O10 0.926994 0.830689 0.250000
O O11 0.733075 0.226288 0.663551
O O12 0.792147 0.250000 0.500000
#
# Coordination Sequence:
#
# PCOD8234738 Si02
#       6
#     8   8   4   4   8   8
#     4  12  24  44  70 101 130 173 219 277 330 390
#     4  10  23  42  61  97 126 169 212 262 310 398
#     4  12  26  40  71  88 133 168 218 258 334 376
#     4  12  26  46  63  98 127 172 220 282 308 394
#     4  12  27  46  70  95 135 174 225 272 333 389
#     4  10  23  41  66  91 133 163 213 262 322 384
#
# _framework density 21.15802
#
# number of rings (size 3 to 8) (size 9 to 14) (size 15 to 20)
#    0.000    0.800    2.000    4.200    8.400    0.000 
#    0.000    0.000    0.000    0.000    0.000    0.000 
#    0.000    0.000    0.000    0.000    0.000    0.000 
#
# Total GULP energy -496394.499833 kJ/mol
# GULP energy per Si atom -12409.862496 kJ/mol
# Density = 2.110986 g / cm^3
# Si number density = 21.158020 Si / 1000 Ang^3
#
#
#
# Elastic Constant Matrix: (Units=GPa)
#
#
# Indices 1 2 3 4 5 6 
#
# 1 95.1316 15.6531 20.6135 0.0000 0.0000 0.0000
# 2 15.6531 86.4533 38.0520 0.0000 0.0000 0.0000
# 3 20.6135 38.0520 97.0614 0.0000 0.0000 0.0000
# 4 0.0000 0.0000 0.0000 23.4530 0.0000 0.0000
# 5 0.0000 0.0000 0.0000 0.0000 7.9206 0.0000
# 6 0.0000 0.0000 0.0000 0.0000 0.0000 35.5090
#
#
#
# Elastic Compliance Matrix: (Units=1/GPa)
#
#
# Indices 1 2 3 4 5 6 
#
# 1 0.011117 -0.001177 -0.001900 0.000000 0.000000 0.000000
# 2 -0.001177 0.014104 -0.005279 0.000000 0.000000 0.000000
# 3 -0.001900 -0.005279 0.012776 0.000000 0.000000 0.000000
# 4 0.000000 0.000000 0.000000 0.042638 0.000000 0.000000
# 5 0.000000 0.000000 0.000000 0.000000 0.126253 0.000000
# 6 0.000000 0.000000 0.000000 0.000000 0.000000 0.028162
#
#
# Mechanical properties :
#
#
# Convention : Reuss Voigt Hill
#
# Bulk Modulus (GPa) = 46.98096 47.47594 47.22845
# Shear Modulus (GPa) = 19.31574 26.99838 23.15706
#
# Velocity S-wave (km/s) = 3.02475 3.57604 3.31188
# Velocity P-wave (km/s) = 5.86957 6.28794 6.08235
#
# Compressibility (1/GPa) = 0.02128522
#
# Stress axis : x y z
#
# Youngs Moduli (GPa) = 89.95231 70.90368 78.27240
#
# Poissons Ratio (x) = 0.08343 0.14869
# Poissons Ratio (y) = 0.10585 0.41322
# Poissons Ratio (z) = 0.17088 0.37432
#
# Static dielectric constant tensor:
#      x y z
#    x 4.013940 0.000000 0.000000 
#    y 0.000000 3.694940 0.000000 
#    z 0.000000 0.000000 3.868160 
# 
# 
# High freq. dielectric constant tensor:
#      x y z
#    x 1.847830 0.000000 0.000000 
#    y 0.000000 1.835420 0.000000 
#    z 0.000000 0.000000 1.835470 
# 
# From -- ./inp_files/14989.got.cif
#   From: 2010.03.12/outbox.cif.g09.slc.cpg/sg57_8_cif.got.tgz:14989.got - 2010.04.16 15:48:40.
