data_PCOD8234579
_publ_section_title
;
Structure prediction by ZEFSAII (Michael W. Deem and Ramdas Pophale) SiO2 
 PCOD8234579
Probable space group: P B C M
;
_chemical_formula_sum "Si O2"
_cell_formula_units_Z 64
_cell_length_a 20.325283
_cell_length_b 9.885284
_cell_length_c 16.363591
_cell_angle_alpha 90.000000
_cell_angle_beta 90.000000
_cell_angle_gamma 90.000000
_cell_volume 3287.792256
_symmetry_space_group_name_H-M "P B C M"
_symmetry_group_IT_number 57
_symmetry_cell_setting 'orthorhombic'
loop_
_space_group_symop_operation_xyz
x,y,z
-x,-y,1/2+z
x,1/2-y,-z
-x,1/2+y,1/2-z
-x,-y,-z
x,y,1/2-z
-x,1/2+y,z
x,1/2-y,1/2+z
loop_
_atom_site_type_symbol
_atom_site_label
_atom_site_fract_x
_atom_site_fract_y
_atom_site_fract_z
Si Si1 0.175803 0.883226 0.046462
Si Si2 0.942083 0.493229 0.347578
Si Si3 0.186247 0.363414 0.064094
Si Si4 0.559159 0.412957 0.347194
Si Si5 0.549580 0.788144 0.652551
Si Si6 0.706737 0.075872 0.656128
Si Si7 0.058360 0.198794 0.654112
Si Si8 0.695719 0.741465 0.156394
O O1 0.241625 0.849250 0.097728
O O2 0.122951 0.935913 0.110952
O O3 0.150794 0.750000 0.000000
O O4 0.191212 0.991737 0.977042
O O5 0.932752 0.485441 0.250000
O O6 0.953112 0.647788 0.377688
O O7 0.002677 0.402585 0.380134
O O8 0.129258 0.361250 0.131692
O O9 0.257081 0.334286 0.102895
O O10 0.165973 0.250000 0.000000
O O11 0.554246 0.414813 0.250000
O O12 0.539199 0.560414 0.381313
O O13 0.508156 0.304812 0.384758
O O14 0.633913 0.377404 0.371994
O O15 0.547476 0.790227 0.750000
O O16 0.621185 0.733251 0.625319
O O17 0.719458 0.117823 0.750000
O O18 0.715346 0.914888 0.646059
O O19 0.053130 0.200307 0.750000
O O20 0.703217 0.786086 0.250000
#
# Coordination Sequence:
#
# PCOD8234579 Si02
#       8
#     8   8   8   8   8   8   8   8
#     4  12  26  40  55  84 117 151 185 232 280 328
#     4  10  22  42  65  87 113 147 185 226 275 330
#     4  12  22  38  59  83 110 147 189 227 274 325
#     4   8  14  26  49  78 105 135 177 229 275 323
#     4   8  14  26  47  77 107 136 177 227 277 323
#     4   9  17  35  60  80 106 149 192 226 275 339
#     4  10  22  40  64  90 114 145 185 228 274 329
#     4   9  17  33  59  84 107 143 191 236 274 327
#
# _framework density 19.465948999999998
#
# number of rings (size 3 to 8) (size 9 to 14) (size 15 to 20)
#    0.000    2.250    2.500    2.250    1.750    3.000 
#    2.250    1.875    0.000    1.500    0.000    0.000 
#    0.000    0.000    0.000    0.000    0.000    0.000 
#
# Total GULP energy -793535.503725 kJ/mol
# GULP energy per Si atom -12398.992246 kJ/mol
# Density = 1.942164 g / cm^3
# Si number density = 19.465949 Si / 1000 Ang^3
#
#
#
# Elastic Constant Matrix: (Units=GPa)
#
#
# Indices 1 2 3 4 5 6 
#
# 1 129.2468 45.2710 19.7965 0.0000 0.0000 0.0000
# 2 45.2710 78.2585 28.0325 0.0000 0.0000 0.0000
# 3 19.7965 28.0325 22.5723 0.0000 0.0000 0.0000
# 4 0.0000 0.0000 0.0000 19.6502 0.0000 0.0000
# 5 0.0000 0.0000 0.0000 0.0000 5.8534 0.0000
# 6 0.0000 0.0000 0.0000 0.0000 0.0000 33.6216
#
#
#
# Elastic Compliance Matrix: (Units=1/GPa)
#
#
# Indices 1 2 3 4 5 6 
#
# 1 0.009801 -0.004666 -0.002800 0.000000 0.000000 0.000000
# 2 -0.004666 0.025239 -0.027252 0.000000 0.000000 0.000000
# 3 -0.002800 -0.027252 0.080602 0.000000 0.000000 0.000000
# 4 0.000000 0.000000 0.000000 0.050890 0.000000 0.000000
# 5 0.000000 0.000000 0.000000 0.000000 0.170842 0.000000
# 6 0.000000 0.000000 0.000000 0.000000 0.000000 0.029743
#
#
# Mechanical properties :
#
#
# Convention : Reuss Voigt Hill
#
# Bulk Modulus (GPa) = 21.64276 46.25307 33.94792
# Shear Modulus (GPa) = 11.06300 20.95686 16.00993
#
# Velocity S-wave (km/s) = 2.38655 3.28470 2.87096
# Velocity P-wave (km/s) = 4.32857 6.18048 5.33549
#
# Compressibility (1/GPa) = 0.04620483
#
# Stress axis : x y z
#
# Youngs Moduli (GPa) = 102.03555 39.62055 12.40657
#
# Poissons Ratio (x) = 0.18488 0.03474
# Poissons Ratio (y) = 0.47614 0.33811
# Poissons Ratio (z) = 0.28571 1.07975
#
# Static dielectric constant tensor:
#      x y z
#    x 3.720560 0.000000 0.000000 
#    y 0.000000 3.736130 0.000000 
#    z 0.000000 0.000000 3.306800 
# 
# 
# High freq. dielectric constant tensor:
#      x y z
#    x 1.769800 0.000000 0.000000 
#    y 0.000000 1.744200 0.000000 
#    z 0.000000 0.000000 1.735620 
# 
# From -- ./inp_files/23074.got.cif
#   From: 2010.03.12/outbox.cif.g09.slc.cpg/sg57_12_cif.got.tgz:23074.got - 2010.04.16 15:48:40.
