data_PCOD8234964
_publ_section_title
;
Structure prediction by ZEFSAII (Michael W. Deem and Ramdas Pophale) SiO2 
 PCOD8234964
Probable space group: P B C M
;
_chemical_formula_sum "Si O2"
_cell_formula_units_Z 48
_cell_length_a 11.185441
_cell_length_b 13.999742
_cell_length_c 14.567162
_cell_angle_alpha 90.000000
_cell_angle_beta 90.000000
_cell_angle_gamma 90.000000
_cell_volume 2281.119797
_symmetry_space_group_name_H-M "P B C M"
_symmetry_group_IT_number 57
_symmetry_cell_setting 'orthorhombic'
loop_
_space_group_symop_operation_xyz
x,y,z
-x,-y,1/2+z
x,1/2-y,-z
-x,1/2+y,1/2-z
-x,-y,-z
x,y,1/2-z
-x,1/2+y,z
x,1/2-y,1/2+z
loop_
_atom_site_type_symbol
_atom_site_label
_atom_site_fract_x
_atom_site_fract_y
_atom_site_fract_z
Si Si1 0.505786 0.433139 0.913254
Si Si2 0.119136 0.993791 0.057052
Si Si3 0.734616 0.678845 0.417429
Si Si4 0.251267 0.841091 0.559957
Si Si5 0.016201 0.953579 0.250000
Si Si6 0.615418 0.968698 0.250000
Si Si7 0.832801 0.387342 0.750000
Si Si8 0.204852 0.306456 0.250000
O O1 0.385927 0.376024 0.888383
O O2 0.608359 0.352720 0.919853
O O3 0.532259 0.512014 0.836469
O O4 0.500000 0.500000 0.000000
O O5 0.098241 0.947844 0.158377
O O6 0.167373 0.100860 0.057306
O O7 0.212414 0.932738 0.998335
O O8 0.000000 0.000000 0.000000
O O9 0.704844 0.750000 0.500000
O O10 0.795310 0.739647 0.337886
O O11 0.222696 0.750000 0.500000
O O12 0.179208 0.826592 0.656075
O O13 0.914459 0.871671 0.250000
O O14 0.959026 0.059070 0.250000
O O15 0.668867 0.862623 0.250000
O O16 0.728740 0.036277 0.250000
#
# Coordination Sequence:
#
# PCOD8234964 Si02
#       8
#     8   8   8   8   4   4   4   4
#     4  11  21  43  69  96 138 177 219 284 353 410
#     4  12  25  44  66  96 139 182 232 289 347 413
#     4  12  25  42  70 103 134 177 236 287 345 417
#     4  11  24  43  69 101 132 180 230 282 351 419
#     4  11  23  44  68  93 140 186 228 284 345 405
#     4   9  21  37  69  94 129 180 212 272 346 408
#     4   9  20  43  66  87 133 173 221 269 337 406
#     4  11  24  44  69 104 134 177 237 281 342 419
#
# _framework density 21.042297000000001
#
# number of rings (size 3 to 8) (size 9 to 14) (size 15 to 20)
#    0.000    1.000    3.333    3.500    2.333    2.667 
#    3.000    0.833    0.000    0.000    0.000    0.000 
#    0.000    0.000    0.000    0.000    0.000    0.000 
#
# Total GULP energy -595211.385887 kJ/mol
# GULP energy per Si atom -12400.237206 kJ/mol
# Density = 2.099440 g / cm^3
# Si number density = 21.042297 Si / 1000 Ang^3
#
#
#
# Elastic Constant Matrix: (Units=GPa)
#
#
# Indices 1 2 3 4 5 6 
#
# 1 95.1793 30.8292 20.3334 0.0000 0.0000 0.0000
# 2 30.8292 115.6941 40.1963 0.0000 0.0000 0.0000
# 3 20.3334 40.1963 146.5328 0.0000 0.0000 0.0000
# 4 0.0000 0.0000 0.0000 43.9391 0.0000 0.0000
# 5 0.0000 0.0000 0.0000 0.0000 30.3160 0.0000
# 6 0.0000 0.0000 0.0000 0.0000 0.0000 22.3188
#
#
#
# Elastic Compliance Matrix: (Units=1/GPa)
#
#
# Indices 1 2 3 4 5 6 
#
# 1 0.011592 -0.002797 -0.000841 0.000000 0.000000 0.000000
# 2 -0.002797 0.010229 -0.002418 0.000000 0.000000 0.000000
# 3 -0.000841 -0.002418 0.007604 0.000000 0.000000 0.000000
# 4 0.000000 0.000000 0.000000 0.022759 0.000000 0.000000
# 5 0.000000 0.000000 0.000000 0.000000 0.032986 0.000000
# 6 0.000000 0.000000 0.000000 0.000000 0.000000 0.044805
#
#
# Mechanical properties :
#
#
# Convention : Reuss Voigt Hill
#
# Bulk Modulus (GPa) = 57.75833 60.01377 58.88605
# Shear Modulus (GPa) = 33.81619 37.05126 35.43373
#
# Velocity S-wave (km/s) = 4.01316 4.20074 4.10802
# Velocity P-wave (km/s) = 6.99873 7.21878 7.10961
#
# Compressibility (1/GPa) = 0.01731352
#
# Stress axis : x y z
#
# Youngs Moduli (GPa) = 86.26574 97.76363 131.50248
#
# Poissons Ratio (x) = 0.27341 0.11065
# Poissons Ratio (y) = 0.24125 0.31795
# Poissons Ratio (z) = 0.07258 0.23638
#
# Static dielectric constant tensor:
#      x y z
#    x 3.995480 0.000000 0.000000 
#    y 0.000000 4.164800 0.000000 
#    z 0.000000 0.000000 5.798320 
# 
# 
# High freq. dielectric constant tensor:
#      x y z
#    x 1.828770 0.000000 0.000000 
#    y 0.000000 1.819540 0.000000 
#    z 0.000000 0.000000 1.844360 
# 
# From -- ./inp_files/17670.got.cif
#   From: 2010.03.12/outbox.cif.g09.slc.cpg/sg57_9_cif.got.tgz:17670.got - 2010.04.16 15:48:40.
