data_PCOD8234871
_publ_section_title
;
Structure prediction by ZEFSAII (Michael W. Deem and Ramdas Pophale) SiO2 
 PCOD8234871
Probable space group: P B C M
;
_chemical_formula_sum "Si O2"
_cell_formula_units_Z 56
_cell_length_a 13.099140
_cell_length_b 14.322625
_cell_length_c 14.274499
_cell_angle_alpha 90.000000
_cell_angle_beta 90.000000
_cell_angle_gamma 90.000000
_cell_volume 2678.096855
_symmetry_space_group_name_H-M "P B C M"
_symmetry_group_IT_number 57
_symmetry_cell_setting 'orthorhombic'
loop_
_space_group_symop_operation_xyz
x,y,z
-x,-y,1/2+z
x,1/2-y,-z
-x,1/2+y,1/2-z
-x,-y,-z
x,y,1/2-z
-x,1/2+y,z
x,1/2-y,1/2+z
loop_
_atom_site_type_symbol
_atom_site_label
_atom_site_fract_x
_atom_site_fract_y
_atom_site_fract_z
Si Si1 0.747182 0.357766 0.646214
Si Si2 0.461230 0.394711 0.493523
Si Si3 0.100096 0.466911 0.859285
Si Si4 0.241118 0.460224 0.023687
Si Si5 0.542216 0.242151 0.140566
Si Si6 0.064636 0.113537 0.851297
Si Si7 0.966130 0.207280 0.398970
O O1 0.727696 0.400146 0.750000
O O2 0.739257 0.439353 0.570004
O O3 0.661937 0.279453 0.625043
O O4 0.856344 0.307786 0.647409
O O5 0.500000 0.500000 0.500000
O O6 0.341025 0.396432 0.472734
O O7 0.517898 0.341020 0.408690
O O8 0.478157 0.340940 0.591534
O O9 0.124520 0.449980 0.750000
O O10 0.040150 0.562398 0.879069
O O11 0.026225 0.389119 0.902637
O O12 0.206242 0.473491 0.915865
O O13 0.153839 0.402498 0.075620
O O14 0.512341 0.247494 0.250000
O O15 0.102604 0.076196 0.750000
O O16 0.036739 0.222102 0.840749
O O17 0.948610 0.250000 0.500000
#
# Coordination Sequence:
#
# PCOD8234871 Si02
#       7
#     8   8   8   8   8   8   8
#     4  11  23  42  71 101 134 177 229 280 335 408
#     4  11  25  45  71 101 137 174 229 294 344 408
#     4  11  24  43  62  96 140 173 219 277 326 398
#     4  12  23  42  70  98 130 183 225 271 343 406
#     4  10  25  47  71 101 136 177 229 289 352 409
#     4  11  23  40  64  98 136 173 221 269 329 403
#     4  12  23  38  65  95 135 180 218 271 330 393
#
# _framework density 20.910371999999999
#
# number of rings (size 3 to 8) (size 9 to 14) (size 15 to 20)
#    0.000    0.857    4.286    3.000    2.000    5.714 
#    0.000    1.429    0.000    0.000    0.000    0.000 
#    0.000    0.000    0.000    0.000    0.000    0.000 
#
# Total GULP energy -694495.953834 kJ/mol
# GULP energy per Si atom -12401.713461 kJ/mol
# Density = 2.086278 g / cm^3
# Si number density = 20.910372 Si / 1000 Ang^3
#
#
#
# Elastic Constant Matrix: (Units=GPa)
#
#
# Indices 1 2 3 4 5 6 
#
# 1 122.4628 42.8419 59.5965 0.0000 0.0000 0.0000
# 2 42.8419 101.8265 51.2267 0.0000 0.0000 0.0000
# 3 59.5965 51.2267 146.1569 0.0000 0.0000 0.0000
# 4 0.0000 0.0000 0.0000 27.8606 0.0000 0.0000
# 5 0.0000 0.0000 0.0000 0.0000 28.1943 0.0000
# 6 0.0000 0.0000 0.0000 0.0000 0.0000 39.2342
#
#
#
# Elastic Compliance Matrix: (Units=1/GPa)
#
#
# Indices 1 2 3 4 5 6 
#
# 1 0.010821 -0.002832 -0.003419 0.000000 0.000000 0.000000
# 2 -0.002832 0.012664 -0.003284 0.000000 0.000000 0.000000
# 3 -0.003419 -0.003284 0.009387 0.000000 0.000000 0.000000
# 4 0.000000 0.000000 0.000000 0.035893 0.000000 0.000000
# 5 0.000000 0.000000 0.000000 0.000000 0.035468 0.000000
# 6 0.000000 0.000000 0.000000 0.000000 0.000000 0.025488
#
#
# Mechanical properties :
#
#
# Convention : Reuss Voigt Hill
#
# Bulk Modulus (GPa) = 72.45906 75.30849 73.88378
# Shear Modulus (GPa) = 32.59600 33.50989 33.05294
#
# Velocity S-wave (km/s) = 3.95250 4.00753 3.98011
# Velocity P-wave (km/s) = 7.45367 7.58332 7.51877
#
# Compressibility (1/GPa) = 0.01380090
#
# Stress axis : x y z
#
# Youngs Moduli (GPa) = 92.41541 78.96205 106.52770
#
# Poissons Ratio (x) = 0.22365 0.36427
# Poissons Ratio (y) = 0.26175 0.34982
# Poissons Ratio (z) = 0.31601 0.25930
#
# Static dielectric constant tensor:
#      x y z
#    x 3.862790 0.000000 0.000000 
#    y 0.000000 3.846460 0.000000 
#    z 0.000000 0.000000 4.029930 
# 
# 
# High freq. dielectric constant tensor:
#      x y z
#    x 1.812960 0.000000 0.000000 
#    y 0.000000 1.821390 0.000000 
#    z 0.000000 0.000000 1.835360 
# 
# From -- ./inp_files/17754.got.cif
#   From: 2010.03.12/outbox.cif.g09.slc.cpg/sg57_9_cif.got.tgz:17754.got - 2010.04.16 15:48:40.
