data_PCOD8234575
_publ_section_title
;
Structure prediction by ZEFSAII (Michael W. Deem and Ramdas Pophale) SiO2 
 PCOD8234575
Probable space group: P B C M
;
_chemical_formula_sum "Si O2"
_cell_formula_units_Z 64
_cell_length_a 12.553960
_cell_length_b 28.349310
_cell_length_c 8.863440
_cell_angle_alpha 90.000000
_cell_angle_beta 90.000000
_cell_angle_gamma 90.000000
_cell_volume 3154.463762
_symmetry_space_group_name_H-M "P B C M"
_symmetry_group_IT_number 57
_symmetry_cell_setting 'orthorhombic'
loop_
_space_group_symop_operation_xyz
x,y,z
-x,-y,1/2+z
x,1/2-y,-z
-x,1/2+y,1/2-z
-x,-y,-z
x,y,1/2-z
-x,1/2+y,z
x,1/2-y,1/2+z
loop_
_atom_site_type_symbol
_atom_site_label
_atom_site_fract_x
_atom_site_fract_y
_atom_site_fract_z
Si Si1 0.430156 0.699464 0.072956
Si Si2 0.107139 0.019441 0.428549
Si Si3 0.398444 0.136406 0.579350
Si Si4 0.000062 0.701330 0.572849
Si Si5 0.464143 0.952730 0.077682
Si Si6 0.841076 0.881102 0.427733
Si Si7 0.750509 0.057059 0.075690
Si Si8 0.796810 0.161184 0.423718
O O1 0.430361 0.705389 0.250000
O O2 0.321444 0.674237 0.018562
O O3 0.439228 0.750000 0.000000
O O4 0.532942 0.669392 0.028081
O O5 0.095532 0.018958 0.250000
O O6 0.129667 0.072098 0.482106
O O7 0.202438 0.985287 0.477925
O O8 0.000000 0.000000 0.500000
O O9 0.409623 0.155436 0.750000
O O10 0.437317 0.082718 0.568606
O O11 0.276067 0.136873 0.526696
O O12 0.960288 0.750000 0.500000
O O13 0.997318 0.707850 0.750000
O O14 0.922282 0.659509 0.520542
O O15 0.120031 0.689864 0.523323
O O16 0.429729 0.962131 0.250000
O O17 0.366704 0.931111 0.984209
O O18 0.500000 0.000000 0.000000
O O19 0.848625 0.891991 0.250000
O O20 0.745881 0.041419 0.250000
O O21 0.817701 0.105187 0.056514
O O22 0.811887 0.176061 0.250000
#
# Coordination Sequence:
#
# PCOD8234575 Si02
#       8
#     8   8   8   8   8   8   8   8
#     4  11  23  40  62  91 124 163 209 261 320 381
#     4  12  25  41  63  94 128 170 217 263 319 381
#     4  10  22  41  63  89 124 164 208 259 313 374
#     4  11  24  41  65  92 122 160 206 261 321 385
#     4  11  22  36  59  90 124 166 211 257 312 374
#     4  10  23  44  66  92 127 168 213 264 317 375
#     4  11  22  39  62  90 127 166 208 263 318 380
#     4  10  22  40  63  92 125 162 206 261 321 379
#
# _framework density 20.288709999999998
#
# number of rings (size 3 to 8) (size 9 to 14) (size 15 to 20)
#    0.000    1.250    1.250    4.500    0.000    8.500 
#    0.000    1.250    0.000    0.000    0.000    0.000 
#    0.000    0.000    0.000    0.000    0.000    0.000 
#
# Total GULP energy -793961.036210 kJ/mol
# GULP energy per Si atom -12405.641191 kJ/mol
# Density = 2.024253 g / cm^3
# Si number density = 20.288710 Si / 1000 Ang^3
#
#
#
# Elastic Constant Matrix: (Units=GPa)
#
#
# Indices 1 2 3 4 5 6 
#
# 1 124.3690 49.7503 45.5382 0.0000 0.0000 0.0000
# 2 49.7503 133.7674 58.0306 0.0000 0.0000 0.0000
# 3 45.5382 58.0306 95.7496 0.0000 0.0000 0.0000
# 4 0.0000 0.0000 0.0000 34.7519 0.0000 0.0000
# 5 0.0000 0.0000 0.0000 0.0000 31.8443 0.0000
# 6 0.0000 0.0000 0.0000 0.0000 0.0000 -90.3787
#
#
#
# Elastic Compliance Matrix: (Units=1/GPa)
#
#
# Indices 1 2 3 4 5 6 
#
# 1 0.010232 -0.002299 -0.003473 0.000000 0.000000 0.000000
# 2 -0.002299 0.010659 -0.005367 0.000000 0.000000 0.000000
# 3 -0.003473 -0.005367 0.015348 0.000000 0.000000 0.000000
# 4 0.000000 0.000000 0.000000 0.028775 0.000000 0.000000
# 5 0.000000 0.000000 0.000000 0.000000 0.031403 0.000000
# 6 0.000000 0.000000 0.000000 0.000000 0.000000 -0.011065
#
#
# Mechanical properties :
#
#
# Convention : Reuss Voigt Hill
#
# Bulk Modulus (GPa) = 71.62317 73.39158 72.50737
# Shear Modulus (GPa) = 44.53029 8.61462 26.57245
#
# Velocity S-wave (km/s) = 4.68998 2.06282 3.62293
# Velocity P-wave (km/s) = 8.04404 6.47501 7.30179
#
# Compressibility (1/GPa) = 0.01396196
#
# Stress axis : x y z
#
# Youngs Moduli (GPa) = 97.73465 93.81990 65.15423
#
# Poissons Ratio (x) = 0.21566 0.22628
# Poissons Ratio (y) = 0.22466 0.34966
# Poissons Ratio (z) = 0.33944 0.50350
#
# Static dielectric constant tensor:
#      x y z
#    x 3.883830 0.000000 0.000000 
#    y 0.000000 3.827340 0.000000 
#    z 0.000000 0.000000 3.743080 
# 
# 
# High freq. dielectric constant tensor:
#      x y z
#    x 1.799370 0.000000 0.000000 
#    y 0.000000 1.803600 0.000000 
#    z 0.000000 0.000000 1.796090 
# 
# From -- ./inp_files/3920.got.cif
#   From: 2010.03.12/outbox.cif.g09.slc.cpg/sg57_2_cif.got.tgz:3920.got - 2010.04.16 15:48:40.
