data_PCOD8234995
_publ_section_title
;
Structure prediction by ZEFSAII (Michael W. Deem and Ramdas Pophale) SiO2 
 PCOD8234995
Probable space group: P B C M
;
_chemical_formula_sum "Si O2"
_cell_formula_units_Z 32
_cell_length_a 20.428452
_cell_length_b 9.221528
_cell_length_c 8.416021
_cell_angle_alpha 90.000000
_cell_angle_beta 90.000000
_cell_angle_gamma 90.000000
_cell_volume 1585.423014
_symmetry_space_group_name_H-M "P B C M"
_symmetry_group_IT_number 57
_symmetry_cell_setting 'orthorhombic'
loop_
_space_group_symop_operation_xyz
x,y,z
-x,-y,1/2+z
x,1/2-y,-z
-x,1/2+y,1/2-z
-x,-y,-z
x,y,1/2-z
-x,1/2+y,z
x,1/2-y,1/2+z
loop_
_atom_site_type_symbol
_atom_site_label
_atom_site_fract_x
_atom_site_fract_y
_atom_site_fract_z
Si Si1 0.699626 0.412023 0.437835
Si Si2 0.818351 0.911708 0.063223
Si Si3 0.060902 0.588579 0.936288
Si Si4 0.439978 0.908694 0.561261
O O1 0.713114 0.250000 0.500000
O O2 0.709401 0.414627 0.250000
O O3 0.747705 0.525746 0.519600
O O4 0.627222 0.466142 0.484106
O O5 0.828830 0.911374 0.250000
O O6 0.826015 0.750000 0.000000
O O7 0.871919 0.013862 0.984639
O O8 0.055795 0.594881 0.750000
O O9 0.058829 0.750000 0.000000
O O10 0.000000 0.500000 0.000000
O O11 0.454557 0.750000 0.500000
O O12 0.433562 0.912952 0.750000
O O13 0.500000 0.000000 0.500000
#
# Coordination Sequence:
#
# PCOD8234995 Si02
#       4
#     8   8   8   8
#     4  11  22  40  63  90 121 160 203 250 303 363
#     4  12  25  43  64  92 125 162 204 253 305 362
#     4  12  25  44  67  95 127 165 206 252 303 360
#     4  11  22  39  61  89 121 159 202 251 304 363
#
# _framework density 20.183886999999999
#
# number of rings (size 3 to 8) (size 9 to 14) (size 15 to 20)
#    0.000    0.500    0.000   12.000    0.000    1.000 
#    0.000    5.000    0.000    0.000    0.000    0.000 
#    0.000    0.000    0.000    0.000    0.000    0.000 
#
# Total GULP energy -396984.410536 kJ/mol
# GULP energy per Si atom -12405.762829 kJ/mol
# Density = 2.013795 g / cm^3
# Si number density = 20.183887 Si / 1000 Ang^3
#
#
#
# Elastic Constant Matrix: (Units=GPa)
#
#
# Indices 1 2 3 4 5 6 
#
# 1 137.4452 86.8707 23.6296 0.0000 0.0000 0.0000
# 2 86.8707 149.1575 52.2787 0.0000 0.0000 0.0000
# 3 23.6296 52.2787 144.2339 0.0000 0.0000 0.0000
# 4 0.0000 0.0000 0.0000 40.7605 0.0000 0.0000
# 5 0.0000 0.0000 0.0000 0.0000 42.3705 0.0000
# 6 0.0000 0.0000 0.0000 0.0000 0.0000 57.5236
#
#
#
# Elastic Compliance Matrix: (Units=1/GPa)
#
#
# Indices 1 2 3 4 5 6 
#
# 1 0.011563 -0.006954 0.000626 0.000000 0.000000 0.000000
# 2 -0.006954 0.011862 -0.003160 0.000000 0.000000 0.000000
# 3 0.000626 -0.003160 0.007976 0.000000 0.000000 0.000000
# 4 0.000000 0.000000 0.000000 0.024534 0.000000 0.000000
# 5 0.000000 0.000000 0.000000 0.000000 0.023601 0.000000
# 6 0.000000 0.000000 0.000000 0.000000 0.000000 0.017384
#
#
# Mechanical properties :
#
#
# Convention : Reuss Voigt Hill
#
# Bulk Modulus (GPa) = 80.48196 84.04386 82.26291
# Shear Modulus (GPa) = 41.65349 46.00143 43.82746
#
# Velocity S-wave (km/s) = 4.54773 4.77919 4.66489
# Velocity P-wave (km/s) = 8.21807 8.49610 8.35824
#
# Compressibility (1/GPa) = 0.01242515
#
# Stress axis : x y z
#
# Youngs Moduli (GPa) = 86.48170 84.30291 125.37537
#
# Poissons Ratio (x) = 0.58624 -0.07850
# Poissons Ratio (y) = 0.60139 0.39621
# Poissons Ratio (z) = -0.05415 0.26642
#
# Static dielectric constant tensor:
#      x y z
#    x 4.015580 0.000000 0.000000 
#    y 0.000000 3.950370 0.000000 
#    z 0.000000 0.000000 4.016120 
# 
# 
# High freq. dielectric constant tensor:
#      x y z
#    x 1.809710 0.000000 0.000000 
#    y 0.000000 1.795760 0.000000 
#    z 0.000000 0.000000 1.818090 
# 
# From -- ./inp_files/7547.got.cif
#   From: 2010.03.12/outbox.cif.g09.slc.cpg/sg57_4_cif.got.tgz:7547.got - 2010.04.16 15:48:40.
