data_PCOD8234076
_publ_section_title
;
Structure prediction by ZEFSAII (Michael W. Deem and Ramdas Pophale) SiO2 
 PCOD8234076
Probable space group: P B C M
;
_chemical_formula_sum "Si O2"
_cell_formula_units_Z 40
_cell_length_a 7.124095
_cell_length_b 19.120990
_cell_length_c 13.914450
_cell_angle_alpha 90.000000
_cell_angle_beta 90.000000
_cell_angle_gamma 90.000000
_cell_volume 1895.422890
_symmetry_space_group_name_H-M "P B C M"
_symmetry_group_IT_number 57
_symmetry_cell_setting 'orthorhombic'
loop_
_space_group_symop_operation_xyz
x,y,z
-x,-y,1/2+z
x,1/2-y,-z
-x,1/2+y,1/2-z
-x,-y,-z
x,y,1/2-z
-x,1/2+y,z
x,1/2-y,1/2+z
loop_
_atom_site_type_symbol
_atom_site_label
_atom_site_fract_x
_atom_site_fract_y
_atom_site_fract_z
Si Si1 0.443582 0.094503 0.638346
Si Si2 0.297744 0.829488 0.489215
Si Si3 0.919627 0.607573 0.973781
Si Si4 0.952105 0.981649 0.643362
Si Si5 0.380754 0.560253 0.355309
O O1 0.399338 0.100635 0.750000
O O2 0.625289 0.140179 0.611720
O O3 0.263774 0.129351 0.584856
O O4 0.480569 0.012549 0.610674
O O5 0.363734 0.750000 0.500000
O O6 0.069659 0.830564 0.493679
O O7 0.403731 0.876238 0.570354
O O8 0.051154 0.554597 0.912855
O O9 0.846719 0.575013 0.075671
O O10 0.857605 0.987253 0.750000
O O11 0.163918 0.957747 0.654436
O O12 0.457082 0.583418 0.250000
#
# Coordination Sequence:
#
# PCOD8234076 Si02
#       5
#     8   8   8   8   8
#     4  10  21  38  60  83 108 144 193 238 274 325
#     4  11  23  36  55  83 116 149 183 226 282 343
#     4   9  18  34  54  78 110 145 180 224 277 328
#     4   8  14  28  54  84 108 135 180 232 277 326
#     4   8  16  34  57  80 110 147 188 237 282 321
#
# _framework density 21.103472
#
# number of rings (size 3 to 8) (size 9 to 14) (size 15 to 20)
#    0.000    2.800    0.000    3.600    0.000    3.200 
#    0.000    3.000    0.000    4.800    0.000    0.000 
#    0.000    0.000    0.000    0.000    0.000    0.000 
#
# Total GULP energy -495671.600545 kJ/mol
# GULP energy per Si atom -12391.790014 kJ/mol
# Density = 2.105544 g / cm^3
# Si number density = 21.103472 Si / 1000 Ang^3
#
#
#
# Elastic Constant Matrix: (Units=GPa)
#
#
# Indices 1 2 3 4 5 6 
#
# 1 28.8272 17.8498 7.8050 0.0000 0.0000 0.0000
# 2 17.8498 110.2655 38.8672 0.0000 0.0000 0.0000
# 3 7.8050 38.8672 125.4092 0.0000 0.0000 0.0000
# 4 0.0000 0.0000 0.0000 7.3950 0.0000 0.0000
# 5 0.0000 0.0000 0.0000 0.0000 25.9688 0.0000
# 6 0.0000 0.0000 0.0000 0.0000 0.0000 21.2131
#
#
#
# Elastic Compliance Matrix: (Units=1/GPa)
#
#
# Indices 1 2 3 4 5 6 
#
# 1 0.038584 -0.006062 -0.000523 0.000000 0.000000 0.000000
# 2 -0.006062 0.011134 -0.003073 0.000000 0.000000 0.000000
# 3 -0.000523 -0.003073 0.008959 0.000000 0.000000 0.000000
# 4 0.000000 0.000000 0.000000 0.135227 0.000000 0.000000
# 5 0.000000 0.000000 0.000000 0.000000 0.038508 0.000000
# 6 0.000000 0.000000 0.000000 0.000000 0.000000 0.047141
#
#
# Mechanical properties :
#
#
# Convention : Reuss Voigt Hill
#
# Bulk Modulus (GPa) = 25.40563 43.72735 34.56649
# Shear Modulus (GPa) = 16.02626 24.24738 20.13682
#
# Velocity S-wave (km/s) = 2.75873 3.39333 3.09236
# Velocity P-wave (km/s) = 4.71299 6.00986 5.40049
#
# Compressibility (1/GPa) = 0.03936136
#
# Stress axis : x y z
#
# Youngs Moduli (GPa) = 25.91722 89.81820 111.62076
#
# Poissons Ratio (x) = 0.54446 0.05834
# Poissons Ratio (y) = 0.15711 0.34304
# Poissons Ratio (z) = 0.01355 0.27604
#
# Static dielectric constant tensor:
#      x y z
#    x 3.539610 0.000000 0.000000 
#    y 0.000000 3.474460 0.000000 
#    z 0.000000 0.000000 4.470300 
# 
# 
# High freq. dielectric constant tensor:
#      x y z
#    x 1.820880 0.000000 0.000000 
#    y 0.000000 1.774160 0.000000 
#    z 0.000000 0.000000 1.839170 
# 
# From -- ./inp_files/16118.got.cif
#   From: 2010.03.12/outbox.cif.g09.slc.cpg/sg57_9_cif.got.tgz:16118.got - 2010.04.16 15:48:40.
