data_PCOD8234183
_publ_section_title
;
Structure prediction by ZEFSAII (Michael W. Deem and Ramdas Pophale) SiO2 
 PCOD8234183
Probable space group: P B C M
;
_chemical_formula_sum "Si O2"
_cell_formula_units_Z 40
_cell_length_a 7.584825
_cell_length_b 18.726898
_cell_length_c 13.367869
_cell_angle_alpha 90.000000
_cell_angle_beta 90.000000
_cell_angle_gamma 90.000000
_cell_volume 1898.775376
_symmetry_space_group_name_H-M "P B C M"
_symmetry_group_IT_number 57
_symmetry_cell_setting 'orthorhombic'
loop_
_space_group_symop_operation_xyz
x,y,z
-x,-y,1/2+z
x,1/2-y,-z
-x,1/2+y,1/2-z
-x,-y,-z
x,y,1/2-z
-x,1/2+y,z
x,1/2-y,1/2+z
loop_
_atom_site_type_symbol
_atom_site_label
_atom_site_fract_x
_atom_site_fract_y
_atom_site_fract_z
Si Si1 0.070771 0.546888 0.131353
Si Si2 0.283771 0.026372 0.029624
Si Si3 0.907642 0.329206 0.477481
Si Si4 0.399646 0.899973 0.361333
Si Si5 0.305884 0.325946 0.043362
O O1 0.103484 0.553126 0.250000
O O2 0.878339 0.514410 0.107539
O O3 0.215505 0.493538 0.082464
O O4 0.087662 0.625159 0.079941
O O5 0.435338 0.970866 0.069076
O O6 0.342194 0.109425 0.036042
O O7 0.839647 0.250000 0.500000
O O8 0.778303 0.362607 0.397081
O O9 0.101058 0.325242 0.426028
O O10 0.373026 0.926721 0.250000
O O11 0.564330 0.845049 0.365039
O O12 0.365360 0.250000 0.000000
#
# Coordination Sequence:
#
# PCOD8234183 Si02
#       5
#     8   8   8   8   8
#     4   9  17  32  58  87 112 150 200 237 282 350
#     4   9  19  35  55  82 118 150 185 244 293 331
#     4   9  20  38  58  83 119 154 187 239 292 333
#     4  11  22  36  58  85 114 151 193 234 282 342
#     4  10  21  39  59  80 112 152 189 232 284 337
#
# _framework density 21.066209000000001
#
# number of rings (size 3 to 8) (size 9 to 14) (size 15 to 20)
#    0.000    2.400    0.000    3.000    0.000    2.400 
#    0.000    9.000    0.000   10.800    0.000    0.000 
#    0.000    0.000    0.000    0.000    0.000    0.000 
#
# Total GULP energy -495818.328563 kJ/mol
# GULP energy per Si atom -12395.458214 kJ/mol
# Density = 2.101826 g / cm^3
# Si number density = 21.066209 Si / 1000 Ang^3
#
#
#
# Elastic Constant Matrix: (Units=GPa)
#
#
# Indices 1 2 3 4 5 6 
#
# 1 66.7073 31.7915 34.4089 0.0000 0.0000 0.0000
# 2 31.7915 163.4606 40.9175 0.0000 0.0000 0.0000
# 3 34.4089 40.9175 138.1585 0.0000 0.0000 0.0000
# 4 0.0000 0.0000 0.0000 16.6546 0.0000 0.0000
# 5 0.0000 0.0000 0.0000 0.0000 8.8019 0.0000
# 6 0.0000 0.0000 0.0000 0.0000 0.0000 33.0122
#
#
#
# Elastic Compliance Matrix: (Units=1/GPa)
#
#
# Indices 1 2 3 4 5 6 
#
# 1 0.018164 -0.002592 -0.003756 0.000000 0.000000 0.000000
# 2 -0.002592 0.006978 -0.001421 0.000000 0.000000 0.000000
# 3 -0.003756 -0.001421 0.008594 0.000000 0.000000 0.000000
# 4 0.000000 0.000000 0.000000 0.060044 0.000000 0.000000
# 5 0.000000 0.000000 0.000000 0.000000 0.113612 0.000000
# 6 0.000000 0.000000 0.000000 0.000000 0.000000 0.030292
#
#
# Mechanical properties :
#
#
# Convention : Reuss Voigt Hill
#
# Bulk Modulus (GPa) = 54.95384 64.72913 59.84149
# Shear Modulus (GPa) = 19.28366 29.10764 24.19565
#
# Velocity S-wave (km/s) = 3.02881 3.72118 3.39271
# Velocity P-wave (km/s) = 6.19471 7.01827 6.61932
#
# Compressibility (1/GPa) = 0.01819709
#
# Stress axis : x y z
#
# Youngs Moduli (GPa) = 55.05458 143.31661 116.35620
#
# Poissons Ratio (x) = 0.37155 0.43703
# Poissons Ratio (y) = 0.14273 0.16532
# Poissons Ratio (z) = 0.20678 0.20363
#
# Static dielectric constant tensor:
#      x y z
#    x 4.028760 0.000000 0.000000 
#    y 0.000000 4.199870 0.000000 
#    z 0.000000 0.000000 3.319820 
# 
# 
# High freq. dielectric constant tensor:
#      x y z
#    x 1.848020 0.000000 0.000000 
#    y 0.000000 1.841070 0.000000 
#    z 0.000000 0.000000 1.779900 
# 
# From -- ./inp_files/11564.got.cif
#   From: 2010.03.12/outbox.cif.g09.slc.cpg/sg57_6_cif.got.tgz:11564.got - 2010.04.16 15:48:40.
