data_PCOD8234189
_publ_section_title
;
Structure prediction by ZEFSAII (Michael W. Deem and Ramdas Pophale) SiO2 
 PCOD8234189
Probable space group: P B C M
;
_chemical_formula_sum "Si O2"
_cell_formula_units_Z 48
_cell_length_a 14.576071
_cell_length_b 8.957112
_cell_length_c 17.806136
_cell_angle_alpha 90.000000
_cell_angle_beta 90.000000
_cell_angle_gamma 90.000000
_cell_volume 2324.760221
_symmetry_space_group_name_H-M "P B C M"
_symmetry_group_IT_number 57
_symmetry_cell_setting 'orthorhombic'
loop_
_space_group_symop_operation_xyz
x,y,z
-x,-y,1/2+z
x,1/2-y,-z
-x,1/2+y,1/2-z
-x,-y,-z
x,y,1/2-z
-x,1/2+y,z
x,1/2-y,1/2+z
loop_
_atom_site_type_symbol
_atom_site_label
_atom_site_fract_x
_atom_site_fract_y
_atom_site_fract_z
Si Si1 0.040760 0.688808 0.084041
Si Si2 0.720416 0.408405 0.404212
Si Si3 0.441464 0.081272 0.337597
Si Si4 0.903549 0.482722 0.336587
Si Si5 0.619620 0.908565 0.337139
Si Si6 0.236430 0.924537 0.924427
O O1 0.126715 0.574063 0.087574
O O2 0.949638 0.605271 0.109781
O O3 0.058145 0.821248 0.142027
O O4 0.028499 0.750000 0.000000
O O5 0.620688 0.467405 0.384038
O O6 0.794374 0.487670 0.349920
O O7 0.721992 0.230514 0.393890
O O8 0.744588 0.450466 0.488720
O O9 0.421366 0.056999 0.250000
O O10 0.546448 0.038614 0.356026
O O11 0.422165 0.250240 0.363449
O O12 0.925732 0.517054 0.250000
O O13 0.643554 0.903348 0.250000
O O14 0.714912 0.941281 0.379623
#
# Coordination Sequence:
#
# PCOD8234189 Si02
#       6
#     8   8   8   8   8   8
#     4  11  22  42  63  88 124 168 201 254 309 373
#     4  10  21  39  60  85 121 156 202 250 302 368
#     4  10  21  39  60  87 121 159 198 251 311 359
#     4  11  23  39  63  93 122 160 210 257 306 364
#     4  10  22  38  60  88 119 156 203 250 303 368
#     4  10  21  39  61  88 114 161 206 243 308 366
#
# _framework density 20.647290000000002
#
# number of rings (size 3 to 8) (size 9 to 14) (size 15 to 20)
#    0.000    1.667    3.333    2.500    0.000    8.000 
#    0.000    1.667    0.000    0.000    0.000    0.000 
#    0.000    0.000    0.000    0.000    0.000    0.000 
#
# Total GULP energy -595348.886595 kJ/mol
# GULP energy per Si atom -12403.101804 kJ/mol
# Density = 2.060030 g / cm^3
# Si number density = 20.647290 Si / 1000 Ang^3
#
#
#
# Elastic Constant Matrix: (Units=GPa)
#
#
# Indices 1 2 3 4 5 6 
#
# 1 66.0946 17.7407 39.0107 0.0000 0.0000 0.0000
# 2 17.7407 54.7450 31.4499 0.0000 0.0000 0.0000
# 3 39.0107 31.4499 80.1018 0.0000 0.0000 0.0000
# 4 0.0000 0.0000 0.0000 34.5724 0.0000 0.0000
# 5 0.0000 0.0000 0.0000 0.0000 35.0729 0.0000
# 6 0.0000 0.0000 0.0000 0.0000 0.0000 36.4404
#
#
#
# Elastic Compliance Matrix: (Units=1/GPa)
#
#
# Indices 1 2 3 4 5 6 
#
# 1 0.021296 -0.001218 -0.009893 0.000000 0.000000 0.000000
# 2 -0.001218 0.023656 -0.008695 0.000000 0.000000 0.000000
# 3 -0.009893 -0.008695 0.020716 0.000000 0.000000 0.000000
# 4 0.000000 0.000000 0.000000 0.028925 0.000000 0.000000
# 5 0.000000 0.000000 0.000000 0.000000 0.028512 0.000000
# 6 0.000000 0.000000 0.000000 0.000000 0.000000 0.027442
#
#
# Mechanical properties :
#
#
# Convention : Reuss Voigt Hill
#
# Bulk Modulus (GPa) = 38.37834 41.92712 40.15273
# Shear Modulus (GPa) = 25.14525 28.73315 26.93920
#
# Velocity S-wave (km/s) = 3.49355 3.73449 3.61603
# Velocity P-wave (km/s) = 5.90772 6.24064 6.07646
#
# Compressibility (1/GPa) = 0.02605636
#
# Stress axis : x y z
#
# Youngs Moduli (GPa) = 46.95725 42.27223 48.27141
#
# Poissons Ratio (x) = 0.05147 0.47757
# Poissons Ratio (y) = 0.05718 0.41972
# Poissons Ratio (z) = 0.46457 0.36756
#
# Static dielectric constant tensor:
#      x y z
#    x 3.727330 0.000000 0.000000 
#    y 0.000000 3.753110 0.000000 
#    z 0.000000 0.000000 3.614150 
# 
# 
# High freq. dielectric constant tensor:
#      x y z
#    x 1.811130 0.000000 0.000000 
#    y 0.000000 1.802360 0.000000 
#    z 0.000000 0.000000 1.805320 
# 
# From -- ./inp_files/22419.got.cif
#   From: 2010.03.12/outbox.cif.g09.slc.cpg/sg57_12_cif.got.tgz:22419.got - 2010.04.16 15:48:40.
