data_PCOD8234039
_publ_section_title
;
Structure prediction by ZEFSAII (Michael W. Deem and Ramdas Pophale) SiO2 
 PCOD8234039
Probable space group: P B C M
;
_chemical_formula_sum "Si O2"
_cell_formula_units_Z 48
_cell_length_a 8.575171
_cell_length_b 14.693772
_cell_length_c 19.375053
_cell_angle_alpha 90.000000
_cell_angle_beta 90.000000
_cell_angle_gamma 90.000000
_cell_volume 2441.287824
_symmetry_space_group_name_H-M "P B C M"
_symmetry_group_IT_number 57
_symmetry_cell_setting 'orthorhombic'
loop_
_space_group_symop_operation_xyz
x,y,z
-x,-y,1/2+z
x,1/2-y,-z
-x,1/2+y,1/2-z
-x,-y,-z
x,y,1/2-z
-x,1/2+y,z
x,1/2-y,1/2+z
loop_
_atom_site_type_symbol
_atom_site_label
_atom_site_fract_x
_atom_site_fract_y
_atom_site_fract_z
Si Si1 0.569437 0.101450 0.073414
Si Si2 0.391093 0.580006 0.924649
Si Si3 0.735730 0.793927 0.925483
Si Si4 0.626717 0.653661 0.673359
Si Si5 0.198429 0.965517 0.826559
Si Si6 0.922355 0.526498 0.073063
O O1 0.423394 0.158582 0.098789
O O2 0.709076 0.110829 0.128861
O O3 0.525538 0.995334 0.067172
O O4 0.625492 0.133677 0.997391
O O5 0.458167 0.648976 0.866365
O O6 0.224104 0.536757 0.907290
O O7 0.754104 0.715210 0.868017
O O8 0.875171 0.866875 0.927635
O O9 0.719394 0.750000 0.000000
O O10 0.598055 0.694176 0.750000
O O11 0.697688 0.554431 0.680567
O O12 0.162863 0.926536 0.750000
O O13 0.039253 0.990388 0.864682
O O14 0.000000 0.500000 0.000000
#
# Coordination Sequence:
#
# PCOD8234039 Si02
#       6
#     8   8   8   8   8   8
#     4   9  17  33  57  81 105 141 189 238 273 338
#     4   9  17  33  58  82 105 141 193 235 279 329
#     4  11  21  35  59  87 114 148 195 246 293 338
#     4  10  21  38  59  83 114 150 193 246 299 345
#     4  10  21  38  58  82 116 156 191 235 294 354
#     4  11  21  35  60  88 117 154 198 238 282 355
#
# _framework density 19.661753999999998
#
# number of rings (size 3 to 8) (size 9 to 14) (size 15 to 20)
#    0.000    2.000    3.333    1.000    0.000    2.000 
#    0.000    7.500    0.000    0.000    0.000    0.000 
#    0.000    0.000    0.000    0.000    0.000    0.000 
#
# Total GULP energy -594919.788530 kJ/mol
# GULP energy per Si atom -12394.162261 kJ/mol
# Density = 1.961700 g / cm^3
# Si number density = 19.661754 Si / 1000 Ang^3
#
#
#
# Elastic Constant Matrix: (Units=GPa)
#
#
# Indices 1 2 3 4 5 6 
#
# 1 93.9761 6.0825 54.5854 0.0000 0.0000 0.0000
# 2 6.0825 41.5843 24.6187 0.0000 0.0000 0.0000
# 3 54.5854 24.6187 187.5549 0.0000 0.0000 0.0000
# 4 0.0000 0.0000 0.0000 22.5570 0.0000 0.0000
# 5 0.0000 0.0000 0.0000 0.0000 25.2072 0.0000
# 6 0.0000 0.0000 0.0000 0.0000 0.0000 26.6983
#
#
#
# Elastic Compliance Matrix: (Units=1/GPa)
#
#
# Indices 1 2 3 4 5 6 
#
# 1 0.012811 0.000362 -0.003776 0.000000 0.000000 0.000000
# 2 0.000362 0.026084 -0.003529 0.000000 0.000000 0.000000
# 3 -0.003776 -0.003529 0.006894 0.000000 0.000000 0.000000
# 4 0.000000 0.000000 0.000000 0.044332 0.000000 0.000000
# 5 0.000000 0.000000 0.000000 0.000000 0.039671 0.000000
# 6 0.000000 0.000000 0.000000 0.000000 0.000000 0.037456
#
#
# Mechanical properties :
#
#
# Convention : Reuss Voigt Hill
#
# Bulk Modulus (GPa) = 31.34607 54.85429 43.10018
# Shear Modulus (GPa) = 26.07314 30.74775 28.41045
#
# Velocity S-wave (km/s) = 3.64549 3.95883 3.80539
# Velocity P-wave (km/s) = 5.80489 6.98970 6.42467
#
# Compressibility (1/GPa) = 0.03190193
#
# Stress axis : x y z
#
# Youngs Moduli (GPa) = 78.05922 38.33779 145.05546
#
# Poissons Ratio (x) = -0.01386 0.54771
# Poissons Ratio (y) = -0.02822 0.51191
# Poissons Ratio (z) = 0.29474 0.13530
#
# Static dielectric constant tensor:
#      x y z
#    x 3.466490 0.000000 0.000000 
#    y 0.000000 3.488950 0.000000 
#    z 0.000000 0.000000 3.947950 
# 
# 
# High freq. dielectric constant tensor:
#      x y z
#    x 1.751240 0.000000 0.000000 
#    y 0.000000 1.744800 0.000000 
#    z 0.000000 0.000000 1.772910 
# 
# From -- ./inp_files/20932.got.cif
#   From: 2010.03.12/outbox.cif.g09.slc.cpg/sg57_11_cif.got.tgz:20932.got - 2010.04.16 15:48:40.
