data_PCOD8234351
_publ_section_title
;
Structure prediction by ZEFSAII (Michael W. Deem and Ramdas Pophale) SiO2 
 PCOD8234351
Probable space group: P B C M
;
_chemical_formula_sum "Si O2"
_cell_formula_units_Z 48
_cell_length_a 14.909560
_cell_length_b 18.984055
_cell_length_c 8.720913
_cell_angle_alpha 90.000000
_cell_angle_beta 90.000000
_cell_angle_gamma 90.000000
_cell_volume 2468.401289
_symmetry_space_group_name_H-M "P B C M"
_symmetry_group_IT_number 57
_symmetry_cell_setting 'orthorhombic'
loop_
_space_group_symop_operation_xyz
x,y,z
-x,-y,1/2+z
x,1/2-y,-z
-x,1/2+y,1/2-z
-x,-y,-z
x,y,1/2-z
-x,1/2+y,z
x,1/2-y,1/2+z
loop_
_atom_site_type_symbol
_atom_site_label
_atom_site_fract_x
_atom_site_fract_y
_atom_site_fract_z
Si Si1 0.877071 0.673341 0.569864
Si Si2 0.787170 0.423437 0.071577
Si Si3 0.621726 0.173465 0.930705
Si Si4 0.025189 0.574865 0.069624
Si Si5 0.729894 0.919029 0.573586
Si Si6 0.522984 0.925299 0.928505
O O1 0.868861 0.750000 0.500000
O O2 0.892212 0.678157 0.750000
O O3 0.785456 0.632085 0.535681
O O4 0.961245 0.634709 0.495302
O O5 0.811518 0.416149 0.250000
O O6 0.709383 0.370224 0.022014
O O7 0.753817 0.501206 0.031331
O O8 0.873610 0.404237 0.971628
O O9 0.610898 0.178089 0.750000
O O10 0.632172 0.250000 0.000000
O O11 0.533800 0.136624 0.996543
O O12 0.012306 0.570139 0.250000
O O13 0.000000 0.500000 0.000000
O O14 0.754515 0.903068 0.750000
O O15 0.625884 0.905841 0.540907
O O16 0.501359 0.930108 0.750000
O O17 0.500000 0.000000 0.000000
#
# Coordination Sequence:
#
# PCOD8234351 Si02
#       6
#     8   8   8   8   8   8
#     4  12  26  44  66  94 128 167 207 260 319 376
#     4  10  21  40  65  92 127 166 211 260 312 371
#     4  11  24  43  64  93 130 169 209 262 318 373
#     4  12  24  40  65  96 128 166 212 259 311 373
#     4  10  21  40  65  93 126 165 209 260 312 371
#     4  11  22  39  65  95 127 167 212 261 313 373
#
# _framework density 19.445784
#
# number of rings (size 3 to 8) (size 9 to 14) (size 15 to 20)
#    0.000    1.000    3.333    4.000    0.000    4.000 
#    0.000    1.667    0.000    0.000    0.000    0.000 
#    0.000    0.000    0.000    0.000    0.000    0.000 
#
# Total GULP energy -595519.470778 kJ/mol
# GULP energy per Si atom -12406.655641 kJ/mol
# Density = 1.940152 g / cm^3
# Si number density = 19.445784 Si / 1000 Ang^3
#
#
#
# Elastic Constant Matrix: (Units=GPa)
#
#
# Indices 1 2 3 4 5 6 
#
# 1 146.1400 73.3673 73.0631 0.0000 0.0000 0.0000
# 2 73.3673 154.1842 66.1925 0.0000 0.0000 0.0000
# 3 73.0631 66.1925 136.7510 0.0000 0.0000 0.0000
# 4 0.0000 0.0000 0.0000 37.4125 0.0000 0.0000
# 5 0.0000 0.0000 0.0000 0.0000 38.1371 0.0000
# 6 0.0000 0.0000 0.0000 0.0000 0.0000 39.2394
#
#
#
# Elastic Compliance Matrix: (Units=1/GPa)
#
#
# Indices 1 2 3 4 5 6 
#
# 1 0.010495 -0.003265 -0.004027 0.000000 0.000000 0.000000
# 2 -0.003265 0.009203 -0.002710 0.000000 0.000000 0.000000
# 3 -0.004027 -0.002710 0.010776 0.000000 0.000000 0.000000
# 4 0.000000 0.000000 0.000000 0.026729 0.000000 0.000000
# 5 0.000000 0.000000 0.000000 0.000000 0.026221 0.000000
# 6 0.000000 0.000000 0.000000 0.000000 0.000000 0.025485
#
#
# Mechanical properties :
#
#
# Convention : Reuss Voigt Hill
#
# Bulk Modulus (GPa) = 95.51410 95.81343 95.66377
# Shear Modulus (GPa) = 37.76348 37.92129 37.84239
#
# Velocity S-wave (km/s) = 4.41158 4.42079 4.41619
# Velocity P-wave (km/s) = 8.67030 8.68544 8.67788
#
# Compressibility (1/GPa) = 0.01046966
#
# Stress axis : x y z
#
# Youngs Moduli (GPa) = 95.28058 108.66093 92.80090
#
# Poissons Ratio (x) = 0.35481 0.37370
# Poissons Ratio (y) = 0.31112 0.25149
# Poissons Ratio (z) = 0.38368 0.29447
#
# Static dielectric constant tensor:
#      x y z
#    x 3.764210 0.000000 0.000000 
#    y 0.000000 3.593660 0.000000 
#    z 0.000000 0.000000 3.654500 
# 
# 
# High freq. dielectric constant tensor:
#      x y z
#    x 1.774970 0.000000 0.000000 
#    y 0.000000 1.760630 0.000000 
#    z 0.000000 0.000000 1.766940 
# 
# From -- ./inp_files/4703.got.cif
#   From: 2010.03.12/outbox.cif.g09.slc.cpg/sg57_3_cif.got.tgz:4703.got - 2010.04.16 15:48:40.
