data_PCOD8234103
_publ_section_title
;
Structure prediction by ZEFSAII (Michael W. Deem and Ramdas Pophale) SiO2 
 PCOD8234103
Probable space group: P B C M
;
_chemical_formula_sum "Si O2"
_cell_formula_units_Z 64
_cell_length_a 22.951441
_cell_length_b 9.459859
_cell_length_c 14.255698
_cell_angle_alpha 90.000000
_cell_angle_beta 90.000000
_cell_angle_gamma 90.000000
_cell_volume 3095.160024
_symmetry_space_group_name_H-M "P B C M"
_symmetry_group_IT_number 57
_symmetry_cell_setting 'orthorhombic'
loop_
_space_group_symop_operation_xyz
x,y,z
-x,-y,1/2+z
x,1/2-y,-z
-x,1/2+y,1/2-z
-x,-y,-z
x,y,1/2-z
-x,1/2+y,z
x,1/2-y,1/2+z
loop_
_atom_site_type_symbol
_atom_site_label
_atom_site_fract_x
_atom_site_fract_y
_atom_site_fract_z
Si Si1 0.953576 0.555821 0.072952
Si Si2 0.373974 0.636172 0.643163
Si Si3 0.958812 0.240923 0.853951
Si Si4 0.822419 0.590710 0.009824
Si Si5 0.540004 0.105058 0.137504
Si Si6 0.842039 0.372027 0.639551
Si Si7 0.759514 0.382349 0.357548
Si Si8 0.573448 0.601778 0.481594
O O1 0.951683 0.428263 0.147915
O O2 0.888858 0.589430 0.042876
O O3 0.979117 0.706687 0.106757
O O4 0.000000 0.500000 0.000000
O O5 0.386492 0.589814 0.750000
O O6 0.412184 0.773560 0.618694
O O7 0.306423 0.669041 0.626498
O O8 0.387905 0.506890 0.575649
O O9 0.955275 0.297542 0.750000
O O10 0.904472 0.321504 0.903819
O O11 0.778101 0.517179 0.081691
O O12 0.799943 0.750000 0.000000
O O13 0.820502 0.515254 0.908922
O O14 0.531288 0.078062 0.250000
O O15 0.481239 0.148542 0.083666
O O16 0.558987 0.961316 0.084723
O O17 0.843034 0.400274 0.750000
O O18 0.797790 0.249579 0.611184
O O19 0.770869 0.424549 0.250000
O O20 0.607178 0.750000 0.500000
#
# Coordination Sequence:
#
# PCOD8234103 Si02
#       8
#     8   8   8   8   8   8   8   8
#     4  12  23  38  58  87 121 155 201 249 310 378
#     4  10  22  42  66  92 123 166 216 263 313 375
#     4  11  23  39  59  85 119 157 200 252 307 368
#     4  12  25  40  62  93 126 166 199 258 323 377
#     4  10  21  38  60  89 128 172 218 261 307 366
#     4  10  22  42  64  88 118 159 209 256 306 368
#     4  10  23  44  70  92 118 162 218 267 310 374
#     4  11  22  35  58  93 132 168 206 258 318 376
#
# _framework density 20.677444000000001
#
# number of rings (size 3 to 8) (size 9 to 14) (size 15 to 20)
#    0.000    1.250    2.500    4.125    0.000    5.500 
#    0.000    0.000    0.000    3.000    0.000    0.000 
#    0.000    0.000    0.000    0.000    0.000    0.000 
#
# Total GULP energy -793266.475797 kJ/mol
# GULP energy per Si atom -12394.788684 kJ/mol
# Density = 2.063038 g / cm^3
# Si number density = 20.677444 Si / 1000 Ang^3
#
#
#
# Elastic Constant Matrix: (Units=GPa)
#
#
# Indices 1 2 3 4 5 6 
#
# 1 89.0212 29.0646 34.7850 0.0000 0.0000 0.0000
# 2 29.0646 143.0298 53.7303 0.0000 0.0000 0.0000
# 3 34.7850 53.7303 101.2463 0.0000 0.0000 0.0000
# 4 0.0000 0.0000 0.0000 28.1180 0.0000 0.0000
# 5 0.0000 0.0000 0.0000 0.0000 19.5468 0.0000
# 6 0.0000 0.0000 0.0000 0.0000 0.0000 29.3542
#
#
#
# Elastic Compliance Matrix: (Units=1/GPa)
#
#
# Indices 1 2 3 4 5 6 
#
# 1 0.013143 -0.001217 -0.003870 0.000000 0.000000 0.000000
# 2 -0.001217 0.008845 -0.004276 0.000000 0.000000 0.000000
# 3 -0.003870 -0.004276 0.013476 0.000000 0.000000 0.000000
# 4 0.000000 0.000000 0.000000 0.035564 0.000000 0.000000
# 5 0.000000 0.000000 0.000000 0.000000 0.051159 0.000000
# 6 0.000000 0.000000 0.000000 0.000000 0.000000 0.034067
#
#
# Mechanical properties :
#
#
# Convention : Reuss Voigt Hill
#
# Bulk Modulus (GPa) = 59.74289 63.16190 61.45240
# Shear Modulus (GPa) = 27.69191 29.78495 28.73843
#
# Velocity S-wave (km/s) = 3.66352 3.79945 3.73211
# Velocity P-wave (km/s) = 6.84476 7.06119 6.95381
#
# Compressibility (1/GPa) = 0.01673839
#
# Stress axis : x y z
#
# Youngs Moduli (GPa) = 76.08817 113.05659 74.20873
#
# Poissons Ratio (x) = 0.13760 0.28715
# Poissons Ratio (y) = 0.09260 0.31731
# Poissons Ratio (z) = 0.29442 0.48342
#
# Static dielectric constant tensor:
#      x y z
#    x 4.611690 0.000000 0.000000 
#    y 0.000000 4.407860 0.000000 
#    z 0.000000 0.000000 3.862050 
# 
# 
# High freq. dielectric constant tensor:
#      x y z
#    x 1.800190 0.000000 0.000000 
#    y 0.000000 1.810040 0.000000 
#    z 0.000000 0.000000 1.818960 
# 
# From -- ./inp_files/19471.got.cif
#   From: 2010.03.12/outbox.cif.g09.slc.cpg/sg57_10_cif.got.tgz:19471.got - 2010.04.16 15:48:40.
