data_PCOD8234773
_publ_section_title
;
Structure prediction by ZEFSAII (Michael W. Deem and Ramdas Pophale) SiO2 
 PCOD8234773
Probable space group: P B C M
;
_chemical_formula_sum "Si O2"
_cell_formula_units_Z 64
_cell_length_a 20.230834
_cell_length_b 9.789026
_cell_length_c 16.895338
_cell_angle_alpha 90.000000
_cell_angle_beta 90.000000
_cell_angle_gamma 90.000000
_cell_volume 3345.955441
_symmetry_space_group_name_H-M "P B C M"
_symmetry_group_IT_number 57
_symmetry_cell_setting 'orthorhombic'
loop_
_space_group_symop_operation_xyz
x,y,z
-x,-y,1/2+z
x,1/2-y,-z
-x,1/2+y,1/2-z
-x,-y,-z
x,y,1/2-z
-x,1/2+y,z
x,1/2-y,1/2+z
loop_
_atom_site_type_symbol
_atom_site_label
_atom_site_fract_x
_atom_site_fract_y
_atom_site_fract_z
Si Si1 0.327950 0.376199 0.949155
Si Si2 0.434045 0.685343 0.157549
Si Si3 0.557690 0.500734 0.342901
Si Si4 0.211658 0.228665 0.160016
Si Si5 0.809181 0.048752 0.339598
Si Si6 0.045936 0.998714 0.844505
Si Si7 0.306657 0.626259 0.058678
Si Si8 0.064511 0.298794 0.844118
O O1 0.382314 0.435816 0.890828
O O2 0.265397 0.332383 0.897939
O O3 0.356735 0.250000 0.000000
O O4 0.303517 0.486957 0.011027
O O5 0.420382 0.675323 0.250000
O O6 0.492976 0.584805 0.131976
O O7 0.369436 0.628284 0.115731
O O8 0.451504 0.841571 0.133745
O O9 0.572543 0.517741 0.250000
O O10 0.226573 0.181708 0.250000
O O11 0.212491 0.391574 0.155464
O O12 0.140219 0.171427 0.131496
O O13 0.803839 0.101865 0.250000
O O14 0.884170 0.067416 0.371100
O O15 0.760368 0.141677 0.391150
O O16 0.044375 0.001801 0.750000
O O17 0.984474 0.913207 0.879599
O O18 0.040873 0.152435 0.877918
O O19 0.312284 0.750000 0.000000
O O20 0.060091 0.295119 0.750000
#
# Coordination Sequence:
#
# PCOD8234773 Si02
#       8
#     8   8   8   8   8   8   8   8
#     4  12  24  39  59  86 115 154 192 230 277 334
#     4  10  23  43  65  88 115 148 186 231 281 334
#     4  10  23  43  64  88 116 147 187 232 279 334
#     4   9  18  35  58  83 112 149 193 236 278 334
#     4   9  18  35  59  82 110 151 193 232 281 341
#     4   8  14  27  49  78 107 137 181 234 281 328
#     4  12  24  41  57  83 120 152 186 233 285 330
#     4   8  14  27  49  77 108 139 180 234 282 326
#
# _framework density 19.127571
#
# number of rings (size 3 to 8) (size 9 to 14) (size 15 to 20)
#    0.000    2.250    2.500    2.250    1.750    1.000 
#    2.250    0.000    0.000    1.500    0.000    0.000 
#    0.000    0.000    0.000    0.000    0.000    0.000 
#
# Total GULP energy -793507.431888 kJ/mol
# GULP energy per Si atom -12398.553623 kJ/mol
# Density = 1.908404 g / cm^3
# Si number density = 19.127571 Si / 1000 Ang^3
#
#
#
# Elastic Constant Matrix: (Units=GPa)
#
#
# Indices 1 2 3 4 5 6 
#
# 1 109.3550 13.8565 31.4701 0.0000 0.0000 0.0000
# 2 13.8565 4.9089 4.1800 0.0000 0.0000 0.0000
# 3 31.4701 4.1800 32.8422 0.0000 0.0000 0.0000
# 4 0.0000 0.0000 0.0000 89.0309 0.0000 0.0000
# 5 0.0000 0.0000 0.0000 0.0000 -7.8923 0.0000
# 6 0.0000 0.0000 0.0000 0.0000 0.0000 36.5255
#
#
#
# Elastic Compliance Matrix: (Units=1/GPa)
#
#
# Indices 1 2 3 4 5 6 
#
# 1 0.017535 -0.039467 -0.011780 0.000000 0.000000 0.000000
# 2 -0.039467 0.317299 -0.002566 0.000000 0.000000 0.000000
# 3 -0.011780 -0.002566 0.042063 0.000000 0.000000 0.000000
# 4 0.000000 0.000000 0.000000 0.011232 0.000000 0.000000
# 5 0.000000 0.000000 0.000000 0.000000 -0.126706 0.000000
# 6 0.000000 0.000000 0.000000 0.000000 0.000000 0.027378
#
#
# Mechanical properties :
#
#
# Convention : Reuss Voigt Hill
#
# Bulk Modulus (GPa) = 3.71372 27.34658 15.53015
# Shear Modulus (GPa) = 10.28417 30.03944 20.16180
#
# Velocity S-wave (km/s) = 2.32127 3.96723 3.25017
# Velocity P-wave (km/s) = 3.02161 5.94249 4.71399
#
# Compressibility (1/GPa) = 0.26927178
#
# Stress axis : x y z
#
# Youngs Moduli (GPa) = 57.02775 3.15160 23.77405
#
# Poissons Ratio (x) = 0.12438 0.28005
# Poissons Ratio (y) = 2.25070 0.06101
# Poissons Ratio (z) = 0.67176 0.00809
#
# Static dielectric constant tensor:
#      x y z
#    x 3.673830 0.000000 0.000000 
#    y 0.000000 3.651700 0.000000 
#    z 0.000000 0.000000 3.374100 
# 
# 
# High freq. dielectric constant tensor:
#      x y z
#    x 1.752890 0.000000 0.000000 
#    y 0.000000 1.739510 0.000000 
#    z 0.000000 0.000000 1.727170 
# 
# From -- ./inp_files/23019.got.cif
#   From: 2010.03.12/outbox.cif.g09.slc.cpg/sg57_12_cif.got.tgz:23019.got - 2010.04.16 15:48:40.
