data_PCOD8234335
_publ_section_title
;
Structure prediction by ZEFSAII (Michael W. Deem and Ramdas Pophale) SiO2 
 PCOD8234335
Probable space group: P B C M
;
_chemical_formula_sum "Si O2"
_cell_formula_units_Z 48
_cell_length_a 9.137251
_cell_length_b 14.469351
_cell_length_c 18.213727
_cell_angle_alpha 90.000000
_cell_angle_beta 90.000000
_cell_angle_gamma 90.000000
_cell_volume 2408.038520
_symmetry_space_group_name_H-M "P B C M"
_symmetry_group_IT_number 57
_symmetry_cell_setting 'orthorhombic'
loop_
_space_group_symop_operation_xyz
x,y,z
-x,-y,1/2+z
x,1/2-y,-z
-x,1/2+y,1/2-z
-x,-y,-z
x,y,1/2-z
-x,1/2+y,z
x,1/2-y,1/2+z
loop_
_atom_site_type_symbol
_atom_site_label
_atom_site_fract_x
_atom_site_fract_y
_atom_site_fract_z
Si Si1 0.846685 0.179190 0.335510
Si Si2 0.125181 0.301986 0.927700
Si Si3 0.795722 0.636900 0.665338
Si Si4 0.634900 0.032735 0.402695
Si Si5 0.309982 0.478174 0.936294
Si Si6 0.867243 0.390885 0.332313
O O1 0.878145 0.157261 0.250000
O O2 0.710129 0.119674 0.363357
O O3 0.810936 0.286961 0.347136
O O4 0.991335 0.153881 0.381892
O O5 0.221250 0.233233 0.877496
O O6 0.232130 0.382096 0.954785
O O7 0.063944 0.250000 0.000000
O O8 0.760350 0.656288 0.750000
O O9 0.683077 0.562443 0.634688
O O10 0.959957 0.600293 0.654270
O O11 0.460775 0.041394 0.393585
O O12 0.670180 0.034422 0.488770
O O13 0.208339 0.539502 0.886176
O O14 0.827682 0.420607 0.250000
#
# Coordination Sequence:
#
# PCOD8234335 Si02
#       6
#     8   8   8   8   8   8
#     4  10  23  42  64  94 123 155 205 258 307 361
#     4  11  22  40  65  94 120 161 204 257 307 363
#     4  10  21  40  64  90 121 158 203 254 304 358
#     4  11  24  40  59  88 126 166 198 251 300 364
#     4  11  25  40  58  90 126 161 207 243 302 365
#     4   9  21  40  63  89 119 154 201 256 299 357
#
# _framework density 19.933236000000001
#
# number of rings (size 3 to 8) (size 9 to 14) (size 15 to 20)
#    0.000    1.667    1.667    3.000    4.667    6.667 
#    0.000    1.667    0.000    0.000    0.000    0.000 
#    0.000    0.000    0.000    0.000    0.000    0.000 
#
# Total GULP energy -595406.553417 kJ/mol
# GULP energy per Si atom -12404.303196 kJ/mol
# Density = 1.988787 g / cm^3
# Si number density = 19.933236 Si / 1000 Ang^3
#
#
#
# Elastic Constant Matrix: (Units=GPa)
#
#
# Indices 1 2 3 4 5 6 
#
# 1 60.4267 28.4510 26.8665 0.0000 0.0000 0.0000
# 2 28.4510 61.5731 23.6609 0.0000 0.0000 0.0000
# 3 26.8665 23.6609 94.6477 0.0000 0.0000 0.0000
# 4 0.0000 0.0000 0.0000 40.7210 0.0000 0.0000
# 5 0.0000 0.0000 0.0000 0.0000 26.7472 0.0000
# 6 0.0000 0.0000 0.0000 0.0000 0.0000 10.5316
#
#
#
# Elastic Compliance Matrix: (Units=1/GPa)
#
#
# Indices 1 2 3 4 5 6 
#
# 1 0.022567 -0.008812 -0.004203 0.000000 0.000000 0.000000
# 2 -0.008812 0.021408 -0.002850 0.000000 0.000000 0.000000
# 3 -0.004203 -0.002850 0.012471 0.000000 0.000000 0.000000
# 4 0.000000 0.000000 0.000000 0.024557 0.000000 0.000000
# 5 0.000000 0.000000 0.000000 0.000000 0.037387 0.000000
# 6 0.000000 0.000000 0.000000 0.000000 0.000000 0.094953
#
#
# Mechanical properties :
#
#
# Convention : Reuss Voigt Hill
#
# Bulk Modulus (GPa) = 40.46133 41.62270 41.04201
# Shear Modulus (GPa) = 19.73849 24.77790 22.25819
#
# Velocity S-wave (km/s) = 3.15021 3.52951 3.34524
# Velocity P-wave (km/s) = 5.79433 6.12669 5.96282
#
# Compressibility (1/GPa) = 0.02471496
#
# Stress axis : x y z
#
# Youngs Moduli (GPa) = 44.31297 46.71132 80.18586
#
# Poissons Ratio (x) = 0.41164 0.33700
# Poissons Ratio (y) = 0.39050 0.22856
# Poissons Ratio (z) = 0.18624 0.13314
#
# Static dielectric constant tensor:
#      x y z
#    x 3.556720 0.000000 0.000000 
#    y 0.000000 3.671190 0.000000 
#    z 0.000000 0.000000 3.799680 
# 
# 
# High freq. dielectric constant tensor:
#      x y z
#    x 1.762510 0.000000 0.000000 
#    y 0.000000 1.781980 0.000000 
#    z 0.000000 0.000000 1.796180 
# 
# From -- ./inp_files/20947.got.cif
#   From: 2010.03.12/outbox.cif.g09.slc.cpg/sg57_11_cif.got.tgz:20947.got - 2010.04.16 15:48:40.
