data_PCOD8234175
_publ_section_title
;
Structure prediction by ZEFSAII (Michael W. Deem and Ramdas Pophale) SiO2 
 PCOD8234175
Probable space group: P B C M
;
_chemical_formula_sum "Si O2"
_cell_formula_units_Z 40
_cell_length_a 5.745733
_cell_length_b 13.189644
_cell_length_c 23.761123
_cell_angle_alpha 90.000000
_cell_angle_beta 90.000000
_cell_angle_gamma 90.000000
_cell_volume 1800.717051
_symmetry_space_group_name_H-M "P B C M"
_symmetry_group_IT_number 57
_symmetry_cell_setting 'orthorhombic'
loop_
_space_group_symop_operation_xyz
x,y,z
-x,-y,1/2+z
x,1/2-y,-z
-x,1/2+y,1/2-z
-x,-y,-z
x,y,1/2-z
-x,1/2+y,z
x,1/2-y,1/2+z
loop_
_atom_site_type_symbol
_atom_site_label
_atom_site_fract_x
_atom_site_fract_y
_atom_site_fract_z
Si Si1 0.747678 0.484467 0.031349
Si Si2 0.208425 0.698089 0.606961
Si Si3 0.078687 0.061310 0.686316
Si Si4 0.914922 0.621580 0.124907
Si Si5 0.591577 0.740819 0.687576
O O1 0.737548 0.367891 0.051882
O O2 0.741520 0.562511 0.083209
O O3 0.500000 0.500000 0.000000
O O4 0.000000 0.500000 0.000000
O O5 0.120742 0.627206 0.657328
O O6 0.425541 0.755410 0.634429
O O7 0.035324 0.788551 0.588998
O O8 0.001617 0.038756 0.750000
O O9 0.315728 0.125179 0.684410
O O10 0.104383 0.956276 0.651689
O O11 0.786120 0.673169 0.177908
O O12 0.483822 0.759532 0.750000
#
# Coordination Sequence:
#
# PCOD8234175 Si02
#       5
#     8   8   8   8   8
#     4  11  28  49  73  99 136 184 238 293 353 401
#     4  10  23  41  66  95 138 171 231 285 342 414
#     4   9  19  37  61  93 137 178 217 270 341 415
#     4  10  23  41  66  97 135 177 229 289 346 416
#     4  10  21  38  66 101 137 179 224 280 350 425
#
# _framework density 22.213373000000001
#
# number of rings (size 3 to 8) (size 9 to 14) (size 15 to 20)
#    0.000    2.000    0.000    1.200   11.200    4.800 
#    0.000    4.000    0.000    0.000    0.000    0.000 
#    0.000    0.000    0.000    0.000    0.000    0.000 
#
# Total GULP energy -495564.213905 kJ/mol
# GULP energy per Si atom -12389.105348 kJ/mol
# Density = 2.216281 g / cm^3
# Si number density = 22.213373 Si / 1000 Ang^3
#
#
#
# Elastic Constant Matrix: (Units=GPa)
#
#
# Indices 1 2 3 4 5 6 
#
# 1 85.0515 21.8302 26.4628 0.0000 0.0000 0.0000
# 2 21.8302 132.2933 37.9437 0.0000 0.0000 0.0000
# 3 26.4628 37.9437 81.6569 0.0000 0.0000 0.0000
# 4 0.0000 0.0000 0.0000 28.8932 0.0000 0.0000
# 5 0.0000 0.0000 0.0000 0.0000 39.2379 0.0000
# 6 0.0000 0.0000 0.0000 0.0000 0.0000 17.5265
#
#
#
# Elastic Compliance Matrix: (Units=1/GPa)
#
#
# Indices 1 2 3 4 5 6 
#
# 1 0.013213 -0.001099 -0.003771 0.000000 0.000000 0.000000
# 2 -0.001099 0.008813 -0.003739 0.000000 0.000000 0.000000
# 3 -0.003771 -0.003739 0.015206 0.000000 0.000000 0.000000
# 4 0.000000 0.000000 0.000000 0.034610 0.000000 0.000000
# 5 0.000000 0.000000 0.000000 0.000000 0.025486 0.000000
# 6 0.000000 0.000000 0.000000 0.000000 0.000000 0.057056
#
#
# Mechanical properties :
#
#
# Convention : Reuss Voigt Hill
#
# Bulk Modulus (GPa) = 49.96620 52.38613 51.17617
# Shear Modulus (GPa) = 28.04684 31.31585 29.68134
#
# Velocity S-wave (km/s) = 3.55718 3.75877 3.65936
# Velocity P-wave (km/s) = 6.27805 6.51707 6.39868
#
# Compressibility (1/GPa) = 0.02001353
#
# Stress axis : x y z
#
# Youngs Moduli (GPa) = 75.68287 113.47348 65.76355
#
# Poissons Ratio (x) = 0.12466 0.24803
# Poissons Ratio (y) = 0.08315 0.24589
# Poissons Ratio (z) = 0.28544 0.42427
#
# Static dielectric constant tensor:
#      x y z
#    x 3.769300 0.000000 0.000000 
#    y 0.000000 4.252950 0.000000 
#    z 0.000000 0.000000 3.958320 
# 
# 
# High freq. dielectric constant tensor:
#      x y z
#    x 1.854260 0.000000 0.000000 
#    y 0.000000 1.891830 0.000000 
#    z 0.000000 0.000000 1.869770 
# 
# From -- ./inp_files/27776.got.cif
#   From: 2010.03.12/outbox.cif.g09.slc.cpg/sg57_14_cif.got.tgz:27776.got - 2010.04.16 15:48:40.
