data_PCOD8234551
_publ_section_title
;
Structure prediction by ZEFSAII (Michael W. Deem and Ramdas Pophale) SiO2 
 PCOD8234551
Probable space group: P B C M
;
_chemical_formula_sum "Si O2"
_cell_formula_units_Z 64
_cell_length_a 16.027756
_cell_length_b 9.452246
_cell_length_c 22.067193
_cell_angle_alpha 90.000000
_cell_angle_beta 90.000000
_cell_angle_gamma 90.000000
_cell_volume 3343.142061
_symmetry_space_group_name_H-M "P B C M"
_symmetry_group_IT_number 57
_symmetry_cell_setting 'orthorhombic'
loop_
_space_group_symop_operation_xyz
x,y,z
-x,-y,1/2+z
x,1/2-y,-z
-x,1/2+y,1/2-z
-x,-y,-z
x,y,1/2-z
-x,1/2+y,z
x,1/2-y,1/2+z
loop_
_atom_site_type_symbol
_atom_site_label
_atom_site_fract_x
_atom_site_fract_y
_atom_site_fract_z
Si Si1 0.910816 0.789785 0.177824
Si Si2 0.569982 0.910174 0.316802
Si Si3 0.760825 0.081989 0.818463
Si Si4 0.631628 0.860609 0.549490
Si Si5 0.055039 0.516782 0.679775
Si Si6 0.323062 0.667981 0.555622
Si Si7 0.269856 0.261341 0.653919
Si Si8 0.532049 0.315882 0.884395
O O1 0.915133 0.785586 0.250000
O O2 0.936260 0.637622 0.149836
O O3 0.816365 0.826302 0.158008
O O4 0.976269 0.902128 0.150014
O O5 0.542441 0.953157 0.250000
O O6 0.657745 0.828001 0.314226
O O7 0.494945 0.812876 0.341192
O O8 0.581627 0.056943 0.352355
O O9 0.737165 0.141575 0.750000
O O10 0.859499 0.104147 0.829389
O O11 0.738787 0.915528 0.815297
O O12 0.718044 0.160394 0.876386
O O13 0.601296 0.750000 0.500000
O O14 0.707336 0.783113 0.583840
O O15 0.551650 0.888842 0.590941
O O16 0.662640 0.012676 0.527105
O O17 0.035440 0.497479 0.750000
O O18 0.274386 0.750000 0.500000
O O19 0.409418 0.752674 0.563345
#
# Coordination Sequence:
#
# PCOD8234551 Si02
#       8
#     8   8   8   8   8   8   8   8
#     4   9  15  29  51  79 111 144 178 223 273 335
#     4  11  22  37  55  82 116 151 189 233 287 342
#     4   9  18  37  59  82 113 154 189 226 287 350
#     4  10  22  40  60  77 104 148 195 238 281 341
#     4   8  15  28  51  78 109 143 180 220 273 334
#     4  11  24  38  59  85 111 147 193 243 285 336
#     4   9  19  34  57  83 109 149 191 231 283 341
#     4  11  23  39  55  80 109 149 192 238 284 336
#
# _framework density 19.143668999999999
#
# number of rings (size 3 to 8) (size 9 to 14) (size 15 to 20)
#    0.000    2.250    1.250    2.625    3.500    2.000 
#    2.250    0.000    0.000    0.750    0.000    5.250 
#    0.000    0.000    0.000    0.000    0.000    0.000 
#
# Total GULP energy -792938.861426 kJ/mol
# GULP energy per Si atom -12389.669710 kJ/mol
# Density = 1.910010 g / cm^3
# Si number density = 19.143669 Si / 1000 Ang^3
#
#
#
# Elastic Constant Matrix: (Units=GPa)
#
#
# Indices 1 2 3 4 5 6 
#
# 1 88.4850 25.0826 23.7560 0.0000 0.0000 0.0000
# 2 25.0826 75.3595 35.3399 0.0000 0.0000 0.0000
# 3 23.7560 35.3399 85.5061 0.0000 0.0000 0.0000
# 4 0.0000 0.0000 0.0000 25.6922 0.0000 0.0000
# 5 0.0000 0.0000 0.0000 0.0000 13.7392 0.0000
# 6 0.0000 0.0000 0.0000 0.0000 0.0000 30.6214
#
#
#
# Elastic Compliance Matrix: (Units=1/GPa)
#
#
# Indices 1 2 3 4 5 6 
#
# 1 0.012812 -0.003219 -0.002229 0.000000 0.000000 0.000000
# 2 -0.003219 0.017269 -0.006243 0.000000 0.000000 0.000000
# 3 -0.002229 -0.006243 0.014895 0.000000 0.000000 0.000000
# 4 0.000000 0.000000 0.000000 0.038922 0.000000 0.000000
# 5 0.000000 0.000000 0.000000 0.000000 0.072785 0.000000
# 6 0.000000 0.000000 0.000000 0.000000 0.000000 0.032657
#
#
# Mechanical properties :
#
#
# Convention : Reuss Voigt Hill
#
# Bulk Modulus (GPa) = 46.31038 46.41198 46.36118
# Shear Modulus (GPa) = 22.73557 25.02201 23.87879
#
# Velocity S-wave (km/s) = 3.44994 3.61926 3.53561
# Velocity P-wave (km/s) = 6.33347 6.46235 6.39824
#
# Compressibility (1/GPa) = 0.02159343
#
# Stress axis : x y z
#
# Youngs Moduli (GPa) = 78.04976 57.90799 67.13844
#
# Poissons Ratio (x) = 0.18641 0.14966
# Poissons Ratio (y) = 0.25125 0.41914
# Poissons Ratio (z) = 0.17399 0.36151
#
# Static dielectric constant tensor:
#      x y z
#    x 3.513270 0.000000 0.000000 
#    y 0.000000 3.543520 0.000000 
#    z 0.000000 0.000000 3.380120 
# 
# 
# High freq. dielectric constant tensor:
#      x y z
#    x 1.734030 0.000000 0.000000 
#    y 0.000000 1.741870 0.000000 
#    z 0.000000 0.000000 1.719220 
# 
# From -- ./inp_files/27504.got.cif
#   From: 2010.03.12/outbox.cif.g09.slc.cpg/sg57_14_cif.got.tgz:27504.got - 2010.04.16 15:48:40.
