data_PCOD8234887
_publ_section_title
;
Structure prediction by ZEFSAII (Michael W. Deem and Ramdas Pophale) SiO2 
 PCOD8234887
Probable space group: P B C M
;
_chemical_formula_sum "Si O2"
_cell_formula_units_Z 56
_cell_length_a 15.113401
_cell_length_b 8.686077
_cell_length_c 21.065588
_cell_angle_alpha 90.000000
_cell_angle_beta 90.000000
_cell_angle_gamma 90.000000
_cell_volume 2765.409602
_symmetry_space_group_name_H-M "P B C M"
_symmetry_group_IT_number 57
_symmetry_cell_setting 'orthorhombic'
loop_
_space_group_symop_operation_xyz
x,y,z
-x,-y,1/2+z
x,1/2-y,-z
-x,1/2+y,1/2-z
-x,-y,-z
x,y,1/2-z
-x,1/2+y,z
x,1/2-y,1/2+z
loop_
_atom_site_type_symbol
_atom_site_label
_atom_site_fract_x
_atom_site_fract_y
_atom_site_fract_z
Si Si1 0.237330 0.492129 0.625162
Si Si2 0.576542 0.933286 0.922168
Si Si3 0.049572 0.161259 0.750000
Si Si4 0.903822 0.187317 0.929750
Si Si5 0.130791 0.504728 0.750000
Si Si6 0.222463 0.325013 0.067579
Si Si7 0.065653 0.009319 0.881998
Si Si8 0.404318 0.074862 0.564860
O O1 0.344303 0.502120 0.621466
O O2 0.194192 0.612945 0.574781
O O3 0.197257 0.533824 0.692626
O O4 0.208662 0.316059 0.614849
O O5 0.573825 0.752216 0.926075
O O6 0.480464 0.986947 0.894969
O O7 0.591441 0.994250 0.993715
O O8 0.078145 0.340981 0.750000
O O9 0.088075 0.077504 0.812739
O O10 0.943173 0.138970 0.750000
O O11 0.922607 0.325449 0.880090
O O12 0.968672 0.049501 0.908043
O O13 0.922666 0.250000 0.000000
O O14 0.133738 0.423926 0.065619
O O15 0.302611 0.440452 0.088872
O O16 0.248162 0.250000 0.000000
#
# Coordination Sequence:
#
# PCOD8234887 Si02
#       8
#     8   8   4   8   4   8   8   8
#     4  11  22  39  60  89 121 160 204 249 305 363
#     4   9  18  34  56  87 117 155 191 242 305 363
#     4  12  24  42  64  85 113 164 214 257 287 351
#     4  12  25  40  57  88 121 164 193 252 314 374
#     4  12  24  42  66  83 119 164 218 255 301 351
#     4  11  19  37  59  88 122 159 197 253 305 370
#     4  12  24  39  60  83 122 158 208 253 301 358
#     4   9  17  32  57  83 119 151 190 241 301 367
#
# _framework density 20.250166
#
# number of rings (size 3 to 8) (size 9 to 14) (size 15 to 20)
#    0.000    1.143    5.714    3.429    0.000    1.143 
#    2.571    0.000    0.000    4.286    0.000    0.000 
#    0.000    0.000    0.000    0.000    0.000    0.000 
#
# Total GULP energy -693991.070318 kJ/mol
# GULP energy per Si atom -12392.697684 kJ/mol
# Density = 2.020408 g / cm^3
# Si number density = 20.250166 Si / 1000 Ang^3
#
#
#
# Elastic Constant Matrix: (Units=GPa)
#
#
# Indices 1 2 3 4 5 6 
#
# 1 129.5107 35.9331 30.6755 0.0000 0.0000 0.0000
# 2 35.9331 40.9548 12.1094 0.0000 0.0000 0.0000
# 3 30.6755 12.1094 66.0763 0.0000 0.0000 0.0000
# 4 0.0000 0.0000 0.0000 20.3416 0.0000 0.0000
# 5 0.0000 0.0000 0.0000 0.0000 23.1385 0.0000
# 6 0.0000 0.0000 0.0000 0.0000 0.0000 41.9242
#
#
#
# Elastic Compliance Matrix: (Units=1/GPa)
#
#
# Indices 1 2 3 4 5 6 
#
# 1 0.010923 -0.008547 -0.003504 0.000000 0.000000 0.000000
# 2 -0.008547 0.032505 -0.001989 0.000000 0.000000 0.000000
# 3 -0.003504 -0.001989 0.017125 0.000000 0.000000 0.000000
# 4 0.000000 0.000000 0.000000 0.049160 0.000000 0.000000
# 5 0.000000 0.000000 0.000000 0.000000 0.043218 0.000000
# 6 0.000000 0.000000 0.000000 0.000000 0.000000 0.023853
#
#
# Mechanical properties :
#
#
# Convention : Reuss Voigt Hill
#
# Bulk Modulus (GPa) = 30.79623 43.77531 37.28577
# Shear Modulus (GPa) = 23.18151 27.60245 25.39198
#
# Velocity S-wave (km/s) = 3.38710 3.69599 3.54491
# Velocity P-wave (km/s) = 5.52607 6.31490 5.93361
#
# Compressibility (1/GPa) = 0.03247151
#
# Stress axis : x y z
#
# Youngs Moduli (GPa) = 91.55059 30.76488 58.39275
#
# Poissons Ratio (x) = 0.26296 0.20464
# Poissons Ratio (y) = 0.78252 0.11613
# Poissons Ratio (z) = 0.32084 0.06119
#
# Static dielectric constant tensor:
#      x y z
#    x 3.921400 0.000000 0.000000 
#    y 0.000000 3.711900 0.000000 
#    z 0.000000 0.000000 3.496400 
# 
# 
# High freq. dielectric constant tensor:
#      x y z
#    x 1.799680 0.000000 0.000000 
#    y 0.000000 1.788700 0.000000 
#    z 0.000000 0.000000 1.755130 
# 
# From -- ./inp_files/25450.got.cif
#   From: 2010.03.12/outbox.cif.g09.slc.cpg/sg57_13_cif.got.tgz:25450.got - 2010.04.16 15:48:40.
