data_PCOD8234781
_publ_section_title
;
Structure prediction by ZEFSAII (Michael W. Deem and Ramdas Pophale) SiO2 
 PCOD8234781
Probable space group: P B C M
;
_chemical_formula_sum "Si O2"
_cell_formula_units_Z 48
_cell_length_a 7.668711
_cell_length_b 19.341055
_cell_length_c 15.831246
_cell_angle_alpha 90.000000
_cell_angle_beta 90.000000
_cell_angle_gamma 90.000000
_cell_volume 2348.105624
_symmetry_space_group_name_H-M "P B C M"
_symmetry_group_IT_number 57
_symmetry_cell_setting 'orthorhombic'
loop_
_space_group_symop_operation_xyz
x,y,z
-x,-y,1/2+z
x,1/2-y,-z
-x,1/2+y,1/2-z
-x,-y,-z
x,y,1/2-z
-x,1/2+y,z
x,1/2-y,1/2+z
loop_
_atom_site_type_symbol
_atom_site_label
_atom_site_fract_x
_atom_site_fract_y
_atom_site_fract_z
Si Si1 0.146486 0.403902 0.654527
Si Si2 0.900838 0.523114 0.655431
Si Si3 0.526075 0.194725 0.932196
Si Si4 0.817746 0.749926 0.401392
Si Si5 0.879464 0.347811 0.345393
Si Si6 0.640709 0.941559 0.495274
O O1 0.221268 0.413359 0.750000
O O2 0.120454 0.322718 0.636663
O O3 0.267961 0.440200 0.586103
O O4 0.960208 0.443088 0.647292
O O5 0.820991 0.535725 0.750000
O O6 0.765211 0.541642 0.583261
O O7 0.072984 0.571318 0.644486
O O8 0.375007 0.225484 0.868234
O O9 0.689959 0.166841 0.881296
O O10 0.445583 0.132196 0.984719
O O11 0.596639 0.250000 0.000000
O O12 0.779904 0.750000 0.500000
O O13 0.967892 0.805235 0.389358
O O14 0.876165 0.322914 0.250000
O O15 0.500000 0.000000 0.500000
#
# Coordination Sequence:
#
# PCOD8234781 Si02
#       6
#     8   8   8   8   8   8
#     4  11  23  42  67  98 133 175 223 281 341 402
#     4  10  23  43  66  96 136 179 229 281 340 403
#     4  11  23  42  62  96 131 171 224 274 335 404
#     4  11  21  43  68  90 132 175 220 273 336 404
#     4  11  23  39  66  96 126 173 222 275 334 401
#     4  12  24  41  67  97 133 183 224 276 342 401
#
# _framework density 20.442011999999998
#
# number of rings (size 3 to 8) (size 9 to 14) (size 15 to 20)
#    0.000    1.000    5.000    2.500    0.000    5.333 
#    0.000    0.000    0.000    0.000    0.000    0.000 
#    0.000    0.000    0.000    0.000    0.000    0.000 
#
# Total GULP energy -594990.065645 kJ/mol
# GULP energy per Si atom -12395.626368 kJ/mol
# Density = 2.039549 g / cm^3
# Si number density = 20.442012 Si / 1000 Ang^3
#
#
#
# Elastic Constant Matrix: (Units=GPa)
#
#
# Indices 1 2 3 4 5 6 
#
# 1 106.7065 30.9313 48.9439 0.0000 0.0000 0.0000
# 2 30.9313 114.0857 41.4345 0.0000 0.0000 0.0000
# 3 48.9439 41.4345 97.7745 0.0000 0.0000 0.0000
# 4 0.0000 0.0000 0.0000 25.2341 0.0000 0.0000
# 5 0.0000 0.0000 0.0000 0.0000 -113.2631 0.0000
# 6 0.0000 0.0000 0.0000 0.0000 0.0000 38.8550
#
#
#
# Elastic Compliance Matrix: (Units=1/GPa)
#
#
# Indices 1 2 3 4 5 6 
#
# 1 0.012326 -0.001301 -0.005619 0.000000 0.000000 0.000000
# 2 -0.001301 0.010497 -0.003797 0.000000 0.000000 0.000000
# 3 -0.005619 -0.003797 0.014649 0.000000 0.000000 0.000000
# 4 0.000000 0.000000 0.000000 0.039629 0.000000 0.000000
# 5 0.000000 0.000000 0.000000 0.000000 -0.008829 0.000000
# 6 0.000000 0.000000 0.000000 0.000000 0.000000 0.025737
#
#
# Mechanical properties :
#
#
# Convention : Reuss Voigt Hill
#
# Bulk Modulus (GPa) = 62.35020 62.35402 62.35211
# Shear Modulus (GPa) = 41.39453 3.31567 22.35510
#
# Velocity S-wave (km/s) = 4.50485 1.27495 3.31053
# Velocity P-wave (km/s) = 7.59114 5.72158 6.72168
#
# Compressibility (1/GPa) = 0.01603844
#
# Stress axis : x y z
#
# Youngs Moduli (GPa) = 81.13052 95.26366 68.26262
#
# Poissons Ratio (x) = 0.12396 0.38354
# Poissons Ratio (y) = 0.10557 0.25920
# Poissons Ratio (z) = 0.45584 0.36173
#
# Static dielectric constant tensor:
#      x y z
#    x 3.498470 0.000000 0.000000 
#    y 0.000000 3.918450 0.000000 
#    z 0.000000 0.000000 3.762130 
# 
# 
# High freq. dielectric constant tensor:
#      x y z
#    x 1.789240 0.000000 0.000000 
#    y 0.000000 1.820980 0.000000 
#    z 0.000000 0.000000 1.803810 
# 
# From -- ./inp_files/16309.got.cif
#   From: 2010.03.12/outbox.cif.g09.slc.cpg/sg57_9_cif.got.tgz:16309.got - 2010.04.16 15:48:40.
