data_PCOD8234070
_publ_section_title
;
Structure prediction by ZEFSAII (Michael W. Deem and Ramdas Pophale) SiO2 
 PCOD8234070
Probable space group: P B C M
;
_chemical_formula_sum "Si O2"
_cell_formula_units_Z 64
_cell_length_a 22.871997
_cell_length_b 9.306186
_cell_length_c 14.020505
_cell_angle_alpha 90.000000
_cell_angle_beta 90.000000
_cell_angle_gamma 90.000000
_cell_volume 2984.279327
_symmetry_space_group_name_H-M "P B C M"
_symmetry_group_IT_number 57
_symmetry_cell_setting 'orthorhombic'
loop_
_space_group_symop_operation_xyz
x,y,z
-x,-y,1/2+z
x,1/2-y,-z
-x,1/2+y,1/2-z
-x,-y,-z
x,y,1/2-z
-x,1/2+y,z
x,1/2-y,1/2+z
loop_
_atom_site_type_symbol
_atom_site_label
_atom_site_fract_x
_atom_site_fract_y
_atom_site_fract_z
Si Si1 0.124000 0.138720 0.645935
Si Si2 0.686283 0.094285 0.022020
Si Si3 0.348901 0.113187 0.143277
Si Si4 0.460828 0.224152 0.862241
Si Si5 0.251283 0.172060 0.597748
Si Si6 0.962679 0.604288 0.136748
Si Si7 0.430642 0.592847 0.363252
Si Si8 0.922197 0.099893 0.018613
O O1 0.102082 0.087152 0.750000
O O2 0.191508 0.183398 0.656688
O O3 0.083132 0.269695 0.612888
O O4 0.120483 0.011191 0.570036
O O5 0.628950 0.127370 0.083506
O O6 0.729996 0.994235 0.082930
O O7 0.715391 0.250000 0.000000
O O8 0.672166 0.016587 0.922268
O O9 0.359225 0.051847 0.250000
O O10 0.407783 0.179254 0.096463
O O11 0.302512 0.243246 0.151519
O O12 0.454811 0.233480 0.750000
O O13 0.522679 0.287134 0.896331
O O14 0.455747 0.060875 0.896798
O O15 0.237812 0.250000 0.500000
O O16 0.968590 0.575805 0.250000
O O17 0.024235 0.642034 0.088466
O O18 0.941244 0.459705 0.084699
O O19 0.419900 0.596952 0.250000
O O20 0.888408 0.250000 0.000000
#
# Coordination Sequence:
#
# PCOD8234070 Si02
#       8
#     8   8   8   8   8   8   8   8
#     4  11  23  40  66  94 119 162 214 253 303 366
#     4  11  25  40  59  93 123 159 198 250 317 374
#     4  10  21  41  63  85 118 160 207 255 303 360
#     4   9  19  35  58  86 118 157 200 247 302 360
#     4  10  21  41  66  87 117 156 209 257 300 362
#     4  10  21  38  60  90 128 169 215 256 297 354
#     4  10  21  38  59  87 123 161 201 250 307 369
#     4  11  22  36  58  90 133 170 199 252 311 360
#
# _framework density 21.445715
#
# number of rings (size 3 to 8) (size 9 to 14) (size 15 to 20)
#    0.000    1.750    1.250    3.375    1.750    4.000 
#    0.000    0.000    0.000    0.000    0.000    0.000 
#    0.000    0.000    0.000    0.000    0.000    0.000 
#
# Total GULP energy -793523.100543 kJ/mol
# GULP energy per Si atom -12398.798446 kJ/mol
# Density = 2.139690 g / cm^3
# Si number density = 21.445715 Si / 1000 Ang^3
#
#
#
# Elastic Constant Matrix: (Units=GPa)
#
#
# Indices 1 2 3 4 5 6 
#
# 1 92.5224 14.8049 12.0615 0.0000 0.0000 0.0000
# 2 14.8049 117.9354 29.2810 0.0000 0.0000 0.0000
# 3 12.0615 29.2810 96.6225 0.0000 0.0000 0.0000
# 4 0.0000 0.0000 0.0000 22.7321 0.0000 0.0000
# 5 0.0000 0.0000 0.0000 0.0000 21.9556 0.0000
# 6 0.0000 0.0000 0.0000 0.0000 0.0000 27.1822
#
#
#
# Elastic Compliance Matrix: (Units=1/GPa)
#
#
# Indices 1 2 3 4 5 6 
#
# 1 0.011126 -0.001137 -0.001044 0.000000 0.000000 0.000000
# 2 -0.001137 0.009285 -0.002672 0.000000 0.000000 0.000000
# 3 -0.001044 -0.002672 0.011290 0.000000 0.000000 0.000000
# 4 0.000000 0.000000 0.000000 0.043991 0.000000 0.000000
# 5 0.000000 0.000000 0.000000 0.000000 0.045546 0.000000
# 6 0.000000 0.000000 0.000000 0.000000 0.000000 0.036789
#
#
# Mechanical properties :
#
#
# Convention : Reuss Voigt Hill
#
# Bulk Modulus (GPa) = 45.46662 46.59725 46.03193
# Shear Modulus (GPa) = 28.56068 31.10284 29.83176
#
# Velocity S-wave (km/s) = 3.65330 3.81242 3.73371
# Velocity P-wave (km/s) = 6.24838 6.41518 6.33233
#
# Compressibility (1/GPa) = 0.02199416
#
# Stress axis : x y z
#
# Youngs Moduli (GPa) = 89.87691 107.69610 88.57702
#
# Poissons Ratio (x) = 0.12250 0.09249
# Poissons Ratio (y) = 0.10223 0.23667
# Poissons Ratio (z) = 0.09385 0.28775
#
# Static dielectric constant tensor:
#      x y z
#    x 3.732800 0.000000 0.000000 
#    y 0.000000 3.939680 0.000000 
#    z 0.000000 0.000000 3.842510 
# 
# 
# High freq. dielectric constant tensor:
#      x y z
#    x 1.826500 0.000000 0.000000 
#    y 0.000000 1.840310 0.000000 
#    z 0.000000 0.000000 1.851590 
# 
# From -- ./inp_files/19506.got.cif
#   From: 2010.03.12/outbox.cif.g09.slc.cpg/sg57_10_cif.got.tgz:19506.got - 2010.04.16 15:48:40.
