data_PCOD8234464
_publ_section_title
;
Structure prediction by ZEFSAII (Michael W. Deem and Ramdas Pophale) SiO2 
 PCOD8234464
Probable space group: P B C M
;
_chemical_formula_sum "Si O2"
_cell_formula_units_Z 48
_cell_length_a 17.929407
_cell_length_b 9.655536
_cell_length_c 13.546182
_cell_angle_alpha 90.000000
_cell_angle_beta 90.000000
_cell_angle_gamma 90.000000
_cell_volume 2345.088406
_symmetry_space_group_name_H-M "P B C M"
_symmetry_group_IT_number 57
_symmetry_cell_setting 'orthorhombic'
loop_
_space_group_symop_operation_xyz
x,y,z
-x,-y,1/2+z
x,1/2-y,-z
-x,1/2+y,1/2-z
-x,-y,-z
x,y,1/2-z
-x,1/2+y,z
x,1/2-y,1/2+z
loop_
_atom_site_type_symbol
_atom_site_label
_atom_site_fract_x
_atom_site_fract_y
_atom_site_fract_z
Si Si1 0.185077 0.520480 0.504838
Si Si2 0.304832 0.462493 0.361255
Si Si3 0.917465 0.321125 0.137403
Si Si4 0.427564 0.407776 0.498297
Si Si5 0.941563 0.003145 0.363340
Si Si6 0.291155 0.139496 0.362792
O O1 0.251921 0.560690 0.428638
O O2 0.152093 0.652897 0.563905
O O3 0.122141 0.446778 0.436741
O O4 0.216283 0.417451 0.587468
O O5 0.300086 0.517662 0.250000
O O6 0.390048 0.462653 0.397255
O O7 0.280415 0.303175 0.373681
O O8 0.891085 0.341535 0.250000
O O9 0.949545 0.168069 0.120720
O O10 0.980553 0.432585 0.108845
O O11 0.455217 0.250000 0.500000
O O12 0.500000 0.500000 0.500000
O O13 0.365920 0.421482 0.585486
O O14 0.919404 0.967946 0.250000
O O15 0.295804 0.091781 0.250000
#
# Coordination Sequence:
#
# PCOD8234464 Si02
#       6
#     8   8   8   8   8   8
#     4  11  19  32  55  79 103 137 181 231 273 316
#     4   9  19  35  54  79 112 148 184 222 269 327
#     4  10  22  38  55  78 109 144 182 227 279 332
#     4   9  18  34  57  83 111 143 181 223 268 318
#     4  10  22  38  55  78 109 144 182 227 279 332
#     4   9  19  35  54  79 112 148 184 222 269 327
#
# _framework density 20.468312000000001
#
# number of rings (size 3 to 8) (size 9 to 14) (size 15 to 20)
#    0.000    2.333    0.000    3.500    0.000    3.333 
#    0.000   10.000    0.000    4.000    0.000    0.000 
#    0.000    0.000    0.000    0.000    0.000    0.000 
#
# Total GULP energy -594841.762842 kJ/mol
# GULP energy per Si atom -12392.536726 kJ/mol
# Density = 2.042173 g / cm^3
# Si number density = 20.468312 Si / 1000 Ang^3
#
#
#
# Elastic Constant Matrix: (Units=GPa)
#
#
# Indices 1 2 3 4 5 6 
#
# 1 122.9319 69.9066 71.5581 0.0000 0.0000 0.0000
# 2 69.9066 70.4960 52.9712 0.0000 0.0000 0.0000
# 3 71.5581 52.9712 130.9453 0.0000 0.0000 0.0000
# 4 0.0000 0.0000 0.0000 27.2683 0.0000 0.0000
# 5 0.0000 0.0000 0.0000 0.0000 23.3626 0.0000
# 6 0.0000 0.0000 0.0000 0.0000 0.0000 34.5774
#
#
#
# Elastic Compliance Matrix: (Units=1/GPa)
#
#
# Indices 1 2 3 4 5 6 
#
# 1 0.020146 -0.016817 -0.004206 0.000000 0.000000 0.000000
# 2 -0.016817 0.034418 -0.004733 0.000000 0.000000 0.000000
# 3 -0.004206 -0.004733 0.011850 0.000000 0.000000 0.000000
# 4 0.000000 0.000000 0.000000 0.036673 0.000000 0.000000
# 5 0.000000 0.000000 0.000000 0.000000 0.042803 0.000000
# 6 0.000000 0.000000 0.000000 0.000000 0.000000 0.028921
#
#
# Mechanical properties :
#
#
# Convention : Reuss Voigt Hill
#
# Bulk Modulus (GPa) = 67.10762 79.24945 73.17854
# Shear Modulus (GPa) = 21.61769 25.70415 23.66092
#
# Velocity S-wave (km/s) = 3.25338 3.54757 3.40366
# Velocity P-wave (km/s) = 6.85346 7.45537 7.16074
#
# Compressibility (1/GPa) = 0.01490144
#
# Stress axis : x y z
#
# Youngs Moduli (GPa) = 49.63647 29.05435 84.38742
#
# Poissons Ratio (x) = 0.48862 0.35497
# Poissons Ratio (y) = 0.83475 0.39940
# Poissons Ratio (z) = 0.20879 0.13751
#
# Static dielectric constant tensor:
#      x y z
#    x 3.625370 0.000000 0.000000 
#    y 0.000000 3.469700 0.000000 
#    z 0.000000 0.000000 4.407000 
# 
# 
# High freq. dielectric constant tensor:
#      x y z
#    x 1.791070 0.000000 0.000000 
#    y 0.000000 1.771190 0.000000 
#    z 0.000000 0.000000 1.825840 
# 
# From -- ./inp_files/18971.got.cif
#   From: 2010.03.12/outbox.cif.g09.slc.cpg/sg57_10_cif.got.tgz:18971.got - 2010.04.16 15:48:40.
