data_PCOD8234108
_publ_section_title
;
Structure prediction by ZEFSAII (Michael W. Deem and Ramdas Pophale) SiO2 
 PCOD8234108
Probable space group: P B C M
;
_chemical_formula_sum "Si O2"
_cell_formula_units_Z 56
_cell_length_a 7.835389
_cell_length_b 17.046449
_cell_length_c 20.615270
_cell_angle_alpha 90.000000
_cell_angle_beta 90.000000
_cell_angle_gamma 90.000000
_cell_volume 2753.490061
_symmetry_space_group_name_H-M "P B C M"
_symmetry_group_IT_number 57
_symmetry_cell_setting 'orthorhombic'
loop_
_space_group_symop_operation_xyz
x,y,z
-x,-y,1/2+z
x,1/2-y,-z
-x,1/2+y,1/2-z
-x,-y,-z
x,y,1/2-z
-x,1/2+y,z
x,1/2-y,1/2+z
loop_
_atom_site_type_symbol
_atom_site_label
_atom_site_fract_x
_atom_site_fract_y
_atom_site_fract_z
Si Si1 0.583127 0.921427 0.176185
Si Si2 0.766335 0.797040 0.566750
Si Si3 0.375754 0.694785 0.436942
Si Si4 0.911492 0.579652 0.514779
Si Si5 0.618369 0.482263 0.559634
Si Si6 0.927850 0.662917 0.861959
Si Si7 0.712797 0.200643 0.822241
O O1 0.554211 0.948298 0.250000
O O2 0.775880 0.887042 0.170574
O O3 0.437602 0.858520 0.155916
O O4 0.546093 0.999047 0.131819
O O5 0.766929 0.750000 0.500000
O O6 0.571881 0.817499 0.583457
O O7 0.872809 0.876474 0.553152
O O8 0.851753 0.750303 0.625842
O O9 0.348630 0.750000 0.500000
O O10 0.303565 0.605946 0.447873
O O11 0.277576 0.730380 0.375424
O O12 0.744232 0.555423 0.553720
O O13 0.003613 0.633441 0.568282
O O14 0.000000 0.500000 0.500000
O O15 0.500000 0.500000 0.500000
O O16 0.096988 0.662972 0.817650
O O17 0.670364 0.232752 0.750000
#
# Coordination Sequence:
#
# PCOD8234108 Si02
#       7
#     8   8   8   8   8   8   8
#     4  10  22  42  63  85 118 160 201 250 307 360
#     4   9  18  36  55  84 123 158 196 246 301 358
#     4  11  22  37  63  89 122 160 200 249 302 363
#     4  10  22  34  54  91 125 155 199 253 312 358
#     4  11  22  37  61  90 118 155 199 254 302 356
#     4  10  21  38  61  85 120 161 203 249 297 360
#     4  11  24  39  63  92 119 160 209 246 300 373
#
# _framework density 20.337826
#
# number of rings (size 3 to 8) (size 9 to 14) (size 15 to 20)
#    0.000    1.714    2.857    1.286    6.000    1.143 
#    0.000    0.000    0.000    0.000    0.000    0.000 
#    0.000    0.000    0.000    0.000    0.000    0.000 
#
# Total GULP energy -693754.443739 kJ/mol
# GULP energy per Si atom -12388.472210 kJ/mol
# Density = 2.029154 g / cm^3
# Si number density = 20.337826 Si / 1000 Ang^3
#
#
#
# Elastic Constant Matrix: (Units=GPa)
#
#
# Indices 1 2 3 4 5 6 
#
# 1 62.0832 -2.5621 9.4727 0.0000 0.0000 0.0000
# 2 -2.5621 102.3533 43.4017 0.0000 0.0000 0.0000
# 3 9.4727 43.4017 111.1207 0.0000 0.0000 0.0000
# 4 0.0000 0.0000 0.0000 29.9217 0.0000 0.0000
# 5 0.0000 0.0000 0.0000 0.0000 22.3991 0.0000
# 6 0.0000 0.0000 0.0000 0.0000 0.0000 28.7462
#
#
#
# Elastic Compliance Matrix: (Units=1/GPa)
#
#
# Indices 1 2 3 4 5 6 
#
# 1 0.016443 0.001206 -0.001873 0.000000 0.000000 0.000000
# 2 0.001206 0.011798 -0.004711 0.000000 0.000000 0.000000
# 3 -0.001873 -0.004711 0.010999 0.000000 0.000000 0.000000
# 4 0.000000 0.000000 0.000000 0.033421 0.000000 0.000000
# 5 0.000000 0.000000 0.000000 0.000000 0.044645 0.000000
# 6 0.000000 0.000000 0.000000 0.000000 0.000000 0.034787
#
#
# Mechanical properties :
#
#
# Convention : Reuss Voigt Hill
#
# Bulk Modulus (GPa) = 35.10742 41.79800 38.45271
# Shear Modulus (GPa) = 29.01207 31.22972 30.12090
#
# Velocity S-wave (km/s) = 3.78101 3.92286 3.85259
# Velocity P-wave (km/s) = 6.03001 6.41209 6.22398
#
# Compressibility (1/GPa) = 0.02848401
#
# Stress axis : x y z
#
# Youngs Moduli (GPa) = 60.81657 84.76148 90.91898
#
# Poissons Ratio (x) = -0.10219 0.17025
# Poissons Ratio (y) = -0.07332 0.42830
# Poissons Ratio (z) = 0.11389 0.39929
#
# Static dielectric constant tensor:
#      x y z
#    x 3.682010 0.000000 0.000000 
#    y 0.000000 3.560100 0.000000 
#    z 0.000000 0.000000 3.412930 
# 
# 
# High freq. dielectric constant tensor:
#      x y z
#    x 1.796530 0.000000 0.000000 
#    y 0.000000 1.783450 0.000000 
#    z 0.000000 0.000000 1.785040 
# 
# From -- ./inp_files/24517.got.cif
#   From: 2010.03.12/outbox.cif.g09.slc.cpg/sg57_13_cif.got.tgz:24517.got - 2010.04.16 15:48:40.
