data_PCOD8234742
_publ_section_title
;
Structure prediction by ZEFSAII (Michael W. Deem and Ramdas Pophale) SiO2 
 PCOD8234742
Probable space group: P B C M
;
_chemical_formula_sum "Si O2"
_cell_formula_units_Z 48
_cell_length_a 9.619224
_cell_length_b 27.584301
_cell_length_c 9.025252
_cell_angle_alpha 90.000000
_cell_angle_beta 90.000000
_cell_angle_gamma 90.000000
_cell_volume 2394.756487
_symmetry_space_group_name_H-M "P B C M"
_symmetry_group_IT_number 57
_symmetry_cell_setting 'orthorhombic'
loop_
_space_group_symop_operation_xyz
x,y,z
-x,-y,1/2+z
x,1/2-y,-z
-x,1/2+y,1/2-z
-x,-y,-z
x,y,1/2-z
-x,1/2+y,z
x,1/2-y,1/2+z
loop_
_atom_site_type_symbol
_atom_site_label
_atom_site_fract_x
_atom_site_fract_y
_atom_site_fract_z
Si Si1 0.785360 0.800169 0.579629
Si Si2 0.596785 0.040217 0.073060
Si Si3 0.287234 0.703487 0.583893
Si Si4 0.490304 0.145670 0.419656
Si Si5 0.982134 0.355328 0.084426
Si Si6 0.100488 0.961469 0.426039
O O1 0.747094 0.750000 0.500000
O O2 0.802391 0.786727 0.750000
O O3 0.671111 0.842084 0.553711
O O4 0.929244 0.822897 0.525947
O O5 0.605268 0.032907 0.250000
O O6 0.525073 0.091210 0.029747
O O7 0.749809 0.036970 0.003835
O O8 0.500000 0.000000 0.000000
O O9 0.227083 0.750000 0.500000
O O10 0.320331 0.719422 0.750000
O O11 0.429198 0.685309 0.513786
O O12 0.177096 0.660630 0.575019
O O13 0.533997 0.152645 0.250000
O O14 0.041714 0.347904 0.250000
O O15 0.979449 0.411439 0.040449
O O16 0.119130 0.970252 0.250000
O O17 0.000000 0.000000 0.500000
#
# Coordination Sequence:
#
# PCOD8234742 Si02
#       6
#     8   8   8   8   8   8
#     4  11  24  41  62  91 126 167 211 259 311 372
#     4  11  24  43  67  97 130 169 213 263 321 382
#     4  11  22  38  62  91 122 160 204 255 311 371
#     4  10  23  42  63  91 125 163 209 257 312 374
#     4  10  23  42  63  91 125 163 208 257 312 375
#     4  11  24  44  67  97 130 166 213 263 321 386
#
# _framework density 20.043792
#
# number of rings (size 3 to 8) (size 9 to 14) (size 15 to 20)
#    0.000    1.333    1.667    3.000    2.333    7.333 
#    0.000    0.000    0.000    0.000    0.000    0.000 
#    0.000    0.000    0.000    0.000    0.000    0.000 
#
# Total GULP energy -595337.870549 kJ/mol
# GULP energy per Si atom -12402.872303 kJ/mol
# Density = 1.999817 g / cm^3
# Si number density = 20.043792 Si / 1000 Ang^3
#
#
#
# Elastic Constant Matrix: (Units=GPa)
#
#
# Indices 1 2 3 4 5 6 
#
# 1 94.1098 40.4847 51.6941 0.0000 0.0000 0.0000
# 2 40.4847 127.1906 60.3466 0.0000 0.0000 0.0000
# 3 51.6941 60.3466 116.4683 0.0000 0.0000 0.0000
# 4 0.0000 0.0000 0.0000 36.4679 0.0000 0.0000
# 5 0.0000 0.0000 0.0000 0.0000 36.0456 0.0000
# 6 0.0000 0.0000 0.0000 0.0000 0.0000 36.0012
#
#
#
# Elastic Compliance Matrix: (Units=1/GPa)
#
#
# Indices 1 2 3 4 5 6 
#
# 1 0.014449 -0.002064 -0.005344 0.000000 0.000000 0.000000
# 2 -0.002064 0.010720 -0.004638 0.000000 0.000000 0.000000
# 3 -0.005344 -0.004638 0.013361 0.000000 0.000000 0.000000
# 4 0.000000 0.000000 0.000000 0.027421 0.000000 0.000000
# 5 0.000000 0.000000 0.000000 0.000000 0.027743 0.000000
# 6 0.000000 0.000000 0.000000 0.000000 0.000000 0.027777
#
#
# Mechanical properties :
#
#
# Convention : Reuss Voigt Hill
#
# Bulk Modulus (GPa) = 69.26089 71.42440 70.34264
# Shear Modulus (GPa) = 33.25010 34.05250 33.65130
#
# Velocity S-wave (km/s) = 4.07734 4.12625 4.10187
# Velocity P-wave (km/s) = 7.53632 7.64282 7.58976
#
# Compressibility (1/GPa) = 0.01443816
#
# Stress axis : x y z
#
# Youngs Moduli (GPa) = 69.20884 93.28531 74.84348
#
# Poissons Ratio (x) = 0.19251 0.39996
# Poissons Ratio (y) = 0.14282 0.34715
# Poissons Ratio (z) = 0.36984 0.43269
#
# Static dielectric constant tensor:
#      x y z
#    x 3.543840 0.000000 0.000000 
#    y 0.000000 3.796660 0.000000 
#    z 0.000000 0.000000 3.993460 
# 
# 
# High freq. dielectric constant tensor:
#      x y z
#    x 1.785620 0.000000 0.000000 
#    y 0.000000 1.796700 0.000000 
#    z 0.000000 0.000000 1.793450 
# 
# From -- ./inp_files/2091.got.cif
#   From: 2010.03.12/outbox.cif.g09.slc.cpg/sg57_2_cif.got.tgz:2091.got - 2010.04.16 15:48:40.
