data_PCOD8234192
_publ_section_title
;
Structure prediction by ZEFSAII (Michael W. Deem and Ramdas Pophale) SiO2 
 PCOD8234192
Probable space group: P B C M
;
_chemical_formula_sum "Si O2"
_cell_formula_units_Z 48
_cell_length_a 14.951067
_cell_length_b 19.190701
_cell_length_c 8.631862
_cell_angle_alpha 90.000000
_cell_angle_beta 90.000000
_cell_angle_gamma 90.000000
_cell_volume 2476.666417
_symmetry_space_group_name_H-M "P B C M"
_symmetry_group_IT_number 57
_symmetry_cell_setting 'orthorhombic'
loop_
_space_group_symop_operation_xyz
x,y,z
-x,-y,1/2+z
x,1/2-y,-z
-x,1/2+y,1/2-z
-x,-y,-z
x,y,1/2-z
-x,1/2+y,z
x,1/2-y,1/2+z
loop_
_atom_site_type_symbol
_atom_site_label
_atom_site_fract_x
_atom_site_fract_y
_atom_site_fract_z
Si Si1 0.064972 0.323918 0.567580
Si Si2 0.221028 0.090783 0.568131
Si Si3 0.607619 0.674064 0.931250
Si Si4 0.873504 0.176431 0.567847
Si Si5 0.738405 0.431643 0.568961
Si Si6 0.545335 0.068335 0.933020
O O1 0.097772 0.250000 0.500000
O O2 0.058648 0.316951 0.750000
O O3 0.133610 0.384078 0.521655
O O4 0.968532 0.345413 0.502955
O O5 0.207492 0.102859 0.750000
O O6 0.306545 0.132789 0.502839
O O7 0.235388 0.010310 0.528753
O O8 0.619223 0.680329 0.750000
O O9 0.517650 0.633331 0.974308
O O10 0.601970 0.750000 0.000000
O O11 0.840357 0.250000 0.500000
O O12 0.884401 0.184093 0.750000
O O13 0.802004 0.117917 0.528742
O O14 0.748884 0.415569 0.750000
O O15 0.637657 0.416772 0.518308
O O16 0.559531 0.059675 0.750000
O O17 0.500000 0.000000 0.000000
#
# Coordination Sequence:
#
# PCOD8234192 Si02
#       6
#     8   8   8   8   8   8
#     4  11  22  38  61  89 121 161 203 249 304 360
#     4  10  21  39  60  87 123 160 199 248 302 361
#     4  10  22  39  59  88 121 157 200 249 299 354
#     4  11  23  42  65  90 120 159 204 252 303 362
#     4  11  23  41  64  91 123 159 199 253 309 361
#     4  11  22  40  62  87 120 161 206 250 304 364
#
# _framework density 19.380889
#
# number of rings (size 3 to 8) (size 9 to 14) (size 15 to 20)
#    0.000    1.333    1.667    5.500    0.000    6.000 
#    0.000    1.667    0.000    0.000    0.000    0.000 
#    0.000    0.000    0.000    0.000    0.000    0.000 
#
# Total GULP energy -595457.668043 kJ/mol
# GULP energy per Si atom -12405.368084 kJ/mol
# Density = 1.933678 g / cm^3
# Si number density = 19.380889 Si / 1000 Ang^3
#
#
#
# Elastic Constant Matrix: (Units=GPa)
#
#
# Indices 1 2 3 4 5 6 
#
# 1 129.6578 72.8044 45.5688 0.0000 0.0000 0.0000
# 2 72.8044 129.2261 50.9928 0.0000 0.0000 0.0000
# 3 45.5688 50.9928 97.8698 0.0000 0.0000 0.0000
# 4 0.0000 0.0000 0.0000 34.3288 0.0000 0.0000
# 5 0.0000 0.0000 0.0000 0.0000 35.2172 0.0000
# 6 0.0000 0.0000 0.0000 0.0000 0.0000 44.1543
#
#
#
# Elastic Compliance Matrix: (Units=1/GPa)
#
#
# Indices 1 2 3 4 5 6 
#
# 1 0.011766 -0.005623 -0.002548 0.000000 0.000000 0.000000
# 2 -0.005623 0.012428 -0.003857 0.000000 0.000000 0.000000
# 3 -0.002548 -0.003857 0.013414 0.000000 0.000000 0.000000
# 4 0.000000 0.000000 0.000000 0.029130 0.000000 0.000000
# 5 0.000000 0.000000 0.000000 0.000000 0.028395 0.000000
# 6 0.000000 0.000000 0.000000 0.000000 0.000000 0.022648
#
#
# Mechanical properties :
#
#
# Convention : Reuss Voigt Hill
#
# Bulk Modulus (GPa) = 73.79857 77.27618 75.53737
# Shear Modulus (GPa) = 34.16330 35.23258 34.69794
#
# Velocity S-wave (km/s) = 4.20304 4.26831 4.23580
# Velocity P-wave (km/s) = 7.85588 8.01563 7.93615
#
# Compressibility (1/GPa) = 0.01355040
#
# Stress axis : x y z
#
# Youngs Moduli (GPa) = 84.99322 80.46046 74.54864
#
# Poissons Ratio (x) = 0.45243 0.18998
# Poissons Ratio (y) = 0.47792 0.28757
# Poissons Ratio (z) = 0.21660 0.31037
#
# Static dielectric constant tensor:
#      x y z
#    x 3.771370 0.000000 0.000000 
#    y 0.000000 3.522200 0.000000 
#    z 0.000000 0.000000 3.757850 
# 
# 
# High freq. dielectric constant tensor:
#      x y z
#    x 1.767130 0.000000 0.000000 
#    y 0.000000 1.759750 0.000000 
#    z 0.000000 0.000000 1.763320 
# 
# From -- ./inp_files/4654.got.cif
#   From: 2010.03.12/outbox.cif.g09.slc.cpg/sg57_3_cif.got.tgz:4654.got - 2010.04.16 15:48:40.
