data_PCOD8234225
_publ_section_title
;
Structure prediction by ZEFSAII (Michael W. Deem and Ramdas Pophale) SiO2 
 PCOD8234225
Probable space group: P B C M
;
_chemical_formula_sum "Si O2"
_cell_formula_units_Z 40
_cell_length_a 7.175881
_cell_length_b 29.403871
_cell_length_c 8.873921
_cell_angle_alpha 90.000000
_cell_angle_beta 90.000000
_cell_angle_gamma 90.000000
_cell_volume 1872.385611
_symmetry_space_group_name_H-M "P B C M"
_symmetry_group_IT_number 57
_symmetry_cell_setting 'orthorhombic'
loop_
_space_group_symop_operation_xyz
x,y,z
-x,-y,1/2+z
x,1/2-y,-z
-x,1/2+y,1/2-z
-x,-y,-z
x,y,1/2-z
-x,1/2+y,z
x,1/2-y,1/2+z
loop_
_atom_site_type_symbol
_atom_site_label
_atom_site_fract_x
_atom_site_fract_y
_atom_site_fract_z
Si Si1 0.924867 0.203083 0.073815
Si Si2 0.196124 0.364935 0.421630
Si Si3 0.324388 0.941470 0.921538
Si Si4 0.369132 0.647355 0.576668
Si Si5 0.299547 0.039033 0.576702
O O1 0.916690 0.210172 0.250000
O O2 0.990851 0.250000 0.000000
O O3 0.720064 0.189189 0.014513
O O4 0.072546 0.163968 0.034506
O O5 0.148826 0.351035 0.250000
O O6 0.412551 0.354983 0.457936
O O7 0.155973 0.418985 0.448811
O O8 0.307122 0.924399 0.750000
O O9 0.206822 0.988720 0.946439
O O10 0.264624 0.899575 0.027703
O O11 0.536887 0.955175 0.955927
O O12 0.324420 0.655455 0.750000
O O13 0.376805 0.043120 0.750000
#
# Coordination Sequence:
#
# PCOD8234225 Si02
#       5
#     8   8   8   8   8
#     4  12  26  43  63  86 113 146 188 240 294 347
#     4   9  19  38  62  87 117 153 191 233 283 337
#     4   9  15  26  49  82 117 152 192 233 276 332
#     4  10  21  39  62  87 118 155 193 236 286 339
#     4   8  15  28  49  79 116 156 192 229 277 333
#
# _framework density 21.363119999999999
#
# number of rings (size 3 to 8) (size 9 to 14) (size 15 to 20)
#    0.000    2.400    0.000    4.200    0.000    5.600 
#    0.000    1.000    0.000    0.000    0.000    0.000 
#    0.000    0.000    0.000    0.000    0.000    0.000 
#
# Total GULP energy -495735.755623 kJ/mol
# GULP energy per Si atom -12393.393891 kJ/mol
# Density = 2.131450 g / cm^3
# Si number density = 21.363120 Si / 1000 Ang^3
#
#
#
# Elastic Constant Matrix: (Units=GPa)
#
#
# Indices 1 2 3 4 5 6 
#
# 1 27.0110 5.7800 10.1571 0.0000 0.0000 0.0000
# 2 5.7800 97.8482 34.9951 0.0000 0.0000 0.0000
# 3 10.1571 34.9951 113.0771 0.0000 0.0000 0.0000
# 4 0.0000 0.0000 0.0000 36.8979 0.0000 0.0000
# 5 0.0000 0.0000 0.0000 0.0000 26.9363 0.0000
# 6 0.0000 0.0000 0.0000 0.0000 0.0000 27.7276
#
#
#
# Elastic Compliance Matrix: (Units=1/GPa)
#
#
# Indices 1 2 3 4 5 6 
#
# 1 0.038434 -0.001164 -0.003092 0.000000 0.000000 0.000000
# 2 -0.001164 0.011527 -0.003463 0.000000 0.000000 0.000000
# 3 -0.003092 -0.003463 0.010193 0.000000 0.000000 0.000000
# 4 0.000000 0.000000 0.000000 0.027102 0.000000 0.000000
# 5 0.000000 0.000000 0.000000 0.000000 0.037125 0.000000
# 6 0.000000 0.000000 0.000000 0.000000 0.000000 0.036065
#
#
# Mechanical properties :
#
#
# Convention : Reuss Voigt Hill
#
# Bulk Modulus (GPa) = 22.36366 37.75562 30.05964
# Shear Modulus (GPa) = 26.20696 30.77931 28.49313
#
# Velocity S-wave (km/s) = 3.50628 3.79986 3.65602
# Velocity P-wave (km/s) = 5.18489 6.07977 5.65007
#
# Compressibility (1/GPa) = 0.04471539
#
# Stress axis : x y z
#
# Youngs Moduli (GPa) = 26.01880 86.75151 98.10719
#
# Poissons Ratio (x) = 0.10102 0.30334
# Poissons Ratio (y) = 0.03030 0.33973
# Poissons Ratio (z) = 0.08045 0.30041
#
# Static dielectric constant tensor:
#      x y z
#    x 3.415440 0.000000 0.000000 
#    y 0.000000 4.268670 0.000000 
#    z 0.000000 0.000000 3.779630 
# 
# 
# High freq. dielectric constant tensor:
#      x y z
#    x 1.798180 0.000000 0.000000 
#    y 0.000000 1.853450 0.000000 
#    z 0.000000 0.000000 1.837880 
# 
# From -- ./inp_files/1716.got.cif
#   From: 2010.03.12/outbox.cif.g09.slc.cpg/sg57_1_cif.got.tgz:1716.got - 2010.04.16 15:48:40.
