data_PCOD8234883
_publ_section_title
;
Structure prediction by ZEFSAII (Michael W. Deem and Ramdas Pophale) SiO2 
 PCOD8234883
Probable space group: P B C M
;
_chemical_formula_sum "Si O2"
_cell_formula_units_Z 56
_cell_length_a 9.364370
_cell_length_b 13.620616
_cell_length_c 21.921489
_cell_angle_alpha 90.000000
_cell_angle_beta 90.000000
_cell_angle_gamma 90.000000
_cell_volume 2796.052773
_symmetry_space_group_name_H-M "P B C M"
_symmetry_group_IT_number 57
_symmetry_cell_setting 'orthorhombic'
loop_
_space_group_symop_operation_xyz
x,y,z
-x,-y,1/2+z
x,1/2-y,-z
-x,1/2+y,1/2-z
-x,-y,-z
x,y,1/2-z
-x,1/2+y,z
x,1/2-y,1/2+z
loop_
_atom_site_type_symbol
_atom_site_label
_atom_site_fract_x
_atom_site_fract_y
_atom_site_fract_z
Si Si1 0.676799 0.146786 0.927387
Si Si2 0.953534 0.875322 0.889763
Si Si3 0.954717 0.084202 0.869078
Si Si4 0.143846 0.362557 0.014778
Si Si5 0.371726 0.072280 0.903251
Si Si6 0.815660 0.701637 0.681680
Si Si7 0.268050 0.638145 0.067015
O O1 0.794549 0.121182 0.876891
O O2 0.540455 0.083190 0.908434
O O3 0.639176 0.263161 0.922362
O O4 0.735808 0.117359 0.994398
O O5 0.846688 0.795869 0.860746
O O6 0.110823 0.835061 0.906713
O O7 0.960880 0.970889 0.847105
O O8 0.882844 0.919194 0.951786
O O9 0.046291 0.097252 0.931024
O O10 0.034063 0.143587 0.815650
O O11 0.306836 0.381146 0.034765
O O12 0.108209 0.250000 0.000000
O O13 0.309816 0.133062 0.845588
O O14 0.333441 0.956105 0.898049
O O15 0.772291 0.733432 0.750000
#
# Coordination Sequence:
#
# PCOD8234883 Si02
#       7
#     8   8   8   8   8   8   8
#     4  11  23  35  60  96 135 159 196 251 317 408
#     4  12  20  37  64  93 122 157 210 265 321 364
#     4  11  21  37  62  90 121 156 204 262 314 376
#     4  11  18  33  59  87 124 160 192 247 322 388
#     4  11  24  40  58  91 134 170 202 253 331 389
#     4  11  25  43  63  86 118 168 225 266 300 363
#     4  11  21  36  61  96 131 164 197 250 329 391
#
# _framework density 20.028236
#
# number of rings (size 3 to 8) (size 9 to 14) (size 15 to 20)
#    0.000    0.857    8.571    1.714    2.000    1.714 
#    0.000    0.714    0.000    1.714    0.000    0.000 
#    0.000    0.000    0.000    0.000    0.000    0.000 
#
# Total GULP energy -694125.643419 kJ/mol
# GULP energy per Si atom -12395.100775 kJ/mol
# Density = 1.998265 g / cm^3
# Si number density = 20.028236 Si / 1000 Ang^3
#
#
#
# Elastic Constant Matrix: (Units=GPa)
#
#
# Indices 1 2 3 4 5 6 
#
# 1 89.5182 4.6737 14.5527 0.0000 0.0000 0.0000
# 2 4.6737 101.2437 9.8607 0.0000 0.0000 0.0000
# 3 14.5527 9.8607 69.0673 0.0000 0.0000 0.0000
# 4 0.0000 0.0000 0.0000 11.9404 0.0000 0.0000
# 5 0.0000 0.0000 0.0000 0.0000 13.4802 0.0000
# 6 0.0000 0.0000 0.0000 0.0000 0.0000 29.1950
#
#
#
# Elastic Compliance Matrix: (Units=1/GPa)
#
#
# Indices 1 2 3 4 5 6 
#
# 1 0.011576 -0.000301 -0.002396 0.000000 0.000000 0.000000
# 2 -0.000301 0.010024 -0.001368 0.000000 0.000000 0.000000
# 3 -0.002396 -0.001368 0.015179 0.000000 0.000000 0.000000
# 4 0.000000 0.000000 0.000000 0.083749 0.000000 0.000000
# 5 0.000000 0.000000 0.000000 0.000000 0.074183 0.000000
# 6 0.000000 0.000000 0.000000 0.000000 0.000000 0.034252
#
#
# Mechanical properties :
#
#
# Convention : Reuss Voigt Hill
#
# Bulk Modulus (GPa) = 34.90475 35.33371 35.11923
# Shear Modulus (GPa) = 20.27219 26.30593 23.28906
#
# Velocity S-wave (km/s) = 3.18493 3.62808 3.41370
# Velocity P-wave (km/s) = 5.56692 5.93556 5.75419
#
# Compressibility (1/GPa) = 0.02864940
#
# Stress axis : x y z
#
# Youngs Moduli (GPa) = 86.38436 99.75791 65.88143
#
# Poissons Ratio (x) = 0.03003 0.15786
# Poissons Ratio (y) = 0.02600 0.09011
# Poissons Ratio (z) = 0.20699 0.13644
#
# Static dielectric constant tensor:
#      x y z
#    x 3.508920 0.000000 0.000000 
#    y 0.000000 3.816610 0.000000 
#    z 0.000000 0.000000 3.309000 
# 
# 
# High freq. dielectric constant tensor:
#      x y z
#    x 1.768200 0.000000 0.000000 
#    y 0.000000 1.804060 0.000000 
#    z 0.000000 0.000000 1.731040 
# 
# From -- ./inp_files/24451.got.cif
#   From: 2010.03.12/outbox.cif.g09.slc.cpg/sg57_13_cif.got.tgz:24451.got - 2010.04.16 15:48:40.
