data_PCOD8234306
_publ_section_title
;
Structure prediction by ZEFSAII (Michael W. Deem and Ramdas Pophale) SiO2 
 PCOD8234306
Probable space group: P B C M
;
_chemical_formula_sum "Si O2"
_cell_formula_units_Z 40
_cell_length_a 14.240128
_cell_length_b 9.043018
_cell_length_c 14.978169
_cell_angle_alpha 90.000000
_cell_angle_beta 90.000000
_cell_angle_gamma 90.000000
_cell_volume 1928.794748
_symmetry_space_group_name_H-M "P B C M"
_symmetry_group_IT_number 57
_symmetry_cell_setting 'orthorhombic'
loop_
_space_group_symop_operation_xyz
x,y,z
-x,-y,1/2+z
x,1/2-y,-z
-x,1/2+y,1/2-z
-x,-y,-z
x,y,1/2-z
-x,1/2+y,z
x,1/2-y,1/2+z
loop_
_atom_site_type_symbol
_atom_site_label
_atom_site_fract_x
_atom_site_fract_y
_atom_site_fract_z
Si Si1 0.739864 0.060458 0.852841
Si Si2 0.089280 0.360445 0.847092
Si Si3 0.598552 0.078557 0.004222
Si Si4 0.751992 0.404823 0.854228
Si Si5 0.940209 0.545960 0.913402
O O1 0.712181 0.028650 0.750000
O O2 0.770758 0.230421 0.864298
O O3 0.824356 0.955429 0.885863
O O4 0.653271 0.023018 0.916429
O O5 0.115559 0.296678 0.750000
O O6 0.000289 0.470403 0.834435
O O7 0.064567 0.223310 0.910316
O O8 0.656344 0.045387 0.095488
O O9 0.577371 0.250000 0.000000
O O10 0.500000 0.000000 0.000000
O O11 0.745783 0.452292 0.750000
O O12 0.834951 0.484827 0.907863
O O13 0.000000 0.500000 0.000000
#
# Coordination Sequence:
#
# PCOD8234306 Si02
#       5
#     8   8   8   8   8
#     4   9  20  39  62  86 117 154 198 249 301 355
#     4  11  22  37  57  84 116 154 197 243 292 351
#     4  10  22  39  60  87 117 150 192 244 304 366
#     4  10  21  40  61  84 117 159 202 248 300 357
#     4  12  24  37  56  85 120 157 198 242 292 349
#
# _framework density 20.738340000000001
#
# number of rings (size 3 to 8) (size 9 to 14) (size 15 to 20)
#    0.000    1.600    0.000    4.800    0.000    7.200 
#    0.000    0.000    0.000    0.000    0.000    0.000 
#    0.000    0.000    0.000    0.000    0.000    0.000 
#
# Total GULP energy -495841.159531 kJ/mol
# GULP energy per Si atom -12396.028988 kJ/mol
# Density = 2.069114 g / cm^3
# Si number density = 20.738340 Si / 1000 Ang^3
#
#
#
# Elastic Constant Matrix: (Units=GPa)
#
#
# Indices 1 2 3 4 5 6 
#
# 1 175.6808 76.8804 66.9803 0.0000 0.0000 0.0000
# 2 76.8804 103.7124 48.4336 0.0000 0.0000 0.0000
# 3 66.9803 48.4336 130.9715 0.0000 0.0000 0.0000
# 4 0.0000 0.0000 0.0000 26.5071 0.0000 0.0000
# 5 0.0000 0.0000 0.0000 0.0000 29.6150 0.0000
# 6 0.0000 0.0000 0.0000 0.0000 0.0000 46.1387
#
#
#
# Elastic Compliance Matrix: (Units=1/GPa)
#
#
# Indices 1 2 3 4 5 6 
#
# 1 0.009109 -0.005533 -0.002613 0.000000 0.000000 0.000000
# 2 -0.005533 0.015015 -0.002723 0.000000 0.000000 0.000000
# 3 -0.002613 -0.002723 0.009978 0.000000 0.000000 0.000000
# 4 0.000000 0.000000 0.000000 0.037726 0.000000 0.000000
# 5 0.000000 0.000000 0.000000 0.000000 0.033767 0.000000
# 6 0.000000 0.000000 0.000000 0.000000 0.000000 0.021674
#
#
# Mechanical properties :
#
#
# Convention : Reuss Voigt Hill
#
# Bulk Modulus (GPa) = 80.86694 88.32813 84.59753
# Shear Modulus (GPa) = 32.65248 34.99017 33.82133
#
# Velocity S-wave (km/s) = 3.97230 4.11204 4.04277
# Velocity P-wave (km/s) = 7.75355 8.07647 7.91665
#
# Compressibility (1/GPa) = 0.01236599
#
# Stress axis : x y z
#
# Youngs Moduli (GPa) = 109.77723 66.60036 100.21597
#
# Poissons Ratio (x) = 0.36847 0.26183
# Poissons Ratio (y) = 0.60734 0.27291
# Poissons Ratio (z) = 0.28681 0.18136
#
# Static dielectric constant tensor:
#      x y z
#    x 3.729730 0.000000 0.000000 
#    y 0.000000 3.793890 0.000000 
#    z 0.000000 0.000000 4.146270 
# 
# 
# High freq. dielectric constant tensor:
#      x y z
#    x 1.801400 0.000000 0.000000 
#    y 0.000000 1.809850 0.000000 
#    z 0.000000 0.000000 1.831390 
# 
# From -- ./inp_files/18204.got.cif
#   From: 2010.03.12/outbox.cif.g09.slc.cpg/sg57_10_cif.got.tgz:18204.got - 2010.04.16 15:48:40.
