data_PCOD8234384
_publ_section_title
;
Structure prediction by ZEFSAII (Michael W. Deem and Ramdas Pophale) SiO2 
 PCOD8234384
Probable space group: P B C M
;
_chemical_formula_sum "Si O2"
_cell_formula_units_Z 48
_cell_length_a 7.704713
_cell_length_b 22.312882
_cell_length_c 13.648059
_cell_angle_alpha 90.000000
_cell_angle_beta 90.000000
_cell_angle_gamma 90.000000
_cell_volume 2346.297219
_symmetry_space_group_name_H-M "P B C M"
_symmetry_group_IT_number 57
_symmetry_cell_setting 'orthorhombic'
loop_
_space_group_symop_operation_xyz
x,y,z
-x,-y,1/2+z
x,1/2-y,-z
-x,1/2+y,1/2-z
-x,-y,-z
x,y,1/2-z
-x,1/2+y,z
x,1/2-y,1/2+z
loop_
_atom_site_type_symbol
_atom_site_label
_atom_site_fract_x
_atom_site_fract_y
_atom_site_fract_z
Si Si1 0.862565 0.629580 0.998574
Si Si2 0.435439 0.340734 0.864386
Si Si3 0.337573 0.293469 0.361818
Si Si4 0.233634 0.472859 0.361137
Si Si5 0.227705 0.898991 0.550785
Si Si6 0.421357 0.905627 0.359027
O O1 0.711395 0.621087 0.079680
O O2 0.047739 0.638230 0.051515
O O3 0.824095 0.687508 0.930260
O O4 0.874926 0.569559 0.933395
O O5 0.415845 0.353682 0.750000
O O6 0.408538 0.271254 0.891577
O O7 0.626366 0.358406 0.899318
O O8 0.272313 0.294415 0.250000
O O9 0.489901 0.341390 0.379039
O O10 0.171852 0.460586 0.250000
O O11 0.200754 0.541438 0.386619
O O12 0.437856 0.458276 0.370883
O O13 0.272654 0.915941 0.438617
O O14 0.339205 0.907171 0.250000
#
# Coordination Sequence:
#
# PCOD8234384 Si02
#       6
#     8   8   8   8   8   8
#     4  11  23  40  65  92 124 168 215 260 314 379
#     4  11  24  42  63  88 130 170 208 266 319 369
#     4   9  19  42  65  87 124 167 207 257 314 368
#     4  10  21  41  64  91 131 168 206 263 320 383
#     4  12  23  39  64  96 129 161 215 259 321 379
#     4   9  19  36  64  91 117 164 216 256 306 371
#
# _framework density 20.457765999999999
#
# number of rings (size 3 to 8) (size 9 to 14) (size 15 to 20)
#    0.000    1.667    3.333    3.500    0.000    2.667 
#    6.000    0.000    0.000    0.000    0.000    0.000 
#    0.000    0.000    0.000    0.000    0.000    0.000 
#
# Total GULP energy -595287.672924 kJ/mol
# GULP energy per Si atom -12401.826519 kJ/mol
# Density = 2.041120 g / cm^3
# Si number density = 20.457766 Si / 1000 Ang^3
#
#
#
# Elastic Constant Matrix: (Units=GPa)
#
#
# Indices 1 2 3 4 5 6 
#
# 1 127.9914 42.7929 55.2458 0.0000 0.0000 0.0000
# 2 42.7929 98.5250 46.6379 0.0000 0.0000 0.0000
# 3 55.2458 46.6379 116.5048 0.0000 0.0000 0.0000
# 4 0.0000 0.0000 0.0000 35.9764 0.0000 0.0000
# 5 0.0000 0.0000 0.0000 0.0000 17.5949 0.0000
# 6 0.0000 0.0000 0.0000 0.0000 0.0000 15.5212
#
#
#
# Elastic Compliance Matrix: (Units=1/GPa)
#
#
# Indices 1 2 3 4 5 6 
#
# 1 0.010369 -0.002685 -0.003842 0.000000 0.000000 0.000000
# 2 -0.002685 0.013218 -0.004018 0.000000 0.000000 0.000000
# 3 -0.003842 -0.004018 0.012014 0.000000 0.000000 0.000000
# 4 0.000000 0.000000 0.000000 0.027796 0.000000 0.000000
# 5 0.000000 0.000000 0.000000 0.000000 0.056835 0.000000
# 6 0.000000 0.000000 0.000000 0.000000 0.000000 0.064428
#
#
# Mechanical properties :
#
#
# Convention : Reuss Voigt Hill
#
# Bulk Modulus (GPa) = 68.91606 70.26383 69.58994
# Shear Modulus (GPa) = 23.74319 27.04145 25.39232
#
# Velocity S-wave (km/s) = 3.41045 3.63963 3.52690
# Velocity P-wave (km/s) = 7.01914 7.21685 7.11868
#
# Compressibility (1/GPa) = 0.01451041
#
# Stress axis : x y z
#
# Youngs Moduli (GPa) = 96.44005 75.65515 83.23805
#
# Poissons Ratio (x) = 0.20313 0.31981
# Poissons Ratio (y) = 0.25894 0.33445
# Poissons Ratio (z) = 0.37054 0.30399
#
# Static dielectric constant tensor:
#      x y z
#    x 3.419230 0.000000 0.000000 
#    y 0.000000 3.643700 0.000000 
#    z 0.000000 0.000000 4.027860 
# 
# 
# High freq. dielectric constant tensor:
#      x y z
#    x 1.770690 0.000000 0.000000 
#    y 0.000000 1.793340 0.000000 
#    z 0.000000 0.000000 1.823650 
# 
# From -- ./inp_files/16536.got.cif
#   From: 2010.03.12/outbox.cif.g09.slc.cpg/sg57_9_cif.got.tgz:16536.got - 2010.04.16 15:48:40.
