data_PCOD8234528
_publ_section_title
;
Structure prediction by ZEFSAII (Michael W. Deem and Ramdas Pophale) SiO2 
 PCOD8234528
Probable space group: P B C M
;
_chemical_formula_sum "Si O2"
_cell_formula_units_Z 64
_cell_length_a 15.050124
_cell_length_b 23.654145
_cell_length_c 8.710594
_cell_angle_alpha 90.000000
_cell_angle_beta 90.000000
_cell_angle_gamma 90.000000
_cell_volume 3100.952435
_symmetry_space_group_name_H-M "P B C M"
_symmetry_group_IT_number 57
_symmetry_cell_setting 'orthorhombic'
loop_
_space_group_symop_operation_xyz
x,y,z
-x,-y,1/2+z
x,1/2-y,-z
-x,1/2+y,1/2-z
-x,-y,-z
x,y,1/2-z
-x,1/2+y,z
x,1/2-y,1/2+z
loop_
_atom_site_type_symbol
_atom_site_label
_atom_site_fract_x
_atom_site_fract_y
_atom_site_fract_z
Si Si1 0.902931 0.002040 0.430709
Si Si2 0.004966 0.688868 0.568678
Si Si3 0.852732 0.611800 0.068185
Si Si4 0.356058 0.604406 0.068846
Si Si5 0.541051 0.630463 0.927292
Si Si6 0.593143 0.513032 0.569706
Si Si7 0.289328 0.308877 0.429721
Si Si8 0.163608 0.626486 0.430036
O O1 0.906876 0.991748 0.250000
O O2 0.859971 0.062059 0.471146
O O3 0.844699 0.952145 0.505756
O O4 0.000000 0.000000 0.500000
O O5 0.982189 0.750000 0.500000
O O6 0.993513 0.691849 0.750000
O O7 0.104926 0.670569 0.525617
O O8 0.939047 0.642184 0.501076
O O9 0.862649 0.611016 0.250000
O O10 0.763668 0.642823 0.017677
O O11 0.362711 0.605026 0.250000
O O12 0.344497 0.538560 0.010156
O O13 0.266427 0.637066 0.019047
O O14 0.446223 0.634721 0.011222
O O15 0.516233 0.623824 0.750000
O O16 0.607413 0.578361 0.979305
O O17 0.604191 0.684343 0.957951
O O18 0.500000 0.500000 0.500000
O O19 0.591172 0.508538 0.750000
O O20 0.258005 0.250000 0.500000
O O21 0.265765 0.311271 0.250000
O O22 0.148774 0.638140 0.250000
#
# Coordination Sequence:
#
# PCOD8234528 Si02
#       8
#     8   8   8   8   8   8   8   8
#     4  11  22  38  63  93 130 169 207 252 310 370
#     4  12  25  43  67  90 119 158 204 255 307 366
#     4  12  25  42  64  92 126 161 204 253 308 373
#     4   9  18  33  57  85 118 157 196 242 297 354
#     4   9  19  35  57  82 114 153 197 247 299 357
#     4   8  14  27  48  75 106 142 182 226 279 338
#     4  11  24  42  63  88 120 159 206 258 314 373
#     4  10  22  39  61  91 129 168 207 253 304 365
#
# _framework density 20.638822000000001
#
# number of rings (size 3 to 8) (size 9 to 14) (size 15 to 20)
#    0.000    1.750    1.250    3.375    1.750    2.000 
#    0.000    0.625    0.000    1.500    0.000    0.000 
#    0.000    0.000    0.000    0.000    0.000    0.000 
#
# Total GULP energy -793006.173984 kJ/mol
# GULP energy per Si atom -12390.721469 kJ/mol
# Density = 2.059185 g / cm^3
# Si number density = 20.638822 Si / 1000 Ang^3
#
#
#
# Elastic Constant Matrix: (Units=GPa)
#
#
# Indices 1 2 3 4 5 6 
#
# 1 90.9196 7.5055 21.8891 0.0000 0.0000 0.0000
# 2 7.5055 65.0535 26.4282 0.0000 0.0000 0.0000
# 3 21.8891 26.4282 87.5226 0.0000 0.0000 0.0000
# 4 0.0000 0.0000 0.0000 32.5111 0.0000 0.0000
# 5 0.0000 0.0000 0.0000 0.0000 30.9334 0.0000
# 6 0.0000 0.0000 0.0000 0.0000 0.0000 27.4954
#
#
#
# Elastic Compliance Matrix: (Units=1/GPa)
#
#
# Indices 1 2 3 4 5 6 
#
# 1 0.011705 -0.000184 -0.002872 0.000000 0.000000 0.000000
# 2 -0.000184 0.017524 -0.005246 0.000000 0.000000 0.000000
# 3 -0.002872 -0.005246 0.013728 0.000000 0.000000 0.000000
# 4 0.000000 0.000000 0.000000 0.030759 0.000000 0.000000
# 5 0.000000 0.000000 0.000000 0.000000 0.032328 0.000000
# 6 0.000000 0.000000 0.000000 0.000000 0.000000 0.036370
#
#
# Mechanical properties :
#
#
# Convention : Reuss Voigt Hill
#
# Bulk Modulus (GPa) = 37.94389 39.46013 38.70201
# Shear Modulus (GPa) = 29.79720 30.69950 30.24835
#
# Velocity S-wave (km/s) = 3.80379 3.86095 3.83247
# Velocity P-wave (km/s) = 6.14136 6.24794 6.19488
#
# Compressibility (1/GPa) = 0.02635470
#
# Stress axis : x y z
#
# Youngs Moduli (GPa) = 85.43116 57.06386 72.84465
#
# Poissons Ratio (x) = 0.01049 0.20921
# Poissons Ratio (y) = 0.01570 0.38212
# Poissons Ratio (z) = 0.24536 0.29934
#
# Static dielectric constant tensor:
#      x y z
#    x 3.809060 0.000000 0.000000 
#    y 0.000000 3.902120 0.000000 
#    z 0.000000 0.000000 3.657760 
# 
# 
# High freq. dielectric constant tensor:
#      x y z
#    x 1.810590 0.000000 0.000000 
#    y 0.000000 1.803450 0.000000 
#    z 0.000000 0.000000 1.802430 
# 
# From -- ./inp_files/5567.got.cif
#   From: 2010.03.12/outbox.cif.g09.slc.cpg/sg57_3_cif.got.tgz:5567.got - 2010.04.16 15:48:40.
