data_PCOD8234217
_publ_section_title
;
Structure prediction by ZEFSAII (Michael W. Deem and Ramdas Pophale) SiO2 
 PCOD8234217
Probable space group: P B C M
;
_chemical_formula_sum "Si O2"
_cell_formula_units_Z 64
_cell_length_a 14.345798
_cell_length_b 12.522721
_cell_length_c 17.813405
_cell_angle_alpha 90.000000
_cell_angle_beta 90.000000
_cell_angle_gamma 90.000000
_cell_volume 3200.150168
_symmetry_space_group_name_H-M "P B C M"
_symmetry_group_IT_number 57
_symmetry_cell_setting 'orthorhombic'
loop_
_space_group_symop_operation_xyz
x,y,z
-x,-y,1/2+z
x,1/2-y,-z
-x,1/2+y,1/2-z
-x,-y,-z
x,y,1/2-z
-x,1/2+y,z
x,1/2-y,1/2+z
loop_
_atom_site_type_symbol
_atom_site_label
_atom_site_fract_x
_atom_site_fract_y
_atom_site_fract_z
Si Si1 0.633970 0.758586 0.412049
Si Si2 0.634307 0.969429 0.331161
Si Si3 0.818003 0.680863 0.337961
Si Si4 0.853695 0.437473 0.337535
Si Si5 0.555132 0.315325 0.662139
Si Si6 0.169544 0.922071 0.667353
Si Si7 0.059037 0.379017 0.161431
Si Si8 0.258159 0.764011 0.088128
O O1 0.623558 0.750000 0.500000
O O2 0.647120 0.883228 0.395346
O O3 0.721500 0.691450 0.382473
O O4 0.541163 0.722248 0.371580
O O5 0.610372 0.915824 0.250000
O O6 0.556750 0.057062 0.353097
O O7 0.727729 0.035023 0.321765
O O8 0.797497 0.697615 0.250000
O O9 0.859423 0.563923 0.354596
O O10 0.891967 0.769889 0.367642
O O11 0.831089 0.418058 0.250000
O O12 0.773666 0.383264 0.388198
O O13 0.951057 0.381994 0.360675
O O14 0.560177 0.289032 0.750000
O O15 0.640437 0.254546 0.622971
O O16 0.128692 0.890565 0.750000
O O17 0.176916 0.816077 0.617151
O O18 0.107384 0.014010 0.627563
O O19 0.073823 0.385859 0.250000
O O20 0.266931 0.750000 0.000000
#
# Coordination Sequence:
#
# PCOD8234217 Si02
#       8
#     8   8   8   8   8   8   8   8
#     4  12  24  37  59  90 126 161 194 242 308 375
#     4   9  18  36  59  83 110 152 205 248 291 346
#     4  10  21  39  61  90 123 157 204 256 307 359
#     4  10  22  38  62  93 123 157 202 263 317 353
#     4  10  22  40  64  88 112 156 212 256 293 350
#     4   9  17  34  63  85 107 154 210 252 281 343
#     4   9  18  35  63  91 113 150 207 260 297 348
#     4  11  23  39  58  86 128 163 198 247 311 373
#
# _framework density 19.999061999999999
#
# number of rings (size 3 to 8) (size 9 to 14) (size 15 to 20)
#    0.000    2.000    1.250    3.375    1.750    3.500 
#    0.000    2.500    0.000    0.000    0.000    0.000 
#    0.000    0.000    0.000    0.000    0.000    0.000 
#
# Total GULP energy -793437.611835 kJ/mol
# GULP energy per Si atom -12397.462685 kJ/mol
# Density = 1.995354 g / cm^3
# Si number density = 19.999062 Si / 1000 Ang^3
#
#
#
# Elastic Constant Matrix: (Units=GPa)
#
#
# Indices 1 2 3 4 5 6 
#
# 1 100.7395 42.9086 33.1270 0.0000 0.0000 0.0000
# 2 42.9086 103.4844 39.6750 0.0000 0.0000 0.0000
# 3 33.1270 39.6750 96.1912 0.0000 0.0000 0.0000
# 4 0.0000 0.0000 0.0000 21.1602 0.0000 0.0000
# 5 0.0000 0.0000 0.0000 0.0000 78.0297 0.0000
# 6 0.0000 0.0000 0.0000 0.0000 0.0000 9.5893
#
#
#
# Elastic Compliance Matrix: (Units=1/GPa)
#
#
# Indices 1 2 3 4 5 6 
#
# 1 0.012576 -0.004222 -0.002590 0.000000 0.000000 0.000000
# 2 -0.004222 0.012896 -0.003865 0.000000 0.000000 0.000000
# 3 -0.002590 -0.003865 0.012882 0.000000 0.000000 0.000000
# 4 0.000000 0.000000 0.000000 0.047258 0.000000 0.000000
# 5 0.000000 0.000000 0.000000 0.000000 0.012816 0.000000
# 6 0.000000 0.000000 0.000000 0.000000 0.000000 0.104283
#
#
# Mechanical properties :
#
#
# Convention : Reuss Voigt Hill
#
# Bulk Modulus (GPa) = 58.82057 59.09291 58.95674
# Shear Modulus (GPa) = 21.76452 34.06947 27.91700
#
# Velocity S-wave (km/s) = 3.30248 4.13189 3.74025
# Velocity P-wave (km/s) = 6.63456 7.23708 6.94236
#
# Compressibility (1/GPa) = 0.01700086
#
# Stress axis : x y z
#
# Youngs Moduli (GPa) = 79.51383 77.54584 77.62748
#
# Poissons Ratio (x) = 0.32738 0.20104
# Poissons Ratio (y) = 0.33569 0.30003
# Poissons Ratio (z) = 0.20593 0.29972
#
# Static dielectric constant tensor:
#      x y z
#    x 3.625600 0.000000 0.000000 
#    y 0.000000 3.935030 0.000000 
#    z 0.000000 0.000000 3.420540 
# 
# 
# High freq. dielectric constant tensor:
#      x y z
#    x 1.779980 0.000000 0.000000 
#    y 0.000000 1.790320 0.000000 
#    z 0.000000 0.000000 1.751890 
# 
# From -- ./inp_files/22627.got.cif
#   From: 2010.03.12/outbox.cif.g09.slc.cpg/sg57_12_cif.got.tgz:22627.got - 2010.04.16 15:48:40.
