data_PCOD8234845
_publ_section_title
;
Structure prediction by ZEFSAII (Michael W. Deem and Ramdas Pophale) SiO2 
 PCOD8234845
Probable space group: P B C M
;
_chemical_formula_sum "Si O2"
_cell_formula_units_Z 36
_cell_length_a 19.416675
_cell_length_b 8.526024
_cell_length_c 9.721602
_cell_angle_alpha 90.000000
_cell_angle_beta 90.000000
_cell_angle_gamma 90.000000
_cell_volume 1609.382406
_symmetry_space_group_name_H-M "P B C M"
_symmetry_group_IT_number 57
_symmetry_cell_setting 'orthorhombic'
loop_
_space_group_symop_operation_xyz
x,y,z
-x,-y,1/2+z
x,1/2-y,-z
-x,1/2+y,1/2-z
-x,-y,-z
x,y,1/2-z
-x,1/2+y,z
x,1/2-y,1/2+z
loop_
_atom_site_type_symbol
_atom_site_label
_atom_site_fract_x
_atom_site_fract_y
_atom_site_fract_z
Si Si1 0.901345 0.001255 0.101288
Si Si2 0.214732 0.404587 0.591314
Si Si3 0.001697 0.250000 0.500000
Si Si4 0.445399 0.432568 0.750000
Si Si5 0.592661 0.932416 0.250000
Si Si6 0.352558 0.564599 0.520942
O O1 0.863363 0.006701 0.250000
O O2 0.952812 0.146265 0.094680
O O3 0.846798 0.005200 0.976429
O O4 0.948104 0.846658 0.098901
O O5 0.226201 0.250000 0.500000
O O6 0.196712 0.361471 0.750000
O O7 0.282331 0.511788 0.593168
O O8 0.428063 0.249055 0.750000
O O9 0.527321 0.452264 0.750000
O O10 0.416809 0.517943 0.615359
O O11 0.640369 0.970385 0.379497
O O12 0.352321 0.750000 0.500000
#
# Coordination Sequence:
#
# PCOD8234845 Si02
#       6
#     8   8   4   4   4   8
#     4  11  24  44  73 103 142 186 243 295 367 430
#     4  12  27  47  71 103 143 191 242 297 368 440
#     4  10  24  44  70 106 142 182 234 304 360 434
#     4  12  24  50  72 114 144 193 238 295 360 434
#     4  12  26  44  82 106 150 189 242 295 364 424
#     4  12  27  47  71 105 148 191 244 303 357 427
#
# _framework density 22.368829999999999
#
# number of rings (size 3 to 8) (size 9 to 14) (size 15 to 20)
#    0.000    0.444    2.222    6.000    4.667    4.444 
#    0.000    0.000    0.000    0.000    0.000    0.000 
#    0.000    0.000    0.000    0.000    0.000    0.000 
#
# Total GULP energy -446544.422860 kJ/mol
# GULP energy per Si atom -12404.011746 kJ/mol
# Density = 2.231792 g / cm^3
# Si number density = 22.368830 Si / 1000 Ang^3
#
#
#
# Elastic Constant Matrix: (Units=GPa)
#
#
# Indices 1 2 3 4 5 6 
#
# 1 95.6532 9.4350 31.6808 0.0000 0.0000 0.0000
# 2 9.4350 98.8075 28.7645 0.0000 0.0000 0.0000
# 3 31.6808 28.7645 177.3863 0.0000 0.0000 0.0000
# 4 0.0000 0.0000 0.0000 20.6876 0.0000 0.0000
# 5 0.0000 0.0000 0.0000 0.0000 36.1595 0.0000
# 6 0.0000 0.0000 0.0000 0.0000 0.0000 43.2251
#
#
#
# Elastic Compliance Matrix: (Units=1/GPa)
#
#
# Indices 1 2 3 4 5 6 
#
# 1 0.011136 -0.000508 -0.001906 0.000000 0.000000 0.000000
# 2 -0.000508 0.010645 -0.001635 0.000000 0.000000 0.000000
# 3 -0.001906 -0.001635 0.006243 0.000000 0.000000 0.000000
# 4 0.000000 0.000000 0.000000 0.048338 0.000000 0.000000
# 5 0.000000 0.000000 0.000000 0.000000 0.027655 0.000000
# 6 0.000000 0.000000 0.000000 0.000000 0.000000 0.023135
#
#
# Mechanical properties :
#
#
# Convention : Reuss Voigt Hill
#
# Bulk Modulus (GPa) = 50.19078 56.84529 53.51804
# Shear Modulus (GPa) = 35.23747 40.14554 37.69150
#
# Velocity S-wave (km/s) = 3.97330 4.24100 4.10933
# Velocity P-wave (km/s) = 6.59818 7.03202 6.81855
#
# Compressibility (1/GPa) = 0.01992398
#
# Stress axis : x y z
#
# Youngs Moduli (GPa) = 89.79891 93.93786 160.17703
#
# Poissons Ratio (x) = 0.04775 0.30537
# Poissons Ratio (y) = 0.04565 0.26196
# Poissons Ratio (z) = 0.17119 0.15363
#
# Static dielectric constant tensor:
#      x y z
#    x 4.107660 0.000000 0.000000 
#    y 0.000000 4.246390 0.000000 
#    z 0.000000 0.000000 4.069310 
# 
# 
# High freq. dielectric constant tensor:
#      x y z
#    x 1.886730 0.000000 0.000000 
#    y 0.000000 1.890160 0.000000 
#    z 0.000000 0.000000 1.893110 
# 
# From -- ./inp_files/7664.got.cif
#   From: 2010.03.12/outbox.cif.g09.slc.cpg/sg57_4_cif.got.tgz:7664.got - 2010.04.16 15:48:40.
