data_PCOD8234270
_publ_section_title
;
Structure prediction by ZEFSAII (Michael W. Deem and Ramdas Pophale) SiO2 
 PCOD8234270
Probable space group: P B C M
;
_chemical_formula_sum "Si O2"
_cell_formula_units_Z 64
_cell_length_a 23.822041
_cell_length_b 15.234174
_cell_length_c 8.488168
_cell_angle_alpha 90.000000
_cell_angle_beta 90.000000
_cell_angle_gamma 90.000000
_cell_volume 3080.433559
_symmetry_space_group_name_H-M "P B C M"
_symmetry_group_IT_number 57
_symmetry_cell_setting 'orthorhombic'
loop_
_space_group_symop_operation_xyz
x,y,z
-x,-y,1/2+z
x,1/2-y,-z
-x,1/2+y,1/2-z
-x,-y,-z
x,y,1/2-z
-x,1/2+y,z
x,1/2-y,1/2+z
loop_
_atom_site_type_symbol
_atom_site_label
_atom_site_fract_x
_atom_site_fract_y
_atom_site_fract_z
Si Si1 0.103175 0.416728 0.431419
Si Si2 0.501228 0.350335 0.064754
Si Si3 0.218293 0.158116 0.563696
Si Si4 0.883975 0.097153 0.931646
Si Si5 0.421184 0.490652 0.933735
Si Si6 0.700952 0.505064 0.934827
Si Si7 0.226089 0.662838 0.065872
Si Si8 0.002073 0.660532 0.066777
O O1 0.088871 0.396569 0.250000
O O2 0.154333 0.356915 0.495598
O O3 0.123637 0.516023 0.449797
O O4 0.047042 0.409711 0.536299
O O5 0.502826 0.339120 0.250000
O O6 0.550731 0.417287 0.005811
O O7 0.506052 0.250000 0.000000
O O8 0.444449 0.401683 0.015772
O O9 0.240894 0.250000 0.500000
O O10 0.217951 0.155310 0.750000
O O11 0.260619 0.084310 0.501014
O O12 0.882773 0.067727 0.750000
O O13 0.832226 0.160046 0.969736
O O14 0.942528 0.144636 0.965700
O O15 0.433102 0.480316 0.750000
O O16 0.355757 0.495401 0.967554
O O17 0.687688 0.513545 0.750000
O O18 0.733495 0.416760 0.976153
O O19 0.213339 0.667537 0.250000
O O20 0.256793 0.750000 0.000000
O O21 0.017316 0.663035 0.250000
O O22 0.975384 0.750000 0.000000
#
# Coordination Sequence:
#
# PCOD8234270 Si02
#       8
#     8   8   8   8   8   8   8   8
#     4  11  22  41  63  86 118 154 197 250 310 375
#     4  10  21  39  64  94 130 170 212 256 310 364
#     4  10  22  40  62  88 119 159 203 250 307 366
#     4  12  24  40  62  88 116 154 200 250 311 375
#     4  10  22  39  62  94 129 167 212 261 309 362
#     4  10  22  42  63  87 126 170 208 255 312 364
#     4  11  23  42  64  89 122 162 207 258 313 373
#     4  12  25  41  59  85 117 152 196 248 309 376
#
# _framework density 20.776297
#
# number of rings (size 3 to 8) (size 9 to 14) (size 15 to 20)
#    0.000    1.250    1.250    4.875    0.000    6.000 
#    0.000    3.750    0.000    0.000    0.000    0.000 
#    0.000    0.000    0.000    0.000    0.000    0.000 
#
# Total GULP energy -793635.195471 kJ/mol
# GULP energy per Si atom -12400.549929 kJ/mol
# Density = 2.072901 g / cm^3
# Si number density = 20.776297 Si / 1000 Ang^3
#
#
#
# Elastic Constant Matrix: (Units=GPa)
#
#
# Indices 1 2 3 4 5 6 
#
# 1 124.8309 44.9686 34.2445 0.0000 0.0000 0.0000
# 2 44.9686 146.1204 30.5950 0.0000 0.0000 0.0000
# 3 34.2445 30.5950 69.1663 0.0000 0.0000 0.0000
# 4 0.0000 0.0000 0.0000 36.7496 0.0000 0.0000
# 5 0.0000 0.0000 0.0000 0.0000 26.3202 0.0000
# 6 0.0000 0.0000 0.0000 0.0000 0.0000 -7.3553
#
#
#
# Elastic Compliance Matrix: (Units=1/GPa)
#
#
# Indices 1 2 3 4 5 6 
#
# 1 0.009884 -0.002223 -0.003910 0.000000 0.000000 0.000000
# 2 -0.002223 0.008042 -0.002457 0.000000 0.000000 0.000000
# 3 -0.003910 -0.002457 0.017481 0.000000 0.000000 0.000000
# 4 0.000000 0.000000 0.000000 0.027211 0.000000 0.000000
# 5 0.000000 0.000000 0.000000 0.000000 0.037994 0.000000
# 6 0.000000 0.000000 0.000000 0.000000 0.000000 -0.135956
#
#
# Mechanical properties :
#
#
# Convention : Reuss Voigt Hill
#
# Bulk Modulus (GPa) = 54.86440 62.19264 58.52852
# Shear Modulus (GPa) = -413.64338 26.49686 -193.57326
#
# Velocity S-wave (km/s) = -14.12537 3.57507 -9.66294
# Velocity P-wave (km/s) = 15.47806 6.85863 9.81146
#
# Compressibility (1/GPa) = 0.01822676
#
# Stress axis : x y z
#
# Youngs Moduli (GPa) = 101.16912 124.34340 57.20596
#
# Poissons Ratio (x) = 0.27644 0.22370
# Poissons Ratio (y) = 0.22492 0.14054
# Poissons Ratio (z) = 0.39562 0.30548
#
# Static dielectric constant tensor:
#      x y z
#    x 3.672130 0.000000 0.000000 
#    y 0.000000 3.647910 0.000000 
#    z 0.000000 0.000000 3.593830 
# 
# 
# High freq. dielectric constant tensor:
#      x y z
#    x 1.808230 0.000000 0.000000 
#    y 0.000000 1.826350 0.000000 
#    z 0.000000 0.000000 1.812900 
# 
# From -- ./inp_files/9401.got.cif
#   From: 2010.03.12/outbox.cif.g09.slc.cpg/sg57_5_cif.got.tgz:9401.got - 2010.04.16 15:48:40.
