data_PCOD8234596
_publ_section_title
;
Structure prediction by ZEFSAII (Michael W. Deem and Ramdas Pophale) SiO2 
 PCOD8234596
Probable space group: P B C M
;
_chemical_formula_sum "Si O2"
_cell_formula_units_Z 56
_cell_length_a 32.025532
_cell_length_b 5.131272
_cell_length_c 15.709729
_cell_angle_alpha 90.000000
_cell_angle_beta 90.000000
_cell_angle_gamma 90.000000
_cell_volume 2581.606719
_symmetry_space_group_name_H-M "P B C M"
_symmetry_group_IT_number 57
_symmetry_cell_setting 'orthorhombic'
loop_
_space_group_symop_operation_xyz
x,y,z
-x,-y,1/2+z
x,1/2-y,-z
-x,1/2+y,1/2-z
-x,-y,-z
x,y,1/2-z
-x,1/2+y,z
x,1/2-y,1/2+z
loop_
_atom_site_type_symbol
_atom_site_label
_atom_site_fract_x
_atom_site_fract_y
_atom_site_fract_z
Si Si1 0.580766 0.898029 0.909125
Si Si2 0.025387 0.959837 0.649541
Si Si3 0.889504 0.001941 0.444941
Si Si4 0.195235 0.051427 0.851033
Si Si5 0.470957 0.750000 0.500000
Si Si6 0.671092 0.502161 0.056162
Si Si7 0.244194 0.948600 0.350797
Si Si8 0.528945 0.766434 0.250000
O O1 0.558151 0.743126 0.833580
O O2 0.559438 0.187095 0.919307
O O3 0.629755 0.931443 0.888557
O O4 0.575309 0.750000 0.000000
O O5 0.031463 0.952626 0.750000
O O6 0.070389 0.919141 0.609252
O O7 0.004630 0.227678 0.618549
O O8 0.900480 0.750000 0.500000
O O9 0.851909 0.932520 0.382429
O O10 0.876057 0.250000 0.500000
O O11 0.193989 0.049632 0.750000
O O12 0.220412 0.299149 0.886691
O O13 0.219308 0.799743 0.886974
O O14 0.500000 0.500000 0.500000
O O15 0.708257 0.437130 0.119896
O O16 0.661047 0.250000 0.000000
O O17 0.684043 0.750000 0.000000
O O18 0.244285 0.948297 0.250000
O O19 0.494934 0.538648 0.250000
#
# Coordination Sequence:
#
# PCOD8234596 Si02
#       8
#     8   8   8   8   4   8   8   4
#     4  11  26  47  69  99 135 175 216 268 327 386
#     4  10  22  41  63  86 118 165 214 254 307 377
#     4  12  25  38  60  92 126 162 202 263 320 363
#     4  10  22  42  62  89 124 166 210 250 311 379
#     4  12  22  38  70  88 122 172 206 258 314 372
#     4  11  24  41  66  95 126 166 207 250 317 378
#     4  10  22  40  66  92 122 163 205 258 310 365
#     4  12  30  44  68 104 130 170 226 266 322 386
#
# _framework density 21.691918999999999
#
# number of rings (size 3 to 8) (size 9 to 14) (size 15 to 20)
#    0.000    1.143    1.429    3.857    3.000    5.143 
#    0.000    5.714    1.571    0.000    0.000    0.000 
#    0.000    0.000    0.000    0.000    0.000    0.000 
#
# Total GULP energy -694377.129471 kJ/mol
# GULP energy per Si atom -12399.591598 kJ/mol
# Density = 2.164255 g / cm^3
# Si number density = 21.691919 Si / 1000 Ang^3
#
#
#
# Elastic Constant Matrix: (Units=GPa)
#
#
# Indices 1 2 3 4 5 6 
#
# 1 150.6853 27.3657 39.2817 0.0000 0.0000 0.0000
# 2 27.3657 128.8327 26.1796 0.0000 0.0000 0.0000
# 3 39.2817 26.1796 49.2554 0.0000 0.0000 0.0000
# 4 0.0000 0.0000 0.0000 17.4310 0.0000 0.0000
# 5 0.0000 0.0000 0.0000 0.0000 155.5240 0.0000
# 6 0.0000 0.0000 0.0000 0.0000 0.0000 36.4387
#
#
#
# Elastic Compliance Matrix: (Units=1/GPa)
#
#
# Indices 1 2 3 4 5 6 
#
# 1 0.008404 -0.000474 -0.006450 0.000000 0.000000 0.000000
# 2 -0.000474 0.008729 -0.004261 0.000000 0.000000 0.000000
# 3 -0.006450 -0.004261 0.027711 0.000000 0.000000 0.000000
# 4 0.000000 0.000000 0.000000 0.057369 0.000000 0.000000
# 5 0.000000 0.000000 0.000000 0.000000 0.006430 0.000000
# 6 0.000000 0.000000 0.000000 0.000000 0.000000 0.027443
#
#
# Mechanical properties :
#
#
# Convention : Reuss Voigt Hill
#
# Bulk Modulus (GPa) = 44.49839 57.15861 50.82850
# Shear Modulus (GPa) = 30.12997 57.60850 43.86923
#
# Velocity S-wave (km/s) = 3.73097 5.15900 4.50196
# Velocity P-wave (km/s) = 6.25448 7.86730 7.10679
#
# Compressibility (1/GPa) = 0.02247273
#
# Stress axis : x y z
#
# Youngs Moduli (GPa) = 118.99146 114.56548 36.08660
#
# Poissons Ratio (x) = 0.05435 0.23276
# Poissons Ratio (y) = 0.05645 0.15376
# Poissons Ratio (z) = 0.76751 0.48816
#
# Static dielectric constant tensor:
#      x y z
#    x 4.077400 0.000000 0.000000 
#    y 0.000000 4.843140 0.000000 
#    z 0.000000 0.000000 3.760030 
# 
# 
# High freq. dielectric constant tensor:
#      x y z
#    x 1.872590 0.000000 0.000000 
#    y 0.000000 1.870170 0.000000 
#    z 0.000000 0.000000 1.836920 
# 
# From -- ./inp_files/19673.got.cif
#   From: 2010.03.12/outbox.cif.g09.slc.cpg/sg57_10_cif.got.tgz:19673.got - 2010.04.16 15:48:40.
