data_PCOD8234939
_publ_section_title
;
Structure prediction by ZEFSAII (Michael W. Deem and Ramdas Pophale) SiO2 
 PCOD8234939
Probable space group: P B C M
;
_chemical_formula_sum "Si O2"
_cell_formula_units_Z 48
_cell_length_a 10.236980
_cell_length_b 28.139848
_cell_length_c 8.702226
_cell_angle_alpha 90.000000
_cell_angle_beta 90.000000
_cell_angle_gamma 90.000000
_cell_volume 2506.824670
_symmetry_space_group_name_H-M "P B C M"
_symmetry_group_IT_number 57
_symmetry_cell_setting 'orthorhombic'
loop_
_space_group_symop_operation_xyz
x,y,z
-x,-y,1/2+z
x,1/2-y,-z
-x,1/2+y,1/2-z
-x,-y,-z
x,y,1/2-z
-x,1/2+y,z
x,1/2-y,1/2+z
loop_
_atom_site_type_symbol
_atom_site_label
_atom_site_fract_x
_atom_site_fract_y
_atom_site_fract_z
Si Si1 0.766249 0.654894 0.931628
Si Si2 0.269896 0.858341 0.927967
Si Si3 0.499725 0.198912 0.931392
Si Si4 0.038964 0.800798 0.432062
Si Si5 0.131907 0.442509 0.430706
Si Si6 0.856402 0.046919 0.072516
O O1 0.750817 0.652865 0.750000
O O2 0.637177 0.679679 0.001320
O O3 0.891231 0.686167 0.978423
O O4 0.782621 0.601179 0.999440
O O5 0.289650 0.844995 0.750000
O O6 0.261096 0.915569 0.952046
O O7 0.389664 0.838819 0.025673
O O8 0.133929 0.837999 0.988079
O O9 0.493661 0.204218 0.750000
O O10 0.534755 0.250000 0.000000
O O11 0.074674 0.750000 0.500000
O O12 0.061023 0.801458 0.250000
O O13 0.134807 0.436742 0.250000
O O14 0.188729 0.494023 0.482575
O O15 0.982301 0.436494 0.479168
O O16 0.898735 0.044717 0.250000
#
# Coordination Sequence:
#
# PCOD8234939 Si02
#       6
#     8   8   8   8   8   8
#     4   9  19  35  57  82 108 140 181 222 272 327
#     4  11  22  37  54  80 112 145 182 223 270 322
#     4  11  23  40  58  78 106 146 187 226 274 327
#     4  11  21  35  55  81 107 138 178 228 277 324
#     4   9  16  32  56  82 111 142 176 219 269 325
#     4   9  18  31  53  83 113 142 176 220 270 317
#
# _framework density 19.147729999999999
#
# number of rings (size 3 to 8) (size 9 to 14) (size 15 to 20)
#    0.000    2.000    1.667    2.500    0.000    0.667 
#    0.000    5.000    0.000    0.000    0.000    0.000 
#    0.000    0.000    0.000    0.000    0.000    0.000 
#
# Total GULP energy -595076.648777 kJ/mol
# GULP energy per Si atom -12397.430183 kJ/mol
# Density = 1.910415 g / cm^3
# Si number density = 19.147730 Si / 1000 Ang^3
#
#
#
# Elastic Constant Matrix: (Units=GPa)
#
#
# Indices 1 2 3 4 5 6 
#
# 1 71.8456 18.4500 12.6313 0.0000 0.0000 0.0000
# 2 18.4500 104.6167 21.2474 0.0000 0.0000 0.0000
# 3 12.6313 21.2474 38.1518 0.0000 0.0000 0.0000
# 4 0.0000 0.0000 0.0000 18.4027 0.0000 0.0000
# 5 0.0000 0.0000 0.0000 0.0000 18.5558 0.0000
# 6 0.0000 0.0000 0.0000 0.0000 0.0000 32.4256
#
#
#
# Elastic Compliance Matrix: (Units=1/GPa)
#
#
# Indices 1 2 3 4 5 6 
#
# 1 0.015092 -0.001857 -0.003963 0.000000 0.000000 0.000000
# 2 -0.001857 0.011006 -0.005515 0.000000 0.000000 0.000000
# 3 -0.003963 -0.005515 0.030594 0.000000 0.000000 0.000000
# 4 0.000000 0.000000 0.000000 0.054340 0.000000 0.000000
# 5 0.000000 0.000000 0.000000 0.000000 0.053891 0.000000
# 6 0.000000 0.000000 0.000000 0.000000 0.000000 0.030840
#
#
# Mechanical properties :
#
#
# Convention : Reuss Voigt Hill
#
# Bulk Modulus (GPa) = 29.39080 35.47462 32.43271
# Shear Modulus (GPa) = 21.76051 24.69585 23.22818
#
# Velocity S-wave (km/s) = 3.37479 3.59521 3.48674
# Velocity P-wave (km/s) = 5.52887 5.98340 5.76062
#
# Compressibility (1/GPa) = 0.03402425
#
# Stress axis : x y z
#
# Youngs Moduli (GPa) = 66.25917 90.85770 32.68574
#
# Poissons Ratio (x) = 0.16871 0.12952
# Poissons Ratio (y) = 0.12303 0.18026
# Poissons Ratio (z) = 0.26256 0.50106
#
# Static dielectric constant tensor:
#      x y z
#    x 3.446250 0.000000 0.000000 
#    y 0.000000 3.949000 0.000000 
#    z 0.000000 0.000000 3.365780 
# 
# 
# High freq. dielectric constant tensor:
#      x y z
#    x 1.722720 0.000000 0.000000 
#    y 0.000000 1.767420 0.000000 
#    z 0.000000 0.000000 1.731730 
# 
# From -- ./inp_files/2100.got.cif
#   From: 2010.03.12/outbox.cif.g09.slc.cpg/sg57_2_cif.got.tgz:2100.got - 2010.04.16 15:48:40.
