data_PCOD8234914
_publ_section_title
;
Structure prediction by ZEFSAII (Michael W. Deem and Ramdas Pophale) SiO2 
 PCOD8234914
Probable space group: P B C M
;
_chemical_formula_sum "Si O2"
_cell_formula_units_Z 40
_cell_length_a 13.684674
_cell_length_b 18.148170
_cell_length_c 9.168262
_cell_angle_alpha 90.000000
_cell_angle_beta 90.000000
_cell_angle_gamma 90.000000
_cell_volume 2276.954280
_symmetry_space_group_name_H-M "P B C M"
_symmetry_group_IT_number 57
_symmetry_cell_setting 'orthorhombic'
loop_
_space_group_symop_operation_xyz
x,y,z
-x,-y,1/2+z
x,1/2-y,-z
-x,1/2+y,1/2-z
-x,-y,-z
x,y,1/2-z
-x,1/2+y,z
x,1/2-y,1/2+z
loop_
_atom_site_type_symbol
_atom_site_label
_atom_site_fract_x
_atom_site_fract_y
_atom_site_fract_z
Si Si1 0.181829 0.678106 0.915878
Si Si2 0.700527 0.964876 0.922151
Si Si3 0.578111 0.825454 0.576577
Si Si4 0.392007 0.613976 0.918581
Si Si5 0.902515 0.475387 0.422712
O O1 0.156010 0.693155 0.750000
O O2 0.296626 0.664100 0.936120
O O3 0.120527 0.608001 0.971520
O O4 0.146786 0.750000 0.000000
O O5 0.702431 0.974430 0.750000
O O6 0.657690 0.886539 0.971216
O O7 0.812035 0.973483 0.977845
O O8 0.631324 0.031575 0.978164
O O9 0.610666 0.750000 0.500000
O O10 0.574406 0.814662 0.750000
O O11 0.472686 0.850525 0.521772
O O12 0.427542 0.613410 0.750000
O O13 0.915680 0.481672 0.250000
O O14 0.000000 0.500000 0.500000
#
# Coordination Sequence:
#
# PCOD8234914 Si02
#       5
#     8   8   8   8   8
#     4   9  18  31  49  73 101 127 155 194 244 292
#     4   8  17  34  53  70  95 129 162 197 243 290
#     4  11  21  32  47  70 100 135 167 197 234 280
#     4   9  17  32  52  73  97 127 161 200 240 284
#     4   9  18  35  55  74  95 124 161 202 245 290
#
# _framework density 17.567326999999999
#
# number of rings (size 3 to 8) (size 9 to 14) (size 15 to 20)
#    0.000    2.800    0.000    4.200    0.000    3.200 
#    0.000    7.000    0.000    4.800    0.000    0.000 
#    0.000    0.000    0.000    0.000    0.000    0.000 
#
# Total GULP energy -495878.452316 kJ/mol
# GULP energy per Si atom -12396.961308 kJ/mol
# Density = 1.752734 g / cm^3
# Si number density = 17.567327 Si / 1000 Ang^3
#
#
#
# Elastic Constant Matrix: (Units=GPa)
#
#
# Indices 1 2 3 4 5 6 
#
# 1 95.4907 66.2535 33.8820 0.0000 0.0000 0.0000
# 2 66.2535 146.1222 48.3099 0.0000 0.0000 0.0000
# 3 33.8820 48.3099 49.7238 0.0000 0.0000 0.0000
# 4 0.0000 0.0000 0.0000 28.8616 0.0000 0.0000
# 5 0.0000 0.0000 0.0000 0.0000 27.3708 0.0000
# 6 0.0000 0.0000 0.0000 0.0000 0.0000 20.1622
#
#
#
# Elastic Compliance Matrix: (Units=1/GPa)
#
#
# Indices 1 2 3 4 5 6 
#
# 1 0.016340 -0.005492 -0.005799 0.000000 0.000000 0.000000
# 2 -0.005492 0.011928 -0.007847 0.000000 0.000000 0.000000
# 3 -0.005799 -0.007847 0.031686 0.000000 0.000000 0.000000
# 4 0.000000 0.000000 0.000000 0.034648 0.000000 0.000000
# 5 0.000000 0.000000 0.000000 0.000000 0.036535 0.000000
# 6 0.000000 0.000000 0.000000 0.000000 0.000000 0.049598
#
#
# Mechanical properties :
#
#
# Convention : Reuss Voigt Hill
#
# Bulk Modulus (GPa) = 46.12588 65.35860 55.74224
# Shear Modulus (GPa) = 22.10097 24.80503 23.45300
#
# Velocity S-wave (km/s) = 3.55078 3.76173 3.65778
# Velocity P-wave (km/s) = 6.56691 7.49352 7.04547
#
# Compressibility (1/GPa) = 0.02167980
#
# Stress axis : x y z
#
# Youngs Moduli (GPa) = 61.20001 83.83839 31.55994
#
# Poissons Ratio (x) = 0.46041 0.18300
# Poissons Ratio (y) = 0.33609 0.24764
# Poissons Ratio (z) = 0.35487 0.65784
#
# Static dielectric constant tensor:
#      x y z
#    x 3.213200 0.000000 0.000000 
#    y 0.000000 3.499630 0.000000 
#    z 0.000000 0.000000 3.052670 
# 
# 
# High freq. dielectric constant tensor:
#      x y z
#    x 1.665980 0.000000 0.000000 
#    y 0.000000 1.687930 0.000000 
#    z 0.000000 0.000000 1.660470 
# 
# From -- ./inp_files/2674.got.cif
#   From: 2010.03.12/outbox.cif.g09.slc.cpg/sg57_2_cif.got.tgz:2674.got - 2010.04.16 15:48:40.
