data_PCOD8234917
_publ_section_title
;
Structure prediction by ZEFSAII (Michael W. Deem and Ramdas Pophale) SiO2 
 PCOD8234917
Probable space group: P B C M
;
_chemical_formula_sum "Si O2"
_cell_formula_units_Z 64
_cell_length_a 23.011456
_cell_length_b 17.345607
_cell_length_c 9.138462
_cell_angle_alpha 90.000000
_cell_angle_beta 90.000000
_cell_angle_gamma 90.000000
_cell_volume 3647.595835
_symmetry_space_group_name_H-M "P B C M"
_symmetry_group_IT_number 57
_symmetry_cell_setting 'orthorhombic'
loop_
_space_group_symop_operation_xyz
x,y,z
-x,-y,1/2+z
x,1/2-y,-z
-x,1/2+y,1/2-z
-x,-y,-z
x,y,1/2-z
-x,1/2+y,z
x,1/2-y,1/2+z
loop_
_atom_site_type_symbol
_atom_site_label
_atom_site_fract_x
_atom_site_fract_y
_atom_site_fract_z
Si Si1 0.038731 0.937704 0.420352
Si Si2 0.263510 0.038583 0.581734
Si Si3 0.060784 0.329421 0.418817
Si Si4 0.373127 0.556238 0.415805
Si Si5 0.324814 0.173313 0.423491
Si Si6 0.570861 0.604706 0.581956
Si Si7 0.552925 0.170212 0.580469
Si Si8 0.869499 0.519705 0.579528
O O1 0.043180 0.957264 0.250000
O O2 0.006783 0.855162 0.444135
O O3 0.102260 0.946595 0.493617
O O4 0.000000 0.000000 0.500000
O O5 0.269469 0.067214 0.750000
O O6 0.281728 0.105849 0.472405
O O7 0.198347 0.014511 0.544096
O O8 0.305771 0.965481 0.556312
O O9 0.074389 0.250000 0.500000
O O10 0.073014 0.313139 0.250000
O O11 0.104021 0.397871 0.473286
O O12 0.382635 0.584026 0.250000
O O13 0.414383 0.483746 0.451201
O O14 0.390430 0.625806 0.521915
O O15 0.300817 0.250000 0.500000
O O16 0.323967 0.181871 0.250000
O O17 0.390607 0.158430 0.477198
O O18 0.586430 0.625386 0.750000
O O19 0.503509 0.618241 0.548027
O O20 0.544644 0.250000 0.500000
O O21 0.561983 0.186774 0.750000
O O22 0.883280 0.508903 0.750000
#
# Coordination Sequence:
#
# PCOD8234917 Si02
#       8
#     8   8   8   8   8   8   8   8
#     4   9  17  30  48  71  98 129 166 202 237 280
#     4   9  19  36  54  72  98 131 167 206 248 296
#     4   9  18  30  46  72 104 133 160 194 236 282
#     4   9  18  34  54  74  99 130 163 202 249 300
#     4  11  21  32  48  70  99 134 169 205 246 293
#     4   9  19  35  53  74  99 128 162 201 249 304
#     4  11  22  34  51  75 101 128 161 204 254 306
#     4   9  18  33  52  74  99 129 165 204 246 291
#
# _framework density 17.545804
#
# number of rings (size 3 to 8) (size 9 to 14) (size 15 to 20)
#    0.000    2.500    0.000    4.125    0.000    7.500 
#    0.000    1.250    0.000    0.750    0.000    1.750 
#    0.000    0.000    0.000    0.000    0.000    0.000 
#
# Total GULP energy -793435.432686 kJ/mol
# GULP energy per Si atom -12397.428636 kJ/mol
# Density = 1.750587 g / cm^3
# Si number density = 17.545804 Si / 1000 Ang^3
#
#
#
# Elastic Constant Matrix: (Units=GPa)
#
#
# Indices 1 2 3 4 5 6 
#
# 1 111.7744 35.7166 40.9987 0.0000 0.0000 0.0000
# 2 35.7166 46.2957 28.7239 0.0000 0.0000 0.0000
# 3 40.9987 28.7239 88.4926 0.0000 0.0000 0.0000
# 4 0.0000 0.0000 0.0000 31.7724 0.0000 0.0000
# 5 0.0000 0.0000 0.0000 0.0000 25.3767 0.0000
# 6 0.0000 0.0000 0.0000 0.0000 0.0000 14.0343
#
#
#
# Elastic Compliance Matrix: (Units=1/GPa)
#
#
# Indices 1 2 3 4 5 6 
#
# 1 0.012627 -0.007653 -0.003366 0.000000 0.000000 0.000000
# 2 -0.007653 0.031686 -0.006739 0.000000 0.000000 0.000000
# 3 -0.003366 -0.006739 0.015047 0.000000 0.000000 0.000000
# 4 0.000000 0.000000 0.000000 0.031474 0.000000 0.000000
# 5 0.000000 0.000000 0.000000 0.000000 0.039406 0.000000
# 6 0.000000 0.000000 0.000000 0.000000 0.000000 0.071254
#
#
# Mechanical properties :
#
#
# Convention : Reuss Voigt Hill
#
# Bulk Modulus (GPa) = 41.94015 50.82678 46.38347
# Shear Modulus (GPa) = 20.41169 23.64492 22.02830
#
# Velocity S-wave (km/s) = 3.41447 3.67496 3.54711
# Velocity P-wave (km/s) = 6.28490 6.85843 6.57792
#
# Compressibility (1/GPa) = 0.02384350
#
# Stress axis : x y z
#
# Youngs Moduli (GPa) = 79.19776 31.55990 66.45716
#
# Poissons Ratio (x) = 0.24153 0.22368
# Poissons Ratio (y) = 0.60610 0.44787
# Poissons Ratio (z) = 0.26657 0.21269
#
# Static dielectric constant tensor:
#      x y z
#    x 3.134910 0.000000 0.000000 
#    y 0.000000 3.088080 0.000000 
#    z 0.000000 0.000000 3.325330 
# 
# 
# High freq. dielectric constant tensor:
#      x y z
#    x 1.670680 0.000000 0.000000 
#    y 0.000000 1.656040 0.000000 
#    z 0.000000 0.000000 1.681790 
# 
# From -- ./inp_files/9537.got.cif
#   From: 2010.03.12/outbox.cif.g09.slc.cpg/sg57_5_cif.got.tgz:9537.got - 2010.04.16 15:48:40.
