data_PCOD8234566
_publ_section_title
;
Structure prediction by ZEFSAII (Michael W. Deem and Ramdas Pophale) SiO2 
 PCOD8234566
Probable space group: P B C M
;
_chemical_formula_sum "Si O2"
_cell_formula_units_Z 64
_cell_length_a 23.383314
_cell_length_b 15.370387
_cell_length_c 8.706007
_cell_angle_alpha 90.000000
_cell_angle_beta 90.000000
_cell_angle_gamma 90.000000
_cell_volume 3129.031073
_symmetry_space_group_name_H-M "P B C M"
_symmetry_group_IT_number 57
_symmetry_cell_setting 'orthorhombic'
loop_
_space_group_symop_operation_xyz
x,y,z
-x,-y,1/2+z
x,1/2-y,-z
-x,1/2+y,1/2-z
-x,-y,-z
x,y,1/2-z
-x,1/2+y,z
x,1/2-y,1/2+z
loop_
_atom_site_type_symbol
_atom_site_label
_atom_site_fract_x
_atom_site_fract_y
_atom_site_fract_z
Si Si1 0.305082 0.491711 0.430328
Si Si2 0.373857 0.659679 0.430989
Si Si3 0.496183 0.595187 0.067847
Si Si4 0.184174 0.004310 0.069798
Si Si5 0.124318 0.840752 0.568471
Si Si6 0.114346 0.159285 0.926484
Si Si7 0.390344 0.162528 0.569281
Si Si8 0.989817 0.092973 0.573849
O O1 0.291042 0.489952 0.250000
O O2 0.330585 0.584047 0.483466
O O3 0.248484 0.471269 0.525563
O O4 0.350766 0.418334 0.474676
O O5 0.351515 0.750000 0.500000
O O6 0.374041 0.666990 0.250000
O O7 0.437503 0.638738 0.491266
O O8 0.497192 0.588342 0.250000
O O9 0.500000 0.500000 0.000000
O O10 0.547907 0.653194 0.007952
O O11 0.178172 0.990513 0.250000
O O12 0.142561 0.081249 0.019324
O O13 0.166866 0.915918 0.985292
O O14 0.146703 0.750000 0.500000
O O15 0.125531 0.835604 0.750000
O O16 0.059765 0.857347 0.515202
O O17 0.134684 0.155387 0.750000
O O18 0.046205 0.151308 0.939222
O O19 0.134257 0.250000 0.000000
O O20 0.362071 0.250000 0.500000
O O21 0.398228 0.170765 0.750000
O O22 0.971207 0.079711 0.750000
O O23 0.000000 0.000000 0.500000
#
# Coordination Sequence:
#
# PCOD8234566 Si02
#       8
#     8   8   8   8   8   8   8   8
#     4  10  23  45  65  85 124 167 210 262 317 371
#     4  10  22  40  62  91 124 163 203 250 309 369
#     4  11  21  37  62  93 128 166 205 252 313 376
#     4  12  26  44  67  94 125 165 216 266 320 379
#     4  12  25  43  67  96 131 170 213 263 319 377
#     4  11  24  42  66  96 130 170 210 258 316 374
#     4  11  23  41  64  93 127 166 208 258 314 374
#     4  11  22  38  65  98 133 171 210 255 315 380
#
# _framework density 20.453616
#
# number of rings (size 3 to 8) (size 9 to 14) (size 15 to 20)
#    0.000    1.000    2.500    4.500    0.000    7.000 
#    0.000    2.500    0.000    0.000    0.000    0.000 
#    0.000    0.000    0.000    0.000    0.000    0.000 
#
# Total GULP energy -794025.848324 kJ/mol
# GULP energy per Si atom -12406.653880 kJ/mol
# Density = 2.040706 g / cm^3
# Si number density = 20.453616 Si / 1000 Ang^3
#
#
#
# Elastic Constant Matrix: (Units=GPa)
#
#
# Indices 1 2 3 4 5 6 
#
# 1 71.3837 5.0784 28.7689 0.0000 0.0000 0.0000
# 2 5.0784 124.4312 35.5436 0.0000 0.0000 0.0000
# 3 28.7689 35.5436 119.1313 0.0000 0.0000 0.0000
# 4 0.0000 0.0000 0.0000 40.5471 0.0000 0.0000
# 5 0.0000 0.0000 0.0000 0.0000 32.2322 0.0000
# 6 0.0000 0.0000 0.0000 0.0000 0.0000 34.0978
#
#
#
# Elastic Compliance Matrix: (Units=1/GPa)
#
#
# Indices 1 2 3 4 5 6 
#
# 1 0.015545 0.000479 -0.003897 0.000000 0.000000 0.000000
# 2 0.000479 0.008800 -0.002741 0.000000 0.000000 0.000000
# 3 -0.003897 -0.002741 0.010153 0.000000 0.000000 0.000000
# 4 0.000000 0.000000 0.000000 0.024663 0.000000 0.000000
# 5 0.000000 0.000000 0.000000 0.000000 0.031025 0.000000
# 6 0.000000 0.000000 0.000000 0.000000 0.000000 0.029327
#
#
# Mechanical properties :
#
#
# Convention : Reuss Voigt Hill
#
# Bulk Modulus (GPa) = 45.08632 50.41421 47.75026
# Shear Modulus (GPa) = 35.91309 37.74579 36.82944
#
# Velocity S-wave (km/s) = 4.19481 4.30051 4.24799
# Velocity P-wave (km/s) = 6.74929 7.02572 6.88889
#
# Compressibility (1/GPa) = 0.02217968
#
# Stress axis : x y z
#
# Youngs Moduli (GPa) = 64.32838 113.63590 98.49327
#
# Poissons Ratio (x) = -0.05440 0.38381
# Poissons Ratio (y) = -0.03079 0.26998
# Poissons Ratio (z) = 0.25068 0.31149
#
# Static dielectric constant tensor:
#      x y z
#    x 3.754140 0.000000 0.000000 
#    y 0.000000 3.968150 0.000000 
#    z 0.000000 0.000000 3.765170 
# 
# 
# High freq. dielectric constant tensor:
#      x y z
#    x 1.796960 0.000000 0.000000 
#    y 0.000000 1.816150 0.000000 
#    z 0.000000 0.000000 1.807330 
# 
# From -- ./inp_files/9472.got.cif
#   From: 2010.03.12/outbox.cif.g09.slc.cpg/sg57_5_cif.got.tgz:9472.got - 2010.04.16 15:48:40.
