data_PCOD8234043
_publ_section_title
;
Structure prediction by ZEFSAII (Michael W. Deem and Ramdas Pophale) SiO2 
 PCOD8234043
Probable space group: P B C M
;
_chemical_formula_sum "Si O2"
_cell_formula_units_Z 48
_cell_length_a 16.496847
_cell_length_b 17.959108
_cell_length_c 8.709985
_cell_angle_alpha 90.000000
_cell_angle_beta 90.000000
_cell_angle_gamma 90.000000
_cell_volume 2580.495558
_symmetry_space_group_name_H-M "P B C M"
_symmetry_group_IT_number 57
_symmetry_cell_setting 'orthorhombic'
loop_
_space_group_symop_operation_xyz
x,y,z
-x,-y,1/2+z
x,1/2-y,-z
-x,1/2+y,1/2-z
-x,-y,-z
x,y,1/2-z
-x,1/2+y,z
x,1/2-y,1/2+z
loop_
_atom_site_type_symbol
_atom_site_label
_atom_site_fract_x
_atom_site_fract_y
_atom_site_fract_z
Si Si1 0.638085 0.329073 0.071886
Si Si2 0.508783 0.581911 0.068194
Si Si3 0.249577 0.962073 0.426126
Si Si4 0.323789 0.102211 0.569332
Si Si5 0.917083 0.525512 0.071970
Si Si6 0.830311 0.826773 0.932000
O O1 0.614382 0.321370 0.250000
O O2 0.719185 0.378424 0.050823
O O3 0.659240 0.250000 0.000000
O O4 0.564829 0.366186 0.981387
O O5 0.511979 0.575274 0.250000
O O6 0.500000 0.500000 0.000000
O O7 0.589836 0.620891 0.005592
O O8 0.261668 0.989282 0.250000
O O9 0.301303 0.016683 0.533302
O O10 0.154363 0.966728 0.469269
O O11 0.328675 0.114256 0.750000
O O12 0.258992 0.158887 0.498475
O O13 0.933305 0.528948 0.250000
O O14 0.890210 0.607235 0.012873
O O15 0.000000 0.500000 0.000000
O O16 0.824915 0.822662 0.750000
O O17 0.864980 0.750000 0.000000
#
# Coordination Sequence:
#
# PCOD8234043 Si02
#       6
#     8   8   8   8   8   8
#     4  11  23  39  58  81 113 151 192 241 290 336
#     4  12  23  37  57  83 114 151 196 241 285 337
#     4   9  19  37  58  79 110 148 187 232 282 334
#     4  11  21  34  57  85 111 147 191 230 281 340
#     4   9  19  36  59  87 115 147 186 231 280 338
#     4  10  21  38  58  84 118 151 187 235 291 342
#
# _framework density 18.601078000000001
#
# number of rings (size 3 to 8) (size 9 to 14) (size 15 to 20)
#    0.000    1.667    1.667    5.000    0.000    4.667 
#    0.000    4.167    0.000    4.000    0.000    0.000 
#    0.000    0.000    0.000    0.000    0.000    0.000 
#
# Total GULP energy -595293.351671 kJ/mol
# GULP energy per Si atom -12401.944826 kJ/mol
# Density = 1.855874 g / cm^3
# Si number density = 18.601078 Si / 1000 Ang^3
#
#
#
# Elastic Constant Matrix: (Units=GPa)
#
#
# Indices 1 2 3 4 5 6 
#
# 1 146.1759 64.8497 49.6641 0.0000 0.0000 0.0000
# 2 64.8497 124.5100 45.3963 0.0000 0.0000 0.0000
# 3 49.6641 45.3963 114.2116 0.0000 0.0000 0.0000
# 4 0.0000 0.0000 0.0000 33.1195 0.0000 0.0000
# 5 0.0000 0.0000 0.0000 0.0000 32.5705 0.0000
# 6 0.0000 0.0000 0.0000 0.0000 0.0000 33.4206
#
#
#
# Elastic Compliance Matrix: (Units=1/GPa)
#
#
# Indices 1 2 3 4 5 6 
#
# 1 0.009482 -0.004017 -0.002526 0.000000 0.000000 0.000000
# 2 -0.004017 0.011095 -0.002663 0.000000 0.000000 0.000000
# 3 -0.002526 -0.002663 0.010913 0.000000 0.000000 0.000000
# 4 0.000000 0.000000 0.000000 0.030194 0.000000 0.000000
# 5 0.000000 0.000000 0.000000 0.000000 0.030703 0.000000
# 6 0.000000 0.000000 0.000000 0.000000 0.000000 0.029922
#
#
# Mechanical properties :
#
#
# Convention : Reuss Voigt Hill
#
# Bulk Modulus (GPa) = 76.47618 78.30196 77.38907
# Shear Modulus (GPa) = 34.46402 34.82129 34.64266
#
# Velocity S-wave (km/s) = 4.30908 4.33136 4.32024
# Velocity P-wave (km/s) = 8.12162 8.19762 8.15971
#
# Compressibility (1/GPa) = 0.01307597
#
# Stress axis : x y z
#
# Youngs Moduli (GPa) = 105.46709 90.13222 91.63660
#
# Poissons Ratio (x) = 0.36209 0.23149
# Poissons Ratio (y) = 0.42370 0.24403
# Poissons Ratio (z) = 0.26643 0.24002
#
# Static dielectric constant tensor:
#      x y z
#    x 3.429010 0.000000 0.000000 
#    y 0.000000 3.470670 0.000000 
#    z 0.000000 0.000000 3.514180 
# 
# 
# High freq. dielectric constant tensor:
#      x y z
#    x 1.717100 0.000000 0.000000 
#    y 0.000000 1.714760 0.000000 
#    z 0.000000 0.000000 1.732440 
# 
# From -- ./inp_files/4663.got.cif
#   From: 2010.03.12/outbox.cif.g09.slc.cpg/sg57_3_cif.got.tgz:4663.got - 2010.04.16 15:48:40.
