data_PCOD8234083
_publ_section_title
;
Structure prediction by ZEFSAII (Michael W. Deem and Ramdas Pophale) SiO2 
 PCOD8234083
Probable space group: P B C M
;
_chemical_formula_sum "Si O2"
_cell_formula_units_Z 64
_cell_length_a 23.777826
_cell_length_b 8.814548
_cell_length_c 15.289805
_cell_angle_alpha 90.000000
_cell_angle_beta 90.000000
_cell_angle_gamma 90.000000
_cell_volume 3204.602288
_symmetry_space_group_name_H-M "P B C M"
_symmetry_group_IT_number 57
_symmetry_cell_setting 'orthorhombic'
loop_
_space_group_symop_operation_xyz
x,y,z
-x,-y,1/2+z
x,1/2-y,-z
-x,1/2+y,1/2-z
-x,-y,-z
x,y,1/2-z
-x,1/2+y,z
x,1/2-y,1/2+z
loop_
_atom_site_type_symbol
_atom_site_label
_atom_site_fract_x
_atom_site_fract_y
_atom_site_fract_z
Si Si1 0.142329 0.576282 0.151697
Si Si2 0.857671 0.076282 0.848303
Si Si3 0.631457 0.424417 0.651078
Si Si4 0.631457 0.075583 0.651078
Si Si5 0.939348 0.071881 1.000000
Si Si6 0.560949 0.928598 1.000000
Si Si7 0.255923 0.073867 0.897966
Si Si8 0.744077 0.926133 0.897966
O O1 0.118537 0.561989 0.250000
O O2 0.158685 0.750000 0.129235
O O3 0.094387 0.517201 0.085906
O O4 0.196853 0.472399 0.143124
O O5 0.881463 0.061989 0.750000
O O6 0.803147 0.972399 0.856877
O O7 0.905613 0.017201 0.914094
O O8 0.608998 0.444852 0.750000
O O9 0.627722 0.250000 0.621480
O O10 0.593830 0.524121 0.586926
O O11 0.695831 0.477077 0.648157
O O12 0.608998 0.055149 0.750000
O O13 0.593830 0.975879 0.586926
O O14 0.695831 0.022923 0.648157
O O15 0.947577 0.250000 0.000000
O O16 0.000000 0.000000 0.000000
O O17 0.554784 0.750000 0.000000
O O18 0.500000 0.000000 0.000000
O O19 0.267034 0.250000 0.879390
O O20 0.255914 0.036483 1.000000
#
# Coordination Sequence:
#
# PCOD8234083 Si02
#       8
#     8   8   8   8   8   8   8   8
#     4  10  21  38  60  85 114 153 197 240 293 356
#     4  10  21  38  60  85 114 153 197 240 293 356
#     4  11  24  42  66  95 127 165 207 252 304 364
#     4  11  24  42  66  95 127 165 207 252 304 364
#     4  10  22  39  58  81 112 149 193 245 293 350
#     4  12  26  45  68  93 124 165 209 259 309 360
#     4  11  22  36  59  92 126 160 197 244 302 359
#     4  11  22  36  59  92 126 160 197 244 302 359
#
# _framework density 19.971276
#
# number of rings (size 3 to 8) (size 9 to 14) (size 15 to 20)
#    0.000    1.250    2.500    3.375    0.000    8.500 
#    0.000    0.000    0.000    0.000    0.000    0.000 
#    0.000    0.000    0.000    0.000    0.000    0.000 
#
# Total GULP energy -793962.848474 kJ/mol
# GULP energy per Si atom -12405.669507 kJ/mol
# Density = 1.992582 g / cm^3
# Si number density = 19.971276 Si / 1000 Ang^3
#
#
#
# Elastic Constant Matrix: (Units=GPa)
#
#
# Indices 1 2 3 4 5 6 
#
# 1 142.9513 47.2664 56.4758 0.0000 0.0000 0.0000
# 2 47.2664 101.1034 54.1666 0.0000 0.0000 0.0000
# 3 56.4758 54.1666 133.7923 0.0000 0.0000 0.0000
# 4 0.0000 0.0000 0.0000 25.4457 0.0000 0.0000
# 5 0.0000 0.0000 0.0000 0.0000 2.0934 0.0000
# 6 0.0000 0.0000 0.0000 0.0000 0.0000 39.6280
#
#
#
# Elastic Compliance Matrix: (Units=1/GPa)
#
#
# Indices 1 2 3 4 5 6 
#
# 1 0.008961 -0.002762 -0.002665 0.000000 0.000000 0.000000
# 2 -0.002762 0.013482 -0.004292 0.000000 0.000000 0.000000
# 3 -0.002665 -0.004292 0.010337 0.000000 0.000000 0.000000
# 4 0.000000 0.000000 0.000000 0.039299 0.000000 0.000000
# 5 0.000000 0.000000 0.000000 0.000000 0.477681 0.000000
# 6 0.000000 0.000000 0.000000 0.000000 0.000000 0.025235
#
#
# Mechanical properties :
#
#
# Convention : Reuss Voigt Hill
#
# Bulk Modulus (GPa) = 74.94972 77.07384 76.01178
# Shear Modulus (GPa) = 8.34893 28.09597 18.22245
#
# Velocity S-wave (km/s) = 2.04684 3.75483 3.02393
# Velocity P-wave (km/s) = 6.57239 7.58119 7.09474
#
# Compressibility (1/GPa) = 0.01334228
#
# Stress axis : x y z
#
# Youngs Moduli (GPa) = 111.59120 74.17469 96.74206
#
# Poissons Ratio (x) = 0.20486 0.25777
# Poissons Ratio (y) = 0.30821 0.41524
# Poissons Ratio (z) = 0.29734 0.31838
#
# Static dielectric constant tensor:
#      x y z
#    x 3.670220 0.000000 0.000000 
#    y 0.000000 3.654780 0.000000 
#    z 0.000000 0.000000 3.860530 
# 
# 
# High freq. dielectric constant tensor:
#      x y z
#    x 1.771190 0.000000 0.000000 
#    y 0.000000 1.783130 0.000000 
#    z 0.000000 0.000000 1.797960 
# 
# From -- ./inp_files/19501.got.cif
#   From: 2010.03.12/outbox.cif.g09.slc.cpg/sg57_10_cif.got.tgz:19501.got - 2010.04.16 15:48:40.
