data_PCOD8234449
_publ_section_title
;
Structure prediction by ZEFSAII (Michael W. Deem and Ramdas Pophale) SiO2 
 PCOD8234449
Probable space group: P B C M
;
_chemical_formula_sum "Si O2"
_cell_formula_units_Z 48
_cell_length_a 11.104031
_cell_length_b 8.987159
_cell_length_c 24.093850
_cell_angle_alpha 90.000000
_cell_angle_beta 90.000000
_cell_angle_gamma 90.000000
_cell_volume 2404.414249
_symmetry_space_group_name_H-M "P B C M"
_symmetry_group_IT_number 57
_symmetry_cell_setting 'orthorhombic'
loop_
_space_group_symop_operation_xyz
x,y,z
-x,-y,1/2+z
x,1/2-y,-z
-x,1/2+y,1/2-z
-x,-y,-z
x,y,1/2-z
-x,1/2+y,z
x,1/2-y,1/2+z
loop_
_atom_site_type_symbol
_atom_site_label
_atom_site_fract_x
_atom_site_fract_y
_atom_site_fract_z
Si Si1 0.021164 0.511003 0.363290
Si Si2 0.843830 0.289763 0.185970
Si Si3 0.346211 0.842061 0.403330
Si Si4 0.214688 0.363738 0.427153
Si Si5 0.456183 0.535898 0.062273
Si Si6 0.163545 0.047267 0.045289
O O1 0.072721 0.656955 0.334903
O O2 0.131617 0.397366 0.373691
O O3 0.919307 0.440836 0.323630
O O4 0.963402 0.549292 0.423048
O O5 0.812404 0.269790 0.250000
O O6 0.715088 0.294778 0.154591
O O7 0.437940 0.981218 0.396017
O O8 0.423210 0.708766 0.430616
O O9 0.237993 0.895086 0.444151
O O10 0.341007 0.442157 0.420699
O O11 0.240397 0.188461 0.432176
O O12 0.142485 0.430733 0.480122
O O13 0.500000 0.500000 0.000000
#
# Coordination Sequence:
#
# PCOD8234449 Si02
#       6
#     8   8   8   8   8   8
#     4  11  21  41  63  94 127 158 209 264 319 375
#     4  11  24  44  68  90 120 166 217 269 318 361
#     4  11  24  41  61  91 128 164 213 260 302 368
#     4  11  21  37  59  93 129 170 202 247 309 386
#     4  12  23  37  62  91 127 171 206 244 308 381
#     4  10  22  36  58  93 134 164 201 245 316 387
#
# _framework density 19.963284000000002
#
# number of rings (size 3 to 8) (size 9 to 14) (size 15 to 20)
#    0.000    1.000    5.000    2.500    2.333    0.000 
#    0.000    0.833    0.000    0.000    0.000    0.000 
#    0.000    0.000    0.000    0.000    0.000    0.000 
#
# Total GULP energy -595101.986720 kJ/mol
# GULP energy per Si atom -12397.958057 kJ/mol
# Density = 1.991785 g / cm^3
# Si number density = 19.963284 Si / 1000 Ang^3
#
#
#
# Elastic Constant Matrix: (Units=GPa)
#
#
# Indices 1 2 3 4 5 6 
#
# 1 83.2147 40.3551 59.0167 0.0000 0.0000 0.0000
# 2 40.3551 104.1618 30.4376 0.0000 0.0000 0.0000
# 3 59.0167 30.4376 81.8735 0.0000 0.0000 0.0000
# 4 0.0000 0.0000 0.0000 17.8467 0.0000 0.0000
# 5 0.0000 0.0000 0.0000 0.0000 23.6160 0.0000
# 6 0.0000 0.0000 0.0000 0.0000 0.0000 47.7281
#
#
#
# Elastic Compliance Matrix: (Units=1/GPa)
#
#
# Indices 1 2 3 4 5 6 
#
# 1 0.027011 -0.005357 -0.017479 0.000000 0.000000 0.000000
# 2 -0.005357 0.011833 -0.000537 0.000000 0.000000 0.000000
# 3 -0.017479 -0.000537 0.025013 0.000000 0.000000 0.000000
# 4 0.000000 0.000000 0.000000 0.056033 0.000000 0.000000
# 5 0.000000 0.000000 0.000000 0.000000 0.042344 0.000000
# 6 0.000000 0.000000 0.000000 0.000000 0.000000 0.020952
#
#
# Mechanical properties :
#
#
# Convention : Reuss Voigt Hill
#
# Bulk Modulus (GPa) = 58.44460 58.76321 58.60390
# Shear Modulus (GPa) = 21.21909 27.13421 24.17665
#
# Velocity S-wave (km/s) = 3.26376 3.69074 3.48380
# Velocity P-wave (km/s) = 6.59867 6.90374 6.75293
#
# Compressibility (1/GPa) = 0.01711022
#
# Stress axis : x y z
#
# Youngs Moduli (GPa) = 37.02147 84.50904 39.97921
#
# Poissons Ratio (x) = 0.45274 0.69879
# Poissons Ratio (y) = 0.19834 0.02148
# Poissons Ratio (z) = 0.64709 0.04541
#
# Static dielectric constant tensor:
#      x y z
#    x 3.733250 0.000000 0.000000 
#    y 0.000000 3.906920 0.000000 
#    z 0.000000 0.000000 3.338100 
# 
# 
# High freq. dielectric constant tensor:
#      x y z
#    x 1.790150 0.000000 0.000000 
#    y 0.000000 1.793800 0.000000 
#    z 0.000000 0.000000 1.733090 
# 
# From -- ./inp_files/27108.got.cif
#   From: 2010.03.12/outbox.cif.g09.slc.cpg/sg57_14_cif.got.tgz:27108.got - 2010.04.16 15:48:40.
