data_PCOD8234761
_publ_section_title
;
Structure prediction by ZEFSAII (Michael W. Deem and Ramdas Pophale) SiO2 
 PCOD8234761
Probable space group: P B C M
;
_chemical_formula_sum "Si O2"
_cell_formula_units_Z 32
_cell_length_a 18.696455
_cell_length_b 8.707711
_cell_length_c 9.711062
_cell_angle_alpha 90.000000
_cell_angle_beta 90.000000
_cell_angle_gamma 90.000000
_cell_volume 1580.993201
_symmetry_space_group_name_H-M "P B C M"
_symmetry_group_IT_number 57
_symmetry_cell_setting 'orthorhombic'
loop_
_space_group_symop_operation_xyz
x,y,z
-x,-y,1/2+z
x,1/2-y,-z
-x,1/2+y,1/2-z
-x,-y,-z
x,y,1/2-z
-x,1/2+y,z
x,1/2-y,1/2+z
loop_
_atom_site_type_symbol
_atom_site_label
_atom_site_fract_x
_atom_site_fract_y
_atom_site_fract_z
Si Si1 0.808905 0.390167 0.903194
Si Si2 0.651241 0.069562 0.016475
Si Si3 0.559567 0.922287 0.250000
Si Si4 0.407153 0.063698 0.250000
Si Si5 0.055898 0.402551 0.087298
O O1 0.809293 0.321557 0.750000
O O2 0.866398 0.522806 0.919490
O O3 0.829701 0.250000 0.000000
O O4 0.731406 0.461592 0.932865
O O5 0.643235 0.975988 0.877050
O O6 0.636409 0.250000 0.000000
O O7 0.592934 0.000609 0.117456
O O8 0.475378 0.952433 0.250000
O O9 0.570748 0.740587 0.250000
O O10 0.033142 0.379331 0.250000
O O11 0.062375 0.250000 0.000000
O O12 0.000000 0.500000 0.000000
#
# Coordination Sequence:
#
# PCOD8234761 Si02
#       5
#     8   8   4   4   8
#     4  10  23  42  67  95 129 169 213 262 320 387
#     4  11  23  43  65  94 128 168 216 266 327 389
#     4  12  24  44  64  92 131 162 219 266 328 396
#     4  12  26  40  66  94 123 174 209 274 328 390
#     4  11  24  43  66  99 135 176 221 272 326 388
#
# _framework density 20.240442999999999
#
# number of rings (size 3 to 8) (size 9 to 14) (size 15 to 20)
#    0.000    1.000    1.250    5.250    5.250    6.000 
#    0.000    0.000    0.000    0.000    0.000    0.000 
#    0.000    0.000    0.000    0.000    0.000    0.000 
#
# Total GULP energy -396820.211797 kJ/mol
# GULP energy per Si atom -12400.631619 kJ/mol
# Density = 2.019437 g / cm^3
# Si number density = 20.240443 Si / 1000 Ang^3
#
#
#
# Elastic Constant Matrix: (Units=GPa)
#
#
# Indices 1 2 3 4 5 6 
#
# 1 95.1474 49.7016 56.7144 0.0000 0.0000 0.0000
# 2 49.7016 131.3682 65.2618 0.0000 0.0000 0.0000
# 3 56.7144 65.2618 184.8900 0.0000 0.0000 0.0000
# 4 0.0000 0.0000 0.0000 44.6167 0.0000 0.0000
# 5 0.0000 0.0000 0.0000 0.0000 35.2374 0.0000
# 6 0.0000 0.0000 0.0000 0.0000 0.0000 16.6878
#
#
#
# Elastic Compliance Matrix: (Units=1/GPa)
#
#
# Indices 1 2 3 4 5 6 
#
# 1 0.014364 -0.003936 -0.003017 0.000000 0.000000 0.000000
# 2 -0.003936 0.010309 -0.002432 0.000000 0.000000 0.000000
# 3 -0.003017 -0.002432 0.007192 0.000000 0.000000 0.000000
# 4 0.000000 0.000000 0.000000 0.022413 0.000000 0.000000
# 5 0.000000 0.000000 0.000000 0.000000 0.028379 0.000000
# 6 0.000000 0.000000 0.000000 0.000000 0.000000 0.059924
#
#
# Mechanical properties :
#
#
# Convention : Reuss Voigt Hill
#
# Bulk Modulus (GPa) = 76.35252 83.86235 80.10744
# Shear Modulus (GPa) = 30.17204 35.29023 32.73114
#
# Velocity S-wave (km/s) = 3.86512 4.18011 4.02570
# Velocity P-wave (km/s) = 7.59760 8.05114 7.82765
#
# Compressibility (1/GPa) = 0.01309714
#
# Stress axis : x y z
#
# Youngs Moduli (GPa) = 69.61749 97.00033 139.03618
#
# Poissons Ratio (x) = 0.38177 0.41946
# Poissons Ratio (y) = 0.27400 0.33809
# Poissons Ratio (z) = 0.21003 0.23587
#
# Static dielectric constant tensor:
#      x y z
#    x 3.610530 0.000000 0.000000 
#    y 0.000000 2.699030 0.000000 
#    z 0.000000 0.000000 4.115010 
# 
# 
# High freq. dielectric constant tensor:
#      x y z
#    x 1.803790 0.000000 0.000000 
#    y 0.000000 1.793870 0.000000 
#    z 0.000000 0.000000 1.816270 
# 
# From -- ./inp_files/7556.got.cif
#   From: 2010.03.12/outbox.cif.g09.slc.cpg/sg57_4_cif.got.tgz:7556.got - 2010.04.16 15:48:40.
