data_PCOD8234236
_publ_section_title
;
Structure prediction by ZEFSAII (Michael W. Deem and Ramdas Pophale) SiO2 
 PCOD8234236
Probable space group: P B C M
;
_chemical_formula_sum "Si O2"
_cell_formula_units_Z 32
_cell_length_a 7.083132
_cell_length_b 24.074728
_cell_length_c 8.880003
_cell_angle_alpha 90.000000
_cell_angle_beta 90.000000
_cell_angle_gamma 90.000000
_cell_volume 1514.257861
_symmetry_space_group_name_H-M "P B C M"
_symmetry_group_IT_number 57
_symmetry_cell_setting 'orthorhombic'
loop_
_space_group_symop_operation_xyz
x,y,z
-x,-y,1/2+z
x,1/2-y,-z
-x,1/2+y,1/2-z
-x,-y,-z
x,y,1/2-z
-x,1/2+y,z
x,1/2-y,1/2+z
loop_
_atom_site_type_symbol
_atom_site_label
_atom_site_fract_x
_atom_site_fract_y
_atom_site_fract_z
Si Si1 0.794442 0.898303 0.926092
Si Si2 0.938932 0.308529 0.073136
Si Si3 0.359753 0.625410 0.420718
Si Si4 0.701804 0.496214 0.575846
O O1 0.841576 0.897360 0.750000
O O2 0.576872 0.884276 0.961710
O O3 0.914859 0.853081 0.011691
O O4 0.839617 0.960427 0.989763
O O5 0.957764 0.302937 0.250000
O O6 0.988466 0.250000 0.000000
O O7 0.727278 0.327889 0.029434
O O8 0.341577 0.647015 0.250000
O O9 0.236102 0.568401 0.439171
O O10 0.500000 0.500000 0.500000
O O11 0.686532 0.513618 0.750000
#
# Coordination Sequence:
#
# PCOD8234236 Si02
#       4
#     8   8   8   8
#     4  10  21  39  63  89 120 155 193 240 290 345
#     4  12  26  42  61  84 114 153 198 246 291 344
#     4   9  20  39  62  88 119 154 191 236 288 342
#     4   9  17  32  57  89 122 154 190 234 288 348
#
# _framework density 21.132465
#
# number of rings (size 3 to 8) (size 9 to 14) (size 15 to 20)
#    0.000    2.000    0.000    5.250    0.000    8.000 
#    0.000    0.000    0.000    0.000    0.000    0.000 
#    0.000    0.000    0.000    0.000    0.000    0.000 
#
# Total GULP energy -396767.845501 kJ/mol
# GULP energy per Si atom -12398.995172 kJ/mol
# Density = 2.108437 g / cm^3
# Si number density = 21.132465 Si / 1000 Ang^3
#
#
#
# Elastic Constant Matrix: (Units=GPa)
#
#
# Indices 1 2 3 4 5 6 
#
# 1 29.3179 16.3183 23.0336 0.0000 0.0000 0.0000
# 2 16.3183 105.7880 52.6527 0.0000 0.0000 0.0000
# 3 23.0336 52.6527 155.5514 0.0000 0.0000 0.0000
# 4 0.0000 0.0000 0.0000 44.6243 0.0000 0.0000
# 5 0.0000 0.0000 0.0000 0.0000 34.2624 0.0000
# 6 0.0000 0.0000 0.0000 0.0000 0.0000 25.9921
#
#
#
# Elastic Compliance Matrix: (Units=1/GPa)
#
#
# Indices 1 2 3 4 5 6 
#
# 1 0.039870 -0.003862 -0.004596 0.000000 0.000000 0.000000
# 2 -0.003862 0.011742 -0.003403 0.000000 0.000000 0.000000
# 3 -0.004596 -0.003403 0.008261 0.000000 0.000000 0.000000
# 4 0.000000 0.000000 0.000000 0.022409 0.000000 0.000000
# 5 0.000000 0.000000 0.000000 0.000000 0.029187 0.000000
# 6 0.000000 0.000000 0.000000 0.000000 0.000000 0.038473
#
#
# Mechanical properties :
#
#
# Convention : Reuss Voigt Hill
#
# Bulk Modulus (GPa) = 27.66238 52.74072 40.20155
# Shear Modulus (GPa) = 26.92292 34.21927 30.57110
#
# Velocity S-wave (km/s) = 3.57320 4.02839 3.80760
# Velocity P-wave (km/s) = 5.49018 6.82998 6.19640
#
# Compressibility (1/GPa) = 0.03615018
#
# Stress axis : x y z
#
# Youngs Moduli (GPa) = 25.08165 85.16258 121.04840
#
# Poissons Ratio (x) = 0.32893 0.55639
# Poissons Ratio (y) = 0.09687 0.41189
# Poissons Ratio (z) = 0.11529 0.28978
#
# Static dielectric constant tensor:
#      x y z
#    x 3.711520 0.000000 0.000000 
#    y 0.000000 4.129250 0.000000 
#    z 0.000000 0.000000 3.927630 
# 
# 
# High freq. dielectric constant tensor:
#      x y z
#    x 1.825150 0.000000 0.000000 
#    y 0.000000 1.832510 0.000000 
#    z 0.000000 0.000000 1.833950 
# 
# From -- ./inp_files/1261.got.cif
#   From: 2010.03.12/outbox.cif.g09.slc.cpg/sg57_1_cif.got.tgz:1261.got - 2010.04.16 15:48:40.
