data_PCOD8234978
_publ_section_title
;
Structure prediction by ZEFSAII (Michael W. Deem and Ramdas Pophale) SiO2 
 PCOD8234978
Probable space group: P B C M
;
_chemical_formula_sum "Si O2"
_cell_formula_units_Z 64
_cell_length_a 21.075328
_cell_length_b 18.493961
_cell_length_c 8.599080
_cell_angle_alpha 90.000000
_cell_angle_beta 90.000000
_cell_angle_gamma 90.000000
_cell_volume 3351.631544
_symmetry_space_group_name_H-M "P B C M"
_symmetry_group_IT_number 57
_symmetry_cell_setting 'orthorhombic'
loop_
_space_group_symop_operation_xyz
x,y,z
-x,-y,1/2+z
x,1/2-y,-z
-x,1/2+y,1/2-z
-x,-y,-z
x,y,1/2-z
-x,1/2+y,z
x,1/2-y,1/2+z
loop_
_atom_site_type_symbol
_atom_site_label
_atom_site_fract_x
_atom_site_fract_y
_atom_site_fract_z
Si Si1 0.894298 0.173357 0.433813
Si Si2 0.372571 0.173520 0.566059
Si Si3 0.758293 0.894161 0.430573
Si Si4 0.307210 0.956379 0.570192
Si Si5 0.882820 0.830036 0.932219
Si Si6 0.242413 0.824107 0.432026
Si Si7 0.998690 0.920522 0.066935
Si Si8 0.564148 0.530819 0.567134
O O1 0.917292 0.250000 0.500000
O O2 0.905076 0.170372 0.250000
O O3 0.821458 0.158594 0.474168
O O4 0.934407 0.112653 0.518991
O O5 0.394875 0.250000 0.500000
O O6 0.374666 0.175241 0.750000
O O7 0.300980 0.154669 0.513087
O O8 0.420967 0.111799 0.503947
O O9 0.773553 0.879714 0.250000
O O10 0.818610 0.873493 0.532525
O O11 0.741844 0.978165 0.458277
O O12 0.305100 0.932712 0.750000
O O13 0.290755 0.889208 0.460523
O O14 0.377742 0.979282 0.519737
O O15 0.892498 0.823894 0.750000
O O16 0.879196 0.750000 0.000000
O O17 0.941594 0.873312 0.000799
O O18 0.272218 0.750000 0.500000
O O19 0.227687 0.815084 0.250000
O O20 0.991385 0.923902 0.250000
O O21 0.000000 0.000000 0.000000
O O22 0.500000 0.500000 0.500000
O O23 0.557962 0.534046 0.750000
#
# Coordination Sequence:
#
# PCOD8234978 Si02
#       8
#     8   8   8   8   8   8   8   8
#     4  11  22  40  63  86 113 149 189 236 290 345
#     4   9  18  33  54  82 114 148 187 231 278 332
#     4   9  19  36  58  84 115 150 187 231 284 340
#     4   9  19  37  59  83 116 153 189 233 289 341
#     4  12  25  41  60  85 117 152 191 235 285 343
#     4  11  22  37  59  87 116 148 192 241 290 346
#     4  12  26  44  62  84 113 149 192 238 289 344
#     4   9  19  36  57  82 114 152 192 234 279 334
#
# _framework density 19.095178000000001
#
# number of rings (size 3 to 8) (size 9 to 14) (size 15 to 20)
#    0.000    1.750    0.000    7.500    1.750    3.000 
#    0.000    3.125    0.000    1.500    0.000    0.000 
#    0.000    0.000    0.000    0.000    0.000    0.000 
#
# Total GULP energy -793726.538389 kJ/mol
# GULP energy per Si atom -12401.977162 kJ/mol
# Density = 1.905172 g / cm^3
# Si number density = 19.095178 Si / 1000 Ang^3
#
#
#
# Elastic Constant Matrix: (Units=GPa)
#
#
# Indices 1 2 3 4 5 6 
#
# 1 86.0648 58.7665 33.2444 0.0000 0.0000 0.0000
# 2 58.7665 134.1175 39.7992 0.0000 0.0000 0.0000
# 3 33.2444 39.7992 105.0862 0.0000 0.0000 0.0000
# 4 0.0000 0.0000 0.0000 34.9963 0.0000 0.0000
# 5 0.0000 0.0000 0.0000 0.0000 31.5674 0.0000
# 6 0.0000 0.0000 0.0000 0.0000 0.0000 22.8036
#
#
#
# Elastic Compliance Matrix: (Units=1/GPa)
#
#
# Indices 1 2 3 4 5 6 
#
# 1 0.017350 -0.006730 -0.002940 0.000000 0.000000 0.000000
# 2 -0.006730 0.011011 -0.002041 0.000000 0.000000 0.000000
# 3 -0.002940 -0.002041 0.011219 0.000000 0.000000 0.000000
# 4 0.000000 0.000000 0.000000 0.028574 0.000000 0.000000
# 5 0.000000 0.000000 0.000000 0.000000 0.031678 0.000000
# 6 0.000000 0.000000 0.000000 0.000000 0.000000 0.043853
#
#
# Mechanical properties :
#
#
# Convention : Reuss Voigt Hill
#
# Bulk Modulus (GPa) = 61.88869 65.43209 63.66039
# Shear Modulus (GPa) = 28.98669 30.77069 29.87869
#
# Velocity S-wave (km/s) = 3.90039 4.01863 3.95995
# Velocity P-wave (km/s) = 7.26396 7.47483 7.37015
#
# Compressibility (1/GPa) = 0.01615804
#
# Stress axis : x y z
#
# Youngs Moduli (GPa) = 57.63674 90.82101 89.13397
#
# Poissons Ratio (x) = 0.61121 0.26205
# Poissons Ratio (y) = 0.38789 0.18193
# Poissons Ratio (z) = 0.16945 0.18537
#
# Static dielectric constant tensor:
#      x y z
#    x 2.953160 0.000000 0.000000 
#    y 0.000000 3.674420 0.000000 
#    z 0.000000 0.000000 3.445950 
# 
# 
# High freq. dielectric constant tensor:
#      x y z
#    x 1.734800 0.000000 0.000000 
#    y 0.000000 1.754610 0.000000 
#    z 0.000000 0.000000 1.745790 
# 
# From -- ./inp_files/8543.got.cif
#   From: 2010.03.12/outbox.cif.g09.slc.cpg/sg57_5_cif.got.tgz:8543.got - 2010.04.16 15:48:40.
