data_PCOD8234019
_publ_section_title
;
Structure prediction by ZEFSAII (Michael W. Deem and Ramdas Pophale) SiO2 
 PCOD8234019
Probable space group: P B C M
;
_chemical_formula_sum "Si O2"
_cell_formula_units_Z 64
_cell_length_a 12.418093
_cell_length_b 8.571694
_cell_length_c 30.258723
_cell_angle_alpha 90.000000
_cell_angle_beta 90.000000
_cell_angle_gamma 90.000000
_cell_volume 3220.862333
_symmetry_space_group_name_H-M "P B C M"
_symmetry_group_IT_number 57
_symmetry_cell_setting 'orthorhombic'
loop_
_space_group_symop_operation_xyz
x,y,z
-x,-y,1/2+z
x,1/2-y,-z
-x,1/2+y,1/2-z
-x,-y,-z
x,y,1/2-z
-x,1/2+y,z
x,1/2-y,1/2+z
loop_
_atom_site_type_symbol
_atom_site_label
_atom_site_fract_x
_atom_site_fract_y
_atom_site_fract_z
Si Si1 0.011266 0.419574 0.895827
Si Si2 0.316096 0.656180 0.937091
Si Si3 0.453708 0.126539 0.597661
Si Si4 0.518025 0.620223 0.158723
Si Si5 0.090147 0.332414 0.044036
Si Si6 0.689977 0.999246 0.025623
Si Si7 0.848186 0.172120 0.864782
Si Si8 0.350278 0.648687 0.698952
O O1 0.978653 0.520467 0.939172
O O2 0.909218 0.337363 0.871680
O O3 0.092264 0.288969 0.915075
O O4 0.067309 0.528983 0.858399
O O5 0.417524 0.650609 0.904691
O O6 0.298904 0.828985 0.955339
O O7 0.209292 0.619714 0.910102
O O8 0.333013 0.521226 0.973786
O O9 0.410862 0.280406 0.622950
O O10 0.432992 0.982953 0.630634
O O11 0.406104 0.097057 0.549138
O O12 0.603763 0.521897 0.186822
O O13 0.444854 0.726732 0.190187
O O14 0.208325 0.391198 0.032892
O O15 0.040010 0.250000 0.000000
O O16 0.761788 0.187722 0.825711
O O17 0.320079 0.652197 0.750000
#
# Coordination Sequence:
#
# PCOD8234019 Si02
#       8
#     8   8   8   8   8   8   8   8
#     4  10  24  39  62  82 117 156 211 258 308 355
#     4  11  21  38  56  82 124 172 203 251 299 352
#     4  11  20  38  57  88 124 168 196 242 287 367
#     4  10  21  37  65  92 124 158 196 230 298 372
#     4  11  22  38  56  86 112 159 209 265 296 340
#     4  11  23  34  55  87 125 160 217 250 292 346
#     4  11  21  44  62  87 117 166 202 254 316 360
#     4  11  23  42  69  97 126 153 189 246 310 380
#
# _framework density 19.870456000000001
#
# number of rings (size 3 to 8) (size 9 to 14) (size 15 to 20)
#    0.000    1.250    5.000    1.875    1.750    2.000 
#    2.250    0.625    0.000    0.000    0.000    0.000 
#    0.000    0.000    0.000    0.000    0.000    0.000 
#
# Total GULP energy -793282.223413 kJ/mol
# GULP energy per Si atom -12395.034741 kJ/mol
# Density = 1.982523 g / cm^3
# Si number density = 19.870456 Si / 1000 Ang^3
#
#
#
# Elastic Constant Matrix: (Units=GPa)
#
#
# Indices 1 2 3 4 5 6 
#
# 1 89.7388 43.4321 43.3653 0.0000 0.0000 0.0000
# 2 43.4321 111.6843 43.2612 0.0000 0.0000 0.0000
# 3 43.3653 43.2612 100.8504 0.0000 0.0000 0.0000
# 4 0.0000 0.0000 0.0000 20.7338 0.0000 0.0000
# 5 0.0000 0.0000 0.0000 0.0000 22.2331 0.0000
# 6 0.0000 0.0000 0.0000 0.0000 0.0000 24.0049
#
#
#
# Elastic Compliance Matrix: (Units=1/GPa)
#
#
# Indices 1 2 3 4 5 6 
#
# 1 0.015511 -0.004136 -0.004896 0.000000 0.000000 0.000000
# 2 -0.004136 0.011841 -0.003301 0.000000 0.000000 0.000000
# 3 -0.004896 -0.003301 0.013437 0.000000 0.000000 0.000000
# 4 0.000000 0.000000 0.000000 0.048231 0.000000 0.000000
# 5 0.000000 0.000000 0.000000 0.000000 0.044978 0.000000
# 6 0.000000 0.000000 0.000000 0.000000 0.000000 0.041658
#
#
# Mechanical properties :
#
#
# Convention : Reuss Voigt Hill
#
# Bulk Modulus (GPa) = 62.01922 62.48784 62.25353
# Shear Modulus (GPa) = 24.30800 24.87535 24.59167
#
# Velocity S-wave (km/s) = 3.50140 3.54202 3.52177
# Velocity P-wave (km/s) = 6.90115 6.94578 6.92350
#
# Compressibility (1/GPa) = 0.01612403
#
# Stress axis : x y z
#
# Youngs Moduli (GPa) = 64.47162 84.45455 74.42285
#
# Poissons Ratio (x) = 0.34927 0.36434
# Poissons Ratio (y) = 0.26662 0.24567
# Poissons Ratio (z) = 0.31562 0.27878
#
# Static dielectric constant tensor:
#      x y z
#    x 3.450960 0.000000 0.000000 
#    y 0.000000 3.917230 0.000000 
#    z 0.000000 0.000000 3.476930 
# 
# 
# High freq. dielectric constant tensor:
#      x y z
#    x 1.761040 0.000000 0.000000 
#    y 0.000000 1.796900 0.000000 
#    z 0.000000 0.000000 1.746560 
# 
# From -- ./inp_files/29775.got.cif
#   From: 2010.03.12/outbox.cif.g09.slc.cpg/sg57_15_cif.got.tgz:29775.got - 2010.04.16 15:48:40.
