data_PCOD8234526
_publ_section_title
;
Structure prediction by ZEFSAII (Michael W. Deem and Ramdas Pophale) SiO2 
 PCOD8234526
Probable space group: P B C M
;
_chemical_formula_sum "Si O2"
_cell_formula_units_Z 48
_cell_length_a 28.920269
_cell_length_b 8.520893
_cell_length_c 9.575969
_cell_angle_alpha 90.000000
_cell_angle_beta 90.000000
_cell_angle_gamma 90.000000
_cell_volume 2359.772694
_symmetry_space_group_name_H-M "P B C M"
_symmetry_group_IT_number 57
_symmetry_cell_setting 'orthorhombic'
loop_
_space_group_symop_operation_xyz
x,y,z
-x,-y,1/2+z
x,1/2-y,-z
-x,1/2+y,1/2-z
-x,-y,-z
x,y,1/2-z
-x,1/2+y,z
x,1/2-y,1/2+z
loop_
_atom_site_type_symbol
_atom_site_label
_atom_site_fract_x
_atom_site_fract_y
_atom_site_fract_z
Si Si1 0.278376 0.592504 0.914409
Si Si2 0.189792 0.398257 0.906978
Si Si3 0.538250 0.093031 0.913724
Si Si4 0.937549 0.567469 0.750000
Si Si5 0.099413 0.565537 0.521327
Si Si6 0.367813 0.097345 0.407770
Si Si7 0.963962 0.569747 0.250000
O O1 0.277174 0.631228 0.750000
O O2 0.236642 0.479394 0.959861
O O3 0.326038 0.511081 0.960596
O O4 0.272807 0.750000 0.000000
O O5 0.196477 0.337463 0.750000
O O6 0.148249 0.523473 0.909389
O O7 0.177401 0.250000 0.000000
O O8 0.523741 0.123064 0.750000
O O9 0.585118 0.997121 0.918527
O O10 0.546995 0.250000 0.000000
O O11 0.500000 0.000000 0.000000
O O12 0.904693 0.531331 0.620518
O O13 0.952955 0.746861 0.750000
O O14 0.981072 0.450372 0.750000
O O15 0.096786 0.750000 0.500000
O O16 0.056333 0.514169 0.614762
O O17 0.371958 0.250000 0.500000
O O18 0.358142 0.151980 0.250000
#
# Coordination Sequence:
#
# PCOD8234526 Si02
#       7
#     8   8   8   4   8   8   4
#     4  10  22  41  63  92 126 162 207 257 310 371
#     4  11  24  42  65  93 126 161 205 254 307 371
#     4  11  23  39  60  89 123 165 211 263 319 380
#     4  12  26  42  70  92 126 170 202 258 307 366
#     4  12  25  43  65  94 127 164 206 256 309 367
#     4  10  22  39  61  89 124 162 209 261 316 377
#     4  12  24  46  64  96 128 160 214 250 309 370
#
# _framework density 20.340941999999998
#
# number of rings (size 3 to 8) (size 9 to 14) (size 15 to 20)
#    0.000    1.000    0.833    6.000    1.167    4.000 
#    0.000    0.000    0.000    0.000    0.000    0.000 
#    0.000    0.000    0.000    0.000    0.000    0.000 
#
# Total GULP energy -595437.866865 kJ/mol
# GULP energy per Si atom -12404.955560 kJ/mol
# Density = 2.029464 g / cm^3
# Si number density = 20.340942 Si / 1000 Ang^3
#
#
#
# Elastic Constant Matrix: (Units=GPa)
#
#
# Indices 1 2 3 4 5 6 
#
# 1 103.7561 19.4252 23.2089 0.0000 0.0000 0.0000
# 2 19.4252 139.5489 51.9174 0.0000 0.0000 0.0000
# 3 23.2089 51.9174 112.1449 0.0000 0.0000 0.0000
# 4 0.0000 0.0000 0.0000 39.6498 0.0000 0.0000
# 5 0.0000 0.0000 0.0000 0.0000 31.5934 0.0000
# 6 0.0000 0.0000 0.0000 0.0000 0.0000 31.2329
#
#
#
# Elastic Compliance Matrix: (Units=1/GPa)
#
#
# Indices 1 2 3 4 5 6 
#
# 1 0.010173 -0.000764 -0.001751 0.000000 0.000000 0.000000
# 2 -0.000764 0.008714 -0.003876 0.000000 0.000000 0.000000
# 3 -0.001751 -0.003876 0.011074 0.000000 0.000000 0.000000
# 4 0.000000 0.000000 0.000000 0.025221 0.000000 0.000000
# 5 0.000000 0.000000 0.000000 0.000000 0.031652 0.000000
# 6 0.000000 0.000000 0.000000 0.000000 0.000000 0.032018
#
#
# Mechanical properties :
#
#
# Convention : Reuss Voigt Hill
#
# Bulk Modulus (GPa) = 58.21662 60.50590 59.36126
# Shear Modulus (GPa) = 36.40029 37.88844 37.14437
#
# Velocity S-wave (km/s) = 4.23485 4.32055 4.27791
# Velocity P-wave (km/s) = 7.25220 7.39594 7.32443
#
# Compressibility (1/GPa) = 0.01717723
#
# Stress axis : x y z
#
# Youngs Moduli (GPa) = 98.30055 114.75226 90.30202
#
# Poissons Ratio (x) = 0.08773 0.15816
# Poissons Ratio (y) = 0.07515 0.35002
# Poissons Ratio (z) = 0.17216 0.44479
#
# Static dielectric constant tensor:
#      x y z
#    x 3.881310 0.000000 0.000000 
#    y 0.000000 3.738920 0.000000 
#    z 0.000000 0.000000 3.899360 
# 
# 
# High freq. dielectric constant tensor:
#      x y z
#    x 1.811440 0.000000 0.000000 
#    y 0.000000 1.802960 0.000000 
#    z 0.000000 0.000000 1.806210 
# 
# From -- ./inp_files/10188.got.cif
#   From: 2010.03.12/outbox.cif.g09.slc.cpg/sg57_6_cif.got.tgz:10188.got - 2010.04.16 15:48:40.
