data_PCOD8234492
_publ_section_title
;
Structure prediction by ZEFSAII (Michael W. Deem and Ramdas Pophale) SiO2 
 PCOD8234492
Probable space group: P B C M
;
_chemical_formula_sum "Si O2"
_cell_formula_units_Z 52
_cell_length_a 11.642649
_cell_length_b 10.755040
_cell_length_c 22.827812
_cell_angle_alpha 90.000000
_cell_angle_beta 90.000000
_cell_angle_gamma 90.000000
_cell_volume 2858.433690
_symmetry_space_group_name_H-M "P B C M"
_symmetry_group_IT_number 57
_symmetry_cell_setting 'orthorhombic'
loop_
_space_group_symop_operation_xyz
x,y,z
-x,-y,1/2+z
x,1/2-y,-z
-x,1/2+y,1/2-z
-x,-y,-z
x,y,1/2-z
-x,1/2+y,z
x,1/2-y,1/2+z
loop_
_atom_site_type_symbol
_atom_site_label
_atom_site_fract_x
_atom_site_fract_y
_atom_site_fract_z
Si Si1 0.453286 0.044226 0.060996
Si Si2 0.326686 0.586216 0.373233
Si Si3 0.290899 0.637437 0.624968
Si Si4 0.085430 0.862621 0.045746
Si Si5 0.591293 0.410408 0.750000
Si Si6 0.335261 0.250000 0.000000
Si Si7 0.607869 0.378540 0.250000
Si Si8 0.160699 0.054847 0.547014
O O1 0.555320 0.023268 0.106491
O O2 0.346758 0.963376 0.082460
O O3 0.411703 0.185775 0.050838
O O4 0.500000 0.000000 0.000000
O O5 0.345294 0.729673 0.389466
O O6 0.322876 0.564518 0.303842
O O7 0.210025 0.534646 0.402182
O O8 0.157270 0.649339 0.606050
O O9 0.309656 0.603615 0.693342
O O10 0.954421 0.875299 0.068172
O O11 0.099689 0.750000 0.000000
O O12 0.129582 0.984658 0.012590
O O13 0.485837 0.509349 0.750000
O O14 0.551496 0.262425 0.750000
O O15 0.259680 0.151890 0.965469
#
# Coordination Sequence:
#
# PCOD8234492 Si02
#       8
#     8   8   8   8   4   4   4   8
#     4  12  22  33  55  87 122 153 188 240 307 362
#     4  11  22  39  58  86 119 159 197 245 300 364
#     4  11  22  39  61  85 117 160 204 244 296 364
#     4  11  21  39  61  85 117 159 201 242 306 359
#     4  10  22  38  63  86 118 164 205 247 299 366
#     4  12  22  34  50  94 122 150 190 242 308 368
#     4  10  22  42  63  88 120 166 209 247 299 360
#     4  11  23  36  58  87 119 153 194 246 301 364
#
# _framework density 18.191780999999999
#
# number of rings (size 3 to 8) (size 9 to 14) (size 15 to 20)
#    0.000    0.923    6.923    0.923    0.000    0.000 
#    0.000    0.769    0.000    0.000    0.000    0.000 
#    0.000    0.000    0.000    0.000    0.000    0.000 
#
# Total GULP energy -644506.634417 kJ/mol
# GULP energy per Si atom -12394.358354 kJ/mol
# Density = 1.815038 g / cm^3
# Si number density = 18.191781 Si / 1000 Ang^3
#
#
#
# Elastic Constant Matrix: (Units=GPa)
#
#
# Indices 1 2 3 4 5 6 
#
# 1 96.7491 21.4341 45.8148 0.0000 0.0000 0.0000
# 2 21.4341 74.6229 32.3802 0.0000 0.0000 0.0000
# 3 45.8148 32.3802 108.1985 0.0000 0.0000 0.0000
# 4 0.0000 0.0000 0.0000 25.9888 0.0000 0.0000
# 5 0.0000 0.0000 0.0000 0.0000 14.6658 0.0000
# 6 0.0000 0.0000 0.0000 0.0000 0.0000 34.9604
#
#
#
# Elastic Compliance Matrix: (Units=1/GPa)
#
#
# Indices 1 2 3 4 5 6 
#
# 1 0.013084 -0.001556 -0.005074 0.000000 0.000000 0.000000
# 2 -0.001556 0.015586 -0.004005 0.000000 0.000000 0.000000
# 3 -0.005074 -0.004005 0.012590 0.000000 0.000000 0.000000
# 4 0.000000 0.000000 0.000000 0.038478 0.000000 0.000000
# 5 0.000000 0.000000 0.000000 0.000000 0.068186 0.000000
# 6 0.000000 0.000000 0.000000 0.000000 0.000000 0.028604
#
#
# Mechanical properties :
#
#
# Convention : Reuss Voigt Hill
#
# Bulk Modulus (GPa) = 50.03200 53.20318 51.61759
# Shear Modulus (GPa) = 24.45454 27.11909 25.78682
#
# Velocity S-wave (km/s) = 3.67040 3.86519 3.76905
# Velocity P-wave (km/s) = 6.74720 7.01632 6.88308
#
# Compressibility (1/GPa) = 0.01998721
#
# Stress axis : x y z
#
# Youngs Moduli (GPa) = 76.43100 64.16138 79.43075
#
# Poissons Ratio (x) = 0.09985 0.40306
# Poissons Ratio (y) = 0.11894 0.31815
# Poissons Ratio (z) = 0.38784 0.25699
#
# Static dielectric constant tensor:
#      x y z
#    x 3.118630 0.000000 0.000000 
#    y 0.000000 3.564160 0.000000 
#    z 0.000000 0.000000 3.218700 
# 
# 
# High freq. dielectric constant tensor:
#      x y z
#    x 1.699760 0.000000 0.000000 
#    y 0.000000 1.718290 0.000000 
#    z 0.000000 0.000000 1.692530 
# 
# From -- ./inp_files/25082.got.cif
#   From: 2010.03.12/outbox.cif.g09.slc.cpg/sg57_13_cif.got.tgz:25082.got - 2010.04.16 15:48:40.
