data_PCOD8234087
_publ_section_title
;
Structure prediction by ZEFSAII (Michael W. Deem and Ramdas Pophale) SiO2 
 PCOD8234087
Probable space group: P B C M
;
_chemical_formula_sum "Si O2"
_cell_formula_units_Z 40
_cell_length_a 25.556378
_cell_length_b 9.084859
_cell_length_c 8.549249
_cell_angle_alpha 90.000000
_cell_angle_beta 90.000000
_cell_angle_gamma 90.000000
_cell_volume 1984.931211
_symmetry_space_group_name_H-M "P B C M"
_symmetry_group_IT_number 57
_symmetry_cell_setting 'orthorhombic'
loop_
_space_group_symop_operation_xyz
x,y,z
-x,-y,1/2+z
x,1/2-y,-z
-x,1/2+y,1/2-z
-x,-y,-z
x,y,1/2-z
-x,1/2+y,z
x,1/2-y,1/2+z
loop_
_atom_site_type_symbol
_atom_site_label
_atom_site_fract_x
_atom_site_fract_y
_atom_site_fract_z
Si Si1 0.645979 0.086887 0.934565
Si Si2 0.259094 0.412877 0.433037
Si Si3 0.155870 0.909329 0.932066
Si Si4 0.048137 0.911629 0.065946
Si Si5 0.548903 0.587334 0.934749
O O1 0.637459 0.089391 0.750000
O O2 0.641647 0.250000 0.000000
O O3 0.702054 0.020021 0.975618
O O4 0.602348 0.987438 0.013877
O O5 0.263821 0.250000 0.500000
O O6 0.273126 0.412846 0.250000
O O7 0.201312 0.473925 0.464960
O O8 0.144901 0.887534 0.750000
O O9 0.171309 0.750000 0.000000
O O10 0.103899 0.977686 0.011505
O O11 0.045071 0.911725 0.250000
O O12 0.043792 0.750000 0.000000
O O13 0.000000 0.000000 0.000000
O O14 0.545543 0.591875 0.750000
O O15 0.547226 0.750000 0.000000
O O16 0.500000 0.500000 0.000000
#
# Coordination Sequence:
#
# PCOD8234087 Si02
#       5
#     8   8   8   8   8
#     4  12  25  43  66  93 125 163 206 252 303 361
#     4  11  24  41  62  90 123 160 201 249 302 358
#     4  10  21  38  60  86 117 154 199 246 299 358
#     4  11  22  38  60  86 118 155 198 245 298 356
#     4  12  25  44  67  95 129 166 208 254 306 361
#
# _framework density 20.15183
#
# number of rings (size 3 to 8) (size 9 to 14) (size 15 to 20)
#    0.000    0.800    0.000    9.600    0.000    5.600 
#    0.000    2.000    0.000    0.000    0.000    0.000 
#    0.000    0.000    0.000    0.000    0.000    0.000 
#
# Total GULP energy -496217.377874 kJ/mol
# GULP energy per Si atom -12405.434447 kJ/mol
# Density = 2.010596 g / cm^3
# Si number density = 20.151830 Si / 1000 Ang^3
#
#
#
# Elastic Constant Matrix: (Units=GPa)
#
#
# Indices 1 2 3 4 5 6 
#
# 1 130.1603 62.7215 67.8597 0.0000 0.0000 0.0000
# 2 62.7215 132.7975 65.1741 0.0000 0.0000 0.0000
# 3 67.8597 65.1741 191.8162 0.0000 0.0000 0.0000
# 4 0.0000 0.0000 0.0000 40.1350 0.0000 0.0000
# 5 0.0000 0.0000 0.0000 0.0000 40.5605 0.0000
# 6 0.0000 0.0000 0.0000 0.0000 0.0000 72.4384
#
#
#
# Elastic Compliance Matrix: (Units=1/GPa)
#
#
# Indices 1 2 3 4 5 6 
#
# 1 0.010877 -0.003899 -0.002523 0.000000 0.000000 0.000000
# 2 -0.003899 0.010435 -0.002166 0.000000 0.000000 0.000000
# 3 -0.002523 -0.002166 0.006842 0.000000 0.000000 0.000000
# 4 0.000000 0.000000 0.000000 0.024916 0.000000 0.000000
# 5 0.000000 0.000000 0.000000 0.000000 0.024655 0.000000
# 6 0.000000 0.000000 0.000000 0.000000 0.000000 0.013805
#
#
# Mechanical properties :
#
#
# Convention : Reuss Voigt Hill
#
# Bulk Modulus (GPa) = 91.09786 94.03161 92.56473
# Shear Modulus (GPa) = 44.49768 47.89468 46.19618
#
# Velocity S-wave (km/s) = 4.70416 4.88042 4.79310
# Velocity P-wave (km/s) = 8.64924 8.86120 8.75586
#
# Compressibility (1/GPa) = 0.01097721
#
# Stress axis : x y z
#
# Youngs Moduli (GPa) = 91.93515 95.83223 146.15621
#
# Poissons Ratio (x) = 0.37365 0.36880
# Poissons Ratio (y) = 0.35846 0.31659
# Poissons Ratio (z) = 0.23198 0.20758
#
# Static dielectric constant tensor:
#      x y z
#    x 4.151010 0.000000 0.000000 
#    y 0.000000 3.674120 0.000000 
#    z 0.000000 0.000000 4.000990 
# 
# 
# High freq. dielectric constant tensor:
#      x y z
#    x 1.808370 0.000000 0.000000 
#    y 0.000000 1.793560 0.000000 
#    z 0.000000 0.000000 1.812420 
# 
# From -- ./inp_files/8903.got.cif
#   From: 2010.03.12/outbox.cif.g09.slc.cpg/sg57_5_cif.got.tgz:8903.got - 2010.04.16 15:48:40.
