data_PCOD8234285
_publ_section_title
;
Structure prediction by ZEFSAII (Michael W. Deem and Ramdas Pophale) SiO2 
 PCOD8234285
Probable space group: P B C M
;
_chemical_formula_sum "Si O2"
_cell_formula_units_Z 48
_cell_length_a 18.506182
_cell_length_b 14.785487
_cell_length_c 8.603444
_cell_angle_alpha 90.000000
_cell_angle_beta 90.000000
_cell_angle_gamma 90.000000
_cell_volume 2354.099412
_symmetry_space_group_name_H-M "P B C M"
_symmetry_group_IT_number 57
_symmetry_cell_setting 'orthorhombic'
loop_
_space_group_symop_operation_xyz
x,y,z
-x,-y,1/2+z
x,1/2-y,-z
-x,1/2+y,1/2-z
-x,-y,-z
x,y,1/2-z
-x,1/2+y,z
x,1/2-y,1/2+z
loop_
_atom_site_type_symbol
_atom_site_label
_atom_site_fract_x
_atom_site_fract_y
_atom_site_fract_z
Si Si1 0.485459 0.351409 0.932820
Si Si2 0.756787 0.485105 0.427775
Si Si3 0.138386 0.841373 0.933215
Si Si4 0.846054 0.840426 0.928693
Si Si5 0.994255 0.599140 0.933169
Si Si6 0.604181 0.494295 0.568331
O O1 0.483148 0.340422 0.750000
O O2 0.555454 0.409215 0.988401
O O3 0.485930 0.250000 0.000000
O O4 0.416411 0.410854 0.985803
O O5 0.739597 0.460502 0.250000
O O6 0.822116 0.425319 0.489521
O O7 0.782538 0.587515 0.446115
O O8 0.685957 0.468389 0.529366
O O9 0.147149 0.846308 0.750000
O O10 0.174279 0.750000 0.000000
O O11 0.054600 0.840860 0.982196
O O12 0.870108 0.830029 0.750000
O O13 0.811570 0.750000 0.000000
O O14 0.915865 0.861832 0.031750
O O15 0.008870 0.598712 0.750000
O O16 0.000000 0.500000 0.000000
O O17 0.594057 0.509280 0.750000
#
# Coordination Sequence:
#
# PCOD8234285 Si02
#       6
#     8   8   8   8   8   8
#     4  10  21  39  65  95 125 161 203 249 299 358
#     4  11  24  42  63  89 126 165 206 253 305 366
#     4  12  25  42  64  89 121 161 207 258 312 370
#     4  11  24  41  62  88 120 159 206 256 310 367
#     4  12  23  39  63  89 119 157 204 257 313 370
#     4  10  22  40  63  92 127 164 204 249 301 360
#
# _framework density 20.389963000000002
#
# number of rings (size 3 to 8) (size 9 to 14) (size 15 to 20)
#    0.000    1.000    1.667    5.500    0.000    5.333 
#    0.000    3.333    0.000    0.000    0.000    0.000 
#    0.000    0.000    0.000    0.000    0.000    0.000 
#
# Total GULP energy -595396.840788 kJ/mol
# GULP energy per Si atom -12404.100850 kJ/mol
# Density = 2.034355 g / cm^3
# Si number density = 20.389963 Si / 1000 Ang^3
#
#
#
# Elastic Constant Matrix: (Units=GPa)
#
#
# Indices 1 2 3 4 5 6 
#
# 1 74.3608 7.0289 14.2671 0.0000 0.0000 0.0000
# 2 7.0289 115.5529 55.1197 0.0000 0.0000 0.0000
# 3 14.2671 55.1197 75.5544 0.0000 0.0000 0.0000
# 4 0.0000 0.0000 0.0000 37.5783 0.0000 0.0000
# 5 0.0000 0.0000 0.0000 0.0000 32.8669 0.0000
# 6 0.0000 0.0000 0.0000 0.0000 0.0000 14.5733
#
#
#
# Elastic Compliance Matrix: (Units=1/GPa)
#
#
# Indices 1 2 3 4 5 6 
#
# 1 0.013983 0.000627 -0.003098 0.000000 0.000000 0.000000
# 2 0.000627 0.013301 -0.009822 0.000000 0.000000 0.000000
# 3 -0.003098 -0.009822 0.020986 0.000000 0.000000 0.000000
# 4 0.000000 0.000000 0.000000 0.026611 0.000000 0.000000
# 5 0.000000 0.000000 0.000000 0.000000 0.030426 0.000000
# 6 0.000000 0.000000 0.000000 0.000000 0.000000 0.068619
#
#
# Mechanical properties :
#
#
# Convention : Reuss Voigt Hill
#
# Bulk Modulus (GPa) = 42.22180 46.47772 44.34976
# Shear Modulus (GPa) = 24.22406 29.60719 26.91563
#
# Velocity S-wave (km/s) = 3.45053 3.81471 3.63718
# Velocity P-wave (km/s) = 6.05202 6.49974 6.27987
#
# Compressibility (1/GPa) = 0.02368445
#
# Stress axis : x y z
#
# Youngs Moduli (GPa) = 71.51519 75.18176 47.65069
#
# Poissons Ratio (x) = -0.04715 0.14762
# Poissons Ratio (y) = -0.04485 0.46803
# Poissons Ratio (z) = 0.22155 0.73844
#
# Static dielectric constant tensor:
#      x y z
#    x 3.642120 0.000000 0.000000 
#    y 0.000000 3.849200 0.000000 
#    z 0.000000 0.000000 3.781250 
# 
# 
# High freq. dielectric constant tensor:
#      x y z
#    x 1.787110 0.000000 0.000000 
#    y 0.000000 1.811210 0.000000 
#    z 0.000000 0.000000 1.813040 
# 
# From -- ./inp_files/6466.got.cif
#   From: 2010.03.12/outbox.cif.g09.slc.cpg/sg57_4_cif.got.tgz:6466.got - 2010.04.16 15:48:40.
