data_PCOD8234514
_publ_section_title
;
Structure prediction by ZEFSAII (Michael W. Deem and Ramdas Pophale) SiO2 
 PCOD8234514
Probable space group: P B C M
;
_chemical_formula_sum "Si O2"
_cell_formula_units_Z 64
_cell_length_a 10.782420
_cell_length_b 9.903162
_cell_length_c 29.372454
_cell_angle_alpha 90.000000
_cell_angle_beta 90.000000
_cell_angle_gamma 90.000000
_cell_volume 3136.392166
_symmetry_space_group_name_H-M "P B C M"
_symmetry_group_IT_number 57
_symmetry_cell_setting 'orthorhombic'
loop_
_space_group_symop_operation_xyz
x,y,z
-x,-y,1/2+z
x,1/2-y,-z
-x,1/2+y,1/2-z
-x,-y,-z
x,y,1/2-z
-x,1/2+y,z
x,1/2-y,1/2+z
loop_
_atom_site_type_symbol
_atom_site_label
_atom_site_fract_x
_atom_site_fract_y
_atom_site_fract_z
Si Si1 0.390197 0.827607 0.801908
Si Si2 0.246387 0.518577 0.588192
Si Si3 0.136512 0.924228 0.659246
Si Si4 0.863413 0.751521 0.447871
Si Si5 0.301505 0.026990 0.917402
Si Si6 0.025353 0.658316 0.866780
Si Si7 0.608996 0.395676 0.498617
Si Si8 0.530179 0.051626 0.851956
O O1 0.408916 0.783668 0.750000
O O2 0.250140 0.888168 0.806901
O O3 0.421148 0.695957 0.832669
O O4 0.486542 0.948377 0.812789
O O5 0.163219 0.395814 0.571229
O O6 0.162626 0.607389 0.621822
O O7 0.297829 0.594869 0.543847
O O8 0.361857 0.476560 0.619908
O O9 0.039608 0.800536 0.659172
O O10 0.194384 0.953517 0.610400
O O11 0.053285 0.060258 0.667776
O O12 0.910810 0.750000 0.500000
O O13 0.737989 0.838307 0.444302
O O14 0.964039 0.822711 0.416140
O O15 0.416762 0.073769 0.886663
O O16 0.321286 0.910964 0.954001
O O17 0.546027 0.250000 0.500000
O O18 0.500000 0.500000 0.500000
#
# Coordination Sequence:
#
# PCOD8234514 Si02
#       8
#     8   8   8   8   8   8   8   8
#     4  11  24  45  70  97 123 153 198 259 329 398
#     4  12  23  38  64  89 128 173 217 256 309 364
#     4  10  22  41  66  89 124 165 206 258 313 372
#     4  11  23  37  58  88 126 175 222 269 295 341
#     4  10  22  39  59  91 128 170 215 256 306 365
#     4  11  22  41  62  89 123 168 220 253 308 366
#     4  12  26  36  57  88 132 169 218 259 301 356
#     4  11  23  40  68  94 127 161 202 253 322 387
#
# _framework density 20.405611
#
# number of rings (size 3 to 8) (size 9 to 14) (size 15 to 20)
#    0.000    1.000    5.000    1.875    3.500    2.000 
#    0.000    0.625    0.000    0.000    0.000    0.000 
#    0.000    0.000    0.000    0.000    0.000    0.000 
#
# Total GULP energy -793121.800775 kJ/mol
# GULP energy per Si atom -12392.528137 kJ/mol
# Density = 2.035917 g / cm^3
# Si number density = 20.405611 Si / 1000 Ang^3
#
#
#
# Elastic Constant Matrix: (Units=GPa)
#
#
# Indices 1 2 3 4 5 6 
#
# 1 79.9495 45.7218 23.0677 0.0000 0.0000 0.0000
# 2 45.7218 97.3621 10.8064 0.0000 0.0000 0.0000
# 3 23.0677 10.8064 73.8712 0.0000 0.0000 0.0000
# 4 0.0000 0.0000 0.0000 16.5351 0.0000 0.0000
# 5 0.0000 0.0000 0.0000 0.0000 19.9720 0.0000
# 6 0.0000 0.0000 0.0000 0.0000 0.0000 35.6780
#
#
#
# Elastic Compliance Matrix: (Units=1/GPa)
#
#
# Indices 1 2 3 4 5 6 
#
# 1 0.018511 -0.008184 -0.004583 0.000000 0.000000 0.000000
# 2 -0.008184 0.014059 0.000499 0.000000 0.000000 0.000000
# 3 -0.004583 0.000499 0.014895 0.000000 0.000000 0.000000
# 4 0.000000 0.000000 0.000000 0.060478 0.000000 0.000000
# 5 0.000000 0.000000 0.000000 0.000000 0.050070 0.000000
# 6 0.000000 0.000000 0.000000 0.000000 0.000000 0.028028
#
#
# Mechanical properties :
#
#
# Convention : Reuss Voigt Hill
#
# Bulk Modulus (GPa) = 43.61391 45.59716 44.60554
# Shear Modulus (GPa) = 22.91271 25.87615 24.39443
#
# Velocity S-wave (km/s) = 3.35455 3.56489 3.46132
# Velocity P-wave (km/s) = 6.03522 6.27204 6.15477
#
# Compressibility (1/GPa) = 0.02292846
#
# Stress axis : x y z
#
# Youngs Moduli (GPa) = 54.02336 71.12993 67.13562
#
# Poissons Ratio (x) = 0.58212 0.30769
# Poissons Ratio (y) = 0.44212 -0.03350
# Poissons Ratio (z) = 0.24759 -0.03549
#
# Static dielectric constant tensor:
#      x y z
#    x 3.613810 0.000000 0.000000 
#    y 0.000000 3.373020 0.000000 
#    z 0.000000 0.000000 4.370400 
# 
# 
# High freq. dielectric constant tensor:
#      x y z
#    x 1.805560 0.000000 0.000000 
#    y 0.000000 1.809450 0.000000 
#    z 0.000000 0.000000 1.772520 
# 
# From -- ./inp_files/29765.got.cif
#   From: 2010.03.12/outbox.cif.g09.slc.cpg/sg57_15_cif.got.tgz:29765.got - 2010.04.16 15:48:40.
