data_PCOD8234985
_publ_section_title
;
Structure prediction by ZEFSAII (Michael W. Deem and Ramdas Pophale) SiO2 
 PCOD8234985
Probable space group: P B C M
;
_chemical_formula_sum "Si O2"
_cell_formula_units_Z 64
_cell_length_a 25.695818
_cell_length_b 14.716782
_cell_length_c 8.803896
_cell_angle_alpha 90.000000
_cell_angle_beta 90.000000
_cell_angle_gamma 90.000000
_cell_volume 3329.279126
_symmetry_space_group_name_H-M "P B C M"
_symmetry_group_IT_number 57
_symmetry_cell_setting 'orthorhombic'
loop_
_space_group_symop_operation_xyz
x,y,z
-x,-y,1/2+z
x,1/2-y,-z
-x,1/2+y,1/2-z
-x,-y,-z
x,y,1/2-z
-x,1/2+y,z
x,1/2-y,1/2+z
loop_
_atom_site_type_symbol
_atom_site_label
_atom_site_fract_x
_atom_site_fract_y
_atom_site_fract_z
Si Si1 0.636135 0.849485 0.072479
Si Si2 0.106984 0.160743 0.928282
Si Si3 0.829059 0.995776 0.927102
Si Si4 0.995670 0.596704 0.075718
Si Si5 0.635474 0.150714 0.072774
Si Si6 0.888389 0.157088 0.426036
Si Si7 0.280822 0.500562 0.426553
Si Si8 0.556608 0.999760 0.430634
O O1 0.631262 0.833853 0.250000
O O2 0.586691 0.908543 0.014022
O O3 0.687325 0.908812 0.034610
O O4 0.638580 0.750000 0.000000
O O5 0.102614 0.169353 0.750000
O O6 0.132862 0.250000 0.000000
O O7 0.144876 0.080043 0.969845
O O8 0.048902 0.152614 0.992706
O O9 0.836451 0.974096 0.750000
O O10 0.858783 0.086432 0.969560
O O11 0.768565 0.002882 0.964974
O O12 0.979719 0.583551 0.250000
O O13 0.049735 0.648799 0.058436
O O14 0.000000 0.500000 0.000000
O O15 0.630019 0.166745 0.250000
O O16 0.686786 0.091747 0.036011
O O17 0.586373 0.091115 0.013666
O O18 0.637828 0.250000 0.000000
O O19 0.870084 0.250000 0.500000
O O20 0.871150 0.148990 0.250000
O O21 0.264364 0.500172 0.250000
O O22 0.554102 0.999685 0.250000
O O23 0.500000 0.000000 0.500000
#
# Coordination Sequence:
#
# PCOD8234985 Si02
#       8
#     8   8   8   8   8   8   8   8
#     4   9  19  36  58  82 111 149 191 235 283 338
#     4  12  25  42  63  88 119 154 194 239 289 347
#     4  12  25  41  62  88 118 151 192 240 293 352
#     4  11  22  38  63  90 119 155 193 233 285 345
#     4   9  19  36  58  82 111 149 192 236 284 338
#     4  11  24  41  62  88 118 154 192 235 286 343
#     4   9  20  40  60  79 111 150 187 235 291 343
#     4   9  19  35  53  80 117 155 191 230 281 332
#
# _framework density 19.223381
#
# number of rings (size 3 to 8) (size 9 to 14) (size 15 to 20)
#    0.000    1.750    1.250    4.875    0.000    6.000 
#    0.000    7.500    0.000    0.000    0.000    0.000 
#    0.000    0.000    0.000    0.000    0.000    0.000 
#
# Total GULP energy -793558.712292 kJ/mol
# GULP energy per Si atom -12399.354880 kJ/mol
# Density = 1.917963 g / cm^3
# Si number density = 19.223381 Si / 1000 Ang^3
#
#
#
# Elastic Constant Matrix: (Units=GPa)
#
#
# Indices 1 2 3 4 5 6 
#
# 1 103.8782 42.4715 42.2826 0.0000 0.0000 0.0000
# 2 42.4715 158.7171 44.9619 0.0000 0.0000 0.0000
# 3 42.2826 44.9619 102.3759 0.0000 0.0000 0.0000
# 4 0.0000 0.0000 0.0000 38.2996 0.0000 0.0000
# 5 0.0000 0.0000 0.0000 0.0000 38.3915 0.0000
# 6 0.0000 0.0000 0.0000 0.0000 0.0000 24.5439
#
#
#
# Elastic Compliance Matrix: (Units=1/GPa)
#
#
# Indices 1 2 3 4 5 6 
#
# 1 0.012150 -0.002090 -0.004100 0.000000 0.000000 0.000000
# 2 -0.002090 0.007555 -0.002455 0.000000 0.000000 0.000000
# 3 -0.004100 -0.002455 0.012540 0.000000 0.000000 0.000000
# 4 0.000000 0.000000 0.000000 0.026110 0.000000 0.000000
# 5 0.000000 0.000000 0.000000 0.000000 0.026047 0.000000
# 6 0.000000 0.000000 0.000000 0.000000 0.000000 0.040743
#
#
# Mechanical properties :
#
#
# Convention : Reuss Voigt Hill
#
# Bulk Modulus (GPa) = 66.86877 69.37812 68.12345
# Shear Modulus (GPa) = 33.91654 35.93068 34.92361
#
# Velocity S-wave (km/s) = 4.20496 4.32801 4.26693
# Velocity P-wave (km/s) = 7.64436 7.81949 7.73242
#
# Compressibility (1/GPa) = 0.01495466
#
# Stress axis : x y z
#
# Youngs Moduli (GPa) = 82.30413 132.35954 79.74712
#
# Poissons Ratio (x) = 0.27659 0.32699
# Poissons Ratio (y) = 0.17199 0.19578
# Poissons Ratio (z) = 0.33748 0.32495
#
# Static dielectric constant tensor:
#      x y z
#    x 4.052360 0.000000 0.000000 
#    y 0.000000 3.756230 0.000000 
#    z 0.000000 0.000000 2.993540 
# 
# 
# High freq. dielectric constant tensor:
#      x y z
#    x 1.746170 0.000000 0.000000 
#    y 0.000000 1.761800 0.000000 
#    z 0.000000 0.000000 1.749470 
# 
# From -- ./inp_files/9320.got.cif
#   From: 2010.03.12/outbox.cif.g09.slc.cpg/sg57_5_cif.got.tgz:9320.got - 2010.04.16 15:48:40.
