data_PCOD8234778
_publ_section_title
;
Structure prediction by ZEFSAII (Michael W. Deem and Ramdas Pophale) SiO2 
 PCOD8234778
Probable space group: P B C M
;
_chemical_formula_sum "Si O2"
_cell_formula_units_Z 36
_cell_length_a 8.647691
_cell_length_b 15.904946
_cell_length_c 13.175590
_cell_angle_alpha 90.000000
_cell_angle_beta 90.000000
_cell_angle_gamma 90.000000
_cell_volume 1812.184593
_symmetry_space_group_name_H-M "P B C M"
_symmetry_group_IT_number 57
_symmetry_cell_setting 'orthorhombic'
loop_
_space_group_symop_operation_xyz
x,y,z
-x,-y,1/2+z
x,1/2-y,-z
-x,1/2+y,1/2-z
-x,-y,-z
x,y,1/2-z
-x,1/2+y,z
x,1/2-y,1/2+z
loop_
_atom_site_type_symbol
_atom_site_label
_atom_site_fract_x
_atom_site_fract_y
_atom_site_fract_z
Si Si1 0.827249 0.971355 0.473241
Si Si2 0.689342 0.645196 0.366226
Si Si3 0.859183 0.250000 0.500000
Si Si4 0.117973 0.190665 0.866727
Si Si5 0.669788 0.373347 0.868957
O O1 0.759828 0.934528 0.577051
O O2 0.806729 0.900054 0.386379
O O3 0.720014 0.045848 0.432883
O O4 0.000000 0.000000 0.500000
O O5 0.726650 0.627829 0.250000
O O6 0.768304 0.733143 0.400434
O O7 0.507881 0.648908 0.386989
O O8 0.760677 0.294927 0.586070
O O9 0.966057 0.186387 0.563161
O O10 0.071630 0.200523 0.750000
O O11 0.709837 0.384687 0.750000
#
# Coordination Sequence:
#
# PCOD8234778 Si02
#       5
#     8   8   4   8   8
#     4  12  22  41  65  96 128 167 209 258 318 373
#     4  10  23  43  66  93 129 169 210 259 316 378
#     4  12  22  40  66  90 124 168 208 258 312 376
#     4  11  22  40  65  93 125 167 214 256 310 376
#     4  11  25  43  63  94 131 165 209 266 319 376
#
# _framework density 19.865528000000001
#
# number of rings (size 3 to 8) (size 9 to 14) (size 15 to 20)
#    0.000    0.889    4.444    2.000    3.111    3.556 
#    0.000    0.000    0.000    0.000    0.000    0.000 
#    0.000    0.000    0.000    0.000    0.000    0.000 
#
# Total GULP energy -446359.226183 kJ/mol
# GULP energy per Si atom -12398.867394 kJ/mol
# Density = 1.982031 g / cm^3
# Si number density = 19.865528 Si / 1000 Ang^3
#
#
#
# Elastic Constant Matrix: (Units=GPa)
#
#
# Indices 1 2 3 4 5 6 
#
# 1 111.0824 41.3912 59.6579 0.0000 0.0000 0.0000
# 2 41.3912 104.0628 37.6910 0.0000 0.0000 0.0000
# 3 59.6579 37.6910 106.0520 0.0000 0.0000 0.0000
# 4 0.0000 0.0000 0.0000 33.5832 0.0000 0.0000
# 5 0.0000 0.0000 0.0000 0.0000 38.3916 0.0000
# 6 0.0000 0.0000 0.0000 0.0000 0.0000 28.9551
#
#
#
# Elastic Compliance Matrix: (Units=1/GPa)
#
#
# Indices 1 2 3 4 5 6 
#
# 1 0.013693 -0.003049 -0.006619 0.000000 0.000000 0.000000
# 2 -0.003049 0.011708 -0.002446 0.000000 0.000000 0.000000
# 3 -0.006619 -0.002446 0.014022 0.000000 0.000000 0.000000
# 4 0.000000 0.000000 0.000000 0.029777 0.000000 0.000000
# 5 0.000000 0.000000 0.000000 0.000000 0.026047 0.000000
# 6 0.000000 0.000000 0.000000 0.000000 0.000000 0.034536
#
#
# Mechanical properties :
#
#
# Convention : Reuss Voigt Hill
#
# Bulk Modulus (GPa) = 65.81031 66.51971 66.16501
# Shear Modulus (GPa) = 31.43105 32.34978 31.89042
#
# Velocity S-wave (km/s) = 3.98199 4.03977 4.01098
# Velocity P-wave (km/s) = 7.37167 7.43756 7.40469
#
# Compressibility (1/GPa) = 0.01519519
#
# Stress axis : x y z
#
# Youngs Moduli (GPa) = 73.02735 85.40979 71.31514
#
# Poissons Ratio (x) = 0.26042 0.47206
# Poissons Ratio (y) = 0.22267 0.17443
# Poissons Ratio (z) = 0.48340 0.20890
#
# Static dielectric constant tensor:
#      x y z
#    x 3.677110 0.000000 0.000000 
#    y 0.000000 3.650330 0.000000 
#    z 0.000000 0.000000 3.865830 
# 
# 
# High freq. dielectric constant tensor:
#      x y z
#    x 1.777110 0.000000 0.000000 
#    y 0.000000 1.780540 0.000000 
#    z 0.000000 0.000000 1.793010 
# 
# From -- ./inp_files/15809.got.cif
#   From: 2010.03.12/outbox.cif.g09.slc.cpg/sg57_8_cif.got.tgz:15809.got - 2010.04.16 15:48:40.
