data_PCOD8234014
_publ_section_title
;
Structure prediction by ZEFSAII (Michael W. Deem and Ramdas Pophale) SiO2 
 PCOD8234014
Probable space group: P B C M
;
_chemical_formula_sum "Si O2"
_cell_formula_units_Z 60
_cell_length_a 8.235908
_cell_length_b 15.827125
_cell_length_c 22.638872
_cell_angle_alpha 90.000000
_cell_angle_beta 90.000000
_cell_angle_gamma 90.000000
_cell_volume 2950.993840
_symmetry_space_group_name_H-M "P B C M"
_symmetry_group_IT_number 57
_symmetry_cell_setting 'orthorhombic'
loop_
_space_group_symop_operation_xyz
x,y,z
-x,-y,1/2+z
x,1/2-y,-z
-x,1/2+y,1/2-z
-x,-y,-z
x,y,1/2-z
-x,1/2+y,z
x,1/2-y,1/2+z
loop_
_atom_site_type_symbol
_atom_site_label
_atom_site_fract_x
_atom_site_fract_y
_atom_site_fract_z
Si Si1 0.386995 0.404984 0.179990
Si Si2 0.810093 0.778642 0.393522
Si Si3 0.411174 0.250000 0.500000
Si Si4 0.717546 0.344062 0.993349
Si Si5 0.201580 0.551517 0.115973
Si Si6 0.246991 0.636873 0.816690
Si Si7 0.955965 0.079581 0.918926
Si Si8 0.065380 0.695020 0.183454
O O1 0.363734 0.420274 0.250000
O O2 0.281945 0.324881 0.160133
O O3 0.332560 0.485837 0.141504
O O4 0.571367 0.383588 0.163019
O O5 0.692990 0.734709 0.441060
O O6 0.919084 0.844384 0.430251
O O7 0.919455 0.707523 0.362877
O O8 0.526710 0.332649 0.489380
O O9 0.808509 0.412220 0.034651
O O10 0.799822 0.250000 0.000000
O O11 0.719186 0.378834 0.926861
O O12 0.135119 0.601978 0.172447
O O13 0.055888 0.507607 0.078336
O O14 0.219262 0.608151 0.750000
O O15 0.118098 0.582791 0.853355
O O16 0.208654 0.736057 0.826200
O O17 0.998123 0.700258 0.250000
#
# Coordination Sequence:
#
# PCOD8234014 Si02
#       8
#     8   8   4   8   8   8   8   8
#     4  10  21  40  64  90 126 163 203 256 321 376
#     4  10  21  37  63  93 118 161 208 255 305 368
#     4  10  24  38  66  90 118 158 212 258 302 360
#     4  10  22  41  62  85 122 167 203 254 308 362
#     4  11  23  38  61  92 124 162 204 256 313 370
#     4   9  19  38  64  89 118 164 209 256 310 372
#     4  10  21  38  61  88 122 160 205 251 314 372
#     4  10  21  38  63  92 124 163 212 260 308 363
#
# _framework density 20.332132999999999
#
# number of rings (size 3 to 8) (size 9 to 14) (size 15 to 20)
#    0.400    1.600    0.000    3.600    4.667    3.733 
#    2.400    3.333    0.000    0.000    0.000    0.000 
#    0.000    0.000    0.000    0.000    0.000    0.000 
#
# Total GULP energy -743773.561957 kJ/mol
# GULP energy per Si atom -12396.226033 kJ/mol
# Density = 2.028586 g / cm^3
# Si number density = 20.332133 Si / 1000 Ang^3
#
#
#
# Elastic Constant Matrix: (Units=GPa)
#
#
# Indices 1 2 3 4 5 6 
#
# 1 117.3487 40.1601 50.5719 0.0000 0.0000 0.0000
# 2 40.1601 72.2069 39.4037 0.0000 0.0000 0.0000
# 3 50.5719 39.4037 103.2151 0.0000 0.0000 0.0000
# 4 0.0000 0.0000 0.0000 31.5995 0.0000 0.0000
# 5 0.0000 0.0000 0.0000 0.0000 42.0958 0.0000
# 6 0.0000 0.0000 0.0000 0.0000 0.0000 20.9458
#
#
#
# Elastic Compliance Matrix: (Units=1/GPa)
#
#
# Indices 1 2 3 4 5 6 
#
# 1 0.011770 -0.004294 -0.004128 0.000000 0.000000 0.000000
# 2 -0.004294 0.019060 -0.005173 0.000000 0.000000 0.000000
# 3 -0.004128 -0.005173 0.013686 0.000000 0.000000 0.000000
# 4 0.000000 0.000000 0.000000 0.031646 0.000000 0.000000
# 5 0.000000 0.000000 0.000000 0.000000 0.023755 0.000000
# 6 0.000000 0.000000 0.000000 0.000000 0.000000 0.047742
#
#
# Mechanical properties :
#
#
# Convention : Reuss Voigt Hill
#
# Bulk Modulus (GPa) = 57.71180 61.44911 59.58045
# Shear Modulus (GPa) = 27.68202 29.77056 28.72629
#
# Velocity S-wave (km/s) = 3.69384 3.83065 3.76287
# Velocity P-wave (km/s) = 6.82926 7.06070 6.94594
#
# Compressibility (1/GPa) = 0.01732748
#
# Stress axis : x y z
#
# Youngs Moduli (GPa) = 84.96269 52.46625 73.06932
#
# Poissons Ratio (x) = 0.22527 0.30161
# Poissons Ratio (y) = 0.36480 0.37796
# Poissons Ratio (z) = 0.35070 0.27139
#
# Static dielectric constant tensor:
#      x y z
#    x 3.802320 0.000000 0.000000 
#    y 0.000000 3.433360 0.000000 
#    z 0.000000 0.000000 3.625320 
# 
# 
# High freq. dielectric constant tensor:
#      x y z
#    x 1.794400 0.000000 0.000000 
#    y 0.000000 1.772580 0.000000 
#    z 0.000000 0.000000 1.804080 
# 
# From -- ./inp_files/26842.got.cif
#   From: 2010.03.12/outbox.cif.g09.slc.cpg/sg57_14_cif.got.tgz:26842.got - 2010.04.16 15:48:40.
