data_PCOD8234286
_publ_section_title
;
Structure prediction by ZEFSAII (Michael W. Deem and Ramdas Pophale) SiO2 
 PCOD8234286
Probable space group: P B C M
;
_chemical_formula_sum "Si O2"
_cell_formula_units_Z 48
_cell_length_a 18.654540
_cell_length_b 14.817623
_cell_length_c 8.645550
_cell_angle_alpha 90.000000
_cell_angle_beta 90.000000
_cell_angle_gamma 90.000000
_cell_volume 2389.767838
_symmetry_space_group_name_H-M "P B C M"
_symmetry_group_IT_number 57
_symmetry_cell_setting 'orthorhombic'
loop_
_space_group_symop_operation_xyz
x,y,z
-x,-y,1/2+z
x,1/2-y,-z
-x,1/2+y,1/2-z
-x,-y,-z
x,y,1/2-z
-x,1/2+y,z
x,1/2-y,1/2+z
loop_
_atom_site_type_symbol
_atom_site_label
_atom_site_fract_x
_atom_site_fract_y
_atom_site_fract_z
Si Si1 0.514037 0.851434 0.068022
Si Si2 0.392107 0.505028 0.568809
Si Si3 0.864148 0.161226 0.068929
Si Si4 0.759593 0.999478 0.069276
Si Si5 0.843445 0.658575 0.068927
Si Si6 0.992191 0.901849 0.067781
O O1 0.528328 0.843710 0.250000
O O2 0.442679 0.909276 0.032077
O O3 0.508321 0.750000 0.000000
O O4 0.578181 0.908739 0.991322
O O5 0.377850 0.495416 0.750000
O O6 0.319747 0.528284 0.478536
O O7 0.876429 0.169025 0.250000
O O8 0.813942 0.078531 0.025109
O O9 0.825742 0.250000 0.000000
O O10 0.940814 0.156617 0.986067
O O11 0.763008 0.976254 0.250000
O O12 0.783732 0.915049 0.968476
O O13 0.856162 0.665156 0.250000
O O14 0.811023 0.750000 0.000000
O O15 0.919037 0.641783 0.988197
O O16 0.990045 0.908707 0.250000
O O17 0.000000 0.000000 0.000000
#
# Coordination Sequence:
#
# PCOD8234286 Si02
#       6
#     8   8   8   8   8   8
#     4  10  21  39  65  95 126 161 202 247 296 353
#     4  10  22  40  63  92 126 162 202 248 299 357
#     4  11  24  41  62  88 121 160 206 256 309 365
#     4  11  24  42  63  89 125 163 204 252 304 364
#     4  12  25  42  64  89 121 160 205 257 311 369
#     4  12  23  39  63  89 119 157 205 257 312 368
#
# _framework density 20.085633999999999
#
# number of rings (size 3 to 8) (size 9 to 14) (size 15 to 20)
#    0.000    1.000    1.667    5.500    0.000    5.333 
#    0.000    6.667    0.000    0.000    0.000    0.000 
#    0.000    0.000    0.000    0.000    0.000    0.000 
#
# Total GULP energy -595377.954027 kJ/mol
# GULP energy per Si atom -12403.707376 kJ/mol
# Density = 2.003992 g / cm^3
# Si number density = 20.085634 Si / 1000 Ang^3
#
#
#
# Elastic Constant Matrix: (Units=GPa)
#
#
# Indices 1 2 3 4 5 6 
#
# 1 83.4146 15.7553 26.3560 0.0000 0.0000 0.0000
# 2 15.7553 128.8604 53.2258 0.0000 0.0000 0.0000
# 3 26.3560 53.2258 112.8464 0.0000 0.0000 0.0000
# 4 0.0000 0.0000 0.0000 39.4532 0.0000 0.0000
# 5 0.0000 0.0000 0.0000 0.0000 32.6007 0.0000
# 6 0.0000 0.0000 0.0000 0.0000 0.0000 -17.0933
#
#
#
# Elastic Compliance Matrix: (Units=1/GPa)
#
#
# Indices 1 2 3 4 5 6 
#
# 1 0.012961 -0.000415 -0.002831 0.000000 0.000000 0.000000
# 2 -0.000415 0.009651 -0.004455 0.000000 0.000000 0.000000
# 3 -0.002831 -0.004455 0.011624 0.000000 0.000000 0.000000
# 4 0.000000 0.000000 0.000000 0.025346 0.000000 0.000000
# 5 0.000000 0.000000 0.000000 0.000000 0.030674 0.000000
# 6 0.000000 0.000000 0.000000 0.000000 0.000000 -0.058502
#
#
# Mechanical properties :
#
#
# Convention : Reuss Voigt Hill
#
# Bulk Modulus (GPa) = 53.09745 57.31064 55.20404
# Shear Modulus (GPa) = 93.56870 26.31106 59.93988
#
# Velocity S-wave (km/s) = 6.83272 3.62324 5.46872
# Velocity P-wave (km/s) = 9.42024 6.78962 8.21096
#
# Compressibility (1/GPa) = 0.01883330
#
# Stress axis : x y z
#
# Youngs Moduli (GPa) = 77.15254 103.61250 86.02698
#
# Poissons Ratio (x) = 0.04303 0.24357
# Poissons Ratio (y) = 0.03204 0.38327
# Poissons Ratio (z) = 0.21845 0.46162
#
# Static dielectric constant tensor:
#      x y z
#    x 3.465200 0.000000 0.000000 
#    y 0.000000 3.823740 0.000000 
#    z 0.000000 0.000000 3.788850 
# 
# 
# High freq. dielectric constant tensor:
#      x y z
#    x 1.780180 0.000000 0.000000 
#    y 0.000000 1.799550 0.000000 
#    z 0.000000 0.000000 1.803330 
# 
# From -- ./inp_files/6574.got.cif
#   From: 2010.03.12/outbox.cif.g09.slc.cpg/sg57_4_cif.got.tgz:6574.got - 2010.04.16 15:48:40.
