data_PCOD8234959
_publ_section_title
;
Structure prediction by ZEFSAII (Michael W. Deem and Ramdas Pophale) SiO2 
 PCOD8234959
Probable space group: P B C M
;
_chemical_formula_sum "Si O2"
_cell_formula_units_Z 48
_cell_length_a 8.670809
_cell_length_b 18.458699
_cell_length_c 14.518107
_cell_angle_alpha 90.000000
_cell_angle_beta 90.000000
_cell_angle_gamma 90.000000
_cell_volume 2323.649933
_symmetry_space_group_name_H-M "P B C M"
_symmetry_group_IT_number 57
_symmetry_cell_setting 'orthorhombic'
loop_
_space_group_symop_operation_xyz
x,y,z
-x,-y,1/2+z
x,1/2-y,-z
-x,1/2+y,1/2-z
-x,-y,-z
x,y,1/2-z
-x,1/2+y,z
x,1/2-y,1/2+z
loop_
_atom_site_type_symbol
_atom_site_label
_atom_site_fract_x
_atom_site_fract_y
_atom_site_fract_z
Si Si1 0.479799 0.454453 0.591111
Si Si2 0.979827 0.561570 0.250000
Si Si3 0.944414 0.606115 0.948352
Si Si4 0.941470 0.144009 0.750000
Si Si5 0.312284 0.536302 0.750000
Si Si6 0.133432 0.221736 0.250000
Si Si7 0.285143 0.308826 0.564486
Si Si8 0.180483 0.543608 0.425930
O O1 0.500000 0.500000 0.500000
O O2 0.412218 0.513734 0.661721
O O3 0.383854 0.380403 0.586981
O O4 0.654784 0.430941 0.613414
O O5 0.068086 0.546917 0.341619
O O6 0.844130 0.505806 0.250000
O O7 0.917398 0.640612 0.250000
O O8 0.966795 0.616507 0.839747
O O9 0.826397 0.538699 0.964536
O O10 0.865980 0.671988 0.003342
O O11 0.114774 0.594155 0.992243
O O12 0.975665 0.230445 0.750000
O O13 0.757593 0.120025 0.750000
O O14 0.237913 0.232481 0.341291
O O15 0.376594 0.250000 0.500000
#
# Coordination Sequence:
#
# PCOD8234959 Si02
#       8
#     8   4   8   4   4   4   8   8
#     4  12  24  42  67 100 141 178 225 278 354 416
#     4  12  21  40  69  94 127 172 230 275 332 399
#     4  11  21  39  67  98 127 169 231 287 332 385
#     4  12  24  38  64 102 130 172 232 294 325 397
#     4  12  23  42  69 102 142 179 223 292 344 404
#     4  12  24  42  66  96 135 175 229 277 341 410
#     4  12  24  44  67  99 137 186 222 282 356 420
#     4  11  22  38  68 102 130 165 228 289 326 406
#
# _framework density 20.657157999999999
#
# number of rings (size 3 to 8) (size 9 to 14) (size 15 to 20)
#    0.000    0.333    8.333    1.500    0.000    0.000 
#    0.000    5.000    0.000    0.000    0.000    0.000 
#    0.000    0.000    0.000    0.000    0.000    0.000 
#
# Total GULP energy -594707.181202 kJ/mol
# GULP energy per Si atom -12389.732942 kJ/mol
# Density = 2.061014 g / cm^3
# Si number density = 20.657158 Si / 1000 Ang^3
#
#
#
# Elastic Constant Matrix: (Units=GPa)
#
#
# Indices 1 2 3 4 5 6 
#
# 1 120.9392 39.2419 42.5254 0.0000 0.0000 0.0000
# 2 39.2419 114.1424 26.0176 0.0000 0.0000 0.0000
# 3 42.5254 26.0176 152.0638 0.0000 0.0000 0.0000
# 4 0.0000 0.0000 0.0000 42.2516 0.0000 0.0000
# 5 0.0000 0.0000 0.0000 0.0000 46.5891 0.0000
# 6 0.0000 0.0000 0.0000 0.0000 0.0000 24.9504
#
#
#
# Elastic Compliance Matrix: (Units=1/GPa)
#
#
# Indices 1 2 3 4 5 6 
#
# 1 0.010027 -0.002922 -0.002304 0.000000 0.000000 0.000000
# 2 -0.002922 0.009968 -0.000888 0.000000 0.000000 0.000000
# 3 -0.002304 -0.000888 0.007373 0.000000 0.000000 0.000000
# 4 0.000000 0.000000 0.000000 0.023668 0.000000 0.000000
# 5 0.000000 0.000000 0.000000 0.000000 0.021464 0.000000
# 6 0.000000 0.000000 0.000000 0.000000 0.000000 0.040080
#
#
# Mechanical properties :
#
#
# Convention : Reuss Voigt Hill
#
# Bulk Modulus (GPa) = 66.05661 66.96835 66.51248
# Shear Modulus (GPa) = 38.50471 41.38226 39.94349
#
# Velocity S-wave (km/s) = 4.32208 4.48067 4.40209
# Velocity P-wave (km/s) = 7.54680 7.69791 7.62273
#
# Compressibility (1/GPa) = 0.01513853
#
# Stress axis : x y z
#
# Youngs Moduli (GPa) = 99.73135 100.32039 135.63846
#
# Poissons Ratio (x) = 0.29314 0.31253
# Poissons Ratio (y) = 0.29142 0.12049
# Poissons Ratio (z) = 0.22979 0.08912
#
# Static dielectric constant tensor:
#      x y z
#    x 5.245960 0.000000 0.000000 
#    y 0.000000 4.001600 0.000000 
#    z 0.000000 0.000000 4.113930 
# 
# 
# High freq. dielectric constant tensor:
#      x y z
#    x 1.788140 0.000000 0.000000 
#    y 0.000000 1.801830 0.000000 
#    z 0.000000 0.000000 1.837110 
# 
# From -- ./inp_files/16610.got.cif
#   From: 2010.03.12/outbox.cif.g09.slc.cpg/sg57_9_cif.got.tgz:16610.got - 2010.04.16 15:48:40.
