data_PCOD8234388
_publ_section_title
;
Structure prediction by ZEFSAII (Michael W. Deem and Ramdas Pophale) SiO2 
 PCOD8234388
Probable space group: P B C M
;
_chemical_formula_sum "Si O2"
_cell_formula_units_Z 64
_cell_length_a 14.613992
_cell_length_b 23.120286
_cell_length_c 9.008606
_cell_angle_alpha 90.000000
_cell_angle_beta 90.000000
_cell_angle_gamma 90.000000
_cell_volume 3043.824864
_symmetry_space_group_name_H-M "P B C M"
_symmetry_group_IT_number 57
_symmetry_cell_setting 'orthorhombic'
loop_
_space_group_symop_operation_xyz
x,y,z
-x,-y,1/2+z
x,1/2-y,-z
-x,1/2+y,1/2-z
-x,-y,-z
x,y,1/2-z
-x,1/2+y,z
x,1/2-y,1/2+z
loop_
_atom_site_type_symbol
_atom_site_label
_atom_site_fract_x
_atom_site_fract_y
_atom_site_fract_z
Si Si1 0.456382 0.648120 0.418407
Si Si2 0.196845 0.360809 0.920157
Si Si3 0.135704 0.893291 0.080401
Si Si4 0.708819 0.196584 0.580238
Si Si5 0.225831 0.008973 0.078660
Si Si6 0.628750 0.811977 0.073610
Si Si7 0.999116 0.810254 0.577167
Si Si8 0.590307 0.481538 0.583028
O O1 0.476594 0.668156 0.250000
O O2 0.388405 0.692164 0.498354
O O3 0.551274 0.645101 0.509581
O O4 0.404852 0.587272 0.420205
O O5 0.227859 0.350110 0.750000
O O6 0.178584 0.428952 0.946794
O O7 0.105474 0.325757 0.957227
O O8 0.272937 0.337270 0.031123
O O9 0.100882 0.891586 0.250000
O O10 0.231987 0.860836 0.063434
O O11 0.154698 0.959139 0.025739
O O12 0.059724 0.863550 0.979547
O O13 0.761371 0.250000 0.500000
O O14 0.690724 0.212262 0.750000
O O15 0.250224 0.997591 0.250000
O O16 0.320448 0.008515 0.991015
O O17 0.621574 0.807293 0.250000
O O18 0.613025 0.750000 0.000000
O O19 0.025543 0.750000 0.500000
O O20 0.018061 0.802508 0.750000
O O21 0.500000 0.500000 0.500000
O O22 0.585928 0.505575 0.750000
#
# Coordination Sequence:
#
# PCOD8234388 Si02
#       8
#     8   8   8   8   8   8   8   8
#     4  11  23  39  58  85 121 161 204 253 308 366
#     4  10  23  43  66  93 126 164 207 259 316 371
#     4  10  22  40  64  93 126 165 205 252 309 368
#     4  11  22  37  58  86 120 159 202 248 301 361
#     4  10  21  41  65  91 127 166 207 255 310 371
#     4  12  25  41  63  90 123 163 210 262 316 376
#     4  11  24  42  66  95 126 163 208 259 315 376
#     4  11  23  37  58  87 122 165 211 257 305 362
#
# _framework density 21.026178000000002
#
# number of rings (size 3 to 8) (size 9 to 14) (size 15 to 20)
#    0.000    1.250    1.250    4.500    0.000   10.000 
#    0.000    0.000    0.000    0.000    0.000    0.000 
#    0.000    0.000    0.000    0.000    0.000    0.000 
#
# Total GULP energy -793876.725620 kJ/mol
# GULP energy per Si atom -12404.323838 kJ/mol
# Density = 2.097832 g / cm^3
# Si number density = 21.026178 Si / 1000 Ang^3
#
#
#
# Elastic Constant Matrix: (Units=GPa)
#
#
# Indices 1 2 3 4 5 6 
#
# 1 71.5720 7.6909 43.2439 0.0000 0.0000 0.0000
# 2 7.6909 68.3374 30.8718 0.0000 0.0000 0.0000
# 3 43.2439 30.8718 135.9065 0.0000 0.0000 0.0000
# 4 0.0000 0.0000 0.0000 29.2479 0.0000 0.0000
# 5 0.0000 0.0000 0.0000 0.0000 32.8328 0.0000
# 6 0.0000 0.0000 0.0000 0.0000 0.0000 33.9563
#
#
#
# Elastic Compliance Matrix: (Units=1/GPa)
#
#
# Indices 1 2 3 4 5 6 
#
# 1 0.017320 0.000602 -0.005648 0.000000 0.000000 0.000000
# 2 0.000602 0.016328 -0.003900 0.000000 0.000000 0.000000
# 3 -0.005648 -0.003900 0.010041 0.000000 0.000000 0.000000
# 4 0.000000 0.000000 0.000000 0.034191 0.000000 0.000000
# 5 0.000000 0.000000 0.000000 0.000000 0.030457 0.000000
# 6 0.000000 0.000000 0.000000 0.000000 0.000000 0.029450
#
#
# Mechanical properties :
#
#
# Convention : Reuss Voigt Hill
#
# Bulk Modulus (GPa) = 38.76539 48.82545 43.79542
# Shear Modulus (GPa) = 30.43651 32.14136 31.28894
#
# Velocity S-wave (km/s) = 3.80880 3.91402 3.86177
# Velocity P-wave (km/s) = 6.14974 6.61043 6.38424
#
# Compressibility (1/GPa) = 0.02579621
#
# Stress axis : x y z
#
# Youngs Moduli (GPa) = 57.73815 61.24603 99.59128
#
# Poissons Ratio (x) = -0.03688 0.56246
# Poissons Ratio (y) = -0.03477 0.38846
# Poissons Ratio (z) = 0.32609 0.23889
#
# Static dielectric constant tensor:
#      x y z
#    x 3.680930 0.000000 0.000000 
#    y 0.000000 4.010970 0.000000 
#    z 0.000000 0.000000 3.899520 
# 
# 
# High freq. dielectric constant tensor:
#      x y z
#    x 1.818020 0.000000 0.000000 
#    y 0.000000 1.837310 0.000000 
#    z 0.000000 0.000000 1.828400 
# 
# From -- ./inp_files/5694.got.cif
#   From: 2010.03.12/outbox.cif.g09.slc.cpg/sg57_3_cif.got.tgz:5694.got - 2010.04.16 15:48:40.
