data_PCOD8234053
_publ_section_title
;
Structure prediction by ZEFSAII (Michael W. Deem and Ramdas Pophale) SiO2 
 PCOD8234053
Probable space group: P B C M
;
_chemical_formula_sum "Si O2"
_cell_formula_units_Z 48
_cell_length_a 30.808962
_cell_length_b 9.068350
_cell_length_c 8.669991
_cell_angle_alpha 90.000000
_cell_angle_beta 90.000000
_cell_angle_gamma 90.000000
_cell_volume 2422.278012
_symmetry_space_group_name_H-M "P B C M"
_symmetry_group_IT_number 57
_symmetry_cell_setting 'orthorhombic'
loop_
_space_group_symop_operation_xyz
x,y,z
-x,-y,1/2+z
x,1/2-y,-z
-x,1/2+y,1/2-z
-x,-y,-z
x,y,1/2-z
-x,1/2+y,z
x,1/2-y,1/2+z
loop_
_atom_site_type_symbol
_atom_site_label
_atom_site_fract_x
_atom_site_fract_y
_atom_site_fract_z
Si Si1 0.460329 0.411346 0.932732
Si Si2 0.286110 0.911265 0.570105
Si Si3 0.875415 0.088924 0.568148
Si Si4 0.208047 0.088955 0.432640
Si Si5 0.628496 0.591301 0.930341
Si Si6 0.040133 0.412130 0.567175
O O1 0.462624 0.411193 0.750000
O O2 0.464000 0.250000 0.000000
O O3 0.500000 0.500000 0.000000
O O4 0.414276 0.477432 0.988889
O O5 0.282083 0.750000 0.500000
O O6 0.275464 0.903254 0.750000
O O7 0.252705 0.020742 0.490327
O O8 0.333725 0.974750 0.537588
O O9 0.879446 0.250000 0.500000
O O10 0.874840 0.103220 0.750000
O O11 0.831520 0.012174 0.508004
O O12 0.916054 0.992383 0.512200
O O13 0.201451 0.250000 0.500000
O O14 0.208956 0.100245 0.250000
O O15 0.619439 0.613429 0.750000
O O16 0.641225 0.750000 0.000000
O O17 0.040358 0.250000 0.500000
O O18 0.036290 0.405087 0.750000
O O19 0.000000 0.500000 0.500000
#
# Coordination Sequence:
#
# PCOD8234053 Si02
#       6
#     8   8   8   8   8   8
#     4  11  22  38  60  86 117 153 194 239 289 344
#     4  11  24  40  60  87 119 154 193 240 291 344
#     4  10  23  40  60  87 119 155 195 242 293 347
#     4  11  23  40  62  88 118 154 196 240 289 346
#     4  10  21  38  59  84 114 150 193 238 288 344
#     4  11  23  40  61  88 120 156 199 245 296 351
#
# _framework density 19.816056
#
# number of rings (size 3 to 8) (size 9 to 14) (size 15 to 20)
#    0.000    1.333    0.000    6.500    0.000   10.000 
#    0.000    1.667    0.000    0.000    0.000    0.000 
#    0.000    0.000    0.000    0.000    0.000    0.000 
#
# Total GULP energy -595418.928937 kJ/mol
# GULP energy per Si atom -12404.561020 kJ/mol
# Density = 1.977095 g / cm^3
# Si number density = 19.816056 Si / 1000 Ang^3
#
#
#
# Elastic Constant Matrix: (Units=GPa)
#
#
# Indices 1 2 3 4 5 6 
#
# 1 143.4037 68.2362 64.7191 0.0000 0.0000 0.0000
# 2 68.2362 140.4795 52.6735 0.0000 0.0000 0.0000
# 3 64.7191 52.6735 117.6007 0.0000 0.0000 0.0000
# 4 0.0000 0.0000 0.0000 40.9583 0.0000 0.0000
# 5 0.0000 0.0000 0.0000 0.0000 34.4648 0.0000
# 6 0.0000 0.0000 0.0000 0.0000 0.0000 43.2792
#
#
#
# Elastic Compliance Matrix: (Units=1/GPa)
#
#
# Indices 1 2 3 4 5 6 
#
# 1 0.010570 -0.003549 -0.004227 0.000000 0.000000 0.000000
# 2 -0.003549 0.009747 -0.002412 0.000000 0.000000 0.000000
# 3 -0.004227 -0.002412 0.011910 0.000000 0.000000 0.000000
# 4 0.000000 0.000000 0.000000 0.024415 0.000000 0.000000
# 5 0.000000 0.000000 0.000000 0.000000 0.029015 0.000000
# 6 0.000000 0.000000 0.000000 0.000000 0.000000 0.023106
#
#
# Mechanical properties :
#
#
# Convention : Reuss Voigt Hill
#
# Bulk Modulus (GPa) = 84.39248 85.86013 85.12631
# Shear Modulus (GPa) = 37.56832 38.13080 37.84956
#
# Velocity S-wave (km/s) = 4.35886 4.39137 4.37515
# Velocity P-wave (km/s) = 8.24702 8.31474 8.28095
#
# Compressibility (1/GPa) = 0.01184940
#
# Stress axis : x y z
#
# Youngs Moduli (GPa) = 94.60800 102.59546 83.96101
#
# Poissons Ratio (x) = 0.36413 0.35492
# Poissons Ratio (y) = 0.33578 0.20255
# Poissons Ratio (z) = 0.39993 0.24751
#
# Static dielectric constant tensor:
#      x y z
#    x 4.094800 0.000000 0.000000 
#    y 0.000000 3.687880 0.000000 
#    z 0.000000 0.000000 3.769450 
# 
# 
# High freq. dielectric constant tensor:
#      x y z
#    x 1.794350 0.000000 0.000000 
#    y 0.000000 1.780680 0.000000 
#    z 0.000000 0.000000 1.786880 
# 
# From -- ./inp_files/9945.got.cif
#   From: 2010.03.12/outbox.cif.g09.slc.cpg/sg57_5_cif.got.tgz:9945.got - 2010.04.16 15:48:40.
