data_PCOD8234312
_publ_section_title
;
Structure prediction by ZEFSAII (Michael W. Deem and Ramdas Pophale) SiO2 
 PCOD8234312
Probable space group: P B C M
;
_chemical_formula_sum "Si O2"
_cell_formula_units_Z 48
_cell_length_a 5.033148
_cell_length_b 22.777340
_cell_length_c 20.919143
_cell_angle_alpha 90.000000
_cell_angle_beta 90.000000
_cell_angle_gamma 90.000000
_cell_volume 2398.206603
_symmetry_space_group_name_H-M "P B C M"
_symmetry_group_IT_number 57
_symmetry_cell_setting 'orthorhombic'
loop_
_space_group_symop_operation_xyz
x,y,z
-x,-y,1/2+z
x,1/2-y,-z
-x,1/2+y,1/2-z
-x,-y,-z
x,y,1/2-z
-x,1/2+y,z
x,1/2-y,1/2+z
loop_
_atom_site_type_symbol
_atom_site_label
_atom_site_fract_x
_atom_site_fract_y
_atom_site_fract_z
Si Si1 0.992294 0.803941 0.824072
Si Si2 0.013172 0.041038 0.674065
Si Si3 0.483614 0.770733 0.324020
Si Si4 0.558975 0.065765 0.480930
Si Si5 0.484827 0.895155 0.119966
Si Si6 0.938926 0.578191 0.398114
O O1 0.043424 0.817363 0.750000
O O2 0.703286 0.778331 0.837314
O O3 0.206799 0.756423 0.848477
O O4 0.028746 0.864487 0.860569
O O5 0.038192 0.040654 0.750000
O O6 0.293221 0.059372 0.643746
O O7 0.792770 0.087583 0.652444
O O8 0.935632 0.976537 0.650024
O O9 0.470558 0.788270 0.250000
O O10 0.558868 0.829068 0.361953
O O11 0.537478 0.105689 0.543584
O O12 0.354433 0.087248 0.426863
O O13 0.858819 0.068377 0.456006
O O14 0.500000 0.000000 0.500000
#
# Coordination Sequence:
#
# PCOD8234312 Si02
#       6
#     8   8   8   8   8   8
#     4  10  22  41  64  89 122 162 201 253 310 360
#     4  12  23  37  62  93 123 150 198 263 309 359
#     4  10  21  40  62  86 121 160 200 249 310 365
#     4  12  23  42  62  88 127 170 200 244 305 368
#     4  12  24  40  62  92 123 162 206 245 306 365
#     4  12  23  41  63  91 121 160 210 245 305 364
#
# _framework density 20.014956000000002
#
# number of rings (size 3 to 8) (size 9 to 14) (size 15 to 20)
#    0.000    0.667    3.333    5.500    0.000    1.333 
#    0.000   10.000    0.000    0.000    0.000    0.000 
#    0.000    0.000    0.000    0.000    0.000    0.000 
#
# Total GULP energy -595576.305223 kJ/mol
# GULP energy per Si atom -12407.839692 kJ/mol
# Density = 1.996940 g / cm^3
# Si number density = 20.014956 Si / 1000 Ang^3
#
#
#
# Elastic Constant Matrix: (Units=GPa)
#
#
# Indices 1 2 3 4 5 6 
#
# 1 81.0313 -5.9773 12.8707 0.0000 0.0000 0.0000
# 2 -5.9773 90.2254 24.7352 0.0000 0.0000 0.0000
# 3 12.8707 24.7352 74.3487 0.0000 0.0000 0.0000
# 4 0.0000 0.0000 0.0000 33.3878 0.0000 0.0000
# 5 0.0000 0.0000 0.0000 0.0000 33.1163 0.0000
# 6 0.0000 0.0000 0.0000 0.0000 0.0000 11.7037
#
#
#
# Elastic Compliance Matrix: (Units=1/GPa)
#
#
# Indices 1 2 3 4 5 6 
#
# 1 0.012900 0.001614 -0.002770 0.000000 0.000000 0.000000
# 2 0.001614 0.012398 -0.004404 0.000000 0.000000 0.000000
# 3 -0.002770 -0.004404 0.015395 0.000000 0.000000 0.000000
# 4 0.000000 0.000000 0.000000 0.029951 0.000000 0.000000
# 5 0.000000 0.000000 0.000000 0.000000 0.030197 0.000000
# 6 0.000000 0.000000 0.000000 0.000000 0.000000 0.085443
#
#
# Mechanical properties :
#
#
# Convention : Reuss Voigt Hill
#
# Bulk Modulus (GPa) = 33.81548 34.31808 34.06678
# Shear Modulus (GPa) = 24.12419 29.90668 27.01543
#
# Velocity S-wave (km/s) = 3.47552 3.86970 3.67790
# Velocity P-wave (km/s) = 5.74782 6.09505 5.92398
#
# Compressibility (1/GPa) = 0.02957225
#
# Stress axis : x y z
#
# Youngs Moduli (GPa) = 77.51960 80.66055 64.95672
#
# Poissons Ratio (x) = -0.13019 0.17994
# Poissons Ratio (y) = -0.12512 0.28607
# Poissons Ratio (z) = 0.21474 0.35523
#
# Static dielectric constant tensor:
#      x y z
#    x 3.914540 0.000000 0.000000 
#    y 0.000000 3.485690 0.000000 
#    z 0.000000 0.000000 5.257630 
# 
# 
# High freq. dielectric constant tensor:
#      x y z
#    x 1.799900 0.000000 0.000000 
#    y 0.000000 1.782700 0.000000 
#    z 0.000000 0.000000 1.780420 
# 
# From -- ./inp_files/23674.got.cif
#   From: 2010.03.12/outbox.cif.g09.slc.cpg/sg57_12_cif.got.tgz:23674.got - 2010.04.16 15:48:40.
