data_PCOD8234953
_publ_section_title
;
Structure prediction by ZEFSAII (Michael W. Deem and Ramdas Pophale) SiO2 
 PCOD8234953
Probable space group: P B C M
;
_chemical_formula_sum "Si O2"
_cell_formula_units_Z 48
_cell_length_a 11.114813
_cell_length_b 8.880088
_cell_length_c 24.501271
_cell_angle_alpha 90.000000
_cell_angle_beta 90.000000
_cell_angle_gamma 90.000000
_cell_volume 2418.288128
_symmetry_space_group_name_H-M "P B C M"
_symmetry_group_IT_number 57
_symmetry_cell_setting 'orthorhombic'
loop_
_space_group_symop_operation_xyz
x,y,z
-x,-y,1/2+z
x,1/2-y,-z
-x,1/2+y,1/2-z
-x,-y,-z
x,y,1/2-z
-x,1/2+y,z
x,1/2-y,1/2+z
loop_
_atom_site_type_symbol
_atom_site_label
_atom_site_fract_x
_atom_site_fract_y
_atom_site_fract_z
Si Si1 0.479540 0.738010 0.859486
Si Si2 0.652351 0.822685 0.050596
Si Si3 0.305151 0.652020 0.447157
Si Si4 0.850060 0.885531 0.596719
Si Si5 0.938388 0.293427 0.062247
Si Si6 0.337078 0.035346 0.187694
O O1 0.571633 0.643570 0.896775
O O2 0.405404 0.841988 0.900647
O O3 0.391680 0.627337 0.827059
O O4 0.557460 0.841222 0.818979
O O5 0.751214 0.692662 0.058917
O O6 0.711480 0.980468 0.033507
O O7 0.576212 0.750000 0.000000
O O8 0.338525 0.750000 0.500000
O O9 0.181724 0.706695 0.420192
O O10 0.783624 0.929692 0.653199
O O11 0.956406 0.761267 0.603702
O O12 0.912109 0.029170 0.568104
O O13 0.973582 0.250000 0.000000
O O14 0.294932 0.034018 0.250000
#
# Coordination Sequence:
#
# PCOD8234953 Si02
#       6
#     8   8   8   8   8   8
#     4  11  22  39  63  88 123 161 202 256 310 365
#     4  11  22  35  58  91 132 164 201 243 301 374
#     4  11  22  35  59  94 130 169 200 238 302 376
#     4  11  23  40  62  91 123 167 205 253 303 360
#     4  11  21  37  62  90 130 165 201 240 301 373
#     4  11  24  44  65  88 118 160 212 265 314 357
#
# _framework density 19.848752999999999
#
# number of rings (size 3 to 8) (size 9 to 14) (size 15 to 20)
#    0.000    1.000    3.333    5.000    2.333    1.333 
#    0.000    0.833    0.000    0.000    0.000    0.000 
#    0.000    0.000    0.000    0.000    0.000    0.000 
#
# Total GULP energy -594946.352589 kJ/mol
# GULP energy per Si atom -12394.715679 kJ/mol
# Density = 1.980358 g / cm^3
# Si number density = 19.848753 Si / 1000 Ang^3
#
#
#
# Elastic Constant Matrix: (Units=GPa)
#
#
# Indices 1 2 3 4 5 6 
#
# 1 96.9965 36.4734 35.3729 0.0000 0.0000 0.0000
# 2 36.4734 121.6038 56.7129 0.0000 0.0000 0.0000
# 3 35.3729 56.7129 107.4027 0.0000 0.0000 0.0000
# 4 0.0000 0.0000 0.0000 21.5278 0.0000 0.0000
# 5 0.0000 0.0000 0.0000 0.0000 21.9307 0.0000
# 6 0.0000 0.0000 0.0000 0.0000 0.0000 30.7060
#
#
#
# Elastic Compliance Matrix: (Units=1/GPa)
#
#
# Indices 1 2 3 4 5 6 
#
# 1 0.012211 -0.002371 -0.002770 0.000000 0.000000 0.000000
# 2 -0.002371 0.011371 -0.005223 0.000000 0.000000 0.000000
# 3 -0.002770 -0.005223 0.012981 0.000000 0.000000 0.000000
# 4 0.000000 0.000000 0.000000 0.046452 0.000000 0.000000
# 5 0.000000 0.000000 0.000000 0.000000 0.045598 0.000000
# 6 0.000000 0.000000 0.000000 0.000000 0.000000 0.032567
#
#
# Mechanical properties :
#
#
# Convention : Reuss Voigt Hill
#
# Bulk Modulus (GPa) = 63.15133 64.79129 63.97131
# Shear Modulus (GPa) = 26.71143 27.99582 27.35362
#
# Velocity S-wave (km/s) = 3.67242 3.75968 3.71631
# Velocity P-wave (km/s) = 7.06170 7.18055 7.12137
#
# Compressibility (1/GPa) = 0.01583498
#
# Stress axis : x y z
#
# Youngs Moduli (GPa) = 81.89159 87.94681 77.03507
#
# Poissons Ratio (x) = 0.20850 0.21338
# Poissons Ratio (y) = 0.19415 0.40237
# Poissons Ratio (z) = 0.22683 0.45937
#
# Static dielectric constant tensor:
#      x y z
#    x 3.715330 0.000000 0.000000 
#    y 0.000000 3.645200 0.000000 
#    z 0.000000 0.000000 3.095060 
# 
# 
# High freq. dielectric constant tensor:
#      x y z
#    x 1.778930 0.000000 0.000000 
#    y 0.000000 1.792740 0.000000 
#    z 0.000000 0.000000 1.738440 
# 
# From -- ./inp_files/27109.got.cif
#   From: 2010.03.12/outbox.cif.g09.slc.cpg/sg57_14_cif.got.tgz:27109.got - 2010.04.16 15:48:40.
