data_PCOD8234352
_publ_section_title
;
Structure prediction by ZEFSAII (Michael W. Deem and Ramdas Pophale) SiO2 
 PCOD8234352
Probable space group: P B C M
;
_chemical_formula_sum "Si O2"
_cell_formula_units_Z 64
_cell_length_a 11.246587
_cell_length_b 15.191354
_cell_length_c 17.445734
_cell_angle_alpha 90.000000
_cell_angle_beta 90.000000
_cell_angle_gamma 90.000000
_cell_volume 2980.619083
_symmetry_space_group_name_H-M "P B C M"
_symmetry_group_IT_number 57
_symmetry_cell_setting 'orthorhombic'
loop_
_space_group_symop_operation_xyz
x,y,z
-x,-y,1/2+z
x,1/2-y,-z
-x,1/2+y,1/2-z
-x,-y,-z
x,y,1/2-z
-x,1/2+y,z
x,1/2-y,1/2+z
loop_
_atom_site_type_symbol
_atom_site_label
_atom_site_fract_x
_atom_site_fract_y
_atom_site_fract_z
Si Si1 0.785327 0.491488 0.434953
Si Si2 0.102620 0.236114 0.834418
Si Si3 0.142474 0.800291 0.835703
Si Si4 0.296096 0.137374 0.164256
Si Si5 0.786966 0.914504 0.403382
Si Si6 0.981988 0.474294 0.662018
Si Si7 0.333689 0.803424 0.073529
Si Si8 0.425891 0.318178 0.340321
O O1 0.688440 0.551767 0.389484
O O2 0.799081 0.533788 0.518101
O O3 0.737373 0.392619 0.445161
O O4 0.911273 0.489794 0.391123
O O5 0.151078 0.203530 0.750000
O O6 0.154906 0.336227 0.841830
O O7 0.156495 0.183382 0.906301
O O8 0.960817 0.226880 0.834360
O O9 0.189708 0.820017 0.750000
O O10 0.250592 0.767806 0.885599
O O11 0.076218 0.884732 0.871280
O O12 0.332438 0.109240 0.250000
O O13 0.374135 0.221532 0.137776
O O14 0.869995 0.959626 0.339390
O O15 0.651001 0.899046 0.376155
O O16 0.026406 0.464686 0.750000
O O17 0.442922 0.828243 0.126866
O O18 0.380406 0.750000 0.000000
O O19 0.431703 0.330712 0.250000
#
# Coordination Sequence:
#
# PCOD8234352 Si02
#       8
#     8   8   8   8   8   8   8   8
#     4  12  25  41  67 102 138 176 220 277 347 408
#     4   9  17  35  63  94 129 169 213 265 329 403
#     4  10  21  40  65  93 131 175 220 272 332 397
#     4   9  19  40  67  98 130 167 219 272 324 399
#     4  11  23  38  64  98 133 169 219 272 337 396
#     4  11  22  41  68 102 141 175 221 279 337 408
#     4  12  28  46  64  90 137 181 229 276 338 401
#     4  10  24  47  72  94 125 175 232 276 330 403
#
# _framework density 21.472048000000001
#
# number of rings (size 3 to 8) (size 9 to 14) (size 15 to 20)
#    0.000    1.500    1.250    4.500    1.750    6.000 
#    2.250    0.000    0.000    0.000    0.000    0.000 
#    0.000    0.000    0.000    0.000    0.000    0.000 
#
# Total GULP energy -793065.041373 kJ/mol
# GULP energy per Si atom -12391.641271 kJ/mol
# Density = 2.142318 g / cm^3
# Si number density = 21.472048 Si / 1000 Ang^3
#
#
#
# Elastic Constant Matrix: (Units=GPa)
#
#
# Indices 1 2 3 4 5 6 
#
# 1 113.0777 32.0874 41.9042 0.0000 0.0000 0.0000
# 2 32.0874 96.2400 43.5390 0.0000 0.0000 0.0000
# 3 41.9042 43.5390 90.2218 0.0000 0.0000 0.0000
# 4 0.0000 0.0000 0.0000 23.6785 0.0000 0.0000
# 5 0.0000 0.0000 0.0000 0.0000 29.3788 0.0000
# 6 0.0000 0.0000 0.0000 0.0000 0.0000 27.0228
#
#
#
# Elastic Compliance Matrix: (Units=1/GPa)
#
#
# Indices 1 2 3 4 5 6 
#
# 1 0.010900 -0.001719 -0.004233 0.000000 0.000000 0.000000
# 2 -0.001719 0.013564 -0.005747 0.000000 0.000000 0.000000
# 3 -0.004233 -0.005747 0.015823 0.000000 0.000000 0.000000
# 4 0.000000 0.000000 0.000000 0.042232 0.000000 0.000000
# 5 0.000000 0.000000 0.000000 0.000000 0.034038 0.000000
# 6 0.000000 0.000000 0.000000 0.000000 0.000000 0.037006
#
#
# Mechanical properties :
#
#
# Convention : Reuss Voigt Hill
#
# Bulk Modulus (GPa) = 59.21155 59.40008 59.30582
# Shear Modulus (GPa) = 27.38354 28.14995 27.76675
#
# Velocity S-wave (km/s) = 3.57502 3.62471 3.59995
# Velocity P-wave (km/s) = 6.68409 6.72622 6.70518
#
# Compressibility (1/GPa) = 0.01688860
#
# Stress axis : x y z
#
# Youngs Moduli (GPa) = 91.74356 73.72521 63.19813
#
# Poissons Ratio (x) = 0.12675 0.26751
# Poissons Ratio (y) = 0.15772 0.36321
# Poissons Ratio (z) = 0.38834 0.42371
#
# Static dielectric constant tensor:
#      x y z
#    x 3.799990 0.000000 0.000000 
#    y 0.000000 3.976030 0.000000 
#    z 0.000000 0.000000 3.727150 
# 
# 
# High freq. dielectric constant tensor:
#      x y z
#    x 1.833640 0.000000 0.000000 
#    y 0.000000 1.846390 0.000000 
#    z 0.000000 0.000000 1.836010 
# 
# From -- ./inp_files/22047.got.cif
#   From: 2010.03.12/outbox.cif.g09.slc.cpg/sg57_12_cif.got.tgz:22047.got - 2010.04.16 15:48:40.
