data_PCOD8234264
_publ_section_title
;
Structure prediction by ZEFSAII (Michael W. Deem and Ramdas Pophale) SiO2 
 PCOD8234264
Probable space group: P B C M
;
_chemical_formula_sum "Si O2"
_cell_formula_units_Z 48
_cell_length_a 18.692815
_cell_length_b 14.870426
_cell_length_c 8.817151
_cell_angle_alpha 90.000000
_cell_angle_beta 90.000000
_cell_angle_gamma 90.000000
_cell_volume 2450.904541
_symmetry_space_group_name_H-M "P B C M"
_symmetry_group_IT_number 57
_symmetry_cell_setting 'orthorhombic'
loop_
_space_group_symop_operation_xyz
x,y,z
-x,-y,1/2+z
x,1/2-y,-z
-x,1/2+y,1/2-z
-x,-y,-z
x,y,1/2-z
-x,1/2+y,z
x,1/2-y,1/2+z
loop_
_atom_site_type_symbol
_atom_site_label
_atom_site_fract_x
_atom_site_fract_y
_atom_site_fract_z
Si Si1 0.636391 0.662726 0.072333
Si Si2 0.985189 0.149567 0.570832
Si Si3 0.251533 0.490444 0.926584
Si Si4 0.897469 0.996055 0.072437
Si Si5 0.505065 0.402881 0.430188
Si Si6 0.658823 0.340431 0.428107
O O1 0.623546 0.673108 0.250000
O O2 0.687096 0.580222 0.033837
O O3 0.674339 0.750000 0.000000
O O4 0.560115 0.655807 0.990411
O O5 0.987821 0.250000 0.500000
O O6 0.977676 0.161791 0.750000
O O7 0.918945 0.089251 0.511176
O O8 0.055075 0.090862 0.525565
O O9 0.230499 0.486847 0.750000
O O10 0.284050 0.585134 0.976779
O O11 0.182478 0.469740 0.026533
O O12 0.903901 0.014290 0.250000
O O13 0.500000 0.500000 0.500000
O O14 0.503449 0.409921 0.250000
O O15 0.579315 0.360712 0.489650
O O16 0.688786 0.250000 0.500000
O O17 0.655680 0.331357 0.250000
#
# Coordination Sequence:
#
# PCOD8234264 Si02
#       6
#     8   8   8   8   8   8
#     4  11  23  40  59  84 116 154 200 248 300 356
#     4  10  21  39  64  92 122 155 193 236 285 341
#     4  10  22  41  59  80 120 160 193 239 294 349
#     4  10  22  39  61  91 122 154 196 239 287 344
#     4  11  21  37  60  84 113 150 196 249 303 355
#     4  10  22  39  57  82 112 149 194 240 294 350
#
# _framework density 19.584606999999998
#
# number of rings (size 3 to 8) (size 9 to 14) (size 15 to 20)
#    0.000    1.667    1.667    2.500    0.000    8.000 
#    0.000    5.000    0.000    0.000    0.000    0.000 
#    0.000    0.000    0.000    0.000    0.000    0.000 
#
# Total GULP energy -595247.346071 kJ/mol
# GULP energy per Si atom -12400.986376 kJ/mol
# Density = 1.954003 g / cm^3
# Si number density = 19.584607 Si / 1000 Ang^3
#
#
#
# Elastic Constant Matrix: (Units=GPa)
#
#
# Indices 1 2 3 4 5 6 
#
# 1 75.0021 5.9022 26.1862 0.0000 0.0000 0.0000
# 2 5.9022 118.5187 35.1805 0.0000 0.0000 0.0000
# 3 26.1862 35.1805 66.5337 0.0000 0.0000 0.0000
# 4 0.0000 0.0000 0.0000 39.3527 0.0000 0.0000
# 5 0.0000 0.0000 0.0000 0.0000 32.4503 0.0000
# 6 0.0000 0.0000 0.0000 0.0000 0.0000 2.1753
#
#
#
# Elastic Compliance Matrix: (Units=1/GPa)
#
#
# Indices 1 2 3 4 5 6 
#
# 1 0.015609 0.001241 -0.006800 0.000000 0.000000 0.000000
# 2 0.001241 0.010107 -0.005833 0.000000 0.000000 0.000000
# 3 -0.006800 -0.005833 0.020790 0.000000 0.000000 0.000000
# 4 0.000000 0.000000 0.000000 0.025411 0.000000 0.000000
# 5 0.000000 0.000000 0.000000 0.000000 0.030816 0.000000
# 6 0.000000 0.000000 0.000000 0.000000 0.000000 0.459709
#
#
# Mechanical properties :
#
#
# Convention : Reuss Voigt Hill
#
# Bulk Modulus (GPa) = 42.15140 43.84358 42.99749
# Shear Modulus (GPa) = 8.42980 27.64803 18.03891
#
# Velocity S-wave (km/s) = 2.07693 3.76137 3.03822
# Velocity P-wave (km/s) = 5.22695 6.42644 5.85748
#
# Compressibility (1/GPa) = 0.02372401
#
# Stress axis : x y z
#
# Youngs Moduli (GPa) = 64.06418 98.94114 48.09940
#
# Poissons Ratio (x) = -0.12279 0.32706
# Poissons Ratio (y) = -0.07951 0.28055
# Poissons Ratio (z) = 0.43562 0.57709
#
# Static dielectric constant tensor:
#      x y z
#    x 3.610860 0.000000 0.000000 
#    y 0.000000 3.648130 0.000000 
#    z 0.000000 0.000000 3.714340 
# 
# 
# High freq. dielectric constant tensor:
#      x y z
#    x 1.759810 0.000000 0.000000 
#    y 0.000000 1.776950 0.000000 
#    z 0.000000 0.000000 1.766270 
# 
# From -- ./inp_files/6493.got.cif
#   From: 2010.03.12/outbox.cif.g09.slc.cpg/sg57_4_cif.got.tgz:6493.got - 2010.04.16 15:48:40.
