data_PCOD8234040
_publ_section_title
;
Structure prediction by ZEFSAII (Michael W. Deem and Ramdas Pophale) SiO2 
 PCOD8234040
Probable space group: P B C M
;
_chemical_formula_sum "Si O2"
_cell_formula_units_Z 48
_cell_length_a 15.007416
_cell_length_b 20.430664
_cell_length_c 8.722014
_cell_angle_alpha 90.000000
_cell_angle_beta 90.000000
_cell_angle_gamma 90.000000
_cell_volume 2674.269567
_symmetry_space_group_name_H-M "P B C M"
_symmetry_group_IT_number 57
_symmetry_cell_setting 'orthorhombic'
loop_
_space_group_symop_operation_xyz
x,y,z
-x,-y,1/2+z
x,1/2-y,-z
-x,1/2+y,1/2-z
-x,-y,-z
x,y,1/2-z
-x,1/2+y,z
x,1/2-y,1/2+z
loop_
_atom_site_type_symbol
_atom_site_label
_atom_site_fract_x
_atom_site_fract_y
_atom_site_fract_z
Si Si1 0.267437 0.511853 0.429340
Si Si2 0.884892 0.315327 0.074870
Si Si3 0.568680 0.948114 0.568830
Si Si4 0.692200 0.142311 0.577371
Si Si5 0.081324 0.960129 0.432417
Si Si6 0.497712 0.316443 0.073377
O O1 0.257060 0.499028 0.250000
O O2 0.332493 0.457951 0.501863
O O3 0.311361 0.582728 0.458096
O O4 0.171433 0.506167 0.508713
O O5 0.911520 0.310832 0.250000
O O6 0.778586 0.313312 0.046739
O O7 0.923242 0.384259 0.009176
O O8 0.927051 0.250000 0.000000
O O9 0.569178 0.957111 0.750000
O O10 0.540620 0.875520 0.524535
O O11 0.500000 0.000000 0.500000
O O12 0.698175 0.112483 0.750000
O O13 0.604723 0.185851 0.558466
O O14 0.080090 0.962749 0.250000
O O15 0.000000 0.000000 0.500000
O O16 0.467712 0.322611 0.250000
O O17 0.459584 0.250000 0.000000
#
# Coordination Sequence:
#
# PCOD8234040 Si02
#       6
#     8   8   8   8   8   8
#     4  11  21  34  56  83 109 144 185 227 279 333
#     4   9  18  31  49  76 109 143 176 216 266 324
#     4  12  23  37  56  80 110 147 191 235 278 329
#     4   9  18  32  49  73 109 146 181 223 268 322
#     4  10  21  38  58  83 113 144 182 230 279 332
#     4  11  22  35  52  76 110 150 191 235 282 332
#
# _framework density 17.948826
#
# number of rings (size 3 to 8) (size 9 to 14) (size 15 to 20)
#    0.000    1.667    1.667    5.500    0.000    4.000 
#    0.000    0.000    0.000    1.000    0.000    4.667 
#    0.000    0.000    0.000    0.000    0.000    0.000 
#
# Total GULP energy -595159.731796 kJ/mol
# GULP energy per Si atom -12399.161079 kJ/mol
# Density = 1.790797 g / cm^3
# Si number density = 17.948826 Si / 1000 Ang^3
#
#
#
# Elastic Constant Matrix: (Units=GPa)
#
#
# Indices 1 2 3 4 5 6 
#
# 1 86.9826 57.7895 41.0790 0.0000 0.0000 0.0000
# 2 57.7895 121.4679 46.3887 0.0000 0.0000 0.0000
# 3 41.0790 46.3887 108.7255 0.0000 0.0000 0.0000
# 4 0.0000 0.0000 0.0000 32.5675 0.0000 0.0000
# 5 0.0000 0.0000 0.0000 0.0000 28.1331 0.0000
# 6 0.0000 0.0000 0.0000 0.0000 0.0000 20.6186
#
#
#
# Elastic Compliance Matrix: (Units=1/GPa)
#
#
# Indices 1 2 3 4 5 6 
#
# 1 0.018012 -0.007133 -0.003762 0.000000 0.000000 0.000000
# 2 -0.007133 0.012660 -0.002706 0.000000 0.000000 0.000000
# 3 -0.003762 -0.002706 0.011774 0.000000 0.000000 0.000000
# 4 0.000000 0.000000 0.000000 0.030705 0.000000 0.000000
# 5 0.000000 0.000000 0.000000 0.000000 0.035545 0.000000
# 6 0.000000 0.000000 0.000000 0.000000 0.000000 0.048500
#
#
# Mechanical properties :
#
#
# Convention : Reuss Voigt Hill
#
# Bulk Modulus (GPa) = 65.60474 67.52116 66.56295
# Shear Modulus (GPa) = 26.38806 27.72510 27.05658
#
# Velocity S-wave (km/s) = 3.83846 3.93450 3.88677
# Velocity P-wave (km/s) = 7.50169 7.63811 7.57021
#
# Compressibility (1/GPa) = 0.01524280
#
# Stress axis : x y z
#
# Youngs Moduli (GPa) = 55.51828 78.99109 84.93547
#
# Poissons Ratio (x) = 0.56342 0.31954
# Poissons Ratio (y) = 0.39599 0.22988
# Poissons Ratio (z) = 0.20887 0.21379
#
# Static dielectric constant tensor:
#      x y z
#    x 3.221860 0.000000 0.000000 
#    y 0.000000 3.291480 0.000000 
#    z 0.000000 0.000000 3.403250 
# 
# 
# High freq. dielectric constant tensor:
#      x y z
#    x 1.668090 0.000000 0.000000 
#    y 0.000000 1.689110 0.000000 
#    z 0.000000 0.000000 1.705920 
# 
# From -- ./inp_files/4867.got.cif
#   From: 2010.03.12/outbox.cif.g09.slc.cpg/sg57_3_cif.got.tgz:4867.got - 2010.04.16 15:48:40.
