data_PCOD8234872
_publ_section_title
;
Structure prediction by ZEFSAII (Michael W. Deem and Ramdas Pophale) SiO2 
 PCOD8234872
Probable space group: P B C M
;
_chemical_formula_sum "Si O2"
_cell_formula_units_Z 40
_cell_length_a 5.410825
_cell_length_b 18.656150
_cell_length_c 17.571701
_cell_angle_alpha 90.000000
_cell_angle_beta 90.000000
_cell_angle_gamma 90.000000
_cell_volume 1773.778219
_symmetry_space_group_name_H-M "P B C M"
_symmetry_group_IT_number 57
_symmetry_cell_setting 'orthorhombic'
loop_
_space_group_symop_operation_xyz
x,y,z
-x,-y,1/2+z
x,1/2-y,-z
-x,1/2+y,1/2-z
-x,-y,-z
x,y,1/2-z
-x,1/2+y,z
x,1/2-y,1/2+z
loop_
_atom_site_type_symbol
_atom_site_label
_atom_site_fract_x
_atom_site_fract_y
_atom_site_fract_z
Si Si1 0.707558 0.193691 0.661214
Si Si2 0.790174 0.879128 0.105400
Si Si3 0.665453 0.556028 0.454915
Si Si4 0.636718 0.357866 0.665325
Si Si5 0.983795 0.013552 0.332622
O O1 0.692509 0.175171 0.750000
O O2 0.461678 0.163866 0.620764
O O3 0.719613 0.278048 0.645591
O O4 0.961549 0.162807 0.627844
O O5 0.773122 0.953401 0.153428
O O6 0.814996 0.896466 0.015645
O O7 0.500000 0.500000 0.500000
O O8 0.540379 0.613458 0.399792
O O9 0.828720 0.504166 0.402183
O O10 0.511493 0.360907 0.750000
O O11 0.879552 0.406518 0.665612
O O12 0.108885 0.999734 0.250000
#
# Coordination Sequence:
#
# PCOD8234872 Si02
#       5
#     8   8   8   8   8
#     4  11  26  49  72 105 147 191 244 296 358 437
#     4  12  26  45  75 109 146 190 234 307 368 425
#     4  12  25  45  70 107 147 183 241 306 366 426
#     4  10  25  47  73 101 140 193 242 293 357 436
#     4  11  24  45  74 101 136 192 248 295 356 433
#
# _framework density 22.550733999999999
#
# number of rings (size 3 to 8) (size 9 to 14) (size 15 to 20)
#    0.000    0.800    2.000    4.200    5.600    0.800 
#    0.000    0.000    0.000    0.000    0.000    0.000 
#    0.000    0.000    0.000    0.000    0.000    0.000 
#
# Total GULP energy -495873.004061 kJ/mol
# GULP energy per Si atom -12396.825102 kJ/mol
# Density = 2.249941 g / cm^3
# Si number density = 22.550734 Si / 1000 Ang^3
#
#
#
# Elastic Constant Matrix: (Units=GPa)
#
#
# Indices 1 2 3 4 5 6 
#
# 1 123.5772 59.9888 55.7655 0.0000 0.0000 0.0000
# 2 59.9888 154.8577 67.6831 0.0000 0.0000 0.0000
# 3 55.7655 67.6831 180.5528 0.0000 0.0000 0.0000
# 4 0.0000 0.0000 0.0000 -7.2853 0.0000 0.0000
# 5 0.0000 0.0000 0.0000 0.0000 47.4914 0.0000
# 6 0.0000 0.0000 0.0000 0.0000 0.0000 31.4449
#
#
#
# Elastic Compliance Matrix: (Units=1/GPa)
#
#
# Indices 1 2 3 4 5 6 
#
# 1 0.010576 -0.003192 -0.002070 0.000000 0.000000 0.000000
# 2 -0.003192 0.008686 -0.002270 0.000000 0.000000 0.000000
# 3 -0.002070 -0.002270 0.007029 0.000000 0.000000 0.000000
# 4 0.000000 0.000000 0.000000 -0.137262 0.000000 0.000000
# 5 0.000000 0.000000 0.000000 0.000000 0.021056 0.000000
# 6 0.000000 0.000000 0.000000 0.000000 0.000000 0.031802
#
#
# Mechanical properties :
#
#
# Convention : Reuss Voigt Hill
#
# Bulk Modulus (GPa) = 89.07518 91.76250 90.41884
# Shear Modulus (GPa) = -127.20650 32.70022 -47.25314
#
# Velocity S-wave (km/s) = -7.51874 3.81211 -4.58254
# Velocity P-wave (km/s) = 5.98245 7.75604 3.49045
#
# Compressibility (1/GPa) = 0.01122647
#
# Stress axis : x y z
#
# Youngs Moduli (GPa) = 94.55621 115.12245 142.27032
#
# Poissons Ratio (x) = 0.36749 0.29447
# Poissons Ratio (y) = 0.30184 0.32300
# Poissons Ratio (z) = 0.19571 0.26136
#
# Static dielectric constant tensor:
#      x y z
#    x 3.889700 0.000000 0.000000 
#    y 0.000000 4.280180 0.000000 
#    z 0.000000 0.000000 4.537430 
# 
# 
# High freq. dielectric constant tensor:
#      x y z
#    x 1.875720 0.000000 0.000000 
#    y 0.000000 1.903860 0.000000 
#    z 0.000000 0.000000 1.913420 
# 
# From -- ./inp_files/19982.got.cif
#   From: 2010.03.12/outbox.cif.g09.slc.cpg/sg57_10_cif.got.tgz:19982.got - 2010.04.16 15:48:40.
