data_PCOD8234508
_publ_section_title
;
Structure prediction by ZEFSAII (Michael W. Deem and Ramdas Pophale) SiO2 
 PCOD8234508
Probable space group: P B C M
;
_chemical_formula_sum "Si O2"
_cell_formula_units_Z 48
_cell_length_a 30.963080
_cell_length_b 9.094729
_cell_length_c 8.572492
_cell_angle_alpha 90.000000
_cell_angle_beta 90.000000
_cell_angle_gamma 90.000000
_cell_volume 2414.020790
_symmetry_space_group_name_H-M "P B C M"
_symmetry_group_IT_number 57
_symmetry_cell_setting 'orthorhombic'
loop_
_space_group_symop_operation_xyz
x,y,z
-x,-y,1/2+z
x,1/2-y,-z
-x,1/2+y,1/2-z
-x,-y,-z
x,y,1/2-z
-x,1/2+y,z
x,1/2-y,1/2+z
loop_
_atom_site_type_symbol
_atom_site_label
_atom_site_fract_x
_atom_site_fract_y
_atom_site_fract_z
Si Si1 0.792837 0.587866 0.933946
Si Si2 0.370118 0.088487 0.434662
Si Si3 0.539753 0.911138 0.065029
Si Si4 0.124582 0.912360 0.934529
Si Si5 0.959643 0.587137 0.934612
Si Si6 0.291465 0.589119 0.064933
O O1 0.795996 0.598010 0.750000
O O2 0.832643 0.492349 0.000465
O O3 0.748519 0.511864 0.986769
O O4 0.795021 0.750000 0.000000
O O5 0.359350 0.250000 0.500000
O O6 0.373494 0.099497 0.250000
O O7 0.414904 0.024490 0.503092
O O8 0.333802 0.974433 0.484106
O O9 0.539642 0.912406 0.250000
O O10 0.534259 0.750000 0.000000
O O11 0.500000 0.000000 0.000000
O O12 0.126103 0.902241 0.750000
O O13 0.083459 0.005009 0.991997
O O14 0.121451 0.750000 0.000000
O O15 0.962683 0.593178 0.750000
O O16 0.959266 0.750000 0.000000
O O17 0.000000 0.500000 0.000000
O O18 0.297647 0.592867 0.250000
O O19 0.282262 0.750000 0.000000
#
# Coordination Sequence:
#
# PCOD8234508 Si02
#       6
#     8   8   8   8   8   8
#     4  10  22  39  60  86 116 150 192 236 286 344
#     4  11  22  39  61  86 116 153 194 238 287 343
#     4  11  22  39  61  88 119 154 195 240 290 345
#     4  10  22  39  59  86 117 152 192 239 290 346
#     4  11  23  39  60  86 118 154 197 243 294 350
#     4  11  23  39  59  86 117 151 191 238 289 344
#
# _framework density 19.883838000000001
#
# number of rings (size 3 to 8) (size 9 to 14) (size 15 to 20)
#    0.000    1.333    0.000    7.000    0.000    6.667 
#    0.000    3.333    0.000    0.000    0.000    0.000 
#    0.000    0.000    0.000    0.000    0.000    0.000 
#
# Total GULP energy -595408.918005 kJ/mol
# GULP energy per Si atom -12404.352458 kJ/mol
# Density = 1.983858 g / cm^3
# Si number density = 19.883838 Si / 1000 Ang^3
#
#
#
# Elastic Constant Matrix: (Units=GPa)
#
#
# Indices 1 2 3 4 5 6 
#
# 1 185.1506 94.1087 59.5000 0.0000 0.0000 0.0000
# 2 94.1087 159.0294 46.7722 0.0000 0.0000 0.0000
# 3 59.5000 46.7722 110.5698 0.0000 0.0000 0.0000
# 4 0.0000 0.0000 0.0000 40.3471 0.0000 0.0000
# 5 0.0000 0.0000 0.0000 0.0000 29.0170 0.0000
# 6 0.0000 0.0000 0.0000 0.0000 0.0000 53.2196
#
#
#
# Elastic Compliance Matrix: (Units=1/GPa)
#
#
# Indices 1 2 3 4 5 6 
#
# 1 0.008403 -0.004160 -0.002762 0.000000 0.000000 0.000000
# 2 -0.004160 0.009241 -0.001670 0.000000 0.000000 0.000000
# 3 -0.002762 -0.001670 0.011237 0.000000 0.000000 0.000000
# 4 0.000000 0.000000 0.000000 0.024785 0.000000 0.000000
# 5 0.000000 0.000000 0.000000 0.000000 0.034463 0.000000
# 6 0.000000 0.000000 0.000000 0.000000 0.000000 0.018790
#
#
# Mechanical properties :
#
#
# Convention : Reuss Voigt Hill
#
# Bulk Modulus (GPa) = 85.50025 95.05686 90.27855
# Shear Modulus (GPa) = 39.06133 41.47468 40.26800
#
# Velocity S-wave (km/s) = 4.43705 4.57206 4.50506
# Velocity P-wave (km/s) = 8.32725 8.70526 8.51835
#
# Compressibility (1/GPa) = 0.01169587
#
# Stress axis : x y z
#
# Youngs Moduli (GPa) = 119.00045 108.20791 88.99178
#
# Poissons Ratio (x) = 0.45020 0.24580
# Poissons Ratio (y) = 0.49510 0.14865
# Poissons Ratio (z) = 0.32869 0.18075
#
# Static dielectric constant tensor:
#      x y z
#    x 4.436480 0.000000 0.000000 
#    y 0.000000 4.787700 0.000000 
#    z 0.000000 0.000000 3.695490 
# 
# 
# High freq. dielectric constant tensor:
#      x y z
#    x 1.798570 0.000000 0.000000 
#    y 0.000000 1.784450 0.000000 
#    z 0.000000 0.000000 1.784070 
# 
# From -- ./inp_files/10070.got.cif
#   From: 2010.03.12/outbox.cif.g09.slc.cpg/sg57_6_cif.got.tgz:10070.got - 2010.04.16 15:48:40.
