data_PCOD8234568
_publ_section_title
;
Structure prediction by ZEFSAII (Michael W. Deem and Ramdas Pophale) SiO2 
 PCOD8234568
Probable space group: P B C M
;
_chemical_formula_sum "Si O2"
_cell_formula_units_Z 64
_cell_length_a 11.805221
_cell_length_b 30.616397
_cell_length_c 8.698479
_cell_angle_alpha 90.000000
_cell_angle_beta 90.000000
_cell_angle_gamma 90.000000
_cell_volume 3143.920255
_symmetry_space_group_name_H-M "P B C M"
_symmetry_group_IT_number 57
_symmetry_cell_setting 'orthorhombic'
loop_
_space_group_symop_operation_xyz
x,y,z
-x,-y,1/2+z
x,1/2-y,-z
-x,1/2+y,1/2-z
-x,-y,-z
x,y,1/2-z
-x,1/2+y,z
x,1/2-y,1/2+z
loop_
_atom_site_type_symbol
_atom_site_label
_atom_site_fract_x
_atom_site_fract_y
_atom_site_fract_z
Si Si1 0.033649 0.792829 0.930919
Si Si2 0.043820 0.955738 0.430536
Si Si3 0.484673 0.952619 0.071470
Si Si4 0.498571 0.295777 0.069011
Si Si5 0.100430 0.379468 0.928827
Si Si6 0.254181 0.825103 0.068715
Si Si7 0.656990 0.623557 0.928360
Si Si8 0.259604 0.582333 0.430426
O O1 0.054900 0.789110 0.750000
O O2 0.955340 0.833556 0.973429
O O3 0.971052 0.750000 0.000000
O O4 0.152991 0.793317 0.021754
O O5 0.047865 0.959823 0.250000
O O6 0.170476 0.949890 0.491938
O O7 0.960658 0.916627 0.474586
O O8 0.000000 0.000000 0.500000
O O9 0.455474 0.957462 0.250000
O O10 0.594996 0.922780 0.046600
O O11 0.384047 0.928002 0.987867
O O12 0.500000 0.000000 0.000000
O O13 0.493807 0.291694 0.250000
O O14 0.626875 0.304721 0.013714
O O15 0.420493 0.336063 0.013767
O O16 0.454620 0.250000 0.000000
O O17 0.084604 0.390171 0.750000
O O18 0.232099 0.377311 0.968406
O O19 0.255804 0.835225 0.250000
O O20 0.227890 0.868747 0.974766
O O21 0.688963 0.629727 0.750000
O O22 0.251526 0.575904 0.250000
#
# Coordination Sequence:
#
# PCOD8234568 Si02
#       8
#     8   8   8   8   8   8   8   8
#     4  11  24  41  63  93 129 167 214 267 319 385
#     4  12  26  45  70  97 130 171 214 264 321 380
#     4  11  24  44  67  95 130 169 217 266 319 382
#     4  10  22  40  62  92 126 164 210 260 315 376
#     4  11  25  44  65  94 129 167 216 267 319 382
#     4  11  21  39  65  94 130 169 210 262 324 381
#     4  10  23  44  65  88 126 170 213 262 318 380
#     4  12  24  41  67  99 133 169 213 263 320 382
#
# _framework density 20.356749000000001
#
# number of rings (size 3 to 8) (size 9 to 14) (size 15 to 20)
#    0.000    1.000    2.500    4.125    1.750    5.500 
#    0.000    2.500    0.000    0.000    0.000    0.000 
#    0.000    0.000    0.000    0.000    0.000    0.000 
#
# Total GULP energy -793949.136527 kJ/mol
# GULP energy per Si atom -12405.455258 kJ/mol
# Density = 2.031042 g / cm^3
# Si number density = 20.356749 Si / 1000 Ang^3
#
#
#
# Elastic Constant Matrix: (Units=GPa)
#
#
# Indices 1 2 3 4 5 6 
#
# 1 90.2517 21.5238 39.1282 0.0000 0.0000 0.0000
# 2 21.5238 116.8850 46.4110 0.0000 0.0000 0.0000
# 3 39.1282 46.4110 119.8475 0.0000 0.0000 0.0000
# 4 0.0000 0.0000 0.0000 40.4712 0.0000 0.0000
# 5 0.0000 0.0000 0.0000 0.0000 35.3189 0.0000
# 6 0.0000 0.0000 0.0000 0.0000 0.0000 27.0949
#
#
#
# Elastic Compliance Matrix: (Units=1/GPa)
#
#
# Indices 1 2 3 4 5 6 
#
# 1 0.012976 -0.000836 -0.003913 0.000000 0.000000 0.000000
# 2 -0.000836 0.010164 -0.003663 0.000000 0.000000 0.000000
# 3 -0.003913 -0.003663 0.011040 0.000000 0.000000 0.000000
# 4 0.000000 0.000000 0.000000 0.024709 0.000000 0.000000
# 5 0.000000 0.000000 0.000000 0.000000 0.028313 0.000000
# 6 0.000000 0.000000 0.000000 0.000000 0.000000 0.036907
#
#
# Mechanical properties :
#
#
# Convention : Reuss Voigt Hill
#
# Bulk Modulus (GPa) = 57.61594 60.12337 58.86966
# Shear Modulus (GPa) = 34.07904 35.23842 34.65873
#
# Velocity S-wave (km/s) = 4.09600 4.16509 4.13069
# Velocity P-wave (km/s) = 7.12280 7.26152 7.19249
#
# Compressibility (1/GPa) = 0.01735631
#
# Stress axis : x y z
#
# Youngs Moduli (GPa) = 77.06654 98.38835 90.58060
#
# Poissons Ratio (x) = 0.08224 0.35442
# Poissons Ratio (y) = 0.06441 0.33180
# Poissons Ratio (z) = 0.30154 0.36040
#
# Static dielectric constant tensor:
#      x y z
#    x 3.775210 0.000000 0.000000 
#    y 0.000000 3.878650 0.000000 
#    z 0.000000 0.000000 3.723720 
# 
# 
# High freq. dielectric constant tensor:
#      x y z
#    x 1.798550 0.000000 0.000000 
#    y 0.000000 1.812330 0.000000 
#    z 0.000000 0.000000 1.802650 
# 
# From -- ./inp_files/3823.got.cif
#   From: 2010.03.12/outbox.cif.g09.slc.cpg/sg57_2_cif.got.tgz:3823.got - 2010.04.16 15:48:40.
