data_PCOD8234971
_publ_section_title
;
Structure prediction by ZEFSAII (Michael W. Deem and Ramdas Pophale) SiO2 
 PCOD8234971
Probable space group: P B C M
;
_chemical_formula_sum "Si O2"
_cell_formula_units_Z 64
_cell_length_a 12.268634
_cell_length_b 17.937913
_cell_length_c 15.593372
_cell_angle_alpha 90.000000
_cell_angle_beta 90.000000
_cell_angle_gamma 90.000000
_cell_volume 3431.690905
_symmetry_space_group_name_H-M "P B C M"
_symmetry_group_IT_number 57
_symmetry_cell_setting 'orthorhombic'
loop_
_space_group_symop_operation_xyz
x,y,z
-x,-y,1/2+z
x,1/2-y,-z
-x,1/2+y,1/2-z
-x,-y,-z
x,y,1/2-z
-x,1/2+y,z
x,1/2-y,1/2+z
loop_
_atom_site_type_symbol
_atom_site_label
_atom_site_fract_x
_atom_site_fract_y
_atom_site_fract_z
Si Si1 0.406519 0.167843 0.351186
Si Si2 0.634930 0.117468 0.348559
Si Si3 0.838108 0.316669 0.556026
Si Si4 0.735647 0.700444 0.851202
Si Si5 0.878415 0.025363 0.998962
Si Si6 0.058827 0.211722 0.151601
Si Si7 0.259451 0.468298 0.151003
Si Si8 0.204393 0.068643 0.347853
O O1 0.419774 0.175155 0.250000
O O2 0.523719 0.147313 0.393410
O O3 0.359461 0.245984 0.389144
O O4 0.321531 0.102415 0.372167
O O5 0.628620 0.137740 0.250000
O O6 0.742420 0.158629 0.380893
O O7 0.641960 0.027410 0.361696
O O8 0.789387 0.250000 0.500000
O O9 0.870493 0.385632 0.495704
O O10 0.944717 0.284724 0.603112
O O11 0.739932 0.713887 0.750000
O O12 0.855148 0.726584 0.885953
O O13 0.705428 0.615591 0.875177
O O14 0.815043 0.997587 0.914746
O O15 0.836454 0.992880 0.088905
O O16 0.000000 0.000000 0.000000
O O17 0.033370 0.229446 0.250000
O O18 0.110583 0.130091 0.141169
O O19 0.217906 0.469838 0.250000
O O20 0.203835 0.037932 0.250000
#
# Coordination Sequence:
#
# PCOD8234971 Si02
#       8
#     8   8   8   8   8   8   8   8
#     4   8  15  32  59  83 108 141 183 232 277 327
#     4   9  18  36  58  77 103 148 191 220 270 336
#     4  11  23  36  50  72 110 146 180 222 268 328
#     4   8  15  29  52  84 109 131 175 234 283 319
#     4  11  22  36  53  80 108 143 184 220 277 331
#     4   9  17  31  53  76 102 138 177 221 275 329
#     4   9  19  34  54  81 112 143 184 230 273 324
#     4   9  18  35  57  82 108 137 176 228 283 329
#
# _framework density 18.649698000000001
#
# number of rings (size 3 to 8) (size 9 to 14) (size 15 to 20)
#    0.000    2.750    1.250    1.875    1.750    1.000 
#    0.000    8.125    0.000    3.000    0.000    0.000 
#    0.000    0.000    0.000    0.000    0.000    0.000 
#
# Total GULP energy -793153.156224 kJ/mol
# GULP energy per Si atom -12393.018066 kJ/mol
# Density = 1.860725 g / cm^3
# Si number density = 18.649698 Si / 1000 Ang^3
#
#
#
# Elastic Constant Matrix: (Units=GPa)
#
#
# Indices 1 2 3 4 5 6 
#
# 1 135.8755 63.4928 28.3606 0.0000 0.0000 0.0000
# 2 63.4928 143.0949 43.3774 0.0000 0.0000 0.0000
# 3 28.3606 43.3774 53.4524 0.0000 0.0000 0.0000
# 4 0.0000 0.0000 0.0000 23.9965 0.0000 0.0000
# 5 0.0000 0.0000 0.0000 0.0000 14.4303 0.0000
# 6 0.0000 0.0000 0.0000 0.0000 0.0000 16.6189
#
#
#
# Elastic Compliance Matrix: (Units=1/GPa)
#
#
# Indices 1 2 3 4 5 6 
#
# 1 0.009466 -0.003551 -0.002140 0.000000 0.000000 0.000000
# 2 -0.003551 0.010601 -0.006718 0.000000 0.000000 0.000000
# 3 -0.002140 -0.006718 0.025296 0.000000 0.000000 0.000000
# 4 0.000000 0.000000 0.000000 0.041673 0.000000 0.000000
# 5 0.000000 0.000000 0.000000 0.000000 0.069299 0.000000
# 6 0.000000 0.000000 0.000000 0.000000 0.000000 0.060173
#
#
# Mechanical properties :
#
#
# Convention : Reuss Voigt Hill
#
# Bulk Modulus (GPa) = 48.68004 66.98715 57.83359
# Shear Modulus (GPa) = 20.14713 24.15526 22.15119
#
# Velocity S-wave (km/s) = 3.29035 3.60281 3.45011
# Velocity P-wave (km/s) = 6.37135 7.30093 6.85192
#
# Compressibility (1/GPa) = 0.02054230
#
# Stress axis : x y z
#
# Youngs Moduli (GPa) = 105.64221 94.33328 39.53190
#
# Poissons Ratio (x) = 0.33500 0.08462
# Poissons Ratio (y) = 0.37516 0.26559
# Poissons Ratio (z) = 0.22613 0.63377
#
# Static dielectric constant tensor:
#      x y z
#    x 3.590130 0.000000 0.000000 
#    y 0.000000 3.502670 0.000000 
#    z 0.000000 0.000000 3.315950 
# 
# 
# High freq. dielectric constant tensor:
#      x y z
#    x 1.717500 0.000000 0.000000 
#    y 0.000000 1.720630 0.000000 
#    z 0.000000 0.000000 1.707160 
# 
# From -- ./inp_files/17984.got.cif
#   From: 2010.03.12/outbox.cif.g09.slc.cpg/sg57_9_cif.got.tgz:17984.got - 2010.04.16 15:48:40.
