data_PCOD8234288
_publ_section_title
;
Structure prediction by ZEFSAII (Michael W. Deem and Ramdas Pophale) SiO2 
 PCOD8234288
Probable space group: P B C M
;
_chemical_formula_sum "Si O2"
_cell_formula_units_Z 64
_cell_length_a 24.333944
_cell_length_b 14.945466
_cell_length_c 8.688266
_cell_angle_alpha 90.000000
_cell_angle_beta 90.000000
_cell_angle_gamma 90.000000
_cell_volume 3159.767108
_symmetry_space_group_name_H-M "P B C M"
_symmetry_group_IT_number 57
_symmetry_cell_setting 'orthorhombic'
loop_
_space_group_symop_operation_xyz
x,y,z
-x,-y,1/2+z
x,1/2-y,-z
-x,1/2+y,1/2-z
-x,-y,-z
x,y,1/2-z
-x,1/2+y,z
x,1/2-y,1/2+z
loop_
_atom_site_type_symbol
_atom_site_label
_atom_site_fract_x
_atom_site_fract_y
_atom_site_fract_z
Si Si1 0.005637 0.149994 0.931600
Si Si2 0.496710 0.096798 0.070258
Si Si3 0.731384 0.158905 0.071076
Si Si4 0.380159 0.401873 0.569496
Si Si5 0.614300 0.092447 0.072904
Si Si6 0.803830 0.491536 0.069565
Si Si7 0.265503 0.340100 0.931492
Si Si8 0.078168 0.983024 0.569713
O O1 0.003640 0.162189 0.750000
O O2 0.053960 0.080206 0.982186
O O3 0.014183 0.250000 0.000000
O O4 0.949725 0.102311 0.987073
O O5 0.488201 0.085984 0.250000
O O6 0.438977 0.141074 0.009056
O O7 0.555788 0.143775 0.032760
O O8 0.500000 0.000000 0.000000
O O9 0.747312 0.150558 0.250000
O O10 0.665489 0.157766 0.045849
O O11 0.754307 0.250000 0.000000
O O12 0.759299 0.082242 0.972518
O O13 0.373981 0.390012 0.750000
O O14 0.378295 0.506801 0.533755
O O15 0.326532 0.355637 0.494125
O O16 0.612362 0.059843 0.250000
O O17 0.817565 0.487944 0.250000
O O18 0.776858 0.584213 0.017598
O O19 0.858342 0.478595 0.971614
O O20 0.268954 0.334659 0.750000
O O21 0.240584 0.250000 0.000000
O O22 0.069195 0.969878 0.750000
#
# Coordination Sequence:
#
# PCOD8234288 Si02
#       8
#     8   8   8   8   8   8   8   8
#     4  10  21  39  65  96 131 167 200 239 283 330
#     4   8  14  25  45  72 100 131 172 222 279 345
#     4  11  23  38  57  81 111 148 191 240 294 352
#     4   9  16  30  51  74 103 139 179 227 285 345
#     4   9  17  30  50  76 103 136 178 228 286 347
#     4  11  23  41  62  85 117 154 198 246 291 338
#     4  10  22  37  55  80 110 148 191 237 289 344
#     4  10  22  40  63  93 126 161 202 241 285 337
#
# _framework density 20.254657000000002
#
# number of rings (size 3 to 8) (size 9 to 14) (size 15 to 20)
#    0.000    2.250    1.250    1.500    0.000    4.500 
#    0.000    5.625    0.000    0.000    0.000    0.000 
#    0.000    0.000    0.000    0.000    0.000    0.000 
#
# Total GULP energy -792865.090711 kJ/mol
# GULP energy per Si atom -12388.517042 kJ/mol
# Density = 2.020856 g / cm^3
# Si number density = 20.254657 Si / 1000 Ang^3
#
#
#
# Elastic Constant Matrix: (Units=GPa)
#
#
# Indices 1 2 3 4 5 6 
#
# 1 92.2765 10.1969 22.2499 0.0000 0.0000 0.0000
# 2 10.1969 90.6883 24.5257 0.0000 0.0000 0.0000
# 3 22.2499 24.5257 21.9238 0.0000 0.0000 0.0000
# 4 0.0000 0.0000 0.0000 28.8226 0.0000 0.0000
# 5 0.0000 0.0000 0.0000 0.0000 18.5686 0.0000
# 6 0.0000 0.0000 0.0000 0.0000 0.0000 -5.0744
#
#
#
# Elastic Compliance Matrix: (Units=1/GPa)
#
#
# Indices 1 2 3 4 5 6 
#
# 1 0.015087 0.003505 -0.019232 0.000000 0.000000 0.000000
# 2 0.003505 0.016624 -0.022154 0.000000 0.000000 0.000000
# 3 -0.019232 -0.022154 0.089914 0.000000 0.000000 0.000000
# 4 0.000000 0.000000 0.000000 0.034695 0.000000 0.000000
# 5 0.000000 0.000000 0.000000 0.000000 0.053854 0.000000
# 6 0.000000 0.000000 0.000000 0.000000 0.000000 -0.197067
#
#
# Mechanical properties :
#
#
# Convention : Reuss Voigt Hill
#
# Bulk Modulus (GPa) = 21.80431 35.42598 28.61515
# Shear Modulus (GPa) = 48.00420 18.32444 33.16432
#
# Velocity S-wave (km/s) = 4.87358 3.01109 4.05083
# Velocity P-wave (km/s) = 6.51594 5.44216 6.00311
#
# Compressibility (1/GPa) = 0.04586248
#
# Stress axis : x y z
#
# Youngs Moduli (GPa) = 66.28216 60.15402 11.12172
#
# Poissons Ratio (x) = -0.21083 0.21390
# Poissons Ratio (y) = -0.23230 0.24639
# Poissons Ratio (z) = 1.27475 1.33265
#
# Static dielectric constant tensor:
#      x y z
#    x 4.068300 0.000000 0.000000 
#    y 0.000000 3.206660 0.000000 
#    z 0.000000 0.000000 3.556490 
# 
# 
# High freq. dielectric constant tensor:
#      x y z
#    x 1.805650 0.000000 0.000000 
#    y 0.000000 1.769740 0.000000 
#    z 0.000000 0.000000 1.786110 
# 
# From -- ./inp_files/9497.got.cif
#   From: 2010.03.12/outbox.cif.g09.slc.cpg/sg57_5_cif.got.tgz:9497.got - 2010.04.16 15:48:40.
