data_PCOD8234447
_publ_section_title
;
Structure prediction by ZEFSAII (Michael W. Deem and Ramdas Pophale) SiO2 
 PCOD8234447
Probable space group: P B C M
;
_chemical_formula_sum "Si O2"
_cell_formula_units_Z 36
_cell_length_a 8.767230
_cell_length_b 20.777152
_cell_length_c 8.980154
_cell_angle_alpha 90.000000
_cell_angle_beta 90.000000
_cell_angle_gamma 90.000000
_cell_volume 1635.807524
_symmetry_space_group_name_H-M "P B C M"
_symmetry_group_IT_number 57
_symmetry_cell_setting 'orthorhombic'
loop_
_space_group_symop_operation_xyz
x,y,z
-x,-y,1/2+z
x,1/2-y,-z
-x,1/2+y,1/2-z
-x,-y,-z
x,y,1/2-z
-x,1/2+y,z
x,1/2-y,1/2+z
loop_
_atom_site_type_symbol
_atom_site_label
_atom_site_fract_x
_atom_site_fract_y
_atom_site_fract_z
Si Si1 0.259937 0.250000 0.000000
Si Si2 0.039914 0.937444 0.750000
Si Si3 0.297943 0.012630 0.250000
Si Si4 0.470276 0.873250 0.750000
Si Si5 0.046850 0.206135 0.250000
Si Si6 0.464381 0.274608 0.250000
Si Si7 0.808872 0.176747 0.750000
Si Si8 0.748635 0.418564 0.001150
O O1 0.152130 0.293059 0.896153
O O2 0.368754 0.204079 0.897252
O O3 0.880743 0.972632 0.750000
O O4 0.042964 0.859963 0.750000
O O5 0.130988 0.957526 0.601021
O O6 0.389645 0.077905 0.250000
O O7 0.337935 0.970297 0.395225
O O8 0.539002 0.802655 0.750000
O O9 0.373024 0.882358 0.601090
O O10 0.923569 0.263699 0.250000
O O11 0.632504 0.302125 0.250000
O O12 0.836883 0.134270 0.602492
#
# Coordination Sequence:
#
# PCOD8234447 Si02
#       8
#     4   4   4   4   4   4   4   8
#     4  10  22  36  52  84 122 156 190 228 290 344
#     4  11  22  38  60  85 114 152 195 240 294 345
#     4  11  22  40  60  82 114 153 196 242 292 345
#     4  11  22  38  60  85 114 152 195 240 294 345
#     4  11  22  38  60  87 122 158 193 240 290 355
#     4  11  22  38  60  87 122 158 193 240 290 355
#     4  11  22  38  62  90 120 153 196 238 288 349
#     4  10  23  39  59  87 116 150 195 246 287 340
#
# _framework density 22.007479
#
# number of rings (size 3 to 8) (size 9 to 14) (size 15 to 20)
#    0.000    1.333    0.000    6.667    0.000    2.667 
#    0.000    0.000    0.000   16.000    0.000    0.000 
#    0.000    0.000    0.000    0.000    0.000    0.000 
#
# Total GULP energy -446426.302248 kJ/mol
# GULP energy per Si atom -12400.730618 kJ/mol
# Density = 2.195739 g / cm^3
# Si number density = 22.007479 Si / 1000 Ang^3
#
#
#
# Elastic Constant Matrix: (Units=GPa)
#
#
# Indices 1 2 3 4 5 6 
#
# 1 86.2481 -2.4480 38.0425 0.0000 0.0000 0.0000
# 2 -2.4480 68.5014 16.9425 0.0000 0.0000 0.0000
# 3 38.0425 16.9425 155.3697 0.0000 0.0000 0.0000
# 4 0.0000 0.0000 0.0000 10.1604 0.0000 0.0000
# 5 0.0000 0.0000 0.0000 0.0000 23.3969 0.0000
# 6 0.0000 0.0000 0.0000 0.0000 0.0000 35.6715
#
#
#
# Elastic Compliance Matrix: (Units=1/GPa)
#
#
# Indices 1 2 3 4 5 6 
#
# 1 0.013110 0.001297 -0.003351 0.000000 0.000000 0.000000
# 2 0.001297 0.015131 -0.001968 0.000000 0.000000 0.000000
# 3 -0.003351 -0.001968 0.007471 0.000000 0.000000 0.000000
# 4 0.000000 0.000000 0.000000 0.098421 0.000000 0.000000
# 5 0.000000 0.000000 0.000000 0.000000 0.042741 0.000000
# 6 0.000000 0.000000 0.000000 0.000000 0.000000 0.028034
#
#
# Mechanical properties :
#
#
# Convention : Reuss Voigt Hill
#
# Bulk Modulus (GPa) = 36.14165 46.13256 41.13711
# Shear Modulus (GPa) = 22.50489 31.01792 26.76140
#
# Velocity S-wave (km/s) = 3.20128 3.75831 3.49092
# Velocity P-wave (km/s) = 5.48839 6.31196 5.91453
#
# Compressibility (1/GPa) = 0.02766891
#
# Stress axis : x y z
#
# Youngs Moduli (GPa) = 76.28051 66.08830 133.84353
#
# Poissons Ratio (x) = -0.08574 0.44856
# Poissons Ratio (y) = -0.09897 0.26336
# Poissons Ratio (z) = 0.25564 0.13004
#
# Static dielectric constant tensor:
#      x y z
#    x 3.984230 0.000000 0.000000 
#    y 0.000000 3.660010 0.000000 
#    z 0.000000 0.000000 4.425900 
# 
# 
# High freq. dielectric constant tensor:
#      x y z
#    x 1.873810 0.000000 0.000000 
#    y 0.000000 1.838710 0.000000 
#    z 0.000000 0.000000 1.894990 
# 
# From -- ./inp_files/1397.got.cif
#   From: 2010.03.12/outbox.cif.g09.slc.cpg/sg57_1_cif.got.tgz:1397.got - 2010.04.16 15:48:40.
