data_PCOD8234561
_publ_section_title
;
Structure prediction by ZEFSAII (Michael W. Deem and Ramdas Pophale) SiO2 
 PCOD8234561
Probable space group: P B C M
;
_chemical_formula_sum "Si O2"
_cell_formula_units_Z 32
_cell_length_a 8.833986
_cell_length_b 9.243617
_cell_length_c 17.588027
_cell_angle_alpha 90.000000
_cell_angle_beta 90.000000
_cell_angle_gamma 90.000000
_cell_volume 1436.202813
_symmetry_space_group_name_H-M "P B C M"
_symmetry_group_IT_number 57
_symmetry_cell_setting 'orthorhombic'
loop_
_space_group_symop_operation_xyz
x,y,z
-x,-y,1/2+z
x,1/2-y,-z
-x,1/2+y,1/2-z
-x,-y,-z
x,y,1/2-z
-x,1/2+y,z
x,1/2-y,1/2+z
loop_
_atom_site_type_symbol
_atom_site_label
_atom_site_fract_x
_atom_site_fract_y
_atom_site_fract_z
Si Si1 0.467079 0.938212 0.582681
Si Si2 0.146758 0.797609 0.917347
Si Si3 0.970270 0.572713 0.836670
Si Si4 0.652142 0.710122 0.836447
O O1 0.324272 0.830730 0.581766
O O2 0.610759 0.845545 0.610196
O O3 0.500000 0.000000 0.500000
O O4 0.440693 0.067523 0.641063
O O5 0.119179 0.662016 0.860930
O O6 0.049846 0.935060 0.890603
O O7 0.087972 0.750000 0.000000
O O8 0.986348 0.518390 0.750000
O O9 0.829746 0.682016 0.846328
O O10 0.609701 0.748143 0.750000
#
# Coordination Sequence:
#
# PCOD8234561 Si02
#       4
#     8   8   8   8
#     4  11  23  41  63  92 126 161 205 257 311 371
#     4  11  23  40  63  91 124 164 207 254 310 371
#     4  10  23  41  61  89 124 160 203 256 308 365
#     4  10  22  40  62  88 121 161 204 253 309 369
#
# _framework density 22.280977
#
# number of rings (size 3 to 8) (size 9 to 14) (size 15 to 20)
#    0.000    1.500    0.000    4.500    0.000   11.000 
#    0.000    0.000    0.000    0.000    0.000    0.000 
#    0.000    0.000    0.000    0.000    0.000    0.000 
#
# Total GULP energy -396977.558179 kJ/mol
# GULP energy per Si atom -12405.548693 kJ/mol
# Density = 2.223026 g / cm^3
# Si number density = 22.280977 Si / 1000 Ang^3
#
#
#
# Elastic Constant Matrix: (Units=GPa)
#
#
# Indices 1 2 3 4 5 6 
#
# 1 57.8442 40.1824 47.8539 0.0000 0.0000 0.0000
# 2 40.1824 91.3216 74.5469 0.0000 0.0000 0.0000
# 3 47.8539 74.5469 171.6587 0.0000 0.0000 0.0000
# 4 0.0000 0.0000 0.0000 55.1988 0.0000 0.0000
# 5 0.0000 0.0000 0.0000 0.0000 24.5416 0.0000
# 6 0.0000 0.0000 0.0000 0.0000 0.0000 48.8024
#
#
#
# Elastic Compliance Matrix: (Units=1/GPa)
#
#
# Indices 1 2 3 4 5 6 
#
# 1 0.026234 -0.008634 -0.003564 0.000000 0.000000 0.000000
# 2 -0.008634 0.019806 -0.006194 0.000000 0.000000 0.000000
# 3 -0.003564 -0.006194 0.009509 0.000000 0.000000 0.000000
# 4 0.000000 0.000000 0.000000 0.018116 0.000000 0.000000
# 5 0.000000 0.000000 0.000000 0.000000 0.040747 0.000000
# 6 0.000000 0.000000 0.000000 0.000000 0.000000 0.020491
#
#
# Mechanical properties :
#
#
# Convention : Reuss Voigt Hill
#
# Bulk Modulus (GPa) = 53.29175 71.77677 62.53426
# Shear Modulus (GPa) = 28.09909 36.25797 32.17853
#
# Velocity S-wave (km/s) = 3.55508 4.03836 3.80441
# Velocity P-wave (km/s) = 6.38917 7.35043 6.88659
#
# Compressibility (1/GPa) = 0.01876463
#
# Stress axis : x y z
#
# Youngs Moduli (GPa) = 38.11869 50.49042 105.16380
#
# Poissons Ratio (x) = 0.43593 0.37478
# Poissons Ratio (y) = 0.32912 0.65140
# Poissons Ratio (z) = 0.13585 0.31275
#
# Static dielectric constant tensor:
#      x y z
#    x 3.976530 0.000000 0.000000 
#    y 0.000000 4.050270 0.000000 
#    z 0.000000 0.000000 4.078770 
# 
# 
# High freq. dielectric constant tensor:
#      x y z
#    x 1.866270 0.000000 0.000000 
#    y 0.000000 1.890780 0.000000 
#    z 0.000000 0.000000 1.887270 
# 
# From -- ./inp_files/17267.got.cif
#   From: 2010.03.12/outbox.cif.g09.slc.cpg/sg57_9_cif.got.tgz:17267.got - 2010.04.16 15:48:40.
