data_PCOD8234677
_publ_section_title
;
Structure prediction by ZEFSAII (Michael W. Deem and Ramdas Pophale) SiO2 
 PCOD8234677
Probable space group: P B C M
;
_chemical_formula_sum "Si O2"
_cell_formula_units_Z 40
_cell_length_a 9.722146
_cell_length_b 10.882237
_cell_length_c 16.871047
_cell_angle_alpha 90.000000
_cell_angle_beta 90.000000
_cell_angle_gamma 90.000000
_cell_volume 1784.934788
_symmetry_space_group_name_H-M "P B C M"
_symmetry_group_IT_number 57
_symmetry_cell_setting 'orthorhombic'
loop_
_space_group_symop_operation_xyz
x,y,z
-x,-y,1/2+z
x,1/2-y,-z
-x,1/2+y,1/2-z
-x,-y,-z
x,y,1/2-z
-x,1/2+y,z
x,1/2-y,1/2+z
loop_
_atom_site_type_symbol
_atom_site_label
_atom_site_fract_x
_atom_site_fract_y
_atom_site_fract_z
Si Si1 0.446674 0.473840 0.342902
Si Si2 0.260912 0.501606 0.907339
Si Si3 0.078770 0.798401 0.159905
Si Si4 0.724122 0.356462 0.556749
Si Si5 0.766665 0.739322 0.841024
O O1 0.463149 0.496735 0.250000
O O2 0.592753 0.441529 0.381087
O O3 0.390283 0.600672 0.380553
O O4 0.342860 0.364272 0.363264
O O5 0.144745 0.567984 0.854767
O O6 0.258168 0.356398 0.896140
O O7 0.234052 0.529351 0.000199
O O8 0.105625 0.756731 0.250000
O O9 0.142172 0.694466 0.102662
O O10 0.917680 0.813998 0.142745
O O11 0.662620 0.250000 0.500000
O O12 0.748450 0.780543 0.750000
#
# Coordination Sequence:
#
# PCOD8234677 Si02
#       5
#     8   8   8   8   8
#     4  11  24  44  71 100 132 178 229 279 337 402
#     4  11  24  44  67  97 140 174 224 281 341 401
#     4  10  22  43  68  95 135 180 226 281 331 399
#     4  10  24  43  66  97 135 175 225 271 340 399
#     4  10  24  42  68 103 133 177 233 276 334 401
#
# _framework density 22.409782
#
# number of rings (size 3 to 8) (size 9 to 14) (size 15 to 20)
#    0.000    1.600    0.000    3.000    8.400    1.600 
#    7.200    0.000    0.000    0.000    0.000    0.000 
#    0.000    0.000    0.000    0.000    0.000    0.000 
#
# Total GULP energy -496156.250404 kJ/mol
# GULP energy per Si atom -12403.906260 kJ/mol
# Density = 2.235878 g / cm^3
# Si number density = 22.409782 Si / 1000 Ang^3
#
#
#
# Elastic Constant Matrix: (Units=GPa)
#
#
# Indices 1 2 3 4 5 6 
#
# 1 139.7707 48.1971 36.4338 0.0000 0.0000 0.0000
# 2 48.1971 94.1089 33.1863 0.0000 0.0000 0.0000
# 3 36.4338 33.1863 98.7724 0.0000 0.0000 0.0000
# 4 0.0000 0.0000 0.0000 46.9530 0.0000 0.0000
# 5 0.0000 0.0000 0.0000 0.0000 14.7653 0.0000
# 6 0.0000 0.0000 0.0000 0.0000 0.0000 42.5440
#
#
#
# Elastic Compliance Matrix: (Units=1/GPa)
#
#
# Indices 1 2 3 4 5 6 
#
# 1 0.009030 -0.003914 -0.002016 0.000000 0.000000 0.000000
# 2 -0.003914 0.013750 -0.003176 0.000000 0.000000 0.000000
# 3 -0.002016 -0.003176 0.011935 0.000000 0.000000 0.000000
# 4 0.000000 0.000000 0.000000 0.021298 0.000000 0.000000
# 5 0.000000 0.000000 0.000000 0.000000 0.067726 0.000000
# 6 0.000000 0.000000 0.000000 0.000000 0.000000 0.023505
#
#
# Mechanical properties :
#
#
# Convention : Reuss Voigt Hill
#
# Bulk Modulus (GPa) = 60.59303 63.14292 61.86798
# Shear Modulus (GPa) = 29.24716 35.17480 32.21098
#
# Velocity S-wave (km/s) = 3.61655 3.96614 3.79537
# Velocity P-wave (km/s) = 6.67357 7.01508 6.84646
#
# Compressibility (1/GPa) = 0.01650355
#
# Stress axis : x y z
#
# Youngs Moduli (GPa) = 110.74764 72.72516 83.78678
#
# Poissons Ratio (x) = 0.28461 0.16890
# Poissons Ratio (y) = 0.43342 0.26614
# Poissons Ratio (z) = 0.22324 0.23100
#
# Static dielectric constant tensor:
#      x y z
#    x 4.014200 0.000000 0.000000 
#    y 0.000000 3.900710 0.000000 
#    z 0.000000 0.000000 4.236390 
# 
# 
# High freq. dielectric constant tensor:
#      x y z
#    x 1.883850 0.000000 0.000000 
#    y 0.000000 1.880480 0.000000 
#    z 0.000000 0.000000 1.895080 
# 
# From -- ./inp_files/20528.got.cif
#   From: 2010.03.12/outbox.cif.g09.slc.cpg/sg57_11_cif.got.tgz:20528.got - 2010.04.16 15:48:40.
