data_PCOD8234592
_publ_section_title
;
Structure prediction by ZEFSAII (Michael W. Deem and Ramdas Pophale) SiO2 
 PCOD8234592
Probable space group: P B C M
;
_chemical_formula_sum "Si O2"
_cell_formula_units_Z 36
_cell_length_a 20.857097
_cell_length_b 4.991299
_cell_length_c 14.993676
_cell_angle_alpha 90.000000
_cell_angle_beta 90.000000
_cell_angle_gamma 90.000000
_cell_volume 1560.901757
_symmetry_space_group_name_H-M "P B C M"
_symmetry_group_IT_number 57
_symmetry_cell_setting 'orthorhombic'
loop_
_space_group_symop_operation_xyz
x,y,z
-x,-y,1/2+z
x,1/2-y,-z
-x,1/2+y,1/2-z
-x,-y,-z
x,y,1/2-z
-x,1/2+y,z
x,1/2-y,1/2+z
loop_
_atom_site_type_symbol
_atom_site_label
_atom_site_fract_x
_atom_site_fract_y
_atom_site_fract_z
Si Si1 0.538308 0.051647 0.643679
Si Si2 0.740863 0.424454 0.920308
Si Si3 0.956813 0.372977 0.149560
Si Si4 0.319644 0.448633 0.849196
Si Si5 0.863089 0.250000 0.000000
O O1 0.539408 0.053294 0.750000
O O2 0.489334 0.829312 0.606528
O O3 0.610396 0.005256 0.609090
O O4 0.715520 0.725528 0.909953
O O5 0.722436 0.223311 0.839451
O O6 0.706784 0.250000 0.000000
O O7 0.817322 0.447065 0.941005
O O8 0.927395 0.405246 0.250000
O O9 0.904589 0.418371 0.071842
O O10 0.015126 0.576891 0.136408
O O11 0.325906 0.327205 0.750000
#
# Coordination Sequence:
#
# PCOD8234592 Si02
#       5
#     8   8   8   8   4
#     4   9  17  30  53  84 113 145 194 255 319 378
#     4  10  24  39  58  85 122 166 203 245 313 372
#     4  10  22  40  65  97 128 161 206 257 306 365
#     4  11  21  38  62  88 118 156 207 267 314 372
#     4  10  24  42  66  88 128 174 206 252 316 366
#
# _framework density 23.063589
#
# number of rings (size 3 to 8) (size 9 to 14) (size 15 to 20)
#    0.667    1.333    0.000    3.333    0.000    8.889 
#    0.000    2.222    0.000   13.333    0.000    0.000 
#    0.000    0.000    0.000    0.000    0.000    0.000 
#
# Total GULP energy -446061.091771 kJ/mol
# GULP energy per Si atom -12390.585883 kJ/mol
# Density = 2.301110 g / cm^3
# Si number density = 23.063589 Si / 1000 Ang^3
#
#
#
# Elastic Constant Matrix: (Units=GPa)
#
#
# Indices 1 2 3 4 5 6 
#
# 1 133.7023 29.6711 46.7229 0.0000 0.0000 0.0000
# 2 29.6711 95.8219 2.6380 0.0000 0.0000 0.0000
# 3 46.7229 2.6380 66.7726 0.0000 0.0000 0.0000
# 4 0.0000 0.0000 0.0000 18.8344 0.0000 0.0000
# 5 0.0000 0.0000 0.0000 0.0000 38.3441 0.0000
# 6 0.0000 0.0000 0.0000 0.0000 0.0000 14.0903
#
#
#
# Elastic Compliance Matrix: (Units=1/GPa)
#
#
# Indices 1 2 3 4 5 6 
#
# 1 0.010762 -0.003128 -0.007407 0.000000 0.000000 0.000000
# 2 -0.003128 0.011357 0.001740 0.000000 0.000000 0.000000
# 3 -0.007407 0.001740 0.020090 0.000000 0.000000 0.000000
# 4 0.000000 0.000000 0.000000 0.053094 0.000000 0.000000
# 5 0.000000 0.000000 0.000000 0.000000 0.026080 0.000000
# 6 0.000000 0.000000 0.000000 0.000000 0.000000 0.070971
#
#
# Mechanical properties :
#
#
# Convention : Reuss Voigt Hill
#
# Bulk Modulus (GPa) = 40.61874 50.48452 45.55163
# Shear Modulus (GPa) = 22.91999 28.73808 25.82903
#
# Velocity S-wave (km/s) = 3.15584 3.53375 3.35013
# Velocity P-wave (km/s) = 5.56138 6.21182 5.89558
#
# Compressibility (1/GPa) = 0.02461918
#
# Stress axis : x y z
#
# Youngs Moduli (GPa) = 92.92009 88.05260 49.77533
#
# Poissons Ratio (x) = 0.27547 0.36868
# Poissons Ratio (y) = 0.29070 -0.08663
# Poissons Ratio (z) = 0.68825 -0.15325
#
# Static dielectric constant tensor:
#      x y z
#    x 3.951460 0.000000 0.000000 
#    y 0.000000 3.987640 0.000000 
#    z 0.000000 0.000000 4.257600 
# 
# 
# High freq. dielectric constant tensor:
#      x y z
#    x 1.898460 0.000000 0.000000 
#    y 0.000000 1.908180 0.000000 
#    z 0.000000 0.000000 1.907860 
# 
# From -- ./inp_files/19205.got.cif
#   From: 2010.03.12/outbox.cif.g09.slc.cpg/sg57_10_cif.got.tgz:19205.got - 2010.04.16 15:48:40.
