data_PCOD8234589
_publ_section_title
;
Structure prediction by ZEFSAII (Michael W. Deem and Ramdas Pophale) SiO2 
 PCOD8234589
Probable space group: P B C M
;
_chemical_formula_sum "Si O2"
_cell_formula_units_Z 32
_cell_length_a 17.882390
_cell_length_b 5.394734
_cell_length_c 14.113279
_cell_angle_alpha 90.000000
_cell_angle_beta 90.000000
_cell_angle_gamma 90.000000
_cell_volume 1361.518431
_symmetry_space_group_name_H-M "P B C M"
_symmetry_group_IT_number 57
_symmetry_cell_setting 'orthorhombic'
loop_
_space_group_symop_operation_xyz
x,y,z
-x,-y,1/2+z
x,1/2-y,-z
-x,1/2+y,1/2-z
-x,-y,-z
x,y,1/2-z
-x,1/2+y,z
x,1/2-y,1/2+z
loop_
_atom_site_type_symbol
_atom_site_label
_atom_site_fract_x
_atom_site_fract_y
_atom_site_fract_z
Si Si1 0.953008 0.127473 0.250000
Si Si2 0.461303 0.887330 0.862933
Si Si3 0.160716 0.603374 0.647800
Si Si4 0.706877 0.050281 0.142649
Si Si5 0.197675 0.250000 0.000000
O O1 0.899809 0.169519 0.156457
O O2 0.014620 0.351172 0.250000
O O3 0.467482 0.884155 0.750000
O O4 0.497234 0.632840 0.903802
O O5 0.375469 0.893515 0.896783
O O6 0.154539 0.457095 0.750000
O O7 0.245277 0.698795 0.635797
O O8 0.143108 0.443588 0.554001
O O9 0.702476 0.949544 0.250000
O O10 0.748022 0.846307 0.081187
#
# Coordination Sequence:
#
# PCOD8234589 Si02
#       5
#     4   8   8   8   4
#     4  10  24  46  76 104 136 174 218 270 342 406
#     4   9  19  36  60  91 129 175 227 282 340 393
#     4   9  23  41  69  96 133 176 219 272 332 401
#     4  10  22  40  65  95 132 179 231 281 334 399
#     4  12  22  38  66 100 132 172 238 276 326 398
#
# _framework density 23.503173
#
# number of rings (size 3 to 8) (size 9 to 14) (size 15 to 20)
#    0.750    1.500    0.000    1.500    7.000    0.000 
#    0.000    2.500    0.000    0.000    0.000    0.000 
#    0.000    0.000    0.000    0.000    0.000    0.000 
#
# Total GULP energy -396423.813403 kJ/mol
# GULP energy per Si atom -12388.244169 kJ/mol
# Density = 2.344968 g / cm^3
# Si number density = 23.503173 Si / 1000 Ang^3
#
#
#
# Elastic Constant Matrix: (Units=GPa)
#
#
# Indices 1 2 3 4 5 6 
#
# 1 90.4178 4.9903 -6.3619 0.0000 0.0000 0.0000
# 2 4.9903 78.3209 10.3151 0.0000 0.0000 0.0000
# 3 -6.3619 10.3151 59.8903 0.0000 0.0000 0.0000
# 4 0.0000 0.0000 0.0000 27.9739 0.0000 0.0000
# 5 0.0000 0.0000 0.0000 0.0000 1.9760 0.0000
# 6 0.0000 0.0000 0.0000 0.0000 0.0000 36.0404
#
#
#
# Elastic Compliance Matrix: (Units=1/GPa)
#
#
# Indices 1 2 3 4 5 6 
#
# 1 0.011203 -0.000891 0.001344 0.000000 0.000000 0.000000
# 2 -0.000891 0.013135 -0.002357 0.000000 0.000000 0.000000
# 3 0.001344 -0.002357 0.017246 0.000000 0.000000 0.000000
# 4 0.000000 0.000000 0.000000 0.035748 0.000000 0.000000
# 5 0.000000 0.000000 0.000000 0.000000 0.506077 0.000000
# 6 0.000000 0.000000 0.000000 0.000000 0.000000 0.027747
#
#
# Mechanical properties :
#
#
# Convention : Reuss Voigt Hill
#
# Bulk Modulus (GPa) = 26.47179 27.39067 26.93123
# Shear Modulus (GPa) = 7.96741 27.84377 17.90559
#
# Velocity S-wave (km/s) = 1.84317 3.44565 2.76313
# Velocity P-wave (km/s) = 3.97709 5.24494 4.65439
#
# Compressibility (1/GPa) = 0.03777607
#
# Stress axis : x y z
#
# Youngs Moduli (GPa) = 89.25812 76.13162 57.98498
#
# Poissons Ratio (x) = 0.06782 -0.07790
# Poissons Ratio (y) = 0.07951 0.13667
# Poissons Ratio (z) = -0.11992 0.17944
#
# Static dielectric constant tensor:
#      x y z
#    x 4.288690 0.000000 0.000000 
#    y 0.000000 4.022080 0.000000 
#    z 0.000000 0.000000 4.275270 
# 
# 
# High freq. dielectric constant tensor:
#      x y z
#    x 1.924900 0.000000 0.000000 
#    y 0.000000 1.915570 0.000000 
#    z 0.000000 0.000000 1.923310 
# 
# From -- ./inp_files/18806.got.cif
#   From: 2010.03.12/outbox.cif.g09.slc.cpg/sg57_10_cif.got.tgz:18806.got - 2010.04.16 15:48:40.
