data_PCOD8234331
_publ_section_title
;
Structure prediction by ZEFSAII (Michael W. Deem and Ramdas Pophale) SiO2 
 PCOD8234331
Probable space group: P B C M
;
_chemical_formula_sum "Si O2"
_cell_formula_units_Z 40
_cell_length_a 24.009943
_cell_length_b 8.608678
_cell_length_c 9.141245
_cell_angle_alpha 90.000000
_cell_angle_beta 90.000000
_cell_angle_gamma 90.000000
_cell_volume 1889.439288
_symmetry_space_group_name_H-M "P B C M"
_symmetry_group_IT_number 57
_symmetry_cell_setting 'orthorhombic'
loop_
_space_group_symop_operation_xyz
x,y,z
-x,-y,1/2+z
x,1/2-y,-z
-x,1/2+y,1/2-z
-x,-y,-z
x,y,1/2-z
-x,1/2+y,z
x,1/2-y,1/2+z
loop_
_atom_site_type_symbol
_atom_site_label
_atom_site_fract_x
_atom_site_fract_y
_atom_site_fract_z
Si Si1 0.378507 0.067206 0.023292
Si Si2 0.838092 0.583623 0.073059
Si Si3 0.575832 0.074028 0.250000
Si Si4 0.947628 0.581715 0.928575
Si Si5 0.269859 0.599610 0.911375
Si Si6 0.458350 0.932401 0.250000
O O1 0.320282 0.023645 0.097903
O O2 0.433069 0.018846 0.111673
O O3 0.380338 0.250000 0.000000
O O4 0.382530 0.963057 0.880279
O O5 0.845811 0.597345 0.250000
O O6 0.785241 0.481592 0.025771
O O7 0.828119 0.750000 0.000000
O O8 0.891358 0.502272 0.992848
O O9 0.555322 0.250328 0.250000
O O10 0.524528 0.953439 0.250000
O O11 0.949567 0.582200 0.750000
O O12 0.946929 0.750000 0.000000
O O13 0.000000 0.500000 0.000000
O O14 0.256288 0.658400 0.750000
O O15 0.287661 0.750000 0.000000
#
# Coordination Sequence:
#
# PCOD8234331 Si02
#       6
#     8   8   4   8   8   4
#     4  12  25  44  66  96 128 169 216 265 324 389
#     4  10  21  40  63  92 127 167 217 268 323 390
#     4  12  26  42  70  96 128 176 203 276 315 390
#     4  11  22  39  63  94 130 174 221 274 332 394
#     4  11  25  43  65  93 128 166 211 266 323 388
#     4  12  24  46  66  96 134 162 223 254 331 384
#
# _framework density 21.170303000000001
#
# number of rings (size 3 to 8) (size 9 to 14) (size 15 to 20)
#    0.000    0.800    1.000    8.400    1.400    2.400 
#    0.000    2.000    0.000    0.000    0.000    0.000 
#    0.000    0.000    0.000    0.000    0.000    0.000 
#
# Total GULP energy -495819.295378 kJ/mol
# GULP energy per Si atom -12395.482384 kJ/mol
# Density = 2.112212 g / cm^3
# Si number density = 21.170303 Si / 1000 Ang^3
#
#
#
# Elastic Constant Matrix: (Units=GPa)
#
#
# Indices 1 2 3 4 5 6 
#
# 1 123.8305 29.3035 27.4076 0.0000 0.0000 0.0000
# 2 29.3035 115.4975 27.0523 0.0000 0.0000 0.0000
# 3 27.4076 27.0523 133.8417 0.0000 0.0000 0.0000
# 4 0.0000 0.0000 0.0000 33.6015 0.0000 0.0000
# 5 0.0000 0.0000 0.0000 0.0000 37.2141 0.0000
# 6 0.0000 0.0000 0.0000 0.0000 0.0000 38.1442
#
#
#
# Elastic Compliance Matrix: (Units=1/GPa)
#
#
# Indices 1 2 3 4 5 6 
#
# 1 0.008843 -0.001910 -0.001425 0.000000 0.000000 0.000000
# 2 -0.001910 0.009501 -0.001529 0.000000 0.000000 0.000000
# 3 -0.001425 -0.001529 0.008072 0.000000 0.000000 0.000000
# 4 0.000000 0.000000 0.000000 0.029761 0.000000 0.000000
# 5 0.000000 0.000000 0.000000 0.000000 0.026872 0.000000
# 6 0.000000 0.000000 0.000000 0.000000 0.000000 0.026216
#
#
# Mechanical properties :
#
#
# Convention : Reuss Voigt Hill
#
# Bulk Modulus (GPa) = 59.92188 60.07737 59.99963
# Shear Modulus (GPa) = 40.14286 41.08571 40.61429
#
# Velocity S-wave (km/s) = 4.35925 4.41014 4.38477
# Velocity P-wave (km/s) = 7.32827 7.37375 7.35105
#
# Compressibility (1/GPa) = 0.01668840
#
# Stress axis : x y z
#
# Youngs Moduli (GPa) = 113.08562 105.25268 123.87940
#
# Poissons Ratio (x) = 0.20102 0.17650
# Poissons Ratio (y) = 0.21598 0.18944
# Poissons Ratio (z) = 0.16112 0.16096
#
# Static dielectric constant tensor:
#      x y z
#    x 5.178070 0.000000 0.000000 
#    y 0.000000 -23.184100 0.000000 
#    z 0.000000 0.000000 4.157080 
# 
# 
# High freq. dielectric constant tensor:
#      x y z
#    x 1.849750 0.000000 0.000000 
#    y 0.000000 1.824500 0.000000 
#    z 0.000000 0.000000 1.846720 
# 
# From -- ./inp_files/9004.got.cif
#   From: 2010.03.12/outbox.cif.g09.slc.cpg/sg57_5_cif.got.tgz:9004.got - 2010.04.16 15:48:40.
