data_PCOD8234534
_publ_section_title
;
Structure prediction by ZEFSAII (Michael W. Deem and Ramdas Pophale) SiO2 
 PCOD8234534
Probable space group: P B C M
;
_chemical_formula_sum "Si O2"
_cell_formula_units_Z 64
_cell_length_a 14.267895
_cell_length_b 25.706171
_cell_length_c 8.842222
_cell_angle_alpha 90.000000
_cell_angle_beta 90.000000
_cell_angle_gamma 90.000000
_cell_volume 3243.087836
_symmetry_space_group_name_H-M "P B C M"
_symmetry_group_IT_number 57
_symmetry_cell_setting 'orthorhombic'
loop_
_space_group_symop_operation_xyz
x,y,z
-x,-y,1/2+z
x,1/2-y,-z
-x,1/2+y,1/2-z
-x,-y,-z
x,y,1/2-z
-x,1/2+y,z
x,1/2-y,1/2+z
loop_
_atom_site_type_symbol
_atom_site_label
_atom_site_fract_x
_atom_site_fract_y
_atom_site_fract_z
Si Si1 0.385793 0.602745 0.572054
Si Si2 0.719199 0.997752 0.573321
Si Si3 0.702260 0.695930 0.071999
Si Si4 0.912612 0.803721 0.928729
Si Si5 0.726315 0.305690 0.570358
Si Si6 0.909462 0.136764 0.429125
Si Si7 0.584321 0.596441 0.428123
Si Si8 0.905387 0.020366 0.428867
O O1 0.380440 0.613121 0.750000
O O2 0.324120 0.552990 0.524672
O O3 0.351715 0.653518 0.483282
O O4 0.491229 0.590390 0.524638
O O5 0.741185 0.995487 0.750000
O O6 0.816335 0.987533 0.485693
O O7 0.649219 0.951915 0.526614
O O8 0.700512 0.703371 0.250000
O O9 0.807786 0.681526 0.017197
O O10 0.634570 0.649705 0.020762
O O11 0.667517 0.750000 0.000000
O O12 0.916740 0.798278 0.750000
O O13 0.987798 0.845968 0.987434
O O14 0.945299 0.750000 0.000000
O O15 0.703126 0.250000 0.500000
O O16 0.722020 0.301424 0.750000
O O17 0.828002 0.324926 0.510716
O O18 0.906937 0.137140 0.250000
O O19 0.890174 0.079046 0.488970
O O20 0.561657 0.596469 0.250000
O O21 0.913547 0.016874 0.250000
O O22 0.000000 0.000000 0.500000
#
# Coordination Sequence:
#
# PCOD8234534 Si02
#       8
#     8   8   8   8   8   8   8   8
#     4  11  23  40  61  89 120 153 195 253 309 360
#     4  10  22  41  64  89 119 155 200 249 301 361
#     4   9  19  35  57  82 113 150 188 234 288 346
#     4   9  17  32  53  79 108 143 184 226 275 334
#     4  11  22  39  61  89 121 160 205 250 305 366
#     4   9  19  35  58  83 114 154 194 236 290 353
#     4  10  22  39  62  88 114 156 202 246 303 365
#     4  11  23  39  60  89 123 161 197 240 298 357
#
# _framework density 19.734279000000001
#
# number of rings (size 3 to 8) (size 9 to 14) (size 15 to 20)
#    0.000    2.000    1.250    1.875    1.750    2.000 
#    0.000    3.125    0.000    0.000    0.000    0.000 
#    0.000    0.000    0.000    0.000    0.000    0.000 
#
# Total GULP energy -793725.786028 kJ/mol
# GULP energy per Si atom -12401.965407 kJ/mol
# Density = 1.968936 g / cm^3
# Si number density = 19.734279 Si / 1000 Ang^3
#
#
#
# Elastic Constant Matrix: (Units=GPa)
#
#
# Indices 1 2 3 4 5 6 
#
# 1 133.8206 57.1022 43.6817 0.0000 0.0000 0.0000
# 2 57.1022 123.3783 40.9535 0.0000 0.0000 0.0000
# 3 43.6817 40.9535 54.8922 0.0000 0.0000 0.0000
# 4 0.0000 0.0000 0.0000 29.0427 0.0000 0.0000
# 5 0.0000 0.0000 0.0000 0.0000 33.1218 0.0000
# 6 0.0000 0.0000 0.0000 0.0000 0.0000 33.5547
#
#
#
# Elastic Compliance Matrix: (Units=1/GPa)
#
#
# Indices 1 2 3 4 5 6 
#
# 1 0.010801 -0.002852 -0.006467 0.000000 0.000000 0.000000
# 2 -0.002852 0.011526 -0.006330 0.000000 0.000000 0.000000
# 3 -0.006467 -0.006330 0.028086 0.000000 0.000000 0.000000
# 4 0.000000 0.000000 0.000000 0.034432 0.000000 0.000000
# 5 0.000000 0.000000 0.000000 0.000000 0.030192 0.000000
# 6 0.000000 0.000000 0.000000 0.000000 0.000000 0.029802
#
#
# Mechanical properties :
#
#
# Convention : Reuss Voigt Hill
#
# Bulk Modulus (GPa) = 52.31384 66.17399 59.24391
# Shear Modulus (GPa) = 27.39600 30.50076 28.94838
#
# Velocity S-wave (km/s) = 3.72996 3.93564 3.83418
# Velocity P-wave (km/s) = 6.71690 7.36598 7.04892
#
# Compressibility (1/GPa) = 0.01911540
#
# Stress axis : x y z
#
# Youngs Moduli (GPa) = 92.58670 86.75836 35.60470
#
# Poissons Ratio (x) = 0.24745 0.23025
# Poissons Ratio (y) = 0.26408 0.22537
# Poissons Ratio (z) = 0.59875 0.54916
#
# Static dielectric constant tensor:
#      x y z
#    x 3.731770 0.000000 0.000000 
#    y 0.000000 3.629650 0.000000 
#    z 0.000000 0.000000 3.391300 
# 
# 
# High freq. dielectric constant tensor:
#      x y z
#    x 1.780740 0.000000 0.000000 
#    y 0.000000 1.775330 0.000000 
#    z 0.000000 0.000000 1.753480 
# 
# From -- ./inp_files/5613.got.cif
#   From: 2010.03.12/outbox.cif.g09.slc.cpg/sg57_3_cif.got.tgz:5613.got - 2010.04.16 15:48:40.
