data_PCOD8234328
_publ_section_title
;
Structure prediction by ZEFSAII (Michael W. Deem and Ramdas Pophale) SiO2 
 PCOD8234328
Probable space group: P B C M
;
_chemical_formula_sum "Si O2"
_cell_formula_units_Z 48
_cell_length_a 7.803140
_cell_length_b 19.328338
_cell_length_c 15.541432
_cell_angle_alpha 90.000000
_cell_angle_beta 90.000000
_cell_angle_gamma 90.000000
_cell_volume 2343.985620
_symmetry_space_group_name_H-M "P B C M"
_symmetry_group_IT_number 57
_symmetry_cell_setting 'orthorhombic'
loop_
_space_group_symop_operation_xyz
x,y,z
-x,-y,1/2+z
x,1/2-y,-z
-x,1/2+y,1/2-z
-x,-y,-z
x,y,1/2-z
-x,1/2+y,z
x,1/2-y,1/2+z
loop_
_atom_site_type_symbol
_atom_site_label
_atom_site_fract_x
_atom_site_fract_y
_atom_site_fract_z
Si Si1 0.407063 0.671569 0.848352
Si Si2 0.987117 0.330989 0.345939
Si Si3 0.043366 0.920950 0.502606
Si Si4 0.804786 0.903555 0.850288
Si Si5 0.282555 0.240551 0.403384
Si Si6 0.373055 0.965458 0.065537
O O1 0.454402 0.682113 0.750000
O O2 0.535528 0.720959 0.899486
O O3 0.453988 0.591432 0.870947
O O4 0.208608 0.693063 0.866515
O O5 0.987371 0.365012 0.250000
O O6 0.126359 0.269562 0.344966
O O7 0.045524 0.385330 0.419188
O O8 0.247677 0.918054 0.493486
O O9 0.976822 0.889708 0.592831
O O10 0.000000 0.000000 0.500000
O O11 0.852673 0.906999 0.750000
O O12 0.682970 0.838410 0.872707
O O13 0.716643 0.975357 0.877493
O O14 0.214996 0.250000 0.500000
O O15 0.500000 0.000000 0.000000
#
# Coordination Sequence:
#
# PCOD8234328 Si02
#       6
#     8   8   8   8   8   8
#     4  10  22  40  63  92 124 167 217 262 314 386
#     4  10  21  40  63  89 123 165 213 262 314 383
#     4   9  20  37  60  88 119 158 206 254 317 379
#     4  11  22  40  62  91 131 170 211 271 328 377
#     4  12  23  40  66  92 129 172 214 269 327 383
#     4  10  21  40  64  90 127 166 211 263 321 383
#
# _framework density 20.477941999999999
#
# number of rings (size 3 to 8) (size 9 to 14) (size 15 to 20)
#    0.000    1.667    1.667    3.000    2.333    4.667 
#    3.000    1.667    0.000    0.000    0.000    0.000 
#    0.000    0.000    0.000    0.000    0.000    0.000 
#
# Total GULP energy -594793.843126 kJ/mol
# GULP energy per Si atom -12391.538398 kJ/mol
# Density = 2.043133 g / cm^3
# Si number density = 20.477942 Si / 1000 Ang^3
#
#
#
# Elastic Constant Matrix: (Units=GPa)
#
#
# Indices 1 2 3 4 5 6 
#
# 1 82.9293 37.3650 41.6346 0.0000 0.0000 0.0000
# 2 37.3650 105.5420 34.9176 0.0000 0.0000 0.0000
# 3 41.6346 34.9176 151.8147 0.0000 0.0000 0.0000
# 4 0.0000 0.0000 0.0000 32.4174 0.0000 0.0000
# 5 0.0000 0.0000 0.0000 0.0000 26.3981 0.0000
# 6 0.0000 0.0000 0.0000 0.0000 0.0000 31.6223
#
#
#
# Elastic Compliance Matrix: (Units=1/GPa)
#
#
# Indices 1 2 3 4 5 6 
#
# 1 0.015725 -0.004481 -0.003282 0.000000 0.000000 0.000000
# 2 -0.004481 0.011532 -0.001423 0.000000 0.000000 0.000000
# 3 -0.003282 -0.001423 0.007814 0.000000 0.000000 0.000000
# 4 0.000000 0.000000 0.000000 0.030848 0.000000 0.000000
# 5 0.000000 0.000000 0.000000 0.000000 0.037882 0.000000
# 6 0.000000 0.000000 0.000000 0.000000 0.000000 0.031623
#
#
# Mechanical properties :
#
#
# Convention : Reuss Voigt Hill
#
# Bulk Modulus (GPa) = 59.88528 63.12448 61.50488
# Shear Modulus (GPa) = 31.37467 33.17881 32.27674
#
# Velocity S-wave (km/s) = 3.91848 4.02956 3.97441
# Velocity P-wave (km/s) = 7.05549 7.24861 7.15270
#
# Compressibility (1/GPa) = 0.01669860
#
# Stress axis : x y z
#
# Youngs Moduli (GPa) = 63.59181 86.71225 127.96870
#
# Poissons Ratio (x) = 0.38860 0.41998
# Poissons Ratio (y) = 0.28498 0.18216
# Poissons Ratio (z) = 0.20870 0.12343
#
# Static dielectric constant tensor:
#      x y z
#    x 3.243080 0.000000 0.000000 
#    y 0.000000 3.832070 0.000000 
#    z 0.000000 0.000000 5.153830 
# 
# 
# High freq. dielectric constant tensor:
#      x y z
#    x 1.788120 0.000000 0.000000 
#    y 0.000000 1.801120 0.000000 
#    z 0.000000 0.000000 1.809830 
# 
# From -- ./inp_files/16399.got.cif
#   From: 2010.03.12/outbox.cif.g09.slc.cpg/sg57_9_cif.got.tgz:16399.got - 2010.04.16 15:48:40.
