data_PCOD8234844
_publ_section_title
;
Structure prediction by ZEFSAII (Michael W. Deem and Ramdas Pophale) SiO2 
 PCOD8234844
Probable space group: P B C M
;
_chemical_formula_sum "Si O2"
_cell_formula_units_Z 36
_cell_length_a 15.643827
_cell_length_b 8.857839
_cell_length_c 13.167935
_cell_angle_alpha 90.000000
_cell_angle_beta 90.000000
_cell_angle_gamma 90.000000
_cell_volume 1824.687349
_symmetry_space_group_name_H-M "P B C M"
_symmetry_group_IT_number 57
_symmetry_cell_setting 'orthorhombic'
loop_
_space_group_symop_operation_xyz
x,y,z
-x,-y,1/2+z
x,1/2-y,-z
-x,1/2+y,1/2-z
-x,-y,-z
x,y,1/2-z
-x,1/2+y,z
x,1/2-y,1/2+z
loop_
_atom_site_type_symbol
_atom_site_label
_atom_site_fract_x
_atom_site_fract_y
_atom_site_fract_z
Si Si1 0.455400 0.995156 0.250000
Si Si2 0.991558 0.250000 0.000000
Si Si3 0.270223 0.114535 0.568787
Si Si4 0.908458 0.507467 0.869537
Si Si5 0.385410 0.186789 0.750000
Si Si6 0.412963 0.920270 0.465962
O O1 0.451345 0.175465 0.250000
O O2 0.557185 0.963775 0.250000
O O3 0.406765 0.923558 0.345015
O O4 0.047703 0.349749 0.076603
O O5 0.933903 0.145764 0.072695
O O6 0.233460 0.250000 0.500000
O O7 0.193326 0.023809 0.620504
O O8 0.327117 0.197389 0.651988
O O9 0.328115 0.997828 0.507692
O O10 0.933780 0.500107 0.750000
O O11 0.416618 0.750000 0.500000
O O12 0.500000 0.000000 0.500000
#
# Coordination Sequence:
#
# PCOD8234844 Si02
#       6
#     4   4   8   8   4   8
#     4  12  24  40  64  88 124 175 223 267 324 377
#     4  10  24  44  70 104 134 170 216 272 336 404
#     4  12  24  42  64  97 132 173 215 274 326 391
#     4  11  23  44  72 100 135 174 218 269 335 403
#     4  12  24  40  64  92 128 173 229 267 330 389
#     4  12  25  41  62  90 126 169 219 268 320 376
#
# _framework density 19.729406999999998
#
# number of rings (size 3 to 8) (size 9 to 14) (size 15 to 20)
#    0.000    0.444    6.667    2.667    1.556    0.000 
#    0.000    0.000    4.889    0.000    0.000    0.000 
#    0.000    0.000    0.000    0.000    0.000    0.000 
#
# Total GULP energy -446510.424296 kJ/mol
# GULP energy per Si atom -12403.067342 kJ/mol
# Density = 1.968450 g / cm^3
# Si number density = 19.729407 Si / 1000 Ang^3
#
#
#
# Elastic Constant Matrix: (Units=GPa)
#
#
# Indices 1 2 3 4 5 6 
#
# 1 98.9712 52.6790 42.4164 0.0000 0.0000 0.0000
# 2 52.6790 138.5195 63.1890 0.0000 0.0000 0.0000
# 3 42.4164 63.1890 167.4880 0.0000 0.0000 0.0000
# 4 0.0000 0.0000 0.0000 34.6514 0.0000 0.0000
# 5 0.0000 0.0000 0.0000 0.0000 30.9785 0.0000
# 6 0.0000 0.0000 0.0000 0.0000 0.0000 31.0999
#
#
#
# Elastic Compliance Matrix: (Units=1/GPa)
#
#
# Indices 1 2 3 4 5 6 
#
# 1 0.013072 -0.004181 -0.001733 0.000000 0.000000 0.000000
# 2 -0.004181 0.010057 -0.002735 0.000000 0.000000 0.000000
# 3 -0.001733 -0.002735 0.007442 0.000000 0.000000 0.000000
# 4 0.000000 0.000000 0.000000 0.028859 0.000000 0.000000
# 5 0.000000 0.000000 0.000000 0.000000 0.032280 0.000000
# 6 0.000000 0.000000 0.000000 0.000000 0.000000 0.032154
#
#
# Mechanical properties :
#
#
# Convention : Reuss Voigt Hill
#
# Bulk Modulus (GPa) = 75.34785 80.17195 77.75990
# Shear Modulus (GPa) = 34.34378 35.79226 35.06802
#
# Velocity S-wave (km/s) = 4.17674 4.26391 4.22055
# Velocity P-wave (km/s) = 7.84435 8.06010 7.95296
#
# Compressibility (1/GPa) = 0.01327178
#
# Stress axis : x y z
#
# Youngs Moduli (GPa) = 76.49958 99.43371 134.38052
#
# Poissons Ratio (x) = 0.41569 0.23291
# Poissons Ratio (y) = 0.31982 0.36760
# Poissons Ratio (z) = 0.13259 0.27200
#
# Static dielectric constant tensor:
#      x y z
#    x 3.515090 0.000000 0.000000 
#    y 0.000000 3.586940 0.000000 
#    z 0.000000 0.000000 3.921900 
# 
# 
# High freq. dielectric constant tensor:
#      x y z
#    x 1.763460 0.000000 0.000000 
#    y 0.000000 1.777000 0.000000 
#    z 0.000000 0.000000 1.791990 
# 
# From -- ./inp_files/18161.got.cif
#   From: 2010.03.12/outbox.cif.g09.slc.cpg/sg57_10_cif.got.tgz:18161.got - 2010.04.16 15:48:40.
