data_PCOD8234817
_publ_section_title
;
Structure prediction by ZEFSAII (Michael W. Deem and Ramdas Pophale) SiO2 
 PCOD8234817
Probable space group: P B C M
;
_chemical_formula_sum "Si O2"
_cell_formula_units_Z 32
_cell_length_a 29.075866
_cell_length_b 4.984734
_cell_length_c 9.209438
_cell_angle_alpha 90.000000
_cell_angle_beta 90.000000
_cell_angle_gamma 90.000000
_cell_volume 1334.774113
_symmetry_space_group_name_H-M "P B C M"
_symmetry_group_IT_number 57
_symmetry_cell_setting 'orthorhombic'
loop_
_space_group_symop_operation_xyz
x,y,z
-x,-y,1/2+z
x,1/2-y,-z
-x,1/2+y,1/2-z
-x,-y,-z
x,y,1/2-z
-x,1/2+y,z
x,1/2-y,1/2+z
loop_
_atom_site_type_symbol
_atom_site_label
_atom_site_fract_x
_atom_site_fract_y
_atom_site_fract_z
Si Si1 0.399539 0.913360 0.750000
Si Si2 0.275390 0.250000 0.500000
Si Si3 0.785613 0.593027 0.750000
Si Si4 0.338404 0.432164 0.750000
Si Si5 0.466649 0.750000 0.500000
Si Si6 0.090810 0.750000 0.000000
Si Si7 0.030858 0.979591 0.750000
Si Si8 0.848036 0.093869 0.750000
O O1 0.353935 0.737777 0.750000
O O2 0.431455 0.824685 0.621848
O O3 0.381805 0.222591 0.750000
O O4 0.244412 0.443165 0.397049
O O5 0.307937 0.418525 0.605759
O O6 0.828007 0.393351 0.750000
O O7 0.805653 0.893014 0.750000
O O8 0.500000 0.500000 0.500000
O O9 0.060213 0.561528 0.103723
O O10 0.121569 0.941256 0.104154
O O11 0.986709 0.784200 0.750000
#
# Coordination Sequence:
#
# PCOD8234817 Si02
#       8
#     4   4   4   4   4   4   4   4
#     4  12  24  42  64  90 124 160 200 250 300 354
#     4  10  24  41  64  91 122 160 202 247 300 357
#     4  11  24  41  64  90 124 160 200 250 300 357
#     4  11  24  41  62  91 122 158 202 247 298 357
#     4  12  24  41  64  91 122 160 202 247 300 357
#     4  10  24  40  64  90 122 160 202 250 300 360
#     4  11  24  41  62  90 122 160 202 250 302 357
#     4  11  24  41  62  91 122 158 202 247 302 357
#
# _framework density 23.974093
#
# number of rings (size 3 to 8) (size 9 to 14) (size 15 to 20)
#    0.000    1.000    0.000    6.000    0.000   12.000 
#    0.000    0.000    0.000    0.000    0.000    0.000 
#    0.000    0.000    0.000    0.000    0.000    0.000 
#
# Total GULP energy -396622.448403 kJ/mol
# GULP energy per Si atom -12394.451513 kJ/mol
# Density = 2.391953 g / cm^3
# Si number density = 23.974093 Si / 1000 Ang^3
#
#
#
# Elastic Constant Matrix: (Units=GPa)
#
#
# Indices 1 2 3 4 5 6 
#
# 1 122.9224 17.3777 62.9653 0.0000 0.0000 0.0000
# 2 17.3777 69.5127 8.6204 0.0000 0.0000 0.0000
# 3 62.9653 8.6204 182.5304 0.0000 0.0000 0.0000
# 4 0.0000 0.0000 0.0000 13.7306 0.0000 0.0000
# 5 0.0000 0.0000 0.0000 0.0000 6.3237 0.0000
# 6 0.0000 0.0000 0.0000 0.0000 0.0000 21.8952
#
#
#
# Elastic Compliance Matrix: (Units=1/GPa)
#
#
# Indices 1 2 3 4 5 6 
#
# 1 0.010183 -0.002123 -0.003413 0.000000 0.000000 0.000000
# 2 -0.002123 0.014913 0.000028 0.000000 0.000000 0.000000
# 3 -0.003413 0.000028 0.006654 0.000000 0.000000 0.000000
# 4 0.000000 0.000000 0.000000 0.072830 0.000000 0.000000
# 5 0.000000 0.000000 0.000000 0.000000 0.158134 0.000000
# 6 0.000000 0.000000 0.000000 0.000000 0.000000 0.045672
#
#
# Mechanical properties :
#
#
# Convention : Reuss Voigt Hill
#
# Bulk Modulus (GPa) = 48.22467 61.43249 54.82858
# Shear Modulus (GPa) = 15.32269 27.45671 21.38970
#
# Velocity S-wave (km/s) = 2.53086 3.38785 2.99021
# Velocity P-wave (km/s) = 5.35717 6.40184 5.90266
#
# Compressibility (1/GPa) = 0.02073627
#
# Stress axis : x y z
#
# Youngs Moduli (GPa) = 98.19974 67.05548 150.27610
#
# Poissons Ratio (x) = 0.14233 0.51283
# Poissons Ratio (y) = 0.20844 -0.00419
# Poissons Ratio (z) = 0.33511 -0.00187
#
# Static dielectric constant tensor:
#      x y z
#    x 4.606290 0.000000 0.000000 
#    y 0.000000 3.991040 0.000000 
#    z 0.000000 0.000000 8.914740 
# 
# 
# High freq. dielectric constant tensor:
#      x y z
#    x 1.980340 0.000000 0.000000 
#    y 0.000000 1.930600 0.000000 
#    z 0.000000 0.000000 1.976200 
# 
# From -- ./inp_files/9604.got.cif
#   From: 2010.03.12/outbox.cif.g09.slc.cpg/sg57_5_cif.got.tgz:9604.got - 2010.04.16 15:48:40.
