data_PCOD8234129
_publ_section_title
;
Structure prediction by ZEFSAII (Michael W. Deem and Ramdas Pophale) SiO2 
 PCOD8234129
Probable space group: P B C M
;
_chemical_formula_sum "Si O2"
_cell_formula_units_Z 56
_cell_length_a 15.406453
_cell_length_b 19.884999
_cell_length_c 8.954779
_cell_angle_alpha 90.000000
_cell_angle_beta 90.000000
_cell_angle_gamma 90.000000
_cell_volume 2743.361939
_symmetry_space_group_name_H-M "P B C M"
_symmetry_group_IT_number 57
_symmetry_cell_setting 'orthorhombic'
loop_
_space_group_symop_operation_xyz
x,y,z
-x,-y,1/2+z
x,1/2-y,-z
-x,1/2+y,1/2-z
-x,-y,-z
x,y,1/2-z
-x,1/2+y,z
x,1/2-y,1/2+z
loop_
_atom_site_type_symbol
_atom_site_label
_atom_site_fract_x
_atom_site_fract_y
_atom_site_fract_z
Si Si1 0.533285 0.318975 0.077405
Si Si2 0.328923 0.180902 0.576953
Si Si3 0.071758 0.454994 0.923873
Si Si4 0.342013 0.920397 0.573415
Si Si5 0.999355 0.183289 0.425091
Si Si6 0.803232 0.183138 0.424360
Si Si7 0.732015 0.953277 0.926408
O O1 0.561515 0.316479 0.250000
O O2 0.431311 0.328497 0.058306
O O3 0.564815 0.250000 0.000000
O O4 0.575590 0.382873 0.996284
O O5 0.298211 0.250000 0.500000
O O6 0.301649 0.182174 0.750000
O O7 0.281736 0.120164 0.493841
O O8 0.052834 0.460252 0.750000
O O9 0.169550 0.476722 0.963667
O O10 0.059041 0.378224 0.977288
O O11 0.000000 0.500000 0.000000
O O12 0.355275 0.927346 0.750000
O O13 0.255341 0.879882 0.529572
O O14 0.334033 0.994339 0.502260
O O15 0.037766 0.250000 0.500000
O O16 0.001484 0.194482 0.250000
O O17 0.900912 0.169077 0.480593
O O18 0.764821 0.250000 0.500000
O O19 0.799753 0.195842 0.250000
O O20 0.715182 0.950685 0.750000
#
# Coordination Sequence:
#
# PCOD8234129 Si02
#       7
#     8   8   8   8   8   8   8
#     4  10  21  38  61  89 119 153 193 236 284 340
#     4  10  22  42  66  89 116 152 193 239 291 345
#     4  10  22  39  59  83 113 150 192 238 288 344
#     4  11  22  36  56  83 116 155 196 238 288 345
#     4   9  18  34  53  76 106 139 180 228 277 331
#     4   9  18  31  50  76 108 146 185 227 276 333
#     4  11  24  40  59  86 117 151 194 243 294 347
#
# _framework density 20.41291
#
# number of rings (size 3 to 8) (size 9 to 14) (size 15 to 20)
#    0.000    2.000    0.000    3.000    0.000    8.000 
#    0.000    4.286    0.000    0.000    0.000    0.000 
#    0.000    0.000    0.000    0.000    0.000    0.000 
#
# Total GULP energy -694583.438113 kJ/mol
# GULP energy per Si atom -12403.275681 kJ/mol
# Density = 2.036645 g / cm^3
# Si number density = 20.412910 Si / 1000 Ang^3
#
#
#
# Elastic Constant Matrix: (Units=GPa)
#
#
# Indices 1 2 3 4 5 6 
#
# 1 48.1517 35.5000 40.8073 0.0000 0.0000 0.0000
# 2 35.5000 137.7664 61.6380 0.0000 0.0000 0.0000
# 3 40.8073 61.6380 102.8607 0.0000 0.0000 0.0000
# 4 0.0000 0.0000 0.0000 43.2479 0.0000 0.0000
# 5 0.0000 0.0000 0.0000 0.0000 26.4226 0.0000
# 6 0.0000 0.0000 0.0000 0.0000 0.0000 33.4251
#
#
#
# Elastic Compliance Matrix: (Units=1/GPa)
#
#
# Indices 1 2 3 4 5 6 
#
# 1 0.032518 -0.003563 -0.010766 0.000000 0.000000 0.000000
# 2 -0.003563 0.010308 -0.004764 0.000000 0.000000 0.000000
# 3 -0.010766 -0.004764 0.016847 0.000000 0.000000 0.000000
# 4 0.000000 0.000000 0.000000 0.023123 0.000000 0.000000
# 5 0.000000 0.000000 0.000000 0.000000 0.037846 0.000000
# 6 0.000000 0.000000 0.000000 0.000000 0.000000 0.029918
#
#
# Mechanical properties :
#
#
# Convention : Reuss Voigt Hill
#
# Bulk Modulus (GPa) = 46.53448 62.74107 54.63778
# Shear Modulus (GPa) = 25.52232 30.67468 28.09850
#
# Velocity S-wave (km/s) = 3.53980 3.88069 3.71415
# Velocity P-wave (km/s) = 6.28912 7.13319 6.72441
#
# Compressibility (1/GPa) = 0.02148944
#
# Stress axis : x y z
#
# Youngs Moduli (GPa) = 30.75221 97.01270 59.35619
#
# Poissons Ratio (x) = 0.34562 0.63902
# Poissons Ratio (y) = 0.10956 0.28275
# Poissons Ratio (z) = 0.33107 0.46212
#
# Static dielectric constant tensor:
#      x y z
#    x 3.681710 0.000000 0.000000 
#    y 0.000000 3.797100 0.000000 
#    z 0.000000 0.000000 3.670690 
# 
# 
# High freq. dielectric constant tensor:
#      x y z
#    x 1.793450 0.000000 0.000000 
#    y 0.000000 1.805260 0.000000 
#    z 0.000000 0.000000 1.799820 
# 
# From -- ./inp_files/5211.got.cif
#   From: 2010.03.12/outbox.cif.g09.slc.cpg/sg57_3_cif.got.tgz:5211.got - 2010.04.16 15:48:40.
