data_PCOD8234090
_publ_section_title
;
Structure prediction by ZEFSAII (Michael W. Deem and Ramdas Pophale) SiO2 
 PCOD8234090
Probable space group: P B C M
;
_chemical_formula_sum "Si O2"
_cell_formula_units_Z 48
_cell_length_a 30.548193
_cell_length_b 9.153080
_cell_length_c 8.666135
_cell_angle_alpha 90.000000
_cell_angle_beta 90.000000
_cell_angle_gamma 90.000000
_cell_volume 2423.138479
_symmetry_space_group_name_H-M "P B C M"
_symmetry_group_IT_number 57
_symmetry_cell_setting 'orthorhombic'
loop_
_space_group_symop_operation_xyz
x,y,z
-x,-y,1/2+z
x,1/2-y,-z
-x,1/2+y,1/2-z
-x,-y,-z
x,y,1/2-z
-x,1/2+y,z
x,1/2-y,1/2+z
loop_
_atom_site_type_symbol
_atom_site_label
_atom_site_fract_x
_atom_site_fract_y
_atom_site_fract_z
Si Si1 0.624620 0.090156 0.068362
Si Si2 0.784796 0.407525 0.067039
Si Si3 0.708307 0.591382 0.933200
Si Si4 0.877780 0.402711 0.568747
Si Si5 0.540235 0.588761 0.933103
Si Si6 0.038896 0.408196 0.429802
O O1 0.623996 0.105633 0.250000
O O2 0.669308 0.014681 0.012027
O O3 0.584327 0.991459 0.011426
O O4 0.620468 0.250000 0.000000
O O5 0.781943 0.400838 0.250000
O O6 0.771262 0.250000 0.000000
O O7 0.753187 0.531725 0.003037
O O8 0.833391 0.452254 0.014764
O O9 0.711970 0.600095 0.750000
O O10 0.698365 0.750000 0.000000
O O11 0.894583 0.250000 0.500000
O O12 0.868774 0.384570 0.750000
O O13 0.914430 0.521258 0.531258
O O14 0.536539 0.596208 0.750000
O O15 0.540208 0.750000 0.000000
O O16 0.500000 0.500000 0.000000
O O17 0.038538 0.250000 0.500000
O O18 0.030569 0.397857 0.250000
O O19 0.000000 0.500000 0.500000
#
# Coordination Sequence:
#
# PCOD8234090 Si02
#       6
#     8   8   8   8   8   8
#     4  10  23  40  61  87 117 153 196 242 292 348
#     4  11  22  38  61  88 118 155 195 240 289 345
#     4  11  23  40  60  86 118 154 195 242 293 348
#     4  10  21  38  60  87 117 153 195 241 290 346
#     4  11  23  40  61  89 121 157 198 243 293 348
#     4  11  24  40  61  87 118 154 195 240 290 345
#
# _framework density 19.809021000000001
#
# number of rings (size 3 to 8) (size 9 to 14) (size 15 to 20)
#    0.000    1.333    0.000    6.500    0.000   10.000 
#    0.000    1.667    0.000    0.000    0.000    0.000 
#    0.000    0.000    0.000    0.000    0.000    0.000 
#
# Total GULP energy -595463.932107 kJ/mol
# GULP energy per Si atom -12405.498586 kJ/mol
# Density = 1.976394 g / cm^3
# Si number density = 19.809021 Si / 1000 Ang^3
#
#
#
# Elastic Constant Matrix: (Units=GPa)
#
#
# Indices 1 2 3 4 5 6 
#
# 1 126.5126 91.2053 68.9698 0.0000 0.0000 0.0000
# 2 91.2053 180.3296 65.7259 0.0000 0.0000 0.0000
# 3 68.9698 65.7259 108.6222 0.0000 0.0000 0.0000
# 4 0.0000 0.0000 0.0000 41.8236 0.0000 0.0000
# 5 0.0000 0.0000 0.0000 0.0000 31.1042 0.0000
# 6 0.0000 0.0000 0.0000 0.0000 0.0000 59.3637
#
#
#
# Elastic Compliance Matrix: (Units=1/GPa)
#
#
# Indices 1 2 3 4 5 6 
#
# 1 0.015312 -0.005389 -0.006461 0.000000 0.000000 0.000000
# 2 -0.005389 0.009011 -0.002031 0.000000 0.000000 0.000000
# 3 -0.006461 -0.002031 0.014538 0.000000 0.000000 0.000000
# 4 0.000000 0.000000 0.000000 0.023910 0.000000 0.000000
# 5 0.000000 0.000000 0.000000 0.000000 0.032150 0.000000
# 6 0.000000 0.000000 0.000000 0.000000 0.000000 0.016845
#
#
# Mechanical properties :
#
#
# Convention : Reuss Voigt Hill
#
# Bulk Modulus (GPa) = 90.10468 96.36294 93.23381
# Shear Modulus (GPa) = 34.90919 39.09585 37.00252
#
# Velocity S-wave (km/s) = 4.20251 4.44739 4.32668
# Velocity P-wave (km/s) = 8.31466 8.66740 8.49287
#
# Compressibility (1/GPa) = 0.01109820
#
# Stress axis : x y z
#
# Youngs Moduli (GPa) = 65.30733 110.97160 68.78709
#
# Poissons Ratio (x) = 0.59807 0.44446
# Poissons Ratio (y) = 0.35197 0.13968
# Poissons Ratio (z) = 0.42198 0.22534
#
# Static dielectric constant tensor:
#      x y z
#    x 4.613300 0.000000 0.000000 
#    y 0.000000 4.015390 0.000000 
#    z 0.000000 0.000000 3.747080 
# 
# 
# High freq. dielectric constant tensor:
#      x y z
#    x 1.790340 0.000000 0.000000 
#    y 0.000000 1.782480 0.000000 
#    z 0.000000 0.000000 1.786220 
# 
# From -- ./inp_files/9895.got.cif
#   From: 2010.03.12/outbox.cif.g09.slc.cpg/sg57_5_cif.got.tgz:9895.got - 2010.04.16 15:48:40.
