data_PCOD8234716
_publ_section_title
;
Structure prediction by ZEFSAII (Michael W. Deem and Ramdas Pophale) SiO2 
 PCOD8234716
Probable space group: P B C M
;
_chemical_formula_sum "Si O2"
_cell_formula_units_Z 64
_cell_length_a 12.394791
_cell_length_b 28.512329
_cell_length_c 8.902674
_cell_angle_alpha 90.000000
_cell_angle_beta 90.000000
_cell_angle_gamma 90.000000
_cell_volume 3146.243797
_symmetry_space_group_name_H-M "P B C M"
_symmetry_group_IT_number 57
_symmetry_cell_setting 'orthorhombic'
loop_
_space_group_symop_operation_xyz
x,y,z
-x,-y,1/2+z
x,1/2-y,-z
-x,1/2+y,1/2-z
-x,-y,-z
x,y,1/2-z
-x,1/2+y,z
x,1/2-y,1/2+z
loop_
_atom_site_type_symbol
_atom_site_label
_atom_site_fract_x
_atom_site_fract_y
_atom_site_fract_z
Si Si1 0.510022 0.297575 0.073414
Si Si2 0.609695 0.518011 0.927724
Si Si3 0.010239 0.549159 0.577719
Si Si4 0.295180 0.845887 0.572755
Si Si5 0.335656 0.375983 0.075438
Si Si6 0.741937 0.059827 0.923398
Si Si7 0.886611 0.630919 0.427351
Si Si8 0.929329 0.299944 0.574564
O O1 0.525423 0.290305 0.250000
O O2 0.431066 0.340390 0.036307
O O3 0.463270 0.250000 0.000000
O O4 0.624897 0.307922 0.997903
O O5 0.603759 0.511688 0.750000
O O6 0.628015 0.572025 0.973158
O O7 0.500000 0.500000 0.000000
O O8 0.708805 0.487974 0.993240
O O9 0.976867 0.544056 0.750000
O O10 0.131026 0.568208 0.558859
O O11 0.000000 0.500000 0.500000
O O12 0.924997 0.582798 0.500037
O O13 0.313459 0.849369 0.750000
O O14 0.318931 0.896448 0.499227
O O15 0.174822 0.830185 0.529994
O O16 0.304629 0.374454 0.250000
O O17 0.233879 0.358323 0.980330
O O18 0.706216 0.056680 0.750000
O O19 0.891326 0.624970 0.250000
O O20 0.964305 0.672869 0.482015
O O21 0.924502 0.250000 0.500000
O O22 0.933623 0.291475 0.750000
#
# Coordination Sequence:
#
# PCOD8234716 Si02
#       8
#     8   8   8   8   8   8   8   8
#     4  11  24  43  66  94 127 163 211 266 323 388
#     4  11  23  40  63  91 125 166 213 264 318 378
#     4  11  23  38  60  89 123 165 208 254 309 369
#     4  11  22  40  65  94 128 164 208 264 322 379
#     4  10  24  44  64  89 125 167 211 263 317 376
#     4  11  23  38  59  90 126 166 209 256 314 379
#     4  11  23  41  63  90 125 163 210 261 311 377
#     4  10  23  40  61  91 125 163 207 259 316 373
#
# _framework density 20.341716999999999
#
# number of rings (size 3 to 8) (size 9 to 14) (size 15 to 20)
#    0.000    1.250    1.250    4.125    0.000   10.000 
#    0.000    2.500    0.000    0.000    0.000    0.000 
#    0.000    0.000    0.000    0.000    0.000    0.000 
#
# Total GULP energy -794042.591093 kJ/mol
# GULP energy per Si atom -12406.915486 kJ/mol
# Density = 2.029542 g / cm^3
# Si number density = 20.341717 Si / 1000 Ang^3
#
#
#
# Elastic Constant Matrix: (Units=GPa)
#
#
# Indices 1 2 3 4 5 6 
#
# 1 92.5078 33.5219 56.7461 0.0000 0.0000 0.0000
# 2 33.5219 143.0917 61.2253 0.0000 0.0000 0.0000
# 3 56.7461 61.2253 103.0188 0.0000 0.0000 0.0000
# 4 0.0000 0.0000 0.0000 39.7489 0.0000 0.0000
# 5 0.0000 0.0000 0.0000 0.0000 38.0762 0.0000
# 6 0.0000 0.0000 0.0000 0.0000 0.0000 36.4722
#
#
#
# Elastic Compliance Matrix: (Units=1/GPa)
#
#
# Indices 1 2 3 4 5 6 
#
# 1 0.016327 0.000031 -0.009012 0.000000 0.000000 0.000000
# 2 0.000031 0.009372 -0.005587 0.000000 0.000000 0.000000
# 3 -0.009012 -0.005587 0.017991 0.000000 0.000000 0.000000
# 4 0.000000 0.000000 0.000000 0.025158 0.000000 0.000000
# 5 0.000000 0.000000 0.000000 0.000000 0.026263 0.000000
# 6 0.000000 0.000000 0.000000 0.000000 0.000000 0.027418
#
#
# Mechanical properties :
#
#
# Convention : Reuss Voigt Hill
#
# Bulk Modulus (GPa) = 68.70672 71.28944 69.99808
# Shear Modulus (GPa) = 31.94580 35.33446 33.64013
#
# Velocity S-wave (km/s) = 3.96720 4.17231 4.07105
# Velocity P-wave (km/s) = 7.40503 7.63760 7.52221
#
# Compressibility (1/GPa) = 0.01455462
#
# Stress axis : x y z
#
# Youngs Moduli (GPa) = 61.24980 106.70405 55.58269
#
# Poissons Ratio (x) = -0.00331 0.50089
# Poissons Ratio (y) = -0.00190 0.31053
# Poissons Ratio (z) = 0.55196 0.59614
#
# Static dielectric constant tensor:
#      x y z
#    x 3.896020 0.000000 0.000000 
#    y 0.000000 3.728490 0.000000 
#    z 0.000000 0.000000 3.720970 
# 
# 
# High freq. dielectric constant tensor:
#      x y z
#    x 1.800960 0.000000 0.000000 
#    y 0.000000 1.805670 0.000000 
#    z 0.000000 0.000000 1.803150 
# 
# From -- ./inp_files/3836.got.cif
#   From: 2010.03.12/outbox.cif.g09.slc.cpg/sg57_2_cif.got.tgz:3836.got - 2010.04.16 15:48:40.
