data_PCOD8234989
_publ_section_title
;
Structure prediction by ZEFSAII (Michael W. Deem and Ramdas Pophale) SiO2 
 PCOD8234989
Probable space group: P B C M
;
_chemical_formula_sum "Si O2"
_cell_formula_units_Z 48
_cell_length_a 30.405875
_cell_length_b 9.499480
_cell_length_c 8.582031
_cell_angle_alpha 90.000000
_cell_angle_beta 90.000000
_cell_angle_gamma 90.000000
_cell_volume 2478.833846
_symmetry_space_group_name_H-M "P B C M"
_symmetry_group_IT_number 57
_symmetry_cell_setting 'orthorhombic'
loop_
_space_group_symop_operation_xyz
x,y,z
-x,-y,1/2+z
x,1/2-y,-z
-x,1/2+y,1/2-z
-x,-y,-z
x,y,1/2-z
-x,1/2+y,z
x,1/2-y,1/2+z
loop_
_atom_site_type_symbol
_atom_site_label
_atom_site_fract_x
_atom_site_fract_y
_atom_site_fract_z
Si Si1 0.706795 0.594533 0.565200
Si Si2 0.462146 0.903136 0.564996
Si Si3 0.368984 0.597077 0.934558
Si Si4 0.116609 0.898175 0.566085
Si Si5 0.784998 0.102866 0.066754
Si Si6 0.038812 0.405892 0.434289
O O1 0.708716 0.750000 0.500000
O O2 0.699869 0.593526 0.750000
O O3 0.667089 0.515061 0.483245
O O4 0.752385 0.520826 0.514759
O O5 0.471929 0.750000 0.500000
O O6 0.462279 0.902402 0.750000
O O7 0.415052 0.957027 0.504361
O O8 0.500000 0.000000 0.500000
O O9 0.372861 0.607421 0.750000
O O10 0.356063 0.750000 0.000000
O O11 0.099116 0.750000 0.500000
O O12 0.116254 0.885073 0.750000
O O13 0.165884 0.930565 0.502986
O O14 0.084765 0.023798 0.511113
O O15 0.785826 0.118272 0.250000
O O16 0.767234 0.250000 0.000000
O O17 0.036084 0.250000 0.500000
O O18 0.034817 0.399897 0.250000
O O19 0.000000 0.500000 0.500000
#
# Coordination Sequence:
#
# PCOD8234989 Si02
#       6
#     8   8   8   8   8   8
#     4  11  23  38  56  82 114 148 186 233 283 333
#     4  11  22  39  61  88 118 151 190 233 281 334
#     4  11  22  39  61  85 113 149 190 232 278 333
#     4   9  19  36  57  82 110 143 182 228 276 330
#     4   9  19  36  58  82 110 144 185 227 275 332
#     4  11  23  38  57  81 112 147 187 231 281 334
#
# _framework density 19.363944
#
# number of rings (size 3 to 8) (size 9 to 14) (size 15 to 20)
#    0.000    1.667    0.000    6.000    0.000    6.667 
#    0.000    3.333    0.000    0.000    0.000    0.000 
#    0.000    0.000    0.000    0.000    0.000    0.000 
#
# Total GULP energy -595317.263058 kJ/mol
# GULP energy per Si atom -12402.442980 kJ/mol
# Density = 1.931987 g / cm^3
# Si number density = 19.363944 Si / 1000 Ang^3
#
#
#
# Elastic Constant Matrix: (Units=GPa)
#
#
# Indices 1 2 3 4 5 6 
#
# 1 145.9366 102.8415 58.3462 0.0000 0.0000 0.0000
# 2 102.8415 157.2277 54.4412 0.0000 0.0000 0.0000
# 3 58.3462 54.4412 112.6090 0.0000 0.0000 0.0000
# 4 0.0000 0.0000 0.0000 37.1949 0.0000 0.0000
# 5 0.0000 0.0000 0.0000 0.0000 28.1993 0.0000
# 6 0.0000 0.0000 0.0000 0.0000 0.0000 40.2966
#
#
#
# Elastic Compliance Matrix: (Units=1/GPa)
#
#
# Indices 1 2 3 4 5 6 
#
# 1 0.013670 -0.007793 -0.003315 0.000000 0.000000 0.000000
# 2 -0.007793 0.012082 -0.001803 0.000000 0.000000 0.000000
# 3 -0.003315 -0.001803 0.011470 0.000000 0.000000 0.000000
# 4 0.000000 0.000000 0.000000 0.026885 0.000000 0.000000
# 5 0.000000 0.000000 0.000000 0.000000 0.035462 0.000000
# 6 0.000000 0.000000 0.000000 0.000000 0.000000 0.024816
#
#
# Mechanical properties :
#
#
# Convention : Reuss Voigt Hill
#
# Bulk Modulus (GPa) = 87.73134 94.11457 90.92296
# Shear Modulus (GPa) = 32.46604 34.48110 33.47357
#
# Velocity S-wave (km/s) = 4.09910 4.22440 4.16222
# Velocity P-wave (km/s) = 8.23459 8.51484 8.37589
#
# Compressibility (1/GPa) = 0.01139844
#
# Stress axis : x y z
#
# Youngs Moduli (GPa) = 73.15500 82.76659 87.18711
#
# Poissons Ratio (x) = 0.64503 0.28902
# Poissons Ratio (y) = 0.57013 0.15721
# Poissons Ratio (z) = 0.24250 0.14924
#
# Static dielectric constant tensor:
#      x y z
#    x 4.020190 0.000000 0.000000 
#    y 0.000000 3.547580 0.000000 
#    z 0.000000 0.000000 3.620540 
# 
# 
# High freq. dielectric constant tensor:
#      x y z
#    x 1.770130 0.000000 0.000000 
#    y 0.000000 1.753590 0.000000 
#    z 0.000000 0.000000 1.763830 
# 
# From -- ./inp_files/10007.got.cif
#   From: 2010.03.12/outbox.cif.g09.slc.cpg/sg57_6_cif.got.tgz:10007.got - 2010.04.16 15:48:40.
