data_PCOD8234924
_publ_section_title
;
Structure prediction by ZEFSAII (Michael W. Deem and Ramdas Pophale) SiO2 
 PCOD8234924
Probable space group: P B C M
;
_chemical_formula_sum "Si O2"
_cell_formula_units_Z 32
_cell_length_a 11.581464
_cell_length_b 17.675068
_cell_length_c 8.447453
_cell_angle_alpha 90.000000
_cell_angle_beta 90.000000
_cell_angle_gamma 90.000000
_cell_volume 1729.220355
_symmetry_space_group_name_H-M "P B C M"
_symmetry_group_IT_number 57
_symmetry_cell_setting 'orthorhombic'
loop_
_space_group_symop_operation_xyz
x,y,z
-x,-y,1/2+z
x,1/2-y,-z
-x,1/2+y,1/2-z
-x,-y,-z
x,y,1/2-z
-x,1/2+y,z
x,1/2-y,1/2+z
loop_
_atom_site_type_symbol
_atom_site_label
_atom_site_fract_x
_atom_site_fract_y
_atom_site_fract_z
Si Si1 0.563167 0.114706 0.429232
Si Si2 0.874580 0.483425 0.935534
Si Si3 0.346075 0.036004 0.065476
Si Si4 0.778756 0.328740 0.067431
O O1 0.586902 0.141153 0.250000
O O2 0.424117 0.111975 0.464641
O O3 0.638663 0.168811 0.542756
O O4 0.606410 0.028992 0.450406
O O5 0.872128 0.496229 0.750000
O O6 0.788240 0.544953 0.017780
O O7 0.838224 0.397572 0.975334
O O8 0.000000 0.500000 0.000000
O O9 0.355908 0.011992 0.250000
O O10 0.810123 0.335528 0.250000
O O11 0.827731 0.250000 0.000000
#
# Coordination Sequence:
#
# PCOD8234924 Si02
#       4
#     8   8   8   8
#     4   9  16  27  45  70  98 126 157 195 242 294
#     4  11  21  34  52  75 103 136 177 219 260 306
#     4   9  16  27  45  70  98 126 158 198 244 291
#     4  11  21  34  52  75 103 134 170 212 261 313
#
# _framework density 18.50545
#
# number of rings (size 3 to 8) (size 9 to 14) (size 15 to 20)
#    0.000    2.000    0.000    9.000    0.000    3.000 
#    0.000    0.000    0.000    1.500    0.000    3.500 
#    0.000    0.000    0.000    0.000    0.000    0.000 
#
# Total GULP energy -396459.606731 kJ/mol
# GULP energy per Si atom -12389.362710 kJ/mol
# Density = 1.846333 g / cm^3
# Si number density = 18.505450 Si / 1000 Ang^3
#
#
#
# Elastic Constant Matrix: (Units=GPa)
#
#
# Indices 1 2 3 4 5 6 
#
# 1 130.3938 24.0655 25.5018 0.0000 0.0000 0.0000
# 2 24.0655 46.3382 10.9980 0.0000 0.0000 0.0000
# 3 25.5018 10.9980 90.6439 0.0000 0.0000 0.0000
# 4 0.0000 0.0000 0.0000 23.2349 0.0000 0.0000
# 5 0.0000 0.0000 0.0000 0.0000 32.3046 0.0000
# 6 0.0000 0.0000 0.0000 0.0000 0.0000 14.5594
#
#
#
# Elastic Compliance Matrix: (Units=1/GPa)
#
#
# Indices 1 2 3 4 5 6 
#
# 1 0.008815 -0.004108 -0.001982 0.000000 0.000000 0.000000
# 2 -0.004108 0.024134 -0.001773 0.000000 0.000000 0.000000
# 3 -0.001982 -0.001773 0.011805 0.000000 0.000000 0.000000
# 4 0.000000 0.000000 0.000000 0.043039 0.000000 0.000000
# 5 0.000000 0.000000 0.000000 0.000000 0.030955 0.000000
# 6 0.000000 0.000000 0.000000 0.000000 0.000000 0.068684
#
#
# Mechanical properties :
#
#
# Convention : Reuss Voigt Hill
#
# Bulk Modulus (GPa) = 34.44671 43.16739 38.80705
# Shear Modulus (GPa) = 23.49267 27.80716 25.64991
#
# Velocity S-wave (km/s) = 3.56687 3.88060 3.72704
# Velocity P-wave (km/s) = 5.96810 6.59214 6.28786
#
# Compressibility (1/GPa) = 0.02903035
#
# Stress axis : x y z
#
# Youngs Moduli (GPa) = 113.44671 41.43454 84.71158
#
# Poissons Ratio (x) = 0.17020 0.16786
# Poissons Ratio (y) = 0.46599 0.15017
# Poissons Ratio (z) = 0.22480 0.07345
#
# Static dielectric constant tensor:
#      x y z
#    x 4.061690 0.000000 0.000000 
#    y 0.000000 2.897530 0.000000 
#    z 0.000000 0.000000 3.473460 
# 
# 
# High freq. dielectric constant tensor:
#      x y z
#    x 1.715960 0.000000 0.000000 
#    y 0.000000 1.664850 0.000000 
#    z 0.000000 0.000000 1.735820 
# 
# From -- ./inp_files/2377.got.cif
#   From: 2010.03.12/outbox.cif.g09.slc.cpg/sg57_2_cif.got.tgz:2377.got - 2010.04.16 15:48:40.
