data_PCOD8234258
_publ_section_title
;
Structure prediction by ZEFSAII (Michael W. Deem and Ramdas Pophale) SiO2 
 PCOD8234258
Probable space group: P B C M
;
_chemical_formula_sum "Si O2"
_cell_formula_units_Z 48
_cell_length_a 9.633757
_cell_length_b 16.789303
_cell_length_c 14.822725
_cell_angle_alpha 90.000000
_cell_angle_beta 90.000000
_cell_angle_gamma 90.000000
_cell_volume 2397.487800
_symmetry_space_group_name_H-M "P B C M"
_symmetry_group_IT_number 57
_symmetry_cell_setting 'orthorhombic'
loop_
_space_group_symop_operation_xyz
x,y,z
-x,-y,1/2+z
x,1/2-y,-z
-x,1/2+y,1/2-z
-x,-y,-z
x,y,1/2-z
-x,1/2+y,z
x,1/2-y,1/2+z
loop_
_atom_site_type_symbol
_atom_site_label
_atom_site_fract_x
_atom_site_fract_y
_atom_site_fract_z
Si Si1 0.505600 0.290199 0.594197
Si Si2 0.208138 0.340164 0.851813
Si Si3 0.627347 0.057185 0.486775
Si Si4 0.716546 0.160899 0.649424
Si Si5 0.030275 0.311512 0.145327
Si Si6 0.132908 0.052888 0.984124
O O1 0.464713 0.250000 0.500000
O O2 0.363712 0.305148 0.647244
O O3 0.589113 0.372094 0.580946
O O4 0.606587 0.232657 0.649420
O O5 0.177792 0.370234 0.750000
O O6 0.098137 0.272613 0.880173
O O7 0.189032 0.412508 0.921000
O O8 0.673116 0.090155 0.583975
O O9 0.500000 0.000000 0.500000
O O10 0.750659 0.005581 0.443256
O O11 0.722425 0.125050 0.750000
O O12 0.867684 0.193960 0.620512
O O13 0.054608 0.331861 0.250000
O O14 0.106502 0.378878 0.088063
O O15 0.000000 0.000000 0.000000
#
# Coordination Sequence:
#
# PCOD8234258 Si02
#       6
#     8   8   8   8   8   8
#     4  10  21  39  64  88 121 160 205 249 300 364
#     4  11  24  41  64  91 121 161 208 251 300 363
#     4  11  23  41  60  91 123 161 203 246 306 367
#     4  10  22  41  64  89 121 161 204 251 300 360
#     4  10  23  42  63  91 123 161 208 252 300 363
#     4  12  24  40  65  90 124 165 200 251 310 361
#
# _framework density 20.020958
#
# number of rings (size 3 to 8) (size 9 to 14) (size 15 to 20)
#    0.000    1.333    3.333    2.000    4.667    2.667 
#    0.000    1.667    0.000    0.000    0.000    0.000 
#    0.000    0.000    0.000    0.000    0.000    0.000 
#
# Total GULP energy -595383.459346 kJ/mol
# GULP energy per Si atom -12403.822070 kJ/mol
# Density = 1.997539 g / cm^3
# Si number density = 20.020958 Si / 1000 Ang^3
#
#
#
# Elastic Constant Matrix: (Units=GPa)
#
#
# Indices 1 2 3 4 5 6 
#
# 1 142.3061 42.0658 22.6609 0.0000 0.0000 0.0000
# 2 42.0658 84.8123 25.7118 0.0000 0.0000 0.0000
# 3 22.6609 25.7118 64.6895 0.0000 0.0000 0.0000
# 4 0.0000 0.0000 0.0000 24.2514 0.0000 0.0000
# 5 0.0000 0.0000 0.0000 0.0000 29.7634 0.0000
# 6 0.0000 0.0000 0.0000 0.0000 0.0000 50.4982
#
#
#
# Elastic Compliance Matrix: (Units=1/GPa)
#
#
# Indices 1 2 3 4 5 6 
#
# 1 0.008353 -0.003702 -0.001455 0.000000 0.000000 0.000000
# 2 -0.003702 0.015047 -0.004684 0.000000 0.000000 0.000000
# 3 -0.001455 -0.004684 0.017830 0.000000 0.000000 0.000000
# 4 0.000000 0.000000 0.000000 0.041235 0.000000 0.000000
# 5 0.000000 0.000000 0.000000 0.000000 0.033598 0.000000
# 6 0.000000 0.000000 0.000000 0.000000 0.000000 0.019803
#
#
# Mechanical properties :
#
#
# Convention : Reuss Voigt Hill
#
# Bulk Modulus (GPa) = 46.40662 52.52055 49.46359
# Shear Modulus (GPa) = 30.72591 34.32721 32.52656
#
# Velocity S-wave (km/s) = 3.92176 4.14522 4.03504
# Velocity P-wave (km/s) = 6.61334 7.01429 6.81676
#
# Compressibility (1/GPa) = 0.02154865
#
# Stress axis : x y z
#
# Youngs Moduli (GPa) = 119.71642 66.45918 56.08633
#
# Poissons Ratio (x) = 0.24603 0.08159
# Poissons Ratio (y) = 0.44319 0.26269
# Poissons Ratio (z) = 0.17415 0.31128
#
# Static dielectric constant tensor:
#      x y z
#    x 3.851320 0.000000 0.000000 
#    y 0.000000 4.470920 0.000000 
#    z 0.000000 0.000000 3.601380 
# 
# 
# High freq. dielectric constant tensor:
#      x y z
#    x 1.801350 0.000000 0.000000 
#    y 0.000000 1.785390 0.000000 
#    z 0.000000 0.000000 1.774070 
# 
# From -- ./inp_files/16313.got.cif
#   From: 2010.03.12/outbox.cif.g09.slc.cpg/sg57_9_cif.got.tgz:16313.got - 2010.04.16 15:48:40.
