data_PCOD8234522
_publ_section_title
;
Structure prediction by ZEFSAII (Michael W. Deem and Ramdas Pophale) SiO2 
 PCOD8234522
Probable space group: P B C M
;
_chemical_formula_sum "Si O2"
_cell_formula_units_Z 40
_cell_length_a 7.732416
_cell_length_b 28.526223
_cell_length_c 9.094278
_cell_angle_alpha 90.000000
_cell_angle_beta 90.000000
_cell_angle_gamma 90.000000
_cell_volume 2005.985131
_symmetry_space_group_name_H-M "P B C M"
_symmetry_group_IT_number 57
_symmetry_cell_setting 'orthorhombic'
loop_
_space_group_symop_operation_xyz
x,y,z
-x,-y,1/2+z
x,1/2-y,-z
-x,1/2+y,1/2-z
-x,-y,-z
x,y,1/2-z
-x,1/2+y,z
x,1/2-y,1/2+z
loop_
_atom_site_type_symbol
_atom_site_label
_atom_site_fract_x
_atom_site_fract_y
_atom_site_fract_z
Si Si1 0.334681 0.946558 0.080458
Si Si2 0.688643 0.950434 0.578746
Si Si3 0.848705 0.856676 0.920334
Si Si4 0.494333 0.298833 0.576909
Si Si5 0.812011 0.151365 0.578340
O O1 0.386624 0.947975 0.250000
O O2 0.203672 0.904358 0.047565
O O3 0.250804 0.996864 0.033463
O O4 0.509377 0.936830 0.994977
O O5 0.651158 0.946464 0.750000
O O6 0.831224 0.911727 0.534947
O O7 0.898543 0.850628 0.750000
O O8 0.668286 0.831847 0.956949
O O9 0.000365 0.833643 0.017433
O O10 0.453818 0.250000 0.500000
O O11 0.523542 0.291818 0.750000
O O12 0.666114 0.320675 0.507931
O O13 0.798631 0.163841 0.750000
#
# Coordination Sequence:
#
# PCOD8234522 Si02
#       5
#     8   8   8   8   8
#     4   9  18  32  54  85 120 157 199 242 289 344
#     4   9  17  33  56  83 117 159 201 242 289 343
#     4  10  22  39  61  88 120 159 201 245 294 353
#     4  11  24  44  67  89 115 151 195 246 303 357
#     4  11  23  38  60  91 125 159 196 243 294 352
#
# _framework density 19.940327
#
# number of rings (size 3 to 8) (size 9 to 14) (size 15 to 20)
#    0.000    2.000    2.000    1.200    0.000    4.800 
#    0.000    2.000    0.000    0.000    0.000    0.000 
#    0.000    0.000    0.000    0.000    0.000    0.000 
#
# Total GULP energy -495921.150366 kJ/mol
# GULP energy per Si atom -12398.028759 kJ/mol
# Density = 1.989494 g / cm^3
# Si number density = 19.940327 Si / 1000 Ang^3
#
#
#
# Elastic Constant Matrix: (Units=GPa)
#
#
# Indices 1 2 3 4 5 6 
#
# 1 86.8195 20.3744 40.7112 0.0000 0.0000 0.0000
# 2 20.3744 81.6286 37.5482 0.0000 0.0000 0.0000
# 3 40.7112 37.5482 75.4757 0.0000 0.0000 0.0000
# 4 0.0000 0.0000 0.0000 28.7968 0.0000 0.0000
# 5 0.0000 0.0000 0.0000 0.0000 34.3013 0.0000
# 6 0.0000 0.0000 0.0000 0.0000 0.0000 12.7306
#
#
#
# Elastic Compliance Matrix: (Units=1/GPa)
#
#
# Indices 1 2 3 4 5 6 
#
# 1 0.015418 -0.000030 -0.008302 0.000000 0.000000 0.000000
# 2 -0.000030 0.015886 -0.007887 0.000000 0.000000 0.000000
# 3 -0.008302 -0.007887 0.021651 0.000000 0.000000 0.000000
# 4 0.000000 0.000000 0.000000 0.034726 0.000000 0.000000
# 5 0.000000 0.000000 0.000000 0.000000 0.029153 0.000000
# 6 0.000000 0.000000 0.000000 0.000000 0.000000 0.078551
#
#
# Mechanical properties :
#
#
# Convention : Reuss Voigt Hill
#
# Bulk Modulus (GPa) = 48.73747 49.02124 48.87935
# Shear Modulus (GPa) = 21.30734 24.85174 23.07954
#
# Velocity S-wave (km/s) = 3.27242 3.53414 3.40579
# Velocity P-wave (km/s) = 6.22680 6.42579 6.32708
#
# Compressibility (1/GPa) = 0.02051810
#
# Stress axis : x y z
#
# Youngs Moduli (GPa) = 64.85987 62.94869 46.18768
#
# Poissons Ratio (x) = 0.00187 0.38343
# Poissons Ratio (y) = 0.00192 0.36428
# Poissons Ratio (z) = 0.53844 0.49648
#
# Static dielectric constant tensor:
#      x y z
#    x 3.400060 0.000000 0.000000 
#    y 0.000000 4.090840 0.000000 
#    z 0.000000 0.000000 3.757990 
# 
# 
# High freq. dielectric constant tensor:
#      x y z
#    x 1.764790 0.000000 0.000000 
#    y 0.000000 1.787510 0.000000 
#    z 0.000000 0.000000 1.779090 
# 
# From -- ./inp_files/1823.got.cif
#   From: 2010.03.12/outbox.cif.g09.slc.cpg/sg57_1_cif.got.tgz:1823.got - 2010.04.16 15:48:40.
