data_PCOD8234902
_publ_section_title
;
Structure prediction by ZEFSAII (Michael W. Deem and Ramdas Pophale) SiO2 
 PCOD8234902
Probable space group: P B C M
;
_chemical_formula_sum "Si O2"
_cell_formula_units_Z 40
_cell_length_a 12.810679
_cell_length_b 20.085139
_cell_length_c 8.819301
_cell_angle_alpha 90.000000
_cell_angle_beta 90.000000
_cell_angle_gamma 90.000000
_cell_volume 2269.243792
_symmetry_space_group_name_H-M "P B C M"
_symmetry_group_IT_number 57
_symmetry_cell_setting 'orthorhombic'
loop_
_space_group_symop_operation_xyz
x,y,z
-x,-y,1/2+z
x,1/2-y,-z
-x,1/2+y,1/2-z
-x,-y,-z
x,y,1/2-z
-x,1/2+y,z
x,1/2-y,1/2+z
loop_
_atom_site_type_symbol
_atom_site_label
_atom_site_fract_x
_atom_site_fract_y
_atom_site_fract_z
Si Si1 0.486574 0.571763 0.427780
Si Si2 0.110965 0.321367 0.070483
Si Si3 0.963284 0.430875 0.930676
Si Si4 0.686402 0.600976 0.571608
Si Si5 0.735418 0.045357 0.072618
O O1 0.500000 0.500000 0.500000
O O2 0.505340 0.567858 0.250000
O O3 0.573656 0.621029 0.499082
O O4 0.365671 0.592101 0.465220
O O5 0.096671 0.319335 0.250000
O O6 0.227349 0.344810 0.024946
O O7 0.089960 0.250000 0.000000
O O8 0.026560 0.370817 0.001710
O O9 0.977286 0.431992 0.750000
O O10 0.842351 0.420404 0.982369
O O11 0.000000 0.500000 0.000000
O O12 0.670639 0.598357 0.750000
O O13 0.722485 0.529284 0.504052
O O14 0.744147 0.033543 0.250000
#
# Coordination Sequence:
#
# PCOD8234902 Si02
#       5
#     8   8   8   8   8
#     4   9  16  27  45  72 103 134 167 205 256 309
#     4  11  23  39  55  77 108 143 182 227 277 330
#     4  11  20  34  55  80 109 144 183 225 273 322
#     4   9  17  32  50  71 104 137 169 215 266 314
#     4   8  15  29  48  73 106 137 165 212 266 310
#
# _framework density 17.627016999999999
#
# number of rings (size 3 to 8) (size 9 to 14) (size 15 to 20)
#    0.000    2.400    2.000    3.000    0.000    1.600 
#    0.000    3.000    0.000    1.200    0.000    2.800 
#    0.000    0.000    0.000    0.000    0.000    0.000 
#
# Total GULP energy -495616.533847 kJ/mol
# GULP energy per Si atom -12390.413346 kJ/mol
# Density = 1.758690 g / cm^3
# Si number density = 17.627017 Si / 1000 Ang^3
#
#
#
# Elastic Constant Matrix: (Units=GPa)
#
#
# Indices 1 2 3 4 5 6 
#
# 1 188.8295 68.1474 62.5334 0.0000 0.0000 0.0000
# 2 68.1474 94.7643 36.4471 0.0000 0.0000 0.0000
# 3 62.5334 36.4471 67.1190 0.0000 0.0000 0.0000
# 4 0.0000 0.0000 0.0000 22.5980 0.0000 0.0000
# 5 0.0000 0.0000 0.0000 0.0000 30.3528 0.0000
# 6 0.0000 0.0000 0.0000 0.0000 0.0000 21.0243
#
#
#
# Elastic Compliance Matrix: (Units=1/GPa)
#
#
# Indices 1 2 3 4 5 6 
#
# 1 0.008697 -0.003966 -0.005949 0.000000 0.000000 0.000000
# 2 -0.003966 0.015147 -0.004530 0.000000 0.000000 0.000000
# 3 -0.005949 -0.004530 0.022902 0.000000 0.000000 0.000000
# 4 0.000000 0.000000 0.000000 0.044252 0.000000 0.000000
# 5 0.000000 0.000000 0.000000 0.000000 0.032946 0.000000
# 6 0.000000 0.000000 0.000000 0.000000 0.000000 0.047564
#
#
# Mechanical properties :
#
#
# Convention : Reuss Voigt Hill
#
# Bulk Modulus (GPa) = 56.00682 76.10761 66.05721
# Shear Modulus (GPa) = 24.23063 27.03401 25.63232
#
# Velocity S-wave (km/s) = 3.71162 3.92046 3.81747
# Velocity P-wave (km/s) = 7.08593 7.98522 7.54898
#
# Compressibility (1/GPa) = 0.01785497
#
# Stress axis : x y z
#
# Youngs Moduli (GPa) = 114.97638 66.01967 43.66504
#
# Poissons Ratio (x) = 0.26186 0.25978
# Poissons Ratio (y) = 0.45604 0.19779
# Poissons Ratio (z) = 0.68404 0.29905
#
# Static dielectric constant tensor:
#      x y z
#    x 4.345970 0.000000 0.000000 
#    y 0.000000 3.237780 0.000000 
#    z 0.000000 0.000000 3.223190 
# 
# 
# High freq. dielectric constant tensor:
#      x y z
#    x 1.708400 0.000000 0.000000 
#    y 0.000000 1.626880 0.000000 
#    z 0.000000 0.000000 1.677240 
# 
# From -- ./inp_files/2904.got.cif
#   From: 2010.03.12/outbox.cif.g09.slc.cpg/sg57_2_cif.got.tgz:2904.got - 2010.04.16 15:48:40.
