data_PCOD8234380
_publ_section_title
;
Structure prediction by ZEFSAII (Michael W. Deem and Ramdas Pophale) SiO2 
 PCOD8234380
Probable space group: P B C M
;
_chemical_formula_sum "Si O2"
_cell_formula_units_Z 64
_cell_length_a 14.594360
_cell_length_b 23.446547
_cell_length_c 9.148928
_cell_angle_alpha 90.000000
_cell_angle_beta 90.000000
_cell_angle_gamma 90.000000
_cell_volume 3130.647406
_symmetry_space_group_name_H-M "P B C M"
_symmetry_group_IT_number 57
_symmetry_cell_setting 'orthorhombic'
loop_
_space_group_symop_operation_xyz
x,y,z
-x,-y,1/2+z
x,1/2-y,-z
-x,1/2+y,1/2-z
-x,-y,-z
x,y,1/2-z
-x,1/2+y,z
x,1/2-y,1/2+z
loop_
_atom_site_type_symbol
_atom_site_label
_atom_site_fract_x
_atom_site_fract_y
_atom_site_fract_z
Si Si1 0.145133 0.886007 0.082064
Si Si2 0.546485 0.351864 0.913459
Si Si3 0.736848 0.304040 0.586910
Si Si4 0.025717 0.309888 0.079366
Si Si5 0.651267 0.807746 0.921609
Si Si6 0.781898 0.993792 0.581383
Si Si7 0.579020 0.465026 0.421827
Si Si8 0.203891 0.120048 0.577132
O O1 0.167817 0.872060 0.250000
O O2 0.049772 0.857110 0.033841
O O3 0.146670 0.954087 0.057315
O O4 0.226828 0.861643 0.984788
O O5 0.537396 0.378646 0.750000
O O6 0.626910 0.305157 0.915856
O O7 0.454690 0.318710 0.955766
O O8 0.569366 0.399877 0.030463
O O9 0.775536 0.250000 0.500000
O O10 0.775573 0.299038 0.750000
O O11 0.021476 0.297080 0.250000
O O12 0.122635 0.336823 0.034398
O O13 0.008840 0.250000 0.000000
O O14 0.672641 0.803100 0.750000
O O15 0.683279 0.750000 0.000000
O O16 0.705838 0.860149 0.991840
O O17 0.782537 0.974003 0.750000
O O18 0.818766 0.943414 0.478493
O O19 0.678946 0.011382 0.534292
O O20 0.500000 0.500000 0.500000
O O21 0.563967 0.468876 0.250000
O O22 0.220918 0.118746 0.750000
#
# Coordination Sequence:
#
# PCOD8234380 Si02
#       8
#     8   8   8   8   8   8   8   8
#     4  10  21  41  64  88 122 159 198 245 298 359
#     4  10  22  38  56  83 118 155 199 247 297 356
#     4  11  22  36  57  86 120 156 196 243 293 351
#     4  10  23  42  65  92 122 156 199 249 304 364
#     4  11  23  40  61  87 120 160 204 253 307 364
#     4  10  22  40  61  88 122 161 201 247 304 361
#     4  11  22  36  57  84 117 160 205 249 298 353
#     4  11  24  41  62  90 121 158 203 254 306 360
#
# _framework density 20.443055999999999
#
# number of rings (size 3 to 8) (size 9 to 14) (size 15 to 20)
#    0.000    1.500    1.250    3.375    0.000   10.000 
#    0.000    0.000    0.000    0.000    0.000    0.000 
#    0.000    0.000    0.000    0.000    0.000    0.000 
#
# Total GULP energy -793830.395918 kJ/mol
# GULP energy per Si atom -12403.599936 kJ/mol
# Density = 2.039653 g / cm^3
# Si number density = 20.443056 Si / 1000 Ang^3
#
#
#
# Elastic Constant Matrix: (Units=GPa)
#
#
# Indices 1 2 3 4 5 6 
#
# 1 83.1411 27.1510 41.1937 0.0000 0.0000 0.0000
# 2 27.1510 115.2152 57.4996 0.0000 0.0000 0.0000
# 3 41.1937 57.4996 98.9868 0.0000 0.0000 0.0000
# 4 0.0000 0.0000 0.0000 42.6189 0.0000 0.0000
# 5 0.0000 0.0000 0.0000 0.0000 24.1759 0.0000
# 6 0.0000 0.0000 0.0000 0.0000 0.0000 35.5563
#
#
#
# Elastic Compliance Matrix: (Units=1/GPa)
#
#
# Indices 1 2 3 4 5 6 
#
# 1 0.015181 -0.000598 -0.005970 0.000000 0.000000 0.000000
# 2 -0.000598 0.012246 -0.006865 0.000000 0.000000 0.000000
# 3 -0.005970 -0.006865 0.016575 0.000000 0.000000 0.000000
# 4 0.000000 0.000000 0.000000 0.023464 0.000000 0.000000
# 5 0.000000 0.000000 0.000000 0.000000 0.041364 0.000000
# 6 0.000000 0.000000 0.000000 0.000000 0.000000 0.028124
#
#
# Mechanical properties :
#
#
# Convention : Reuss Voigt Hill
#
# Bulk Modulus (GPa) = 58.35732 61.00352 59.68042
# Shear Modulus (GPa) = 29.49300 31.90348 30.69824
#
# Velocity S-wave (km/s) = 3.80240 3.95473 3.87931
# Velocity P-wave (km/s) = 6.91996 7.12451 7.02298
#
# Compressibility (1/GPa) = 0.01713581
#
# Stress axis : x y z
#
# Youngs Moduli (GPa) = 65.87132 81.65739 60.33340
#
# Poissons Ratio (x) = 0.04883 0.36021
# Poissons Ratio (y) = 0.03939 0.41418
# Poissons Ratio (z) = 0.39327 0.56056
#
# Static dielectric constant tensor:
#      x y z
#    x 3.728560 0.000000 0.000000 
#    y 0.000000 3.647090 0.000000 
#    z 0.000000 0.000000 3.711730 
# 
# 
# High freq. dielectric constant tensor:
#      x y z
#    x 1.800400 0.000000 0.000000 
#    y 0.000000 1.803590 0.000000 
#    z 0.000000 0.000000 1.801690 
# 
# From -- ./inp_files/5727.got.cif
#   From: 2010.03.12/outbox.cif.g09.slc.cpg/sg57_3_cif.got.tgz:5727.got - 2010.04.16 15:48:40.
