data_PCOD8234382
_publ_section_title
;
Structure prediction by ZEFSAII (Michael W. Deem and Ramdas Pophale) SiO2 
 PCOD8234382
Probable space group: P B C M
;
_chemical_formula_sum "Si O2"
_cell_formula_units_Z 40
_cell_length_a 12.783122
_cell_length_b 9.000980
_cell_length_c 17.782928
_cell_angle_alpha 90.000000
_cell_angle_beta 90.000000
_cell_angle_gamma 90.000000
_cell_volume 2046.114818
_symmetry_space_group_name_H-M "P B C M"
_symmetry_group_IT_number 57
_symmetry_cell_setting 'orthorhombic'
loop_
_space_group_symop_operation_xyz
x,y,z
-x,-y,1/2+z
x,1/2-y,-z
-x,1/2+y,1/2-z
-x,-y,-z
x,y,1/2-z
-x,1/2+y,z
x,1/2-y,1/2+z
loop_
_atom_site_type_symbol
_atom_site_label
_atom_site_fract_x
_atom_site_fract_y
_atom_site_fract_z
Si Si1 0.699069 0.587552 0.863031
Si Si2 0.391966 0.194586 0.250000
Si Si3 0.745025 0.060811 0.750000
Si Si4 0.064647 0.103135 0.666428
Si Si5 0.884784 0.920726 0.623719
Si Si6 0.373048 0.854263 0.750000
Si Si7 0.754999 0.750000 0.500000
O O1 0.666640 0.738133 0.821748
O O2 0.819521 0.544268 0.851316
O O3 0.632481 0.452642 0.827052
O O4 0.683663 0.635049 0.950679
O O5 0.368468 0.019460 0.250000
O O6 0.515262 0.226318 0.250000
O O7 0.805596 0.014617 0.674975
O O8 0.720856 0.236154 0.750000
O O9 0.030755 0.051691 0.750000
O O10 0.064156 0.280952 0.665827
O O11 0.982168 0.032332 0.606956
O O12 0.828273 0.858175 0.549498
#
# Coordination Sequence:
#
# PCOD8234382 Si02
#       7
#     8   4   4   8   8   4   4
#     4  10  21  41  64  90 125 172 198 265 318 378
#     4  11  19  44  66  88 116 165 221 270 311 365
#     4  12  20  38  62  95 116 159 211 270 313 360
#     4  11  18  35  59  89 121 159 215 251 299 358
#     4  11  23  34  64  90 125 170 206 249 306 380
#     4  11  25  36  70  97 116 148 234 280 306 351
#     4  10  22  44  62  88 140 178 198 238 334 394
#
# _framework density 19.549246
#
# number of rings (size 3 to 8) (size 9 to 14) (size 15 to 20)
#    0.000    1.200    8.000    1.200    2.800    3.200 
#    0.000    2.000    0.000    0.000    0.000    0.000 
#    0.000    0.000    0.000    0.000    0.000    0.000 
#
# Total GULP energy -495533.320730 kJ/mol
# GULP energy per Si atom -12388.333018 kJ/mol
# Density = 1.950475 g / cm^3
# Si number density = 19.549246 Si / 1000 Ang^3
#
#
#
# Elastic Constant Matrix: (Units=GPa)
#
#
# Indices 1 2 3 4 5 6 
#
# 1 89.7321 19.2921 30.2332 0.0000 0.0000 0.0000
# 2 19.2921 51.0301 24.6080 0.0000 0.0000 0.0000
# 3 30.2332 24.6080 122.7766 0.0000 0.0000 0.0000
# 4 0.0000 0.0000 0.0000 -52.3219 0.0000 0.0000
# 5 0.0000 0.0000 0.0000 0.0000 -26.1243 0.0000
# 6 0.0000 0.0000 0.0000 0.0000 0.0000 36.1764
#
#
#
# Elastic Compliance Matrix: (Units=1/GPa)
#
#
# Indices 1 2 3 4 5 6 
#
# 1 0.012741 -0.003657 -0.002404 0.000000 0.000000 0.000000
# 2 -0.003657 0.022743 -0.003658 0.000000 0.000000 0.000000
# 3 -0.002404 -0.003658 0.009470 0.000000 0.000000 0.000000
# 4 0.000000 0.000000 0.000000 -0.019112 0.000000 0.000000
# 5 0.000000 0.000000 0.000000 0.000000 -0.038279 0.000000
# 6 0.000000 0.000000 0.000000 0.000000 0.000000 0.027642
#
#
# Mechanical properties :
#
#
# Convention : Reuss Voigt Hill
#
# Bulk Modulus (GPa) = 39.19276 45.75615 42.47446
# Shear Modulus (GPa) = 115.87958 4.17309 60.02634
#
# Velocity S-wave (km/s) = 7.70743 1.46263 5.54724
# Velocity P-wave (km/s) = 9.96482 5.12921 7.92485
#
# Compressibility (1/GPa) = 0.02551492
#
# Stress axis : x y z
#
# Youngs Moduli (GPa) = 78.48891 43.97000 105.59608
#
# Poissons Ratio (x) = 0.16081 0.25389
# Poissons Ratio (y) = 0.28705 0.38624
# Poissons Ratio (z) = 0.18871 0.16083
#
# Static dielectric constant tensor:
#      x y z
#    x 3.414230 0.000000 0.000000 
#    y 0.000000 3.536580 0.000000 
#    z 0.000000 0.000000 3.550430 
# 
# 
# High freq. dielectric constant tensor:
#      x y z
#    x 1.753950 0.000000 0.000000 
#    y 0.000000 1.762390 0.000000 
#    z 0.000000 0.000000 1.743080 
# 
# From -- ./inp_files/21681.got.cif
#   From: 2010.03.12/outbox.cif.g09.slc.cpg/sg57_11_cif.got.tgz:21681.got - 2010.04.16 15:48:40.
