data_PCOD8234231
_publ_section_title
;
Structure prediction by ZEFSAII (Michael W. Deem and Ramdas Pophale) SiO2 
 PCOD8234231
Probable space group: P B C M
;
_chemical_formula_sum "Si O2"
_cell_formula_units_Z 40
_cell_length_a 12.421930
_cell_length_b 18.323442
_cell_length_c 8.498399
_cell_angle_alpha 90.000000
_cell_angle_beta 90.000000
_cell_angle_gamma 90.000000
_cell_volume 1934.341960
_symmetry_space_group_name_H-M "P B C M"
_symmetry_group_IT_number 57
_symmetry_cell_setting 'orthorhombic'
loop_
_space_group_symop_operation_xyz
x,y,z
-x,-y,1/2+z
x,1/2-y,-z
-x,1/2+y,1/2-z
-x,-y,-z
x,y,1/2-z
-x,1/2+y,z
x,1/2-y,1/2+z
loop_
_atom_site_type_symbol
_atom_site_label
_atom_site_fract_x
_atom_site_fract_y
_atom_site_fract_z
Si Si1 0.709668 0.083555 0.064895
Si Si2 0.855083 0.829549 0.564724
Si Si3 0.339965 0.070620 0.435356
Si Si4 0.952336 0.074113 0.435820
Si Si5 0.476254 0.829854 0.065056
O O1 0.703414 0.098723 0.250000
O O2 0.832094 0.087327 0.000527
O O3 0.645988 0.147249 0.974031
O O4 0.657995 0.005432 0.027097
O O5 0.833573 0.750000 0.500000
O O6 0.848761 0.825473 0.750000
O O7 0.762123 0.883322 0.502508
O O8 0.971051 0.859543 0.507735
O O9 0.333720 0.055140 0.250000
O O10 0.448154 0.113267 0.475388
O O11 0.951185 0.067899 0.250000
O O12 0.000000 0.000000 0.500000
O O13 0.498444 0.831825 0.250000
O O14 0.501127 0.750000 0.000000
#
# Coordination Sequence:
#
# PCOD8234231 Si02
#       5
#     8   8   8   8   8
#     4  11  23  40  65  94 125 163 211 257 309 371
#     4  10  22  38  59  90 125 160 202 251 308 365
#     4  11  22  40  65  92 125 162 208 258 310 371
#     4  10  21  39  62  90 123 161 205 253 303 364
#     4  12  26  44  64  89 125 164 208 258 314 372
#
# _framework density 20.678867
#
# number of rings (size 3 to 8) (size 9 to 14) (size 15 to 20)
#    0.000    1.200    2.000    4.200    0.000    5.600 
#    0.000    2.000    0.000    0.000    0.000    0.000 
#    0.000    0.000    0.000    0.000    0.000    0.000 
#
# Total GULP energy -496217.209193 kJ/mol
# GULP energy per Si atom -12405.430230 kJ/mol
# Density = 2.063180 g / cm^3
# Si number density = 20.678867 Si / 1000 Ang^3
#
#
#
# Elastic Constant Matrix: (Units=GPa)
#
#
# Indices 1 2 3 4 5 6 
#
# 1 106.3663 4.5318 12.5859 0.0000 0.0000 0.0000
# 2 4.5318 63.1567 13.2304 0.0000 0.0000 0.0000
# 3 12.5859 13.2304 39.7656 0.0000 0.0000 0.0000
# 4 0.0000 0.0000 0.0000 37.6229 0.0000 0.0000
# 5 0.0000 0.0000 0.0000 0.0000 22.1299 0.0000
# 6 0.0000 0.0000 0.0000 0.0000 0.0000 42.5440
#
#
#
# Elastic Compliance Matrix: (Units=1/GPa)
#
#
# Indices 1 2 3 4 5 6 
#
# 1 0.009767 -0.000057 -0.003072 0.000000 0.000000 0.000000
# 2 -0.000057 0.017020 -0.005645 0.000000 0.000000 0.000000
# 3 -0.003072 -0.005645 0.027998 0.000000 0.000000 0.000000
# 4 0.000000 0.000000 0.000000 0.026580 0.000000 0.000000
# 5 0.000000 0.000000 0.000000 0.000000 0.045188 0.000000
# 6 0.000000 0.000000 0.000000 0.000000 0.000000 0.023505
#
#
# Mechanical properties :
#
#
# Convention : Reuss Voigt Hill
#
# Bulk Modulus (GPa) = 26.85506 29.99830 28.42668
# Shear Modulus (GPa) = 27.77488 32.38872 30.08180
#
# Velocity S-wave (km/s) = 3.66888 3.96191 3.81821
# Velocity P-wave (km/s) = 5.56440 5.95543 5.76323
#
# Compressibility (1/GPa) = 0.03723693
#
# Stress axis : x y z
#
# Youngs Moduli (GPa) = 102.38080 58.75364 35.71705
#
# Poissons Ratio (x) = 0.00336 0.10974
# Poissons Ratio (y) = 0.00586 0.20161
# Poissons Ratio (z) = 0.31455 0.33164
#
# Static dielectric constant tensor:
#      x y z
#    x 4.157140 0.000000 0.000000 
#    y 0.000000 3.860500 0.000000 
#    z 0.000000 0.000000 3.639730 
# 
# 
# High freq. dielectric constant tensor:
#      x y z
#    x 1.827180 0.000000 0.000000 
#    y 0.000000 1.811510 0.000000 
#    z 0.000000 0.000000 1.805530 
# 
# From -- ./inp_files/2619.got.cif
#   From: 2010.03.12/outbox.cif.g09.slc.cpg/sg57_2_cif.got.tgz:2619.got - 2010.04.16 15:48:40.
