data_PCOD8234453
_publ_section_title
;
Structure prediction by ZEFSAII (Michael W. Deem and Ramdas Pophale) SiO2 
 PCOD8234453
Probable space group: P B C M
;
_chemical_formula_sum "Si O2"
_cell_formula_units_Z 48
_cell_length_a 19.126946
_cell_length_b 7.587610
_cell_length_c 16.498233
_cell_angle_alpha 90.000000
_cell_angle_beta 90.000000
_cell_angle_gamma 90.000000
_cell_volume 2394.352370
_symmetry_space_group_name_H-M "P B C M"
_symmetry_group_IT_number 57
_symmetry_cell_setting 'orthorhombic'
loop_
_space_group_symop_operation_xyz
x,y,z
-x,-y,1/2+z
x,1/2-y,-z
-x,1/2+y,1/2-z
-x,-y,-z
x,y,1/2-z
-x,1/2+y,z
x,1/2-y,1/2+z
loop_
_atom_site_type_symbol
_atom_site_label
_atom_site_fract_x
_atom_site_fract_y
_atom_site_fract_z
Si Si1 0.423715 0.151278 0.653475
Si Si2 0.424473 0.740374 0.346467
Si Si3 0.324793 0.044225 0.153442
Si Si4 0.926860 0.655350 0.843248
Si Si5 0.166905 0.019178 0.153722
Si Si6 0.929280 0.275879 0.592297
O O1 0.426019 0.159925 0.750000
O O2 0.499517 0.206508 0.619086
O O3 0.364272 0.282472 0.619872
O O4 0.405028 0.955223 0.623239
O O5 0.426834 0.748923 0.250000
O O6 0.365602 0.872880 0.380007
O O7 0.325213 0.044796 0.250000
O O8 0.245661 0.043275 0.121529
O O9 0.911120 0.612868 0.750000
O O10 0.877107 0.811311 0.875381
O O11 0.910435 0.480050 0.894001
O O12 0.006847 0.716504 0.851049
O O13 0.162943 0.997351 0.250000
O O14 0.137722 0.842392 0.112804
O O15 0.952516 0.250000 0.500000
#
# Coordination Sequence:
#
# PCOD8234453 Si02
#       6
#     8   8   8   8   8   8
#     4   9  14  21  36  59  87 129 175 215 267 329
#     4   9  14  21  37  59  90 131 175 218 265 327
#     4   9  17  28  41  64  99 137 180 226 273 331
#     4  11  22  38  62  86 114 152 190 231 282 345
#     4  10  22  37  54  79 114 153 192 237 287 341
#     4  12  24  38  61  88 114 146 193 241 285 338
#
# _framework density 20.047173000000001
#
# number of rings (size 3 to 8) (size 9 to 14) (size 15 to 20)
#    0.000    2.000    3.333    2.000    0.000    1.333 
#    0.000    5.000    0.000    0.000    0.000    0.000 
#    0.000    1.333    0.000    0.167    0.000    0.000 
#
# Total GULP energy -595267.726004 kJ/mol
# GULP energy per Si atom -12401.410958 kJ/mol
# Density = 2.000155 g / cm^3
# Si number density = 20.047173 Si / 1000 Ang^3
#
#
#
# Elastic Constant Matrix: (Units=GPa)
#
#
# Indices 1 2 3 4 5 6 
#
# 1 155.9931 79.0030 6.2080 0.0000 0.0000 0.0000
# 2 79.0030 182.0094 10.2669 0.0000 0.0000 0.0000
# 3 6.2080 10.2669 21.6372 0.0000 0.0000 0.0000
# 4 0.0000 0.0000 0.0000 13.2988 0.0000 0.0000
# 5 0.0000 0.0000 0.0000 0.0000 0.7375 0.0000
# 6 0.0000 0.0000 0.0000 0.0000 0.0000 38.9297
#
#
#
# Elastic Compliance Matrix: (Units=1/GPa)
#
#
# Indices 1 2 3 4 5 6 
#
# 1 0.008227 -0.003532 -0.000684 0.000000 0.000000 0.000000
# 2 -0.003532 0.007162 -0.002385 0.000000 0.000000 0.000000
# 3 -0.000684 -0.002385 0.047545 0.000000 0.000000 0.000000
# 4 0.000000 0.000000 0.000000 0.075195 0.000000 0.000000
# 5 0.000000 0.000000 0.000000 0.000000 1.355902 0.000000
# 6 0.000000 0.000000 0.000000 0.000000 0.000000 0.025687
#
#
# Mechanical properties :
#
#
# Convention : Reuss Voigt Hill
#
# Bulk Modulus (GPa) = 20.10844 61.17729 40.64287
# Shear Modulus (GPa) = 3.22685 28.20398 15.71542
#
# Velocity S-wave (km/s) = 1.27009 3.75491 2.80290
# Velocity P-wave (km/s) = 3.49330 7.02724 5.54911
#
# Compressibility (1/GPa) = 0.04973036
#
# Stress axis : x y z
#
# Youngs Moduli (GPa) = 121.55534 139.62629 21.03286
#
# Poissons Ratio (x) = 0.49320 0.01439
# Poissons Ratio (y) = 0.42937 0.05016
# Poissons Ratio (z) = 0.08318 0.33300
#
# Static dielectric constant tensor:
#      x y z
#    x 3.722860 0.000000 0.000000 
#    y 0.000000 3.926910 0.000000 
#    z 0.000000 0.000000 3.003890 
# 
# 
# High freq. dielectric constant tensor:
#      x y z
#    x 1.778410 0.000000 0.000000 
#    y 0.000000 1.801820 0.000000 
#    z 0.000000 0.000000 1.725540 
# 
# From -- ./inp_files/18965.got.cif
#   From: 2010.03.12/outbox.cif.g09.slc.cpg/sg57_10_cif.got.tgz:18965.got - 2010.04.16 15:48:40.
