data_PCOD8234973
_publ_section_title
;
Structure prediction by ZEFSAII (Michael W. Deem and Ramdas Pophale) SiO2 
 PCOD8234973
Probable space group: P B C M
;
_chemical_formula_sum "Si O2"
_cell_formula_units_Z 56
_cell_length_a 17.942238
_cell_length_b 19.036144
_cell_length_c 8.808461
_cell_angle_alpha 90.000000
_cell_angle_beta 90.000000
_cell_angle_gamma 90.000000
_cell_volume 3008.538894
_symmetry_space_group_name_H-M "P B C M"
_symmetry_group_IT_number 57
_symmetry_cell_setting 'orthorhombic'
loop_
_space_group_symop_operation_xyz
x,y,z
-x,-y,1/2+z
x,1/2-y,-z
-x,1/2+y,1/2-z
-x,-y,-z
x,y,1/2-z
-x,1/2+y,z
x,1/2-y,1/2+z
loop_
_atom_site_type_symbol
_atom_site_label
_atom_site_fract_x
_atom_site_fract_y
_atom_site_fract_z
Si Si1 0.807049 0.936870 0.930276
Si Si2 0.962921 0.567040 0.575784
Si Si3 0.524410 0.824761 0.927014
Si Si4 0.776911 0.086678 0.070110
Si Si5 0.314328 0.173571 0.070695
Si Si6 0.906999 0.324631 0.074787
Si Si7 0.636207 0.326364 0.928649
O O1 0.810107 0.940617 0.750000
O O2 0.747414 0.880126 0.990603
O O3 0.886896 0.913200 0.991870
O O4 0.783547 0.012051 0.991712
O O5 0.946017 0.548270 0.750000
O O6 0.000000 0.500000 0.500000
O O7 0.016235 0.633506 0.560677
O O8 0.525746 0.812865 0.750000
O O9 0.603708 0.859513 0.975391
O O10 0.445263 0.861190 0.972308
O O11 0.521734 0.750000 0.000000
O O12 0.780150 0.077352 0.250000
O O13 0.699306 0.120488 0.013402
O O14 0.843363 0.136344 0.018062
O O15 0.307313 0.182157 0.250000
O O16 0.301249 0.250000 0.000000
O O17 0.882503 0.316965 0.250000
O O18 0.921338 0.250000 0.000000
O O19 0.643681 0.315709 0.750000
O O20 0.648336 0.250000 0.000000
#
# Coordination Sequence:
#
# PCOD8234973 Si02
#       7
#     8   8   8   8   8   8   8
#     4  11  23  38  57  82 112 147 186 226 277 336
#     4  11  23  40  62  84 109 145 186 226 274 330
#     4   8  14  29  51  75 105 140 180 225 276 327
#     4  11  22  36  55  80 112 150 188 229 278 330
#     4   9  19  35  57  82 109 143 183 232 281 329
#     4  11  24  40  60  86 114 145 183 228 276 329
#     4   9  18  31  51  79 108 142 184 229 275 327
#
# _framework density 18.613686999999999
#
# number of rings (size 3 to 8) (size 9 to 14) (size 15 to 20)
#    0.000    2.000    1.429    2.143    0.000    5.714 
#    0.000    3.571    0.000    0.000    0.000    0.000 
#    0.000    0.000    0.000    0.000    0.000    0.000 
#
# Total GULP energy -694028.210826 kJ/mol
# GULP energy per Si atom -12393.360908 kJ/mol
# Density = 1.857132 g / cm^3
# Si number density = 18.613687 Si / 1000 Ang^3
#
#
#
# Elastic Constant Matrix: (Units=GPa)
#
#
# Indices 1 2 3 4 5 6 
#
# 1 175.3976 60.5622 43.8904 0.0000 0.0000 0.0000
# 2 60.5622 96.8005 31.6120 0.0000 0.0000 0.0000
# 3 43.8904 31.6120 61.0283 0.0000 0.0000 0.0000
# 4 0.0000 0.0000 0.0000 27.8724 0.0000 0.0000
# 5 0.0000 0.0000 0.0000 0.0000 25.0024 0.0000
# 6 0.0000 0.0000 0.0000 0.0000 0.0000 30.5920
#
#
#
# Elastic Compliance Matrix: (Units=1/GPa)
#
#
# Indices 1 2 3 4 5 6 
#
# 1 0.007934 -0.003732 -0.003773 0.000000 0.000000 0.000000
# 2 -0.003732 0.014189 -0.004666 0.000000 0.000000 0.000000
# 3 -0.003773 -0.004666 0.021516 0.000000 0.000000 0.000000
# 4 0.000000 0.000000 0.000000 0.035878 0.000000 0.000000
# 5 0.000000 0.000000 0.000000 0.000000 0.039996 0.000000
# 6 0.000000 0.000000 0.000000 0.000000 0.000000 0.032688
#
#
# Mechanical properties :
#
#
# Convention : Reuss Voigt Hill
#
# Bulk Modulus (GPa) = 51.81919 67.26175 59.54047
# Shear Modulus (GPa) = 27.32611 29.83749 28.58180
#
# Velocity S-wave (km/s) = 3.83569 4.00808 3.92283
# Velocity P-wave (km/s) = 6.89322 7.59168 7.25086
#
# Compressibility (1/GPa) = 0.01929787
#
# Stress axis : x y z
#
# Youngs Moduli (GPa) = 126.04069 70.47739 46.47655
#
# Poissons Ratio (x) = 0.26300 0.17536
# Poissons Ratio (y) = 0.47034 0.21686
# Poissons Ratio (z) = 0.47555 0.32885
#
# Static dielectric constant tensor:
#      x y z
#    x 4.212100 0.000000 0.000000 
#    y 0.000000 3.331760 0.000000 
#    z 0.000000 0.000000 3.531780 
# 
# 
# High freq. dielectric constant tensor:
#      x y z
#    x 1.749390 0.000000 0.000000 
#    y 0.000000 1.700140 0.000000 
#    z 0.000000 0.000000 1.729480 
# 
# From -- ./inp_files/5186.got.cif
#   From: 2010.03.12/outbox.cif.g09.slc.cpg/sg57_3_cif.got.tgz:5186.got - 2010.04.16 15:48:40.
