data_PCOD8234147
_publ_section_title
;
Structure prediction by ZEFSAII (Michael W. Deem and Ramdas Pophale) SiO2 
 PCOD8234147
Probable space group: P B C M
;
_chemical_formula_sum "Si O2"
_cell_formula_units_Z 48
_cell_length_a 11.705740
_cell_length_b 25.206314
_cell_length_c 8.456662
_cell_angle_alpha 90.000000
_cell_angle_beta 90.000000
_cell_angle_gamma 90.000000
_cell_volume 2495.210496
_symmetry_space_group_name_H-M "P B C M"
_symmetry_group_IT_number 57
_symmetry_cell_setting 'orthorhombic'
loop_
_space_group_symop_operation_xyz
x,y,z
-x,-y,1/2+z
x,1/2-y,-z
-x,1/2+y,1/2-z
-x,-y,-z
x,y,1/2-z
-x,1/2+y,z
x,1/2-y,1/2+z
loop_
_atom_site_type_symbol
_atom_site_label
_atom_site_fract_x
_atom_site_fract_y
_atom_site_fract_z
Si Si1 0.134252 0.692014 0.435064
Si Si2 0.508002 0.940469 0.935603
Si Si3 0.128477 0.192110 0.064927
Si Si4 0.258829 0.095220 0.933452
Si Si5 0.275926 0.903094 0.063853
Si Si6 0.125038 0.501066 0.566932
O O1 0.161697 0.750000 0.500000
O O2 0.161078 0.689608 0.250000
O O3 0.216403 0.652523 0.528426
O O4 0.002914 0.676535 0.470062
O O5 0.531773 0.942963 0.750000
O O6 0.609122 0.908660 0.020500
O O7 0.394950 0.906963 0.971874
O O8 0.500000 0.000000 0.000000
O O9 0.155245 0.189598 0.250000
O O10 0.155543 0.250000 0.000000
O O11 0.212365 0.153394 0.971381
O O12 0.242503 0.082200 0.750000
O O13 0.187199 0.053856 0.035350
O O14 0.298519 0.909243 0.250000
O O15 0.196708 0.950190 0.994457
O O16 0.113743 0.511101 0.750000
O O17 0.000000 0.500000 0.500000
#
# Coordination Sequence:
#
# PCOD8234147 Si02
#       6
#     8   8   8   8   8   8
#     4  10  21  38  62  90 122 160 201 247 300 357
#     4  12  24  41  63  87 118 159 204 248 301 359
#     4  10  21  39  63  91 124 160 203 248 301 360
#     4  12  24  39  61  88 121 159 202 248 301 359
#     4  11  23  39  60  87 120 158 201 247 299 357
#     4  11  23  37  57  86 122 157 196 246 302 361
#
# _framework density 19.236854000000001
#
# number of rings (size 3 to 8) (size 9 to 14) (size 15 to 20)
#    0.000    1.000    1.667    6.000    0.000    6.667 
#    0.000    0.833    0.000    0.000    0.000    0.000 
#    0.000    0.000    0.000    0.000    0.000    0.000 
#
# Total GULP energy -595516.183636 kJ/mol
# GULP energy per Si atom -12406.587159 kJ/mol
# Density = 1.919307 g / cm^3
# Si number density = 19.236854 Si / 1000 Ang^3
#
#
#
# Elastic Constant Matrix: (Units=GPa)
#
#
# Indices 1 2 3 4 5 6 
#
# 1 126.2064 52.8703 15.6425 0.0000 0.0000 0.0000
# 2 52.8703 100.4726 13.8866 0.0000 0.0000 0.0000
# 3 15.6425 13.8866 61.7607 0.0000 0.0000 0.0000
# 4 0.0000 0.0000 0.0000 35.6044 0.0000 0.0000
# 5 0.0000 0.0000 0.0000 0.0000 30.5748 0.0000
# 6 0.0000 0.0000 0.0000 0.0000 0.0000 -100.5663
#
#
#
# Elastic Compliance Matrix: (Units=1/GPa)
#
#
# Indices 1 2 3 4 5 6 
#
# 1 0.010286 -0.005214 -0.001433 0.000000 0.000000 0.000000
# 2 -0.005214 0.012916 -0.001583 0.000000 0.000000 0.000000
# 3 -0.001433 -0.001583 0.016910 0.000000 0.000000 0.000000
# 4 0.000000 0.000000 0.000000 0.028086 0.000000 0.000000
# 5 0.000000 0.000000 0.000000 0.000000 0.032707 0.000000
# 6 0.000000 0.000000 0.000000 0.000000 0.000000 -0.009944
#
#
# Mechanical properties :
#
#
# Convention : Reuss Voigt Hill
#
# Bulk Modulus (GPa) = 42.28183 50.35983 46.32083
# Shear Modulus (GPa) = 43.36312 6.85860 25.11086
#
# Velocity S-wave (km/s) = 4.75296 1.89026 3.61688
# Velocity P-wave (km/s) = 7.22137 5.56774 6.44779
#
# Compressibility (1/GPa) = 0.02365082
#
# Stress axis : x y z
#
# Youngs Moduli (GPa) = 97.22424 77.42514 59.13528
#
# Poissons Ratio (x) = 0.40372 0.08472
# Poissons Ratio (y) = 0.50696 0.09363
# Poissons Ratio (z) = 0.13929 0.12259
#
# Static dielectric constant tensor:
#      x y z
#    x 3.824460 0.000000 0.000000 
#    y 0.000000 3.481980 0.000000 
#    z 0.000000 0.000000 3.647700 
# 
# 
# High freq. dielectric constant tensor:
#      x y z
#    x 1.752830 0.000000 0.000000 
#    y 0.000000 1.749610 0.000000 
#    z 0.000000 0.000000 1.764720 
# 
# From -- ./inp_files/3085.got.cif
#   From: 2010.03.12/outbox.cif.g09.slc.cpg/sg57_2_cif.got.tgz:3085.got - 2010.04.16 15:48:40.
