data_PCOD8234023
_publ_section_title
;
Structure prediction by ZEFSAII (Michael W. Deem and Ramdas Pophale) SiO2 
 PCOD8234023
Probable space group: P B C M
;
_chemical_formula_sum "Si O2"
_cell_formula_units_Z 52
_cell_length_a 25.738499
_cell_length_b 5.224388
_cell_length_c 21.177243
_cell_angle_alpha 90.000000
_cell_angle_beta 90.000000
_cell_angle_gamma 90.000000
_cell_volume 2847.659507
_symmetry_space_group_name_H-M "P B C M"
_symmetry_group_IT_number 57
_symmetry_cell_setting 'orthorhombic'
loop_
_space_group_symop_operation_xyz
x,y,z
-x,-y,1/2+z
x,1/2-y,-z
-x,1/2+y,1/2-z
-x,-y,-z
x,y,1/2-z
-x,1/2+y,z
x,1/2-y,1/2+z
loop_
_atom_site_type_symbol
_atom_site_label
_atom_site_fract_x
_atom_site_fract_y
_atom_site_fract_z
Si Si1 0.466664 0.879007 0.250000
Si Si2 0.970549 0.437522 0.325272
Si Si3 0.323976 0.420133 0.175111
Si Si4 0.616117 0.083253 0.859286
Si Si5 0.205222 0.438683 0.324986
Si Si6 0.147014 0.560975 0.825375
Si Si7 0.522620 0.009390 0.570462
O O1 0.512165 0.089467 0.250000
O O2 0.430679 0.924860 0.310174
O O3 0.970611 0.437607 0.250000
O O4 0.911790 0.437754 0.351009
O O5 0.999944 0.187372 0.351304
O O6 0.330131 0.457090 0.250000
O O7 0.343332 0.142054 0.154068
O O8 0.264631 0.439349 0.152744
O O9 0.354913 0.645544 0.140252
O O10 0.585659 0.040050 0.926158
O O11 0.202456 0.435463 0.250000
O O12 0.176170 0.189019 0.352096
O O13 0.176608 0.689757 0.351806
O O14 0.147492 0.561184 0.750000
O O15 0.504800 0.749686 0.605741
O O16 0.500000 0.000000 0.500000
#
# Coordination Sequence:
#
# PCOD8234023 Si02
#       7
#     4   8   8   8   8   8   8
#     4  12  22  32  46  66  92 114 136 162 204 262
#     4   9  15  21  30  44  64  88 120 169 221 264
#     4  11  20  33  45  66  91 117 143 175 221 271
#     4  12  21  34  50  69  93 116 143 177 217 268
#     4   9  17  26  39  51  72 102 134 168 203 260
#     4   9  15  24  34  49  66  95 134 169 211 263
#     4  10  21  38  56  72  90 115 146 178 214 264
#
# _framework density 18.260611000000001
#
# number of rings (size 3 to 8) (size 9 to 14) (size 15 to 20)
#    0.000    1.846    1.538    4.615    0.000    6.154 
#    0.000    0.000    0.000    0.000    0.000    0.000 
#    0.000    0.000    0.000    0.000    0.000    0.000 
#
# Total GULP energy -644598.760028 kJ/mol
# GULP energy per Si atom -12396.130001 kJ/mol
# Density = 1.821905 g / cm^3
# Si number density = 18.260611 Si / 1000 Ang^3
#
#
#
# Elastic Constant Matrix: (Units=GPa)
#
#
# Indices 1 2 3 4 5 6 
#
# 1 144.8418 58.8580 15.0871 0.0000 0.0000 0.0000
# 2 58.8580 158.8598 -0.7616 0.0000 0.0000 0.0000
# 3 15.0871 -0.7616 19.4928 0.0000 0.0000 0.0000
# 4 0.0000 0.0000 0.0000 4.3700 0.0000 0.0000
# 5 0.0000 0.0000 0.0000 0.0000 8.6790 0.0000
# 6 0.0000 0.0000 0.0000 0.0000 0.0000 47.0580
#
#
#
# Elastic Compliance Matrix: (Units=1/GPa)
#
#
# Indices 1 2 3 4 5 6 
#
# 1 0.009016 -0.003375 -0.007110 0.000000 0.000000 0.000000
# 2 -0.003375 0.007559 0.002907 0.000000 0.000000 0.000000
# 3 -0.007110 0.002907 0.056918 0.000000 0.000000 0.000000
# 4 0.000000 0.000000 0.000000 0.228831 0.000000 0.000000
# 5 0.000000 0.000000 0.000000 0.000000 0.115221 0.000000
# 6 0.000000 0.000000 0.000000 0.000000 0.000000 0.021250
#
#
# Mechanical properties :
#
#
# Convention : Reuss Voigt Hill
#
# Bulk Modulus (GPa) = 17.14153 52.17346 34.65750
# Shear Modulus (GPa) = 10.56199 28.68880 19.62539
#
# Velocity S-wave (km/s) = 2.40761 3.96798 3.28188
# Velocity P-wave (km/s) = 4.13960 7.04463 5.77768
#
# Compressibility (1/GPa) = 0.05833784
#
# Stress axis : x y z
#
# Youngs Moduli (GPa) = 110.91448 132.29143 17.56926
#
# Poissons Ratio (x) = 0.44642 0.12492
# Poissons Ratio (y) = 0.37428 -0.05108
# Poissons Ratio (z) = 0.78861 -0.38459
#
# Static dielectric constant tensor:
#      x y z
#    x 3.586830 0.000000 0.000000 
#    y 0.000000 -2.532920 0.000000 
#    z 0.000000 0.000000 2.769450 
# 
# 
# High freq. dielectric constant tensor:
#      x y z
#    x 1.719280 0.000000 0.000000 
#    y 0.000000 1.739920 0.000000 
#    z 0.000000 0.000000 1.617300 
# 
# From -- ./inp_files/27642.got.cif
#   From: 2010.03.12/outbox.cif.g09.slc.cpg/sg57_14_cif.got.tgz:27642.got - 2010.04.16 15:48:40.
