data_PCOD8234476
_publ_section_title
;
Structure prediction by ZEFSAII (Michael W. Deem and Ramdas Pophale) SiO2 
 PCOD8234476
Probable space group: P B C M
;
_chemical_formula_sum "Si O2"
_cell_formula_units_Z 40
_cell_length_a 13.771216
_cell_length_b 8.256087
_cell_length_c 15.698327
_cell_angle_alpha 90.000000
_cell_angle_beta 90.000000
_cell_angle_gamma 90.000000
_cell_volume 1784.842597
_symmetry_space_group_name_H-M "P B C M"
_symmetry_group_IT_number 57
_symmetry_cell_setting 'orthorhombic'
loop_
_space_group_symop_operation_xyz
x,y,z
-x,-y,1/2+z
x,1/2-y,-z
-x,1/2+y,1/2-z
-x,-y,-z
x,y,1/2-z
-x,1/2+y,z
x,1/2-y,1/2+z
loop_
_atom_site_type_symbol
_atom_site_label
_atom_site_fract_x
_atom_site_fract_y
_atom_site_fract_z
Si Si1 0.255915 0.836207 0.911528
Si Si2 0.884199 0.717063 0.096878
Si Si3 0.640200 0.203195 0.750000
Si Si4 0.672585 0.796594 0.408035
Si Si5 0.937571 0.053048 0.155327
Si Si6 0.563302 0.660962 0.250000
O O1 0.295649 0.728225 0.834212
O O2 0.139045 0.852722 0.904976
O O3 0.302840 0.013941 0.906987
O O4 0.283064 0.750000 0.000000
O O5 0.769188 0.686021 0.107424
O O6 0.950538 0.566756 0.124961
O O7 0.915488 0.863870 0.156809
O O8 0.909626 0.750000 0.000000
O O9 0.553037 0.333533 0.750000
O O10 0.598013 0.022700 0.750000
O O11 0.627139 0.750000 0.500000
O O12 0.597567 0.755836 0.334183
O O13 0.924064 0.121684 0.250000
#
# Coordination Sequence:
#
# PCOD8234476 Si02
#       6
#     8   8   4   8   8   4
#     4  11  23  43  68  94 135 169 215 268 321 383
#     4  10  22  38  59  88 128 172 216 260 313 373
#     4  12  26  46  67 104 121 172 209 264 330 388
#     4  10  23  43  66  97 129 172 216 266 321 382
#     4  11  22  37  60  92 131 171 217 262 316 371
#     4  12  26  44  73  92 135 160 213 266 326 386
#
# _framework density 22.41094
#
# number of rings (size 3 to 8) (size 9 to 14) (size 15 to 20)
#    0.000    1.200    1.000    4.800    5.600    5.600 
#    0.000    4.000    0.000    0.000    0.000    0.000 
#    0.000    0.000    0.000    0.000    0.000    0.000 
#
# Total GULP energy -496038.561313 kJ/mol
# GULP energy per Si atom -12400.964033 kJ/mol
# Density = 2.235993 g / cm^3
# Si number density = 22.410940 Si / 1000 Ang^3
#
#
#
# Elastic Constant Matrix: (Units=GPa)
#
#
# Indices 1 2 3 4 5 6 
#
# 1 61.9212 0.2425 22.7939 0.0000 0.0000 0.0000
# 2 0.2425 51.3355 9.1540 0.0000 0.0000 0.0000
# 3 22.7939 9.1540 138.9630 0.0000 0.0000 0.0000
# 4 0.0000 0.0000 0.0000 34.6865 0.0000 0.0000
# 5 0.0000 0.0000 0.0000 0.0000 30.2343 0.0000
# 6 0.0000 0.0000 0.0000 0.0000 0.0000 32.1298
#
#
#
# Elastic Compliance Matrix: (Units=1/GPa)
#
#
# Indices 1 2 3 4 5 6 
#
# 1 0.017197 0.000427 -0.002849 0.000000 0.000000 0.000000
# 2 0.000427 0.019722 -0.001369 0.000000 0.000000 0.000000
# 3 -0.002849 -0.001369 0.007754 0.000000 0.000000 0.000000
# 4 0.000000 0.000000 0.000000 0.028830 0.000000 0.000000
# 5 0.000000 0.000000 0.000000 0.000000 0.033075 0.000000
# 6 0.000000 0.000000 0.000000 0.000000 0.000000 0.031124
#
#
# Mechanical properties :
#
#
# Convention : Reuss Voigt Hill
#
# Bulk Modulus (GPa) = 26.96175 35.17783 31.06979
# Shear Modulus (GPa) = 31.71661 34.07875 32.89768
#
# Velocity S-wave (km/s) = 3.76603 3.90376 3.83551
# Velocity P-wave (km/s) = 5.56484 6.00416 5.78867
#
# Compressibility (1/GPa) = 0.03708958
#
# Stress axis : x y z
#
# Youngs Moduli (GPa) = 58.15114 50.70526 128.97173
#
# Poissons Ratio (x) = -0.02164 0.36742
# Poissons Ratio (y) = -0.02482 0.17658
# Poissons Ratio (z) = 0.16566 0.06942
#
# Static dielectric constant tensor:
#      x y z
#    x 4.082720 0.000000 0.000000 
#    y 0.000000 3.965140 0.000000 
#    z 0.000000 0.000000 4.107580 
# 
# 
# High freq. dielectric constant tensor:
#      x y z
#    x 1.876050 0.000000 0.000000 
#    y 0.000000 1.877310 0.000000 
#    z 0.000000 0.000000 1.897970 
# 
# From -- ./inp_files/18265.got.cif
#   From: 2010.03.12/outbox.cif.g09.slc.cpg/sg57_10_cif.got.tgz:18265.got - 2010.04.16 15:48:40.
