data_PCOD8234073
_publ_section_title
;
Structure prediction by ZEFSAII (Michael W. Deem and Ramdas Pophale) SiO2 
 PCOD8234073
Probable space group: P B C M
;
_chemical_formula_sum "Si O2"
_cell_formula_units_Z 64
_cell_length_a 22.981463
_cell_length_b 9.406236
_cell_length_c 14.135870
_cell_angle_alpha 90.000000
_cell_angle_beta 90.000000
_cell_angle_gamma 90.000000
_cell_volume 3055.737795
_symmetry_space_group_name_H-M "P B C M"
_symmetry_group_IT_number 57
_symmetry_cell_setting 'orthorhombic'
loop_
_space_group_symop_operation_xyz
x,y,z
-x,-y,1/2+z
x,1/2-y,-z
-x,1/2+y,1/2-z
-x,-y,-z
x,y,1/2-z
-x,1/2+y,z
x,1/2-y,1/2+z
loop_
_atom_site_type_symbol
_atom_site_label
_atom_site_fract_x
_atom_site_fract_y
_atom_site_fract_z
Si Si1 0.258573 0.629521 0.140916
Si Si2 0.680046 0.591468 0.980507
Si Si3 0.432993 0.070775 0.854865
Si Si4 0.454870 0.748026 0.107141
Si Si5 0.924182 0.600724 0.980381
Si Si6 0.661218 0.116295 0.853634
Si Si7 0.038608 0.896140 0.136995
Si Si8 0.126583 0.858833 0.857695
O O1 0.271101 0.591153 0.250000
O O2 0.270421 0.488899 0.079370
O O3 0.302098 0.751512 0.104632
O O4 0.193193 0.687654 0.127055
O O5 0.619067 0.592174 0.926742
O O6 0.702551 0.750000 0.000000
O O7 0.669100 0.519570 0.081273
O O8 0.409619 0.103041 0.750000
O O9 0.482692 0.182063 0.880625
O O10 0.459155 0.912717 0.856861
O O11 0.405689 0.837277 0.160924
O O12 0.434214 0.750000 0.000000
O O13 0.883547 0.492236 0.925118
O O14 0.978307 0.644495 0.912971
O O15 0.891080 0.750000 0.000000
O O16 0.940790 0.538531 0.083560
O O17 0.685619 0.075030 0.750000
O O18 0.031787 0.924835 0.250000
O O19 0.084463 0.770865 0.115832
O O20 0.115037 0.906589 0.750000
#
# Coordination Sequence:
#
# PCOD8234073 Si02
#       8
#     8   8   8   8   8   8   8   8
#     4  10  22  45  72  92 118 161 216 266 308 367
#     4  12  26  42  62  93 129 166 201 257 321 379
#     4  12  25  41  62  92 126 164 205 255 316 377
#     4  12  23  42  63  89 126 163 208 259 314 373
#     4  11  22  35  57  91 132 169 203 254 316 369
#     4  11  23  43  67  91 121 163 212 260 310 369
#     4  10  21  38  59  88 127 170 216 259 302 362
#     4  10  22  41  67  94 121 165 216 259 307 369
#
# _framework density 20.944206000000001
#
# number of rings (size 3 to 8) (size 9 to 14) (size 15 to 20)
#    0.000    1.000    2.500    4.875    1.750    5.500 
#    0.000    0.000    0.000    3.000    0.000    0.000 
#    0.000    0.000    0.000    0.000    0.000    0.000 
#
# Total GULP energy -793707.343824 kJ/mol
# GULP energy per Si atom -12401.677247 kJ/mol
# Density = 2.089654 g / cm^3
# Si number density = 20.944206 Si / 1000 Ang^3
#
#
#
# Elastic Constant Matrix: (Units=GPa)
#
#
# Indices 1 2 3 4 5 6 
#
# 1 85.2000 22.2398 30.1068 0.0000 0.0000 0.0000
# 2 22.2398 115.9252 53.6077 0.0000 0.0000 0.0000
# 3 30.1068 53.6077 130.5710 0.0000 0.0000 0.0000
# 4 0.0000 0.0000 0.0000 -250.7570 0.0000 0.0000
# 5 0.0000 0.0000 0.0000 0.0000 7.8109 0.0000
# 6 0.0000 0.0000 0.0000 0.0000 0.0000 27.2323
#
#
#
# Elastic Compliance Matrix: (Units=1/GPa)
#
#
# Indices 1 2 3 4 5 6 
#
# 1 0.012950 -0.001362 -0.002427 0.000000 0.000000 0.000000
# 2 -0.001362 0.010791 -0.004116 0.000000 0.000000 0.000000
# 3 -0.002427 -0.004116 0.009908 0.000000 0.000000 0.000000
# 4 0.000000 0.000000 0.000000 -0.003988 0.000000 0.000000
# 5 0.000000 0.000000 0.000000 0.000000 0.128026 0.000000
# 6 0.000000 0.000000 0.000000 0.000000 0.000000 0.036721
#
#
# Mechanical properties :
#
#
# Convention : Reuss Voigt Hill
#
# Bulk Modulus (GPa) = 56.05721 60.40054 58.22888
# Shear Modulus (GPa) = 23.13036 -28.09330 -2.48147
#
# Velocity S-wave (km/s) = 3.32683 -3.66640 -1.08967
# Velocity P-wave (km/s) = 6.44827 3.31331 5.12631
#
# Compressibility (1/GPa) = 0.01783892
#
# Stress axis : x y z
#
# Youngs Moduli (GPa) = 77.21883 92.66877 100.92609
#
# Poissons Ratio (x) = 0.12624 0.24492
# Poissons Ratio (y) = 0.10519 0.41545
# Poissons Ratio (z) = 0.18739 0.38146
#
# Static dielectric constant tensor:
#      x y z
#    x 3.616320 0.000000 0.000000 
#    y 0.000000 3.808730 0.000000 
#    z 0.000000 0.000000 4.033690 
# 
# 
# High freq. dielectric constant tensor:
#      x y z
#    x 1.806490 0.000000 0.000000 
#    y 0.000000 1.815890 0.000000 
#    z 0.000000 0.000000 1.844000 
# 
# From -- ./inp_files/19480.got.cif
#   From: 2010.03.12/outbox.cif.g09.slc.cpg/sg57_10_cif.got.tgz:19480.got - 2010.04.16 15:48:40.
