data_PCOD8234381
_publ_section_title
;
Structure prediction by ZEFSAII (Michael W. Deem and Ramdas Pophale) SiO2 
 PCOD8234381
Probable space group: P B C M
;
_chemical_formula_sum "Si O2"
_cell_formula_units_Z 60
_cell_length_a 18.668872
_cell_length_b 16.647238
_cell_length_c 9.481414
_cell_angle_alpha 90.000000
_cell_angle_beta 90.000000
_cell_angle_gamma 90.000000
_cell_volume 2946.682723
_symmetry_space_group_name_H-M "P B C M"
_symmetry_group_IT_number 57
_symmetry_cell_setting 'orthorhombic'
loop_
_space_group_symop_operation_xyz
x,y,z
-x,-y,1/2+z
x,1/2-y,-z
-x,1/2+y,1/2-z
-x,-y,-z
x,y,1/2-z
-x,1/2+y,z
x,1/2-y,1/2+z
loop_
_atom_site_type_symbol
_atom_site_label
_atom_site_fract_x
_atom_site_fract_y
_atom_site_fract_z
Si Si1 0.029068 0.576064 0.414452
Si Si2 0.890278 0.673048 0.410072
Si Si3 0.165002 0.886818 0.092681
Si Si4 0.384912 0.863255 0.908911
Si Si5 0.479305 0.323841 0.083917
Si Si6 0.768814 0.553054 0.088109
Si Si7 0.263031 0.750000 0.500000
Si Si8 0.636939 0.547048 0.588068
O O1 0.040502 0.552666 0.250000
O O2 0.101607 0.612402 0.478839
O O3 0.000000 0.500000 0.500000
O O4 0.972167 0.647387 0.429484
O O5 0.871471 0.750000 0.500000
O O6 0.873798 0.696152 0.250000
O O7 0.839958 0.599955 0.459663
O O8 0.132485 0.898945 0.250000
O O9 0.218580 0.959380 0.056453
O O10 0.210516 0.804757 0.094119
O O11 0.416719 0.860406 0.750000
O O12 0.312691 0.809993 0.909156
O O13 0.370946 0.954587 0.954308
O O14 0.440658 0.830424 0.022972
O O15 0.483855 0.304867 0.250000
O O16 0.435843 0.405197 0.052714
O O17 0.441732 0.250000 0.000000
O O18 0.750407 0.568817 0.250000
O O19 0.701619 0.585327 0.000005
O O20 0.657625 0.557413 0.750000
#
# Coordination Sequence:
#
# PCOD8234381 Si02
#       8
#     8   8   8   8   8   8   4   8
#     4  11  23  42  67  94 128 171 217 267 322 384
#     4  10  23  42  62  90 124 163 214 265 314 372
#     4  11  24  42  63  94 133 171 212 262 321 387
#     4  11  23  41  65  94 129 166 212 261 315 387
#     4  11  24  41  64  92 127 167 212 263 321 380
#     4  10  21  41  64  88 122 165 208 257 316 379
#     4  12  24  40  68 100 132 166 216 260 328 384
#     4  10  23  42  63  93 128 165 210 262 318 384
#
# _framework density 20.361879999999999
#
# number of rings (size 3 to 8) (size 9 to 14) (size 15 to 20)
#    0.000    1.333    3.333    1.600    0.933    5.867 
#    0.000    2.667    0.000    0.000    0.000    0.000 
#    0.000    0.000    0.000    0.000    0.000    0.000 
#
# Total GULP energy -744070.018759 kJ/mol
# GULP energy per Si atom -12401.166979 kJ/mol
# Density = 2.031554 g / cm^3
# Si number density = 20.361880 Si / 1000 Ang^3
#
#
#
# Elastic Constant Matrix: (Units=GPa)
#
#
# Indices 1 2 3 4 5 6 
#
# 1 114.8165 47.0134 58.7194 0.0000 0.0000 0.0000
# 2 47.0134 125.8758 52.4668 0.0000 0.0000 0.0000
# 3 58.7194 52.4668 108.7185 0.0000 0.0000 0.0000
# 4 0.0000 0.0000 0.0000 31.9717 0.0000 0.0000
# 5 0.0000 0.0000 0.0000 0.0000 34.3246 0.0000
# 6 0.0000 0.0000 0.0000 0.0000 0.0000 32.8226
#
#
#
# Elastic Compliance Matrix: (Units=1/GPa)
#
#
# Indices 1 2 3 4 5 6 
#
# 1 0.012558 -0.002332 -0.005657 0.000000 0.000000 0.000000
# 2 -0.002332 0.010378 -0.003749 0.000000 0.000000 0.000000
# 3 -0.005657 -0.003749 0.014062 0.000000 0.000000 0.000000
# 4 0.000000 0.000000 0.000000 0.031278 0.000000 0.000000
# 5 0.000000 0.000000 0.000000 0.000000 0.029134 0.000000
# 6 0.000000 0.000000 0.000000 0.000000 0.000000 0.030467
#
#
# Mechanical properties :
#
#
# Convention : Reuss Voigt Hill
#
# Bulk Modulus (GPa) = 73.95158 73.97889 73.96523
# Shear Modulus (GPa) = 32.08028 32.57119 32.32574
#
# Velocity S-wave (km/s) = 3.97357 4.00386 3.98874
# Velocity P-wave (km/s) = 7.57957 7.60167 7.59063
#
# Compressibility (1/GPa) = 0.01352236
#
# Stress axis : x y z
#
# Youngs Moduli (GPa) = 79.63327 96.35863 71.11148
#
# Poissons Ratio (x) = 0.22473 0.40227
# Poissons Ratio (y) = 0.18573 0.26657
# Poissons Ratio (z) = 0.45047 0.36121
#
# Static dielectric constant tensor:
#      x y z
#    x 3.602300 0.000000 0.000000 
#    y 0.000000 3.878060 0.000000 
#    z 0.000000 0.000000 3.669900 
# 
# 
# High freq. dielectric constant tensor:
#      x y z
#    x 1.793630 0.000000 0.000000 
#    y 0.000000 1.802990 0.000000 
#    z 0.000000 0.000000 1.796560 
# 
# From -- ./inp_files/6934.got.cif
#   From: 2010.03.12/outbox.cif.g09.slc.cpg/sg57_4_cif.got.tgz:6934.got - 2010.04.16 15:48:40.
