data_PCOD8234468
_publ_section_title
;
Structure prediction by ZEFSAII (Michael W. Deem and Ramdas Pophale) SiO2 
 PCOD8234468
Probable space group: P B C M
;
_chemical_formula_sum "Si O2"
_cell_formula_units_Z 40
_cell_length_a 12.794314
_cell_length_b 18.045102
_cell_length_c 8.955538
_cell_angle_alpha 90.000000
_cell_angle_beta 90.000000
_cell_angle_gamma 90.000000
_cell_volume 2067.607159
_symmetry_space_group_name_H-M "P B C M"
_symmetry_group_IT_number 57
_symmetry_cell_setting 'orthorhombic'
loop_
_space_group_symop_operation_xyz
x,y,z
-x,-y,1/2+z
x,1/2-y,-z
-x,1/2+y,1/2-z
-x,-y,-z
x,y,1/2-z
-x,1/2+y,z
x,1/2-y,1/2+z
loop_
_atom_site_type_symbol
_atom_site_label
_atom_site_fract_x
_atom_site_fract_y
_atom_site_fract_z
Si Si1 0.902141 0.910801 0.926614
Si Si2 0.701378 0.825917 0.922450
Si Si3 0.498893 0.579429 0.424567
Si Si4 0.684462 0.170396 0.927461
Si Si5 0.111665 0.920555 0.075084
O O1 0.909808 0.906101 0.750000
O O2 0.809859 0.858246 0.987865
O O3 0.876283 0.994571 0.977903
O O4 0.011477 0.883514 0.995784
O O5 0.714514 0.807825 0.750000
O O6 0.612868 0.886679 0.949470
O O7 0.669275 0.750000 0.000000
O O8 0.500000 0.500000 0.500000
O O9 0.471159 0.572569 0.250000
O O10 0.416861 0.631787 0.505959
O O11 0.672014 0.177296 0.750000
O O12 0.785014 0.122618 0.973834
O O13 0.698064 0.250000 0.000000
O O14 0.092728 0.915022 0.250000
#
# Coordination Sequence:
#
# PCOD8234468 Si02
#       5
#     8   8   8   8   8
#     4   9  18  35  57  80 108 143 185 231 278 330
#     4  10  22  38  56  81 114 148 182 227 279 330
#     4  11  23  40  62  86 113 147 188 233 283 338
#     4  11  23  39  58  83 117 152 189 234 284 336
#     4   9  19  36  57  80 109 146 187 233 281 330
#
# _framework density 19.346035000000001
#
# number of rings (size 3 to 8) (size 9 to 14) (size 15 to 20)
#    0.000    2.000    0.000    3.000    0.000    9.600 
#    0.000    8.000    0.000    0.000    0.000    0.000 
#    0.000    0.000    0.000    0.000    0.000    0.000 
#
# Total GULP energy -496132.970467 kJ/mol
# GULP energy per Si atom -12403.324262 kJ/mol
# Density = 1.930200 g / cm^3
# Si number density = 19.346035 Si / 1000 Ang^3
#
#
#
# Elastic Constant Matrix: (Units=GPa)
#
#
# Indices 1 2 3 4 5 6 
#
# 1 87.7488 7.6587 38.6352 0.0000 0.0000 0.0000
# 2 7.6587 65.5001 31.0878 0.0000 0.0000 0.0000
# 3 38.6352 31.0878 63.1146 0.0000 0.0000 0.0000
# 4 0.0000 0.0000 0.0000 34.6035 0.0000 0.0000
# 5 0.0000 0.0000 0.0000 0.0000 34.6241 0.0000
# 6 0.0000 0.0000 0.0000 0.0000 0.0000 23.0449
#
#
#
# Elastic Compliance Matrix: (Units=1/GPa)
#
#
# Indices 1 2 3 4 5 6 
#
# 1 0.016254 0.003683 -0.011764 0.000000 0.000000 0.000000
# 2 0.003683 0.020760 -0.012480 0.000000 0.000000 0.000000
# 3 -0.011764 -0.012480 0.029193 0.000000 0.000000 0.000000
# 4 0.000000 0.000000 0.000000 0.028899 0.000000 0.000000
# 5 0.000000 0.000000 0.000000 0.000000 0.028882 0.000000
# 6 0.000000 0.000000 0.000000 0.000000 0.000000 0.043394
#
#
# Mechanical properties :
#
#
# Convention : Reuss Voigt Hill
#
# Bulk Modulus (GPa) = 39.86511 41.23632 40.55072
# Shear Modulus (GPa) = 23.05590 27.71995 25.38792
#
# Velocity S-wave (km/s) = 3.45594 3.78941 3.62651
# Velocity P-wave (km/s) = 6.04779 6.36455 6.20819
#
# Compressibility (1/GPa) = 0.02508459
#
# Stress axis : x y z
#
# Youngs Moduli (GPa) = 61.52200 48.17017 34.25528
#
# Poissons Ratio (x) = -0.17741 0.40298
# Poissons Ratio (y) = -0.22658 0.42750
# Poissons Ratio (z) = 0.72375 0.60116
#
# Static dielectric constant tensor:
#      x y z
#    x 3.766720 0.000000 0.000000 
#    y 0.000000 3.601350 0.000000 
#    z 0.000000 0.000000 3.523980 
# 
# 
# High freq. dielectric constant tensor:
#      x y z
#    x 1.769530 0.000000 0.000000 
#    y 0.000000 1.756520 0.000000 
#    z 0.000000 0.000000 1.751030 
# 
# From -- ./inp_files/2612.got.cif
#   From: 2010.03.12/outbox.cif.g09.slc.cpg/sg57_2_cif.got.tgz:2612.got - 2010.04.16 15:48:40.
