data_PCOD8234211
_publ_section_title
;
Structure prediction by ZEFSAII (Michael W. Deem and Ramdas Pophale) SiO2 
 PCOD8234211
Probable space group: P B C M
;
_chemical_formula_sum "Si O2"
_cell_formula_units_Z 48
_cell_length_a 4.984848
_cell_length_b 23.210740
_cell_length_c 16.772022
_cell_angle_alpha 90.000000
_cell_angle_beta 90.000000
_cell_angle_gamma 90.000000
_cell_volume 1940.556672
_symmetry_space_group_name_H-M "P B C M"
_symmetry_group_IT_number 57
_symmetry_cell_setting 'orthorhombic'
loop_
_space_group_symop_operation_xyz
x,y,z
-x,-y,1/2+z
x,1/2-y,-z
-x,1/2+y,1/2-z
-x,-y,-z
x,y,1/2-z
-x,1/2+y,z
x,1/2-y,1/2+z
loop_
_atom_site_type_symbol
_atom_site_label
_atom_site_fract_x
_atom_site_fract_y
_atom_site_fract_z
Si Si1 0.204307 0.006655 0.929500
Si Si2 0.439810 0.089313 0.047253
Si Si3 0.039409 0.138331 0.160437
Si Si4 0.075300 0.389427 0.339722
Si Si5 0.545985 0.285358 0.840484
Si Si6 0.423538 0.834127 0.415603
O O1 0.084680 0.041158 0.854008
O O2 0.329873 0.944687 0.901265
O O3 0.425471 0.050405 0.967072
O O4 0.000000 0.000000 0.000000
O O5 0.162766 0.091162 0.098711
O O6 0.508859 0.152391 0.009447
O O7 0.038264 0.112618 0.250000
O O8 0.241039 0.192917 0.156154
O O9 0.740900 0.160212 0.136150
O O10 0.982228 0.378259 0.250000
O O11 0.360891 0.359370 0.353742
O O12 0.867294 0.360900 0.400140
O O13 0.620891 0.265740 0.750000
O O14 0.592165 0.234336 0.902828
#
# Coordination Sequence:
#
# PCOD8234211 Si02
#       6
#     8   8   8   8   8   8
#     4  10  21  41  61  85 125 166 201 264 315 363
#     4  10  23  40  63  89 124 165 210 253 317 372
#     4  10  23  41  63  92 126 163 204 249 304 373
#     4  11  22  37  62  94 122 160 215 260 312 377
#     4  10  21  39  61  88 124 161 201 254 309 361
#     4  11  22  39  63  90 125 166 204 261 313 371
#
# _framework density 24.73517
#
# number of rings (size 3 to 8) (size 9 to 14) (size 15 to 20)
#    0.000    1.667    1.667    2.500    2.333    2.667 
#    0.000    2.500    0.000    0.000    0.000    0.000 
#    0.000    0.000    0.000    0.000    0.000    0.000 
#
# Total GULP energy -595070.911240 kJ/mol
# GULP energy per Si atom -12397.310651 kJ/mol
# Density = 2.467887 g / cm^3
# Si number density = 24.735170 Si / 1000 Ang^3
#
#
#
# Elastic Constant Matrix: (Units=GPa)
#
#
# Indices 1 2 3 4 5 6 
#
# 1 57.4775 -19.3282 -12.5546 0.0000 0.0000 0.0000
# 2 -19.3282 58.7755 -6.3986 0.0000 0.0000 0.0000
# 3 -12.5546 -6.3986 71.5588 0.0000 0.0000 0.0000
# 4 0.0000 0.0000 0.0000 37.0291 0.0000 0.0000
# 5 0.0000 0.0000 0.0000 0.0000 35.0220 0.0000
# 6 0.0000 0.0000 0.0000 0.0000 0.0000 28.5661
#
#
#
# Elastic Compliance Matrix: (Units=1/GPa)
#
#
# Indices 1 2 3 4 5 6 
#
# 1 0.020795 0.007307 0.004302 0.000000 0.000000 0.000000
# 2 0.007307 0.019748 0.003048 0.000000 0.000000 0.000000
# 3 0.004302 0.003048 0.015002 0.000000 0.000000 0.000000
# 4 0.000000 0.000000 0.000000 0.027006 0.000000 0.000000
# 5 0.000000 0.000000 0.000000 0.000000 0.028553 0.000000
# 6 0.000000 0.000000 0.000000 0.000000 0.000000 0.035007
#
#
# Mechanical properties :
#
#
# Convention : Reuss Voigt Hill
#
# Bulk Modulus (GPa) = 11.78452 12.36098 12.07275
# Shear Modulus (GPa) = 34.46271 35.19632 34.82952
#
# Velocity S-wave (km/s) = 3.73670 3.77626 3.75653
# Velocity P-wave (km/s) = 4.83651 4.90120 4.86896
#
# Compressibility (1/GPa) = 0.08485710
#
# Stress axis : x y z
#
# Youngs Moduli (GPa) = 48.08906 50.63683 66.65891
#
# Poissons Ratio (x) = -0.36998 -0.28674
# Poissons Ratio (y) = -0.35137 -0.20316
# Poissons Ratio (z) = -0.20686 -0.15433
#
# Static dielectric constant tensor:
#      x y z
#    x 4.504330 0.000000 0.000000 
#    y 0.000000 6.024310 0.000000 
#    z 0.000000 0.000000 4.796160 
# 
# 
# High freq. dielectric constant tensor:
#      x y z
#    x 1.993420 0.000000 0.000000 
#    y 0.000000 1.987430 0.000000 
#    z 0.000000 0.000000 1.977360 
# 
# From -- ./inp_files/20199.got.cif
#   From: 2010.03.12/outbox.cif.g09.slc.cpg/sg57_11_cif.got.tgz:20199.got - 2010.04.16 15:48:40.
