data_PCOD8234966
_publ_section_title
;
Structure prediction by ZEFSAII (Michael W. Deem and Ramdas Pophale) SiO2 
 PCOD8234966
Probable space group: P B C M
;
_chemical_formula_sum "Si O2"
_cell_formula_units_Z 48
_cell_length_a 14.711672
_cell_length_b 9.619476
_cell_length_c 16.637520
_cell_angle_alpha 90.000000
_cell_angle_beta 90.000000
_cell_angle_gamma 90.000000
_cell_volume 2354.518134
_symmetry_space_group_name_H-M "P B C M"
_symmetry_group_IT_number 57
_symmetry_cell_setting 'orthorhombic'
loop_
_space_group_symop_operation_xyz
x,y,z
-x,-y,1/2+z
x,1/2-y,-z
-x,1/2+y,1/2-z
-x,-y,-z
x,y,1/2-z
-x,1/2+y,z
x,1/2-y,1/2+z
loop_
_atom_site_type_symbol
_atom_site_label
_atom_site_fract_x
_atom_site_fract_y
_atom_site_fract_z
Si Si1 0.079219 0.195641 0.158638
Si Si2 0.257227 0.146119 0.430395
Si Si3 0.756208 0.397285 0.540029
Si Si4 0.050569 0.011719 0.583822
Si Si5 0.592891 0.064886 0.156610
Si Si6 0.553549 0.734315 0.593952
O O1 0.086165 0.243280 0.250000
O O2 0.176351 0.132297 0.133092
O O3 0.050686 0.327370 0.106411
O O4 0.003453 0.076748 0.149915
O O5 0.224085 0.250000 0.500000
O O6 0.346786 0.204426 0.386829
O O7 0.280621 0.997741 0.469694
O O8 0.774916 0.250000 0.500000
O O9 0.847676 0.455855 0.578671
O O10 0.683843 0.387479 0.611466
O O11 0.000000 0.000000 0.500000
O O12 0.615958 0.041921 0.250000
O O13 0.519297 0.186454 0.147886
O O14 0.551114 0.926380 0.117953
O O15 0.529246 0.750000 0.500000
#
# Coordination Sequence:
#
# PCOD8234966 Si02
#       6
#     8   8   8   8   8   8
#     4  12  25  41  66 101 135 169 218 278 334 385
#     4  11  21  45  68  94 123 173 228 261 324 404
#     4  12  25  43  70  98 128 174 227 271 326 397
#     4  12  23  44  69  95 131 178 221 268 326 404
#     4  12  26  43  66 100 138 172 218 278 338 384
#     4  11  23  43  70  95 128 177 224 269 321 404
#
# _framework density 20.386336
#
# number of rings (size 3 to 8) (size 9 to 14) (size 15 to 20)
#    0.000    0.333    6.667    3.500    2.333    4.000 
#    0.000    0.833    0.000    0.000    0.000    0.000 
#    0.000    0.000    0.000    0.000    0.000    0.000 
#
# Total GULP energy -595546.920553 kJ/mol
# GULP energy per Si atom -12407.227512 kJ/mol
# Density = 2.033994 g / cm^3
# Si number density = 20.386336 Si / 1000 Ang^3
#
#
#
# Elastic Constant Matrix: (Units=GPa)
#
#
# Indices 1 2 3 4 5 6 
#
# 1 118.9961 13.1565 24.0360 0.0000 0.0000 0.0000
# 2 13.1565 77.1469 5.7026 0.0000 0.0000 0.0000
# 3 24.0360 5.7026 96.1253 0.0000 0.0000 0.0000
# 4 0.0000 0.0000 0.0000 25.0848 0.0000 0.0000
# 5 0.0000 0.0000 0.0000 0.0000 19.5358 0.0000
# 6 0.0000 0.0000 0.0000 0.0000 0.0000 31.8229
#
#
#
# Elastic Compliance Matrix: (Units=1/GPa)
#
#
# Indices 1 2 3 4 5 6 
#
# 1 0.008993 -0.001373 -0.002167 0.000000 0.000000 0.000000
# 2 -0.001373 0.013229 -0.000441 0.000000 0.000000 0.000000
# 3 -0.002167 -0.000441 0.010971 0.000000 0.000000 0.000000
# 4 0.000000 0.000000 0.000000 0.039865 0.000000 0.000000
# 5 0.000000 0.000000 0.000000 0.000000 0.051188 0.000000
# 6 0.000000 0.000000 0.000000 0.000000 0.000000 0.031424
#
#
# Mechanical properties :
#
#
# Convention : Reuss Voigt Hill
#
# Bulk Modulus (GPa) = 39.63642 42.00651 40.82146
# Shear Modulus (GPa) = 29.06226 31.91356 30.48791
#
# Velocity S-wave (km/s) = 3.77978 3.96086 3.87137
# Velocity P-wave (km/s) = 6.20756 6.44731 6.32857
#
# Compressibility (1/GPa) = 0.02522932
#
# Stress axis : x y z
#
# Youngs Moduli (GPa) = 111.19436 75.59066 91.14771
#
# Poissons Ratio (x) = 0.10382 0.19754
# Poissons Ratio (y) = 0.15272 0.04023
# Poissons Ratio (z) = 0.24099 0.03336
#
# Static dielectric constant tensor:
#      x y z
#    x 3.904210 0.000000 0.000000 
#    y 0.000000 3.988980 0.000000 
#    z 0.000000 0.000000 3.568820 
# 
# 
# High freq. dielectric constant tensor:
#      x y z
#    x 1.810130 0.000000 0.000000 
#    y 0.000000 1.809150 0.000000 
#    z 0.000000 0.000000 1.786080 
# 
# From -- ./inp_files/22423.got.cif
#   From: 2010.03.12/outbox.cif.g09.slc.cpg/sg57_12_cif.got.tgz:22423.got - 2010.04.16 15:48:40.
