data_PCOD8234806
_publ_section_title
;
Structure prediction by ZEFSAII (Michael W. Deem and Ramdas Pophale) SiO2 
 PCOD8234806
Probable space group: P B C M
;
_chemical_formula_sum "Si O2"
_cell_formula_units_Z 40
_cell_length_a 10.542467
_cell_length_b 8.879437
_cell_length_c 17.861291
_cell_angle_alpha 90.000000
_cell_angle_beta 90.000000
_cell_angle_gamma 90.000000
_cell_volume 1672.016376
_symmetry_space_group_name_H-M "P B C M"
_symmetry_group_IT_number 57
_symmetry_cell_setting 'orthorhombic'
loop_
_space_group_symop_operation_xyz
x,y,z
-x,-y,1/2+z
x,1/2-y,-z
-x,1/2+y,1/2-z
-x,-y,-z
x,y,1/2-z
-x,1/2+y,z
x,1/2-y,1/2+z
loop_
_atom_site_type_symbol
_atom_site_label
_atom_site_fract_x
_atom_site_fract_y
_atom_site_fract_z
Si Si1 0.797525 0.299171 0.880701
Si Si2 0.547058 0.339256 0.163364
Si Si3 0.940723 0.460360 0.750000
Si Si4 0.146017 0.973113 0.022663
Si Si5 0.169454 0.220041 0.250000
Si Si6 0.667084 0.848862 0.886864
O O1 0.663449 0.277350 0.840518
O O2 0.890064 0.382237 0.824508
O O3 0.857513 0.139159 0.906144
O O4 0.778529 0.402484 0.953576
O O5 0.498638 0.343327 0.250000
O O6 0.592690 0.502079 0.137734
O O7 0.441092 0.280116 0.103241
O O8 0.923403 0.637613 0.750000
O O9 0.091331 0.435467 0.750000
O O10 0.232797 0.119080 0.045347
O O11 0.000000 0.000000 0.000000
O O12 0.253381 0.227075 0.322326
#
# Coordination Sequence:
#
# PCOD8234806 Si02
#       6
#     8   8   4   8   4   8
#     4  10  24  43  72 104 144 205 243 321 383 444
#     4  11  21  41  72 103 150 184 251 316 374 458
#     4  12  28  43  75 106 148 189 270 314 386 453
#     4  10  23  47  71 103 157 200 255 313 386 468
#     4  12  28  43  69 110 146 195 256 326 384 455
#     4  11  25  44  74 107 150 202 251 315 399 457
#
# _framework density 23.923210999999998
#
# number of rings (size 3 to 8) (size 9 to 14) (size 15 to 20)
#    0.000    1.200    3.000    1.200   11.200    0.800 
#    0.000    0.000    0.000    0.000    0.000    0.000 
#    0.000    0.000    0.000    0.000    0.000    0.000 
#
# Total GULP energy -495767.901562 kJ/mol
# GULP energy per Si atom -12394.197539 kJ/mol
# Density = 2.386876 g / cm^3
# Si number density = 23.923211 Si / 1000 Ang^3
#
#
#
# Elastic Constant Matrix: (Units=GPa)
#
#
# Indices 1 2 3 4 5 6 
#
# 1 125.4387 34.9391 12.6935 0.0000 0.0000 0.0000
# 2 34.9391 79.6645 20.0025 0.0000 0.0000 0.0000
# 3 12.6935 20.0025 74.8446 0.0000 0.0000 0.0000
# 4 0.0000 0.0000 0.0000-4674.0959 0.0000 0.0000
# 5 0.0000 0.0000 0.0000 0.0000 44.4126 0.0000
# 6 0.0000 0.0000 0.0000 0.0000 0.0000 50.1181
#
#
#
# Elastic Compliance Matrix: (Units=1/GPa)
#
#
# Indices 1 2 3 4 5 6 
#
# 1 0.009100 -0.003863 -0.000511 0.000000 0.000000 0.000000
# 2 -0.003863 0.015095 -0.003379 0.000000 0.000000 0.000000
# 3 -0.000511 -0.003379 0.014351 0.000000 0.000000 0.000000
# 4 0.000000 0.000000 0.000000 -0.000214 0.000000 0.000000
# 5 0.000000 0.000000 0.000000 0.000000 0.022516 0.000000
# 6 0.000000 0.000000 0.000000 0.000000 0.000000 0.019953
#
#
# Mechanical properties :
#
#
# Convention : Reuss Voigt Hill
#
# Bulk Modulus (GPa) = 43.40264 46.13533 44.76899
# Shear Modulus (GPa) = 48.08339 -901.75886 -426.83773
#
# Velocity S-wave (km/s) = 4.48806 -19.43598 -13.37188
# Velocity P-wave (km/s) = 6.71109 22.00794 14.82078
#
# Compressibility (1/GPa) = 0.02304007
#
# Stress axis : x y z
#
# Youngs Moduli (GPa) = 109.89502 66.24653 69.68269
#
# Poissons Ratio (x) = 0.25588 0.03561
# Poissons Ratio (y) = 0.42448 0.23547
# Poissons Ratio (z) = 0.05615 0.22386
#
# Static dielectric constant tensor:
#      x y z
#    x 4.442300 0.000000 0.000000 
#    y 0.000000 4.338920 0.000000 
#    z 0.000000 0.000000 4.503060 
# 
# 
# High freq. dielectric constant tensor:
#      x y z
#    x 1.959020 0.000000 0.000000 
#    y 0.000000 1.949990 0.000000 
#    z 0.000000 0.000000 1.945000 
# 
# From -- ./inp_files/21646.got.cif
#   From: 2010.03.12/outbox.cif.g09.slc.cpg/sg57_11_cif.got.tgz:21646.got - 2010.04.16 15:48:40.
