data_PCOD8234127
_publ_section_title
;
Structure prediction by ZEFSAII (Michael W. Deem and Ramdas Pophale) SiO2 
 PCOD8234127
Probable space group: P B C M
;
_chemical_formula_sum "Si O2"
_cell_formula_units_Z 40
_cell_length_a 12.855643
_cell_length_b 11.296814
_cell_length_c 14.134687
_cell_angle_alpha 90.000000
_cell_angle_beta 90.000000
_cell_angle_gamma 90.000000
_cell_volume 2052.749607
_symmetry_space_group_name_H-M "P B C M"
_symmetry_group_IT_number 57
_symmetry_cell_setting 'orthorhombic'
loop_
_space_group_symop_operation_xyz
x,y,z
-x,-y,1/2+z
x,1/2-y,-z
-x,1/2+y,1/2-z
-x,-y,-z
x,y,1/2-z
-x,1/2+y,z
x,1/2-y,1/2+z
loop_
_atom_site_type_symbol
_atom_site_label
_atom_site_fract_x
_atom_site_fract_y
_atom_site_fract_z
Si Si1 0.107027 0.319797 0.094816
Si Si2 0.388883 0.057875 0.988909
Si Si3 0.184011 0.569456 0.464910
Si Si4 0.881437 0.299557 0.145165
Si Si5 0.331010 0.260936 0.856567
O O1 0.119644 0.457648 0.071411
O O2 0.208574 0.268015 0.145612
O O3 0.006108 0.299763 0.158830
O O4 0.084443 0.250000 0.000000
O O5 0.394287 0.154376 0.905302
O O6 0.307314 0.955533 0.962348
O O7 0.350973 0.118719 0.086099
O O8 0.500000 0.000000 0.000000
O O9 0.151404 0.597419 0.572815
O O10 0.160812 0.675491 0.393606
O O11 0.833745 0.321705 0.250000
O O12 0.371881 0.277191 0.750000
#
# Coordination Sequence:
#
# PCOD8234127 Si02
#       5
#     8   8   8   8   8
#     4  11  19  40  62  85 117 160 195 240 287 352
#     4  10  22  41  62  83 115 156 193 249 304 340
#     4  10  22  41  58  82 123 154 198 243 292 351
#     4  11  24  36  58  91 124 159 192 236 296 353
#     4  10  21  38  61  89 114 148 202 244 287 354
#
# _framework density 19.486058
#
# number of rings (size 3 to 8) (size 9 to 14) (size 15 to 20)
#    0.000    1.600    6.000    1.200    0.000    8.800 
#    0.000    2.000    0.000    0.000    0.000    0.000 
#    0.000    0.000    0.000    0.000    0.000    0.000 
#
# Total GULP energy -496006.512408 kJ/mol
# GULP energy per Si atom -12400.162810 kJ/mol
# Density = 1.944171 g / cm^3
# Si number density = 19.486058 Si / 1000 Ang^3
#
#
#
# Elastic Constant Matrix: (Units=GPa)
#
#
# Indices 1 2 3 4 5 6 
#
# 1 120.2408 59.5811 20.2906 0.0000 0.0000 0.0000
# 2 59.5811 98.4624 35.7101 0.0000 0.0000 0.0000
# 3 20.2906 35.7101 143.0842 0.0000 0.0000 0.0000
# 4 0.0000 0.0000 0.0000 6.5129 0.0000 0.0000
# 5 0.0000 0.0000 0.0000 0.0000 64.2318 0.0000
# 6 0.0000 0.0000 0.0000 0.0000 0.0000 27.1916
#
#
#
# Elastic Compliance Matrix: (Units=1/GPa)
#
#
# Indices 1 2 3 4 5 6 
#
# 1 0.011880 -0.007233 0.000120 0.000000 0.000000 0.000000
# 2 -0.007233 0.015570 -0.002860 0.000000 0.000000 0.000000
# 3 0.000120 -0.002860 0.007686 0.000000 0.000000 0.000000
# 4 0.000000 0.000000 0.000000 0.153542 0.000000 0.000000
# 5 0.000000 0.000000 0.000000 0.000000 0.015569 0.000000
# 6 0.000000 0.000000 0.000000 0.000000 0.000000 0.036776
#
#
# Mechanical properties :
#
#
# Convention : Reuss Voigt Hill
#
# Bulk Modulus (GPa) = 65.82842 65.88347 65.85595
# Shear Modulus (GPa) = 18.79479 36.00094 27.39786
#
# Velocity S-wave (km/s) = 3.10905 4.30295 3.75377
# Velocity P-wave (km/s) = 6.83695 7.65317 7.25655
#
# Compressibility (1/GPa) = 0.01519101
#
# Stress axis : x y z
#
# Youngs Moduli (GPa) = 84.17398 64.22604 130.11226
#
# Poissons Ratio (x) = 0.46452 -0.01566
# Poissons Ratio (y) = 0.60879 0.37215
# Poissons Ratio (z) = -0.01013 0.18370
#
# Static dielectric constant tensor:
#      x y z
#    x 3.498320 0.000000 0.000000 
#    y 0.000000 3.638110 0.000000 
#    z 0.000000 0.000000 2.708550 
# 
# 
# High freq. dielectric constant tensor:
#      x y z
#    x 1.749570 0.000000 0.000000 
#    y 0.000000 1.762290 0.000000 
#    z 0.000000 0.000000 1.758750 
# 
# From -- ./inp_files/17380.got.cif
#   From: 2010.03.12/outbox.cif.g09.slc.cpg/sg57_9_cif.got.tgz:17380.got - 2010.04.16 15:48:40.
