data_PCOD8234096
_publ_section_title
;
Structure prediction by ZEFSAII (Michael W. Deem and Ramdas Pophale) SiO2 
 PCOD8234096
Probable space group: P B C M
;
_chemical_formula_sum "Si O2"
_cell_formula_units_Z 56
_cell_length_a 17.150812
_cell_length_b 9.050354
_cell_length_c 17.399204
_cell_angle_alpha 90.000000
_cell_angle_beta 90.000000
_cell_angle_gamma 90.000000
_cell_volume 2700.720452
_symmetry_space_group_name_H-M "P B C M"
_symmetry_group_IT_number 57
_symmetry_cell_setting 'orthorhombic'
loop_
_space_group_symop_operation_xyz
x,y,z
-x,-y,1/2+z
x,1/2-y,-z
-x,1/2+y,1/2-z
-x,-y,-z
x,y,1/2-z
-x,1/2+y,z
x,1/2-y,1/2+z
loop_
_atom_site_type_symbol
_atom_site_label
_atom_site_fract_x
_atom_site_fract_y
_atom_site_fract_z
Si Si1 0.617821 0.857150 0.338384
Si Si2 0.914620 0.896485 0.090163
Si Si3 0.811522 0.367783 0.163726
Si Si4 0.062499 0.069183 0.409751
Si Si5 0.530860 0.119385 0.943798
Si Si6 0.233797 0.540189 0.158999
Si Si7 0.653006 0.973021 0.835222
O O1 0.595305 0.884559 0.250000
O O2 0.538149 0.847639 0.384922
O O3 0.657451 0.699996 0.352896
O O4 0.679013 0.984805 0.365136
O O5 0.925050 0.731938 0.126699
O O6 0.828227 0.943859 0.112859
O O7 0.928938 0.902282 0.999682
O O8 0.978965 0.011821 0.121859
O O9 0.844245 0.350235 0.250000
O O10 0.877745 0.438532 0.111189
O O11 0.779671 0.209638 0.133891
O O12 0.741613 0.481360 0.160953
O O13 0.605262 0.065471 0.897043
O O14 0.556954 0.250000 0.000000
O O15 0.500000 0.000000 0.000000
O O16 0.222943 0.516647 0.250000
O O17 0.617720 0.003006 0.750000
#
# Coordination Sequence:
#
# PCOD8234096 Si02
#       7
#     8   8   8   8   8   8   8
#     4  10  22  42  64  87 120 163 204 247 304 367
#     4  10  21  38  60  87 120 159 200 245 302 359
#     4  10  22  39  61  90 119 154 202 248 295 356
#     4  10  21  38  60  87 121 158 200 248 300 361
#     4  12  25  42  61  92 126 154 199 253 304 364
#     4  10  22  39  61  89 119 156 202 247 296 355
#     4  10  22  42  64  86 120 163 204 247 305 368
#
# _framework density 20.735206999999999
#
# number of rings (size 3 to 8) (size 9 to 14) (size 15 to 20)
#    0.000    1.714    1.429    2.143    2.000    5.143 
#    2.571    0.000    0.000    0.000    0.000    0.000 
#    0.000    0.000    0.000    0.000    0.000    0.000 
#
# Total GULP energy -694113.008726 kJ/mol
# GULP energy per Si atom -12394.875156 kJ/mol
# Density = 2.068801 g / cm^3
# Si number density = 20.735207 Si / 1000 Ang^3
#
#
#
# Elastic Constant Matrix: (Units=GPa)
#
#
# Indices 1 2 3 4 5 6 
#
# 1 58.2318 7.2960 16.7939 0.0000 0.0000 0.0000
# 2 7.2960 101.3694 21.1123 0.0000 0.0000 0.0000
# 3 16.7939 21.1123 45.4774 0.0000 0.0000 0.0000
# 4 0.0000 0.0000 0.0000 35.9488 0.0000 0.0000
# 5 0.0000 0.0000 0.0000 0.0000 36.4429 0.0000
# 6 0.0000 0.0000 0.0000 0.0000 0.0000 41.0645
#
#
#
# Elastic Compliance Matrix: (Units=1/GPa)
#
#
# Indices 1 2 3 4 5 6 
#
# 1 0.019221 0.000105 -0.007147 0.000000 0.000000 0.000000
# 2 0.000105 0.010921 -0.005109 0.000000 0.000000 0.000000
# 3 -0.007147 -0.005109 0.027000 0.000000 0.000000 0.000000
# 4 0.000000 0.000000 0.000000 0.027817 0.000000 0.000000
# 5 0.000000 0.000000 0.000000 0.000000 0.027440 0.000000
# 6 0.000000 0.000000 0.000000 0.000000 0.000000 0.024352
#
#
# Mechanical properties :
#
#
# Convention : Reuss Voigt Hill
#
# Bulk Modulus (GPa) = 30.44979 32.83144 31.64062
# Shear Modulus (GPa) = 29.06994 33.34967 31.20980
#
# Velocity S-wave (km/s) = 3.74834 4.01479 3.88385
# Velocity P-wave (km/s) = 5.78363 6.11223 5.95020
#
# Compressibility (1/GPa) = 0.03284094
#
# Stress axis : x y z
#
# Youngs Moduli (GPa) = 52.02747 91.56349 37.03739
#
# Poissons Ratio (x) = -0.00962 0.26469
# Poissons Ratio (y) = -0.00546 0.18922
# Poissons Ratio (z) = 0.37182 0.46779
#
# Static dielectric constant tensor:
#      x y z
#    x 4.933750 0.000000 0.000000 
#    y 0.000000 4.115840 0.000000 
#    z 0.000000 0.000000 3.713520 
# 
# 
# High freq. dielectric constant tensor:
#      x y z
#    x 1.812540 0.000000 0.000000 
#    y 0.000000 1.831380 0.000000 
#    z 0.000000 0.000000 1.799690 
# 
# From -- ./inp_files/25423.got.cif
#   From: 2010.03.12/outbox.cif.g09.slc.cpg/sg57_13_cif.got.tgz:25423.got - 2010.04.16 15:48:40.
