data_PCOD8234008
_publ_section_title
;
Structure prediction by ZEFSAII (Michael W. Deem and Ramdas Pophale) SiO2 
 PCOD8234008
Probable space group: P B C M
;
_chemical_formula_sum "Si O2"
_cell_formula_units_Z 64
_cell_length_a 11.683234
_cell_length_b 14.550975
_cell_length_c 17.744871
_cell_angle_alpha 90.000000
_cell_angle_beta 90.000000
_cell_angle_gamma 90.000000
_cell_volume 3016.671471
_symmetry_space_group_name_H-M "P B C M"
_symmetry_group_IT_number 57
_symmetry_cell_setting 'orthorhombic'
loop_
_space_group_symop_operation_xyz
x,y,z
-x,-y,1/2+z
x,1/2-y,-z
-x,1/2+y,1/2-z
-x,-y,-z
x,y,1/2-z
-x,1/2+y,z
x,1/2-y,1/2+z
loop_
_atom_site_type_symbol
_atom_site_label
_atom_site_fract_x
_atom_site_fract_y
_atom_site_fract_z
Si Si1 0.879687 0.304663 0.929106
Si Si2 0.962419 0.802101 0.334009
Si Si3 0.580793 0.933881 0.338558
Si Si4 0.134942 0.551261 0.665234
Si Si5 0.918708 0.572473 0.036939
Si Si6 0.649234 0.162310 0.661674
Si Si7 0.684434 0.370728 0.661542
Si Si8 0.756970 0.674822 0.939399
O O1 0.794249 0.381345 0.894103
O O2 0.917326 0.244674 0.857289
O O3 0.001699 0.339131 0.958774
O O4 0.823009 0.250000 0.000000
O O5 0.927676 0.771838 0.250000
O O6 0.855385 0.779823 0.387381
O O7 0.005108 0.908109 0.336480
O O8 0.602125 0.914917 0.250000
O O9 0.454342 0.903583 0.364856
O O10 0.661100 0.865821 0.385331
O O11 0.600591 0.042806 0.356101
O O12 0.170143 0.524192 0.750000
O O13 0.130333 0.458107 0.617595
O O14 0.232435 0.619425 0.629278
O O15 0.809434 0.590102 0.985074
O O16 0.000000 0.500000 0.000000
O O17 0.656642 0.159579 0.750000
O O18 0.631897 0.270234 0.638370
O O19 0.718732 0.372992 0.750000
O O20 0.710300 0.750000 0.000000
#
# Coordination Sequence:
#
# PCOD8234008 Si02
#       8
#     8   8   8   8   8   8   8   8
#     4  12  21  37  58  90 129 172 207 253 317 380
#     4  11  20  36  60  87 119 161 211 257 313 373
#     4  10  23  44  70  97 125 164 218 275 325 377
#     4  10  21  37  62  93 125 164 211 268 321 381
#     4  12  22  37  58  87 132 168 204 254 322 381
#     4   9  19  42  69  93 126 163 212 277 327 369
#     4  10  21  39  68  99 122 161 221 272 316 381
#     4  12  23  43  59  86 133 175 205 254 324 391
#
# _framework density 21.215437000000001
#
# number of rings (size 3 to 8) (size 9 to 14) (size 15 to 20)
#    0.000    1.250    5.000    1.500    0.000    1.000 
#    2.250    1.250    0.000    0.000    0.000    0.000 
#    0.000    0.000    0.000    0.000    0.000    0.000 
#
# Total GULP energy -792859.309796 kJ/mol
# GULP energy per Si atom -12388.426716 kJ/mol
# Density = 2.116715 g / cm^3
# Si number density = 21.215437 Si / 1000 Ang^3
#
#
#
# Elastic Constant Matrix: (Units=GPa)
#
#
# Indices 1 2 3 4 5 6 
#
# 1 84.2465 32.2446 25.4849 0.0000 0.0000 0.0000
# 2 32.2446 88.0022 34.2006 0.0000 0.0000 0.0000
# 3 25.4849 34.2006 91.1138 0.0000 0.0000 0.0000
# 4 0.0000 0.0000 0.0000 38.3981 0.0000 0.0000
# 5 0.0000 0.0000 0.0000 0.0000 22.7799 0.0000
# 6 0.0000 0.0000 0.0000 0.0000 0.0000 36.8739
#
#
#
# Elastic Compliance Matrix: (Units=1/GPa)
#
#
# Indices 1 2 3 4 5 6 
#
# 1 0.014230 -0.004293 -0.002369 0.000000 0.000000 0.000000
# 2 -0.004293 0.014600 -0.004279 0.000000 0.000000 0.000000
# 3 -0.002369 -0.004279 0.013244 0.000000 0.000000 0.000000
# 4 0.000000 0.000000 0.000000 0.026043 0.000000 0.000000
# 5 0.000000 0.000000 0.000000 0.000000 0.043898 0.000000
# 6 0.000000 0.000000 0.000000 0.000000 0.000000 0.027119
#
#
# Mechanical properties :
#
#
# Convention : Reuss Voigt Hill
#
# Bulk Modulus (GPa) = 49.52703 49.69138 49.60920
# Shear Modulus (GPa) = 29.80686 31.03920 30.42303
#
# Velocity S-wave (km/s) = 3.75235 3.82913 3.79093
# Velocity P-wave (km/s) = 6.49376 6.55917 6.52655
#
# Compressibility (1/GPa) = 0.02019100
#
# Stress axis : x y z
#
# Youngs Moduli (GPa) = 70.27572 68.49544 75.50578
#
# Poissons Ratio (x) = 0.29408 0.17884
# Poissons Ratio (y) = 0.30172 0.32311
# Poissons Ratio (z) = 0.16645 0.29311
#
# Static dielectric constant tensor:
#      x y z
#    x 3.821870 0.000000 0.000000 
#    y 0.000000 4.957620 0.000000 
#    z 0.000000 0.000000 3.891030 
# 
# 
# High freq. dielectric constant tensor:
#      x y z
#    x 1.808100 0.000000 0.000000 
#    y 0.000000 1.828270 0.000000 
#    z 0.000000 0.000000 1.835780 
# 
# From -- ./inp_files/22044.got.cif
#   From: 2010.03.12/outbox.cif.g09.slc.cpg/sg57_12_cif.got.tgz:22044.got - 2010.04.16 15:48:40.
