data_PCOD8234485
_publ_section_title
;
Structure prediction by ZEFSAII (Michael W. Deem and Ramdas Pophale) SiO2 
 PCOD8234485
Probable space group: P B C M
;
_chemical_formula_sum "Si O2"
_cell_formula_units_Z 28
_cell_length_a 6.434787
_cell_length_b 22.488400
_cell_length_c 9.328184
_cell_angle_alpha 90.000000
_cell_angle_beta 90.000000
_cell_angle_gamma 90.000000
_cell_volume 1349.863447
_symmetry_space_group_name_H-M "P B C M"
_symmetry_group_IT_number 57
_symmetry_cell_setting 'orthorhombic'
loop_
_space_group_symop_operation_xyz
x,y,z
-x,-y,1/2+z
x,1/2-y,-z
-x,1/2+y,1/2-z
-x,-y,-z
x,y,1/2-z
-x,1/2+y,z
x,1/2-y,1/2+z
loop_
_atom_site_type_symbol
_atom_site_label
_atom_site_fract_x
_atom_site_fract_y
_atom_site_fract_z
Si Si1 0.290067 0.849878 0.588753
Si Si2 0.682988 0.657106 0.906787
Si Si3 0.002652 0.250000 0.500000
Si Si4 0.017047 0.938753 0.417353
O O1 0.316066 0.874368 0.750000
O O2 0.514288 0.830417 0.528824
O O3 0.142083 0.792386 0.596228
O O4 0.204461 0.901501 0.486661
O O5 0.575982 0.654834 0.750000
O O6 0.799253 0.595129 0.938892
O O7 0.853178 0.709456 0.899915
O O8 0.067366 0.949135 0.250000
O O9 0.000000 0.000000 0.500000
#
# Coordination Sequence:
#
# PCOD8234485 Si02
#       4
#     8   8   4   8
#     4  11  23  38  60  89 119 154 195 239 290 347
#     4  10  22  39  59  85 117 153 192 237 289 343
#     4  10  22  38  60  86 118 154 196 240 284 340
#     4  10  22  41  63  86 116 153 195 243 292 345
#
# _framework density 20.742837000000002
#
# number of rings (size 3 to 8) (size 9 to 14) (size 15 to 20)
#    0.000    1.714    0.000    3.429    0.000   13.714 
#    0.000    0.000    0.000    0.000    0.000    0.000 
#    0.000    0.000    0.000    0.000    0.000    0.000 
#
# Total GULP energy -347243.760977 kJ/mol
# GULP energy per Si atom -12401.562892 kJ/mol
# Density = 2.069563 g / cm^3
# Si number density = 20.742837 Si / 1000 Ang^3
#
#
#
# Elastic Constant Matrix: (Units=GPa)
#
#
# Indices 1 2 3 4 5 6 
#
# 1 113.8212 46.1208 68.0831 0.0000 0.0000 0.0000
# 2 46.1208 138.0154 58.7270 0.0000 0.0000 0.0000
# 3 68.0831 58.7270 174.2344 0.0000 0.0000 0.0000
# 4 0.0000 0.0000 0.0000 24.1525 0.0000 0.0000
# 5 0.0000 0.0000 0.0000 0.0000 29.7817 0.0000
# 6 0.0000 0.0000 0.0000 0.0000 0.0000 16.3783
#
#
#
# Elastic Compliance Matrix: (Units=1/GPa)
#
#
# Indices 1 2 3 4 5 6 
#
# 1 0.012096 -0.002371 -0.003927 0.000000 0.000000 0.000000
# 2 -0.002371 0.008923 -0.002081 0.000000 0.000000 0.000000
# 3 -0.003927 -0.002081 0.007976 0.000000 0.000000 0.000000
# 4 0.000000 0.000000 0.000000 0.041404 0.000000 0.000000
# 5 0.000000 0.000000 0.000000 0.000000 0.033578 0.000000
# 6 0.000000 0.000000 0.000000 0.000000 0.000000 0.061056
#
#
# Mechanical properties :
#
#
# Convention : Reuss Voigt Hill
#
# Bulk Modulus (GPa) = 81.72859 85.77032 83.74945
# Shear Modulus (GPa) = 26.90059 30.93851 28.91955
#
# Velocity S-wave (km/s) = 3.60510 3.86622 3.73794
# Velocity P-wave (km/s) = 7.53760 7.83386 7.68716
#
# Compressibility (1/GPa) = 0.01223562
#
# Stress axis : x y z
#
# Youngs Moduli (GPa) = 82.67518 112.06421 125.38379
#
# Poissons Ratio (x) = 0.26569 0.49242
# Poissons Ratio (y) = 0.19601 0.26096
# Poissons Ratio (z) = 0.32469 0.23324
#
# Static dielectric constant tensor:
#      x y z
#    x 3.716910 0.000000 0.000000 
#    y 0.000000 3.765640 0.000000 
#    z 0.000000 0.000000 3.634710 
# 
# 
# High freq. dielectric constant tensor:
#      x y z
#    x 1.809690 0.000000 0.000000 
#    y 0.000000 1.812210 0.000000 
#    z 0.000000 0.000000 1.817550 
# 
# From -- ./inp_files/10591.got.cif
#   From: 2010.03.12/outbox.cif.g09.slc.cpg/sg57_6_cif.got.tgz:10591.got - 2010.04.16 15:48:40.
