data_PCOD8234162
_publ_section_title
;
Structure prediction by ZEFSAII (Michael W. Deem and Ramdas Pophale) SiO2 
 PCOD8234162
Probable space group: P B C M
;
_chemical_formula_sum "Si O2"
_cell_formula_units_Z 48
_cell_length_a 15.041084
_cell_length_b 18.942358
_cell_length_c 8.652230
_cell_angle_alpha 90.000000
_cell_angle_beta 90.000000
_cell_angle_gamma 90.000000
_cell_volume 2465.137979
_symmetry_space_group_name_H-M "P B C M"
_symmetry_group_IT_number 57
_symmetry_cell_setting 'orthorhombic'
loop_
_space_group_symop_operation_xyz
x,y,z
-x,-y,1/2+z
x,1/2-y,-z
-x,1/2+y,1/2-z
-x,-y,-z
x,y,1/2-z
-x,1/2+y,z
x,1/2-y,1/2+z
loop_
_atom_site_type_symbol
_atom_site_label
_atom_site_fract_x
_atom_site_fract_y
_atom_site_fract_z
Si Si1 0.630354 0.827327 0.433041
Si Si2 0.973112 0.925065 0.431767
Si Si3 0.528971 0.426594 0.069334
Si Si4 0.728320 0.419861 0.069734
Si Si5 0.215881 0.078930 0.430294
Si Si6 0.878908 0.327121 0.568498
O O1 0.623160 0.750000 0.500000
O O2 0.644888 0.826576 0.250000
O O3 0.539132 0.865904 0.480844
O O4 0.712016 0.865601 0.513722
O O5 0.984601 0.929868 0.250000
O O6 0.873234 0.905276 0.475745
O O7 0.035921 0.863850 0.494246
O O8 0.000000 0.000000 0.500000
O O9 0.530010 0.438684 0.250000
O O10 0.627630 0.404637 0.015003
O O11 0.500000 0.500000 0.000000
O O12 0.743594 0.402583 0.250000
O O13 0.750087 0.500823 0.033042
O O14 0.790297 0.370808 0.967049
O O15 0.196863 0.089598 0.250000
O O16 0.867607 0.250000 0.500000
O O17 0.893370 0.322542 0.750000
#
# Coordination Sequence:
#
# PCOD8234162 Si02
#       6
#     8   8   8   8   8   8
#     4  11  24  41  62  91 129 167 211 261 317 375
#     4  12  24  41  66  96 128 165 212 259 311 374
#     4  10  21  38  63  93 125 163 210 260 310 372
#     4  10  21  39  64  94 128 165 210 259 311 374
#     4  11  22  39  66  95 127 165 209 259 313 372
#     4  12  26  44  66  94 130 168 209 261 318 374
#
# _framework density 19.471526999999998
#
# number of rings (size 3 to 8) (size 9 to 14) (size 15 to 20)
#    0.000    1.000    3.333    4.000    0.000    3.333 
#    0.000    5.000    0.000    0.000    0.000    0.000 
#    0.000    0.000    0.000    0.000    0.000    0.000 
#
# Total GULP energy -595472.306616 kJ/mol
# GULP energy per Si atom -12405.673055 kJ/mol
# Density = 1.942721 g / cm^3
# Si number density = 19.471527 Si / 1000 Ang^3
#
#
#
# Elastic Constant Matrix: (Units=GPa)
#
#
# Indices 1 2 3 4 5 6 
#
# 1 151.9530 54.7563 47.3792 0.0000 0.0000 0.0000
# 2 54.7563 134.6057 54.2464 0.0000 0.0000 0.0000
# 3 47.3792 54.2464 113.3288 0.0000 0.0000 0.0000
# 4 0.0000 0.0000 0.0000 34.3598 0.0000 0.0000
# 5 0.0000 0.0000 0.0000 0.0000 33.9239 0.0000
# 6 0.0000 0.0000 0.0000 0.0000 0.0000 37.7248
#
#
#
# Elastic Compliance Matrix: (Units=1/GPa)
#
#
# Indices 1 2 3 4 5 6 
#
# 1 0.008152 -0.002407 -0.002256 0.000000 0.000000 0.000000
# 2 -0.002407 0.009915 -0.003740 0.000000 0.000000 0.000000
# 3 -0.002256 -0.003740 0.011557 0.000000 0.000000 0.000000
# 4 0.000000 0.000000 0.000000 0.029104 0.000000 0.000000
# 5 0.000000 0.000000 0.000000 0.000000 0.029478 0.000000
# 6 0.000000 0.000000 0.000000 0.000000 0.000000 0.026508
#
#
# Mechanical properties :
#
#
# Convention : Reuss Voigt Hill
#
# Bulk Modulus (GPa) = 78.00979 79.18345 78.59662
# Shear Modulus (GPa) = 36.82109 37.43543 37.12826
#
# Velocity S-wave (km/s) = 4.35331 4.38947 4.37143
# Velocity P-wave (km/s) = 8.08819 8.15135 8.11983
#
# Compressibility (1/GPa) = 0.01281890
#
# Stress axis : x y z
#
# Youngs Moduli (GPa) = 122.67387 100.85324 86.52664
#
# Poissons Ratio (x) = 0.24274 0.19519
# Poissons Ratio (y) = 0.29527 0.32360
# Poissons Ratio (z) = 0.27674 0.37718
#
# Static dielectric constant tensor:
#      x y z
#    x 3.907830 0.000000 0.000000 
#    y 0.000000 3.567250 0.000000 
#    z 0.000000 0.000000 3.674530 
# 
# 
# High freq. dielectric constant tensor:
#      x y z
#    x 1.779200 0.000000 0.000000 
#    y 0.000000 1.760180 0.000000 
#    z 0.000000 0.000000 1.767830 
# 
# From -- ./inp_files/4614.got.cif
#   From: 2010.03.12/outbox.cif.g09.slc.cpg/sg57_3_cif.got.tgz:4614.got - 2010.04.16 15:48:40.
