data_PCOD8234892
_publ_section_title
;
Structure prediction by ZEFSAII (Michael W. Deem and Ramdas Pophale) SiO2 
 PCOD8234892
Probable space group: P B C M
;
_chemical_formula_sum "Si O2"
_cell_formula_units_Z 48
_cell_length_a 8.739434
_cell_length_b 8.544878
_cell_length_c 30.933284
_cell_angle_alpha 90.000000
_cell_angle_beta 90.000000
_cell_angle_gamma 90.000000
_cell_volume 2310.017140
_symmetry_space_group_name_H-M "P B C M"
_symmetry_group_IT_number 57
_symmetry_cell_setting 'orthorhombic'
loop_
_space_group_symop_operation_xyz
x,y,z
-x,-y,1/2+z
x,1/2-y,-z
-x,1/2+y,1/2-z
-x,-y,-z
x,y,1/2-z
-x,1/2+y,z
x,1/2-y,1/2+z
loop_
_atom_site_type_symbol
_atom_site_label
_atom_site_fract_x
_atom_site_fract_y
_atom_site_fract_z
Si Si1 0.591653 0.361001 0.621745
Si Si2 0.207083 0.717342 0.201751
Si Si3 0.969819 0.948596 0.167801
Si Si4 0.215486 0.774105 0.047144
Si Si5 0.715053 0.700552 0.880648
Si Si6 0.933934 0.913523 0.924223
O O1 0.658689 0.318318 0.668414
O O2 0.658377 0.249109 0.584389
O O3 0.410878 0.334731 0.628145
O O4 0.627984 0.539105 0.608115
O O5 0.274508 0.738556 0.250000
O O6 0.085714 0.576245 0.202137
O O7 0.121332 0.873816 0.187125
O O8 0.007155 0.031051 0.122475
O O9 0.830603 0.824762 0.159914
O O10 0.081139 0.646016 0.050092
O O11 0.148788 0.948312 0.050373
O O12 0.292239 0.750000 0.000000
O O13 0.818270 0.765715 0.920051
#
# Coordination Sequence:
#
# PCOD8234892 Si02
#       6
#     8   8   8   8   8   8
#     4  11  23  42  60  91 130 164 208 252 317 381
#     4  11  22  38  63  92 125 163 208 258 309 369
#     4  11  19  39  66  89 123 160 213 257 308 360
#     4  12  23  39  64  94 128 166 210 260 314 372
#     4  11  22  39  70  88 124 174 202 257 319 366
#     4  12  19  41  65  93 121 165 215 261 308 365
#
# _framework density 20.779067999999999
#
# number of rings (size 3 to 8) (size 9 to 14) (size 15 to 20)
#    0.000    0.667    8.333    2.000    0.000    0.000 
#    0.000    8.333    0.000    0.000    0.000    0.000 
#    0.000    0.000    0.000    0.000    0.000    0.000 
#
# Total GULP energy -595129.584668 kJ/mol
# GULP energy per Si atom -12398.533014 kJ/mol
# Density = 2.073177 g / cm^3
# Si number density = 20.779068 Si / 1000 Ang^3
#
#
#
# Elastic Constant Matrix: (Units=GPa)
#
#
# Indices 1 2 3 4 5 6 
#
# 1 74.0769 12.0549 19.1969 0.0000 0.0000 0.0000
# 2 12.0549 66.5932 23.8723 0.0000 0.0000 0.0000
# 3 19.1969 23.8723 116.2597 0.0000 0.0000 0.0000
# 4 0.0000 0.0000 0.0000 23.2201 0.0000 0.0000
# 5 0.0000 0.0000 0.0000 0.0000 10.4177 0.0000
# 6 0.0000 0.0000 0.0000 0.0000 0.0000 43.4372
#
#
#
# Elastic Compliance Matrix: (Units=1/GPa)
#
#
# Indices 1 2 3 4 5 6 
#
# 1 0.014318 -0.001883 -0.001978 0.000000 0.000000 0.000000
# 2 -0.001883 0.016457 -0.003068 0.000000 0.000000 0.000000
# 3 -0.001978 -0.003068 0.009558 0.000000 0.000000 0.000000
# 4 0.000000 0.000000 0.000000 0.043066 0.000000 0.000000
# 5 0.000000 0.000000 0.000000 0.000000 0.095990 0.000000
# 6 0.000000 0.000000 0.000000 0.000000 0.000000 0.023022
#
#
# Mechanical properties :
#
#
# Convention : Reuss Voigt Hill
#
# Bulk Modulus (GPa) = 37.77034 40.79754 39.28394
# Shear Modulus (GPa) = 22.21283 28.86871 25.54077
#
# Velocity S-wave (km/s) = 3.27310 3.73140 3.50974
# Velocity P-wave (km/s) = 5.70095 6.18393 5.94735
#
# Compressibility (1/GPa) = 0.02647580
#
# Stress axis : x y z
#
# Youngs Moduli (GPa) = 69.84017 60.76308 104.62410
#
# Poissons Ratio (x) = 0.11442 0.20691
# Poissons Ratio (y) = 0.13151 0.32102
# Poissons Ratio (z) = 0.13812 0.18644
#
# Static dielectric constant tensor:
#      x y z
#    x 3.801060 0.000000 0.000000 
#    y 0.000000 4.020880 0.000000 
#    z 0.000000 0.000000 3.542370 
# 
# 
# High freq. dielectric constant tensor:
#      x y z
#    x 1.806250 0.000000 0.000000 
#    y 0.000000 1.829350 0.000000 
#    z 0.000000 0.000000 1.786050 
# 
# From -- ./inp_files/29467.got.cif
#   From: 2010.03.12/outbox.cif.g09.slc.cpg/sg57_15_cif.got.tgz:29467.got - 2010.04.16 15:48:40.
