data_PCOD8234533
_publ_section_title
;
Structure prediction by ZEFSAII (Michael W. Deem and Ramdas Pophale) SiO2 
 PCOD8234533
Probable space group: P B C M
;
_chemical_formula_sum "Si O2"
_cell_formula_units_Z 56
_cell_length_a 12.430951
_cell_length_b 10.036358
_cell_length_c 23.584510
_cell_angle_alpha 90.000000
_cell_angle_beta 90.000000
_cell_angle_gamma 90.000000
_cell_volume 2942.438243
_symmetry_space_group_name_H-M "P B C M"
_symmetry_group_IT_number 57
_symmetry_cell_setting 'orthorhombic'
loop_
_space_group_symop_operation_xyz
x,y,z
-x,-y,1/2+z
x,1/2-y,-z
-x,1/2+y,1/2-z
-x,-y,-z
x,y,1/2-z
-x,1/2+y,z
x,1/2-y,1/2+z
loop_
_atom_site_type_symbol
_atom_site_label
_atom_site_fract_x
_atom_site_fract_y
_atom_site_fract_z
Si Si1 0.394134 0.008048 0.750000
Si Si2 0.631299 0.617002 0.963714
Si Si3 0.151883 0.377896 0.684974
Si Si4 0.388832 0.874131 0.039951
Si Si5 0.407609 0.702535 0.750000
Si Si6 0.095358 0.872568 0.682599
Si Si7 0.748727 0.357112 0.148646
Si Si8 0.242957 0.098837 0.651882
O O1 0.485249 0.117745 0.750000
O O2 0.326270 0.024426 0.692787
O O3 0.440521 0.858099 0.750000
O O4 0.510655 0.596141 0.938717
O O5 0.713204 0.613091 0.911484
O O6 0.646345 0.750000 0.000000
O O7 0.660369 0.498481 0.006466
O O8 0.158051 0.423349 0.750000
O O9 0.204817 0.493927 0.648148
O O10 0.218385 0.243884 0.676161
O O11 0.028993 0.355458 0.666991
O O12 0.309382 0.833105 0.089586
O O13 0.398113 0.750000 0.000000
O O14 0.340527 0.663548 0.695579
O O15 0.116327 0.878759 0.750000
O O16 0.154398 0.745700 0.656158
O O17 0.135882 0.008180 0.652842
#
# Coordination Sequence:
#
# PCOD8234533 Si02
#       8
#     4   8   8   8   4   8   8   8
#     4  12  26  40  59  95 128 164 193 245 319 372
#     4  10  22  41  60  86 118 160 210 251 292 366
#     4  11  23  36  63  93 123 159 204 251 305 373
#     4  10  22  39  62  86 114 162 210 243 298 363
#     4  12  26  40  59  93 132 162 191 249 315 374
#     4  11  21  40  61  89 125 161 204 249 304 376
#     4  12  21  41  61  91 124 157 202 253 308 364
#     4  12  21  41  63  89 124 159 204 253 309 364
#
# _framework density 19.031835000000001
#
# number of rings (size 3 to 8) (size 9 to 14) (size 15 to 20)
#    0.000    0.857    4.286    3.429    2.000    2.286 
#    5.143    0.000    0.000   17.143    0.000    0.000 
#    0.000    0.000    0.000    0.000    0.000    0.000 
#
# Total GULP energy -694659.042611 kJ/mol
# GULP energy per Si atom -12404.625761 kJ/mol
# Density = 1.898852 g / cm^3
# Si number density = 19.031835 Si / 1000 Ang^3
#
#
#
# Elastic Constant Matrix: (Units=GPa)
#
#
# Indices 1 2 3 4 5 6 
#
# 1 77.2612 21.0508 38.3914 0.0000 0.0000 0.0000
# 2 21.0508 113.0951 12.2391 0.0000 0.0000 0.0000
# 3 38.3914 12.2391 84.2350 0.0000 0.0000 0.0000
# 4 0.0000 0.0000 0.0000 21.3322 0.0000 0.0000
# 5 0.0000 0.0000 0.0000 0.0000 31.9073 0.0000
# 6 0.0000 0.0000 0.0000 0.0000 0.0000 37.1591
#
#
#
# Elastic Compliance Matrix: (Units=1/GPa)
#
#
# Indices 1 2 3 4 5 6 
#
# 1 0.017357 -0.002413 -0.007560 0.000000 0.000000 0.000000
# 2 -0.002413 0.009319 -0.000254 0.000000 0.000000 0.000000
# 3 -0.007560 -0.000254 0.015354 0.000000 0.000000 0.000000
# 4 0.000000 0.000000 0.000000 0.046878 0.000000 0.000000
# 5 0.000000 0.000000 0.000000 0.000000 0.031341 0.000000
# 6 0.000000 0.000000 0.000000 0.000000 0.000000 0.026911
#
#
# Mechanical properties :
#
#
# Convention : Reuss Voigt Hill
#
# Bulk Modulus (GPa) = 46.34864 46.43930 46.39397
# Shear Modulus (GPa) = 28.60311 31.60703 30.10507
#
# Velocity S-wave (km/s) = 3.88094 4.07965 3.98153
# Velocity P-wave (km/s) = 6.66996 6.82973 6.75032
#
# Compressibility (1/GPa) = 0.02157561
#
# Stress axis : x y z
#
# Youngs Moduli (GPa) = 57.61306 107.31099 65.12865
#
# Poissons Ratio (x) = 0.25890 0.49239
# Poissons Ratio (y) = 0.13900 0.01657
# Poissons Ratio (z) = 0.43557 0.02730
#
# Static dielectric constant tensor:
#      x y z
#    x 3.615290 0.000000 0.000000 
#    y 0.000000 3.682370 0.000000 
#    z 0.000000 0.000000 3.361830 
# 
# 
# High freq. dielectric constant tensor:
#      x y z
#    x 1.740380 0.000000 0.000000 
#    y 0.000000 1.763820 0.000000 
#    z 0.000000 0.000000 1.727540 
# 
# From -- ./inp_files/25455.got.cif
#   From: 2010.03.12/outbox.cif.g09.slc.cpg/sg57_13_cif.got.tgz:25455.got - 2010.04.16 15:48:40.
