data_PCOD8234301
_publ_section_title
;
Structure prediction by ZEFSAII (Michael W. Deem and Ramdas Pophale) SiO2 
 PCOD8234301
Probable space group: P B C M
;
_chemical_formula_sum "Si O2"
_cell_formula_units_Z 40
_cell_length_a 7.654985
_cell_length_b 15.363307
_cell_length_c 15.355200
_cell_angle_alpha 90.000000
_cell_angle_beta 90.000000
_cell_angle_gamma 90.000000
_cell_volume 1805.861880
_symmetry_space_group_name_H-M "P B C M"
_symmetry_group_IT_number 57
_symmetry_cell_setting 'orthorhombic'
loop_
_space_group_symop_operation_xyz
x,y,z
-x,-y,1/2+z
x,1/2-y,-z
-x,1/2+y,1/2-z
-x,-y,-z
x,y,1/2-z
-x,1/2+y,z
x,1/2-y,1/2+z
loop_
_atom_site_type_symbol
_atom_site_label
_atom_site_fract_x
_atom_site_fract_y
_atom_site_fract_z
Si Si1 0.334028 0.587938 0.750000
Si Si2 0.201274 0.271544 0.408088
Si Si3 0.700126 0.082762 0.563457
Si Si4 0.616556 0.055653 0.250000
Si Si5 0.437623 0.263624 0.750000
Si Si6 0.128254 0.750000 0.000000
Si Si7 0.702571 0.958833 0.415026
O O1 0.217242 0.587119 0.838495
O O2 0.437004 0.497294 0.750000
O O3 0.464646 0.671255 0.750000
O O4 0.298453 0.250000 0.500000
O O5 0.310945 0.225890 0.332730
O O6 0.178886 0.375554 0.394362
O O7 0.000502 0.236271 0.415621
O O8 0.745393 0.168558 0.510010
O O9 0.492986 0.077824 0.576416
O O10 0.765662 0.000654 0.506672
O O11 0.578645 0.158842 0.250000
O O12 0.722359 0.029295 0.337347
#
# Coordination Sequence:
#
# PCOD8234301 Si02
#       7
#     4   8   8   4   4   4   8
#     4  10  22  37  62  95 128 161 216 289 326 370
#     4  10  24  42  60  94 127 186 204 264 333 404
#     4  10  22  39  62  97 124 164 220 280 317 385
#     4  10  22  36  62 110 113 171 212 283 326 373
#     4  12  22  39  68  91 133 164 232 266 326 393
#     4  10  26  38  62  92 136 170 218 250 344 400
#     4  10  21  39  68  90 135 164 224 277 327 377
#
# _framework density 22.150089000000001
#
# number of rings (size 3 to 8) (size 9 to 14) (size 15 to 20)
#    0.600    1.200    4.000    0.000   12.600    1.600 
#    0.000    1.000    0.000    0.000    0.000    0.000 
#    0.000    0.000    0.000    0.000    0.000    0.000 
#
# Total GULP energy -495609.155298 kJ/mol
# GULP energy per Si atom -12390.228882 kJ/mol
# Density = 2.209967 g / cm^3
# Si number density = 22.150089 Si / 1000 Ang^3
#
#
#
# Elastic Constant Matrix: (Units=GPa)
#
#
# Indices 1 2 3 4 5 6 
#
# 1 25.1945 9.8724 35.1882 0.0000 0.0000 0.0000
# 2 9.8724 96.2174 56.0501 0.0000 0.0000 0.0000
# 3 35.1882 56.0501 179.3564 0.0000 0.0000 0.0000
# 4 0.0000 0.0000 0.0000 37.4164 0.0000 0.0000
# 5 0.0000 0.0000 0.0000 0.0000 12.2727 0.0000
# 6 0.0000 0.0000 0.0000 0.0000 0.0000 18.5571
#
#
#
# Elastic Compliance Matrix: (Units=1/GPa)
#
#
# Indices 1 2 3 4 5 6 
#
# 1 0.054720 0.000782 -0.010980 0.000000 0.000000 0.000000
# 2 0.000782 0.012717 -0.004128 0.000000 0.000000 0.000000
# 3 -0.010980 -0.004128 0.009020 0.000000 0.000000 0.000000
# 4 0.000000 0.000000 0.000000 0.026726 0.000000 0.000000
# 5 0.000000 0.000000 0.000000 0.000000 0.081482 0.000000
# 6 0.000000 0.000000 0.000000 0.000000 0.000000 0.053888
#
#
# Mechanical properties :
#
#
# Convention : Reuss Voigt Hill
#
# Bulk Modulus (GPa) = 20.91818 55.88775 38.40297
# Shear Modulus (GPa) = 17.65913 26.95975 22.30944
#
# Velocity S-wave (km/s) = 2.82662 3.49254 3.17708
# Velocity P-wave (km/s) = 4.48524 6.44592 5.55281
#
# Compressibility (1/GPa) = 0.04780531
#
# Stress axis : x y z
#
# Youngs Moduli (GPa) = 18.27482 78.63229 110.87002
#
# Poissons Ratio (x) = -0.06146 1.21734
# Poissons Ratio (y) = -0.01428 0.45763
# Poissons Ratio (z) = 0.20066 0.32457
#
# Static dielectric constant tensor:
#      x y z
#    x 3.445350 0.000000 0.000000 
#    y 0.000000 3.871370 0.000000 
#    z 0.000000 0.000000 4.658910 
# 
# 
# High freq. dielectric constant tensor:
#      x y z
#    x 1.824750 0.000000 0.000000 
#    y 0.000000 1.871680 0.000000 
#    z 0.000000 0.000000 1.884640 
# 
# From -- ./inp_files/16004.got.cif
#   From: 2010.03.12/outbox.cif.g09.slc.cpg/sg57_9_cif.got.tgz:16004.got - 2010.04.16 15:48:40.
