data_PCOD8234713
_publ_section_title
;
Structure prediction by ZEFSAII (Michael W. Deem and Ramdas Pophale) SiO2 
 PCOD8234713
Probable space group: P B C M
;
_chemical_formula_sum "Si O2"
_cell_formula_units_Z 48
_cell_length_a 30.517624
_cell_length_b 9.162826
_cell_length_c 8.515474
_cell_angle_alpha 90.000000
_cell_angle_beta 90.000000
_cell_angle_gamma 90.000000
_cell_volume 2381.162227
_symmetry_space_group_name_H-M "P B C M"
_symmetry_group_IT_number 57
_symmetry_cell_setting 'orthorhombic'
loop_
_space_group_symop_operation_xyz
x,y,z
-x,-y,1/2+z
x,1/2-y,-z
-x,1/2+y,1/2-z
-x,-y,-z
x,y,1/2-z
-x,1/2+y,z
x,1/2-y,1/2+z
loop_
_atom_site_type_symbol
_atom_site_label
_atom_site_fract_x
_atom_site_fract_y
_atom_site_fract_z
Si Si1 0.713281 0.094766 0.935674
Si Si2 0.790378 0.909928 0.436514
Si Si3 0.459634 0.410043 0.935766
Si Si4 0.041016 0.087501 0.936140
Si Si5 0.874781 0.088399 0.435189
Si Si6 0.382076 0.906644 0.935890
O O1 0.708295 0.104879 0.750000
O O2 0.730609 0.250000 0.000000
O O3 0.666789 0.054754 0.010466
O O4 0.746343 0.967867 0.983575
O O5 0.800549 0.750000 0.500000
O O6 0.784939 0.907874 0.250000
O O7 0.830032 0.013148 0.492205
O O8 0.460299 0.411138 0.750000
O O9 0.465414 0.250000 0.000000
O O10 0.500000 0.500000 0.000000
O O11 0.413700 0.471340 0.996090
O O12 0.039173 0.091770 0.750000
O O13 0.084667 0.007130 0.998288
O O14 0.040435 0.250000 0.000000
O O15 0.000000 0.000000 0.000000
O O16 0.878019 0.250000 0.500000
O O17 0.876312 0.096976 0.250000
O O18 0.384706 0.904850 0.750000
O O19 0.397185 0.750000 0.000000
#
# Coordination Sequence:
#
# PCOD8234713 Si02
#       6
#     8   8   8   8   8   8
#     4  11  22  39  62  90 121 158 199 245 295 353
#     4  11  23  40  60  87 119 156 198 246 298 354
#     4  12  25  43  64  91 123 160 202 249 300 356
#     4  11  23  40  61  89 121 158 199 246 297 354
#     4  10  23  40  61  87 118 154 198 245 297 354
#     4  11  22  40  64  92 123 160 201 247 298 355
#
# _framework density 20.158223
#
# number of rings (size 3 to 8) (size 9 to 14) (size 15 to 20)
#    0.000    1.000    0.000    8.500    0.000    6.000 
#    0.000    3.333    0.000    0.000    0.000    0.000 
#    0.000    0.000    0.000    0.000    0.000    0.000 
#
# Total GULP energy -595507.424349 kJ/mol
# GULP energy per Si atom -12406.404674 kJ/mol
# Density = 2.011234 g / cm^3
# Si number density = 20.158223 Si / 1000 Ang^3
#
#
#
# Elastic Constant Matrix: (Units=GPa)
#
#
# Indices 1 2 3 4 5 6 
#
# 1 127.5603 85.8418 50.2286 0.0000 0.0000 0.0000
# 2 85.8418 177.2715 54.8925 0.0000 0.0000 0.0000
# 3 50.2286 54.8925 145.4335 0.0000 0.0000 0.0000
# 4 0.0000 0.0000 0.0000 41.4540 0.0000 0.0000
# 5 0.0000 0.0000 0.0000 0.0000 33.8201 0.0000
# 6 0.0000 0.0000 0.0000 0.0000 0.0000 10.3733
#
#
#
# Elastic Compliance Matrix: (Units=1/GPa)
#
#
# Indices 1 2 3 4 5 6 
#
# 1 0.012249 -0.005233 -0.002255 0.000000 0.000000 0.000000
# 2 -0.005233 0.008623 -0.001447 0.000000 0.000000 0.000000
# 3 -0.002255 -0.001447 0.008201 0.000000 0.000000 0.000000
# 4 0.000000 0.000000 0.000000 0.024123 0.000000 0.000000
# 5 0.000000 0.000000 0.000000 0.000000 0.029568 0.000000
# 6 0.000000 0.000000 0.000000 0.000000 0.000000 0.096401
#
#
# Mechanical properties :
#
#
# Convention : Reuss Voigt Hill
#
# Bulk Modulus (GPa) = 89.26999 92.46567 90.86783
# Shear Modulus (GPa) = 24.90387 34.41631 29.66009
#
# Velocity S-wave (km/s) = 3.51867 4.13644 3.84000
# Velocity P-wave (km/s) = 7.80313 8.29356 8.05208
#
# Compressibility (1/GPa) = 0.01120197
#
# Stress axis : x y z
#
# Youngs Moduli (GPa) = 81.63837 115.96409 121.93295
#
# Poissons Ratio (x) = 0.60686 0.27500
# Poissons Ratio (y) = 0.42723 0.17649
# Poissons Ratio (z) = 0.18412 0.16785
#
# Static dielectric constant tensor:
#      x y z
#    x 3.941040 0.000000 0.000000 
#    y 0.000000 10.608290 0.000000 
#    z 0.000000 0.000000 3.821060 
# 
# 
# High freq. dielectric constant tensor:
#      x y z
#    x 1.805320 0.000000 0.000000 
#    y 0.000000 1.798480 0.000000 
#    z 0.000000 0.000000 1.803420 
# 
# From -- ./inp_files/9985.got.cif
#   From: 2010.03.12/outbox.cif.g09.slc.cpg/sg57_5_cif.got.tgz:9985.got - 2010.04.16 15:48:40.
