data_PCOD8234179
_publ_section_title
;
Structure prediction by ZEFSAII (Michael W. Deem and Ramdas Pophale) SiO2 
 PCOD8234179
Probable space group: P B C M
;
_chemical_formula_sum "Si O2"
_cell_formula_units_Z 64
_cell_length_a 11.592143
_cell_length_b 18.599560
_cell_length_c 14.092671
_cell_angle_alpha 90.000000
_cell_angle_beta 90.000000
_cell_angle_gamma 90.000000
_cell_volume 3038.503309
_symmetry_space_group_name_H-M "P B C M"
_symmetry_group_IT_number 57
_symmetry_cell_setting 'orthorhombic'
loop_
_space_group_symop_operation_xyz
x,y,z
-x,-y,1/2+z
x,1/2-y,-z
-x,1/2+y,1/2-z
-x,-y,-z
x,y,1/2-z
-x,1/2+y,z
x,1/2-y,1/2+z
loop_
_atom_site_type_symbol
_atom_site_label
_atom_site_fract_x
_atom_site_fract_y
_atom_site_fract_z
Si Si1 0.091854 0.831446 0.983473
Si Si2 0.480870 0.373968 0.859639
Si Si3 0.710691 0.598262 0.643514
Si Si4 0.512607 0.708990 0.858283
Si Si5 0.713139 0.532643 0.052138
Si Si6 0.340357 0.877673 0.013104
Si Si7 0.970214 0.911803 0.145526
Si Si8 0.954094 0.932857 0.858721
O O1 0.025573 0.863092 0.892130
O O2 0.052943 0.750000 0.000000
O O3 0.229066 0.837224 0.970850
O O4 0.060437 0.877398 0.075129
O O5 0.513637 0.383526 0.750000
O O6 0.461019 0.290744 0.887561
O O7 0.366464 0.418886 0.881283
O O8 0.584647 0.403623 0.923412
O O9 0.687874 0.565829 0.750000
O O10 0.632152 0.667572 0.625553
O O11 0.683552 0.542203 0.559736
O O12 0.843567 0.622406 0.634414
O O13 0.471024 0.703946 0.750000
O O14 0.409567 0.677009 0.920413
O O15 0.693055 0.448514 0.074135
O O16 0.843649 0.555953 0.074169
O O17 0.019729 0.895919 0.250000
O O18 0.962963 0.997964 0.129575
O O19 0.915475 0.921080 0.750000
#
# Coordination Sequence:
#
# PCOD8234179 Si02
#       8
#     8   8   8   8   8   8   8   8
#     4  12  25  41  67  98 133 176 219 268 329 402
#     4  11  25  43  64  95 131 172 218 272 328 382
#     4  10  21  38  67  99 126 166 219 271 327 387
#     4  10  23  43  65  91 131 173 215 269 329 389
#     4  12  23  42  71  97 128 170 220 274 326 386
#     4  12  25  43  67  95 133 177 217 265 325 395
#     4  10  21  42  68  94 131 174 216 272 332 391
#     4  11  24  45  70  96 133 175 219 276 331 390
#
# _framework density 21.063002000000001
#
# number of rings (size 3 to 8) (size 9 to 14) (size 15 to 20)
#    0.000    1.000    3.750    3.000    0.000    4.000 
#    0.000    1.250    0.000    0.000    0.000    0.000 
#    0.000    0.000    0.000    0.000    0.000    0.000 
#
# Total GULP energy -793760.562547 kJ/mol
# GULP energy per Si atom -12402.508790 kJ/mol
# Density = 2.101506 g / cm^3
# Si number density = 21.063002 Si / 1000 Ang^3
#
#
#
# Elastic Constant Matrix: (Units=GPa)
#
#
# Indices 1 2 3 4 5 6 
#
# 1 104.9255 37.0026 26.5383 0.0000 0.0000 0.0000
# 2 37.0026 110.5615 36.1013 0.0000 0.0000 0.0000
# 3 26.5383 36.1013 100.5185 0.0000 0.0000 0.0000
# 4 0.0000 0.0000 0.0000 24.5056 0.0000 0.0000
# 5 0.0000 0.0000 0.0000 0.0000 21.9079 0.0000
# 6 0.0000 0.0000 0.0000 0.0000 0.0000 27.0396
#
#
#
# Elastic Compliance Matrix: (Units=1/GPa)
#
#
# Indices 1 2 3 4 5 6 
#
# 1 0.011088 -0.003121 -0.001806 0.000000 0.000000 0.000000
# 2 -0.003121 0.011125 -0.003171 0.000000 0.000000 0.000000
# 3 -0.001806 -0.003171 0.011564 0.000000 0.000000 0.000000
# 4 0.000000 0.000000 0.000000 0.040807 0.000000 0.000000
# 5 0.000000 0.000000 0.000000 0.000000 0.045646 0.000000
# 6 0.000000 0.000000 0.000000 0.000000 0.000000 0.036983
#
#
# Mechanical properties :
#
#
# Convention : Reuss Voigt Hill
#
# Bulk Modulus (GPa) = 56.88519 57.25445 57.06982
# Shear Modulus (GPa) = 27.89078 29.11485 28.50281
#
# Velocity S-wave (km/s) = 3.64285 3.72193 3.68260
# Velocity P-wave (km/s) = 6.69026 6.76105 6.72575
#
# Compressibility (1/GPa) = 0.01757927
#
# Stress axis : x y z
#
# Youngs Moduli (GPa) = 90.18633 89.88857 86.47230
#
# Poissons Ratio (x) = 0.28055 0.15621
# Poissons Ratio (y) = 0.28148 0.27425
# Poissons Ratio (z) = 0.16292 0.28508
#
# Static dielectric constant tensor:
#      x y z
#    x 3.735100 0.000000 0.000000 
#    y 0.000000 3.754470 0.000000 
#    z 0.000000 0.000000 3.998090 
# 
# 
# High freq. dielectric constant tensor:
#      x y z
#    x 1.827950 0.000000 0.000000 
#    y 0.000000 1.817870 0.000000 
#    z 0.000000 0.000000 1.837670 
# 
# From -- ./inp_files/18011.got.cif
#   From: 2010.03.12/outbox.cif.g09.slc.cpg/sg57_10_cif.got.tgz:18011.got - 2010.04.16 15:48:40.
