data_PCOD8234325
_publ_section_title
;
Structure prediction by ZEFSAII (Michael W. Deem and Ramdas Pophale) SiO2 
 PCOD8234325
Probable space group: P B C M
;
_chemical_formula_sum "Si O2"
_cell_formula_units_Z 48
_cell_length_a 10.046078
_cell_length_b 15.108392
_cell_length_c 15.406393
_cell_angle_alpha 90.000000
_cell_angle_beta 90.000000
_cell_angle_gamma 90.000000
_cell_volume 2338.383631
_symmetry_space_group_name_H-M "P B C M"
_symmetry_group_IT_number 57
_symmetry_cell_setting 'orthorhombic'
loop_
_space_group_symop_operation_xyz
x,y,z
-x,-y,1/2+z
x,1/2-y,-z
-x,1/2+y,1/2-z
-x,-y,-z
x,y,1/2-z
-x,1/2+y,z
x,1/2-y,1/2+z
loop_
_atom_site_type_symbol
_atom_site_label
_atom_site_fract_x
_atom_site_fract_y
_atom_site_fract_z
Si Si1 0.829744 0.831529 0.437128
Si Si2 0.154814 0.987831 0.002985
Si Si3 0.341909 0.755090 0.401995
Si Si4 0.427496 0.376558 0.349013
Si Si5 0.675007 0.433849 0.849502
Si Si6 0.887599 0.365360 0.152065
O O1 0.838173 0.750000 0.500000
O O2 0.712099 0.826174 0.366673
O O3 0.968830 0.842101 0.387052
O O4 0.786703 0.913352 0.499362
O O5 0.201128 0.934733 0.916647
O O6 0.190089 0.937945 0.092592
O O7 0.000000 0.000000 0.000000
O O8 0.291398 0.750000 0.500000
O O9 0.456809 0.829365 0.403107
O O10 0.397094 0.660988 0.364704
O O11 0.211175 0.781163 0.346066
O O12 0.466024 0.361623 0.250000
O O13 0.421220 0.482316 0.370340
O O14 0.726036 0.442808 0.750000
O O15 0.906179 0.401215 0.250000
#
# Coordination Sequence:
#
# PCOD8234325 Si02
#       6
#     8   8   8   8   8   8
#     4  10  21  40  63  88 125 165 206 255 320 378
#     4   9  20  37  60  88 119 159 207 253 308 379
#     4  12  23  40  66  93 126 166 211 263 315 371
#     4  10  22  41  62  90 125 164 210 257 311 379
#     4  10  21  40  64  90 124 168 209 255 318 381
#     4  11  22  39  62  90 126 163 209 268 313 365
#
# _framework density 20.526999
#
# number of rings (size 3 to 8) (size 9 to 14) (size 15 to 20)
#    0.000    1.667    1.667    3.000    2.333    4.667 
#    3.000    1.667    0.000    0.000    0.000    0.000 
#    0.000    0.000    0.000    0.000    0.000    0.000 
#
# Total GULP energy -594858.665543 kJ/mol
# GULP energy per Si atom -12392.888865 kJ/mol
# Density = 2.048028 g / cm^3
# Si number density = 20.526999 Si / 1000 Ang^3
#
#
#
# Elastic Constant Matrix: (Units=GPa)
#
#
# Indices 1 2 3 4 5 6 
#
# 1 87.7593 43.4474 9.5841 0.0000 0.0000 0.0000
# 2 43.4474 121.8257 73.2586 0.0000 0.0000 0.0000
# 3 9.5841 73.2586 112.6612 0.0000 0.0000 0.0000
# 4 0.0000 0.0000 0.0000 28.1889 0.0000 0.0000
# 5 0.0000 0.0000 0.0000 0.0000 22.1143 0.0000
# 6 0.0000 0.0000 0.0000 0.0000 0.0000 21.6568
#
#
#
# Elastic Compliance Matrix: (Units=1/GPa)
#
#
# Indices 1 2 3 4 5 6 
#
# 1 0.014646 -0.007347 0.003532 0.000000 0.000000 0.000000
# 2 -0.007347 0.017165 -0.010536 0.000000 0.000000 0.000000
# 3 0.003532 -0.010536 0.015427 0.000000 0.000000 0.000000
# 4 0.000000 0.000000 0.000000 0.035475 0.000000 0.000000
# 5 0.000000 0.000000 0.000000 0.000000 0.045220 0.000000
# 6 0.000000 0.000000 0.000000 0.000000 0.000000 0.046175
#
#
# Mechanical properties :
#
#
# Convention : Reuss Voigt Hill
#
# Bulk Modulus (GPa) = 53.95410 63.86960 58.91185
# Shear Modulus (GPa) = 23.92464 27.45574 25.69019
#
# Velocity S-wave (km/s) = 3.41768 3.66121 3.54154
# Velocity P-wave (km/s) = 6.47422 7.00393 6.74428
#
# Compressibility (1/GPa) = 0.01853427
#
# Stress axis : x y z
#
# Youngs Moduli (GPa) = 68.27575 58.25942 64.82113
#
# Poissons Ratio (x) = 0.42804 -0.22892
# Poissons Ratio (y) = 0.50163 0.68298
# Poissons Ratio (z) = -0.24112 0.61384
#
# Static dielectric constant tensor:
#      x y z
#    x 3.690050 0.000000 0.000000 
#    y 0.000000 1.945820 0.000000 
#    z 0.000000 0.000000 9.032210 
# 
# 
# High freq. dielectric constant tensor:
#      x y z
#    x 1.787530 0.000000 0.000000 
#    y 0.000000 1.809510 0.000000 
#    z 0.000000 0.000000 1.807220 
# 
# From -- ./inp_files/17629.got.cif
#   From: 2010.03.12/outbox.cif.g09.slc.cpg/sg57_9_cif.got.tgz:17629.got - 2010.04.16 15:48:40.
