data_PCOD8234213
_publ_section_title
;
Structure prediction by ZEFSAII (Michael W. Deem and Ramdas Pophale) SiO2 
 PCOD8234213
Probable space group: P B C M
;
_chemical_formula_sum "Si O2"
_cell_formula_units_Z 64
_cell_length_a 25.664434
_cell_length_b 14.754253
_cell_length_c 8.524523
_cell_angle_alpha 90.000000
_cell_angle_beta 90.000000
_cell_angle_gamma 90.000000
_cell_volume 3227.892063
_symmetry_space_group_name_H-M "P B C M"
_symmetry_group_IT_number 57
_symmetry_cell_setting 'orthorhombic'
loop_
_space_group_symop_operation_xyz
x,y,z
-x,-y,1/2+z
x,1/2-y,-z
-x,1/2+y,1/2-z
-x,-y,-z
x,y,1/2-z
-x,1/2+y,z
x,1/2-y,1/2+z
loop_
_atom_site_type_symbol
_atom_site_label
_atom_site_fract_x
_atom_site_fract_y
_atom_site_fract_z
Si Si1 0.638247 0.648217 0.435353
Si Si2 0.111246 0.343925 0.068383
Si Si3 0.711268 0.999766 0.432394
Si Si4 0.890097 0.156670 0.065904
Si Si5 0.995116 0.099044 0.568256
Si Si6 0.822829 0.999891 0.930341
Si Si7 0.361545 0.851840 0.435379
Si Si8 0.557456 0.499867 0.065345
O O1 0.636262 0.750000 0.500000
O O2 0.641028 0.654340 0.250000
O O3 0.688511 0.592717 0.493509
O O4 0.587539 0.590792 0.491508
O O5 0.126541 0.356551 0.250000
O O6 0.049455 0.350288 0.044819
O O7 0.131103 0.250000 0.000000
O O8 0.141229 0.414626 0.962415
O O9 0.698205 0.999978 0.250000
O O10 0.772680 0.999320 0.459093
O O11 0.688658 0.092352 0.506668
O O12 0.879986 0.145166 0.250000
O O13 0.867835 0.250000 0.000000
O O14 0.858687 0.084210 0.968286
O O15 0.951631 0.151393 0.031086
O O16 0.978527 0.095423 0.750000
O O17 0.000000 0.000000 0.500000
O O18 0.804960 0.001622 0.750000
O O19 0.363306 0.750000 0.500000
O O20 0.358843 0.845713 0.250000
O O21 0.412352 0.909043 0.491638
O O22 0.554646 0.499743 0.250000
O O23 0.500000 0.500000 0.000000
#
# Coordination Sequence:
#
# PCOD8234213 Si02
#       8
#     8   8   8   8   8   8   8   8
#     4  10  21  39  61  89 121 159 205 251 299 354
#     4  11  24  41  62  90 121 156 197 242 292 353
#     4  11  23  41  64  89 118 154 196 247 303 358
#     4  12  25  42  63  90 122 156 199 244 294 357
#     4  11  22  38  63  90 121 158 197 240 292 352
#     4  12  25  43  65  89 120 155 195 246 302 357
#     4  10  21  39  61  89 121 159 205 250 298 353
#     4   9  20  36  56  85 125 164 204 251 297 350
#
# _framework density 19.827181
#
# number of rings (size 3 to 8) (size 9 to 14) (size 15 to 20)
#    0.000    1.250    1.250    6.000    0.000    7.000 
#    0.000    7.500    0.000    0.000    0.000    0.000 
#    0.000    0.000    0.000    0.000    0.000    0.000 
#
# Total GULP energy -793719.278012 kJ/mol
# GULP energy per Si atom -12401.863719 kJ/mol
# Density = 1.978205 g / cm^3
# Si number density = 19.827181 Si / 1000 Ang^3
#
#
#
# Elastic Constant Matrix: (Units=GPa)
#
#
# Indices 1 2 3 4 5 6 
#
# 1 104.6896 47.1325 21.9507 0.0000 0.0000 0.0000
# 2 47.1325 177.7457 41.5509 0.0000 0.0000 0.0000
# 3 21.9507 41.5509 91.9761 0.0000 0.0000 0.0000
# 4 0.0000 0.0000 0.0000 34.1354 0.0000 0.0000
# 5 0.0000 0.0000 0.0000 0.0000 36.5805 0.0000
# 6 0.0000 0.0000 0.0000 0.0000 0.0000 82.4681
#
#
#
# Elastic Compliance Matrix: (Units=1/GPa)
#
#
# Indices 1 2 3 4 5 6 
#
# 1 0.011021 -0.002580 -0.001465 0.000000 0.000000 0.000000
# 2 -0.002580 0.006894 -0.002499 0.000000 0.000000 0.000000
# 3 -0.001465 -0.002499 0.012351 0.000000 0.000000 0.000000
# 4 0.000000 0.000000 0.000000 0.029295 0.000000 0.000000
# 5 0.000000 0.000000 0.000000 0.000000 0.027337 0.000000
# 6 0.000000 0.000000 0.000000 0.000000 0.000000 0.012126
#
#
# Mechanical properties :
#
#
# Convention : Reuss Voigt Hill
#
# Bulk Modulus (GPa) = 58.21088 66.18662 62.19875
# Shear Modulus (GPa) = 42.43156 48.22196 45.32676
#
# Velocity S-wave (km/s) = 4.63111 4.93700 4.78650
# Velocity P-wave (km/s) = 7.61703 8.12113 7.87312
#
# Compressibility (1/GPa) = 0.01717892
#
# Stress axis : x y z
#
# Youngs Moduli (GPa) = 90.73863 145.04797 80.96643
#
# Poissons Ratio (x) = 0.37422 0.11859
# Poissons Ratio (y) = 0.23410 0.20232
# Poissons Ratio (z) = 0.13290 0.36245
#
# Static dielectric constant tensor:
#      x y z
#    x 3.259540 0.000000 0.000000 
#    y 0.000000 3.651250 0.000000 
#    z 0.000000 0.000000 3.693210 
# 
# 
# High freq. dielectric constant tensor:
#      x y z
#    x 1.769430 0.000000 0.000000 
#    y 0.000000 1.786490 0.000000 
#    z 0.000000 0.000000 1.786560 
# 
# From -- ./inp_files/9420.got.cif
#   From: 2010.03.12/outbox.cif.g09.slc.cpg/sg57_5_cif.got.tgz:9420.got - 2010.04.16 15:48:40.
