data_PCOD8234519
_publ_section_title
;
Structure prediction by ZEFSAII (Michael W. Deem and Ramdas Pophale) SiO2 
 PCOD8234519
Probable space group: P B C M
;
_chemical_formula_sum "Si O2"
_cell_formula_units_Z 48
_cell_length_a 29.041689
_cell_length_b 8.856541
_cell_length_c 9.706861
_cell_angle_alpha 90.000000
_cell_angle_beta 90.000000
_cell_angle_gamma 90.000000
_cell_volume 2496.691131
_symmetry_space_group_name_H-M "P B C M"
_symmetry_group_IT_number 57
_symmetry_cell_setting 'orthorhombic'
loop_
_space_group_symop_operation_xyz
x,y,z
-x,-y,1/2+z
x,1/2-y,-z
-x,1/2+y,1/2-z
-x,-y,-z
x,y,1/2-z
-x,1/2+y,z
x,1/2-y,1/2+z
loop_
_atom_site_type_symbol
_atom_site_label
_atom_site_fract_x
_atom_site_fract_y
_atom_site_fract_z
Si Si1 0.223922 0.607954 0.590765
Si Si2 0.403318 0.430885 0.517720
Si Si3 0.537839 0.423125 0.250000
Si Si4 0.035664 0.401544 0.586144
Si Si5 0.559813 0.066121 0.250000
Si Si6 0.879636 0.388640 0.094876
Si Si7 0.304569 0.107845 0.094111
O O1 0.235798 0.750000 0.500000
O O2 0.230720 0.650759 0.750000
O O3 0.171783 0.552083 0.560217
O O4 0.260595 0.485007 0.543099
O O5 0.409157 0.250000 0.500000
O O6 0.442376 0.494704 0.616672
O O7 0.408206 0.523187 0.377714
O O8 0.353356 0.477622 0.578800
O O9 0.546489 0.243035 0.250000
O O10 0.483639 0.454036 0.250000
O O11 0.038170 0.250000 0.500000
O O12 0.021987 0.380954 0.750000
O O13 0.086042 0.473234 0.574854
O O14 0.000000 0.500000 0.500000
O O15 0.881809 0.325778 0.250000
O O16 0.895010 0.250000 0.000000
O O17 0.297147 0.159825 0.250000
O O18 0.307591 0.250000 0.000000
#
# Coordination Sequence:
#
# PCOD8234519 Si02
#       7
#     8   8   4   8   4   8   8
#     4   9  19  37  58  86 118 153 193 241 290 345
#     4  11  23  42  63  88 120 158 196 241 293 348
#     4  12  24  44  62  92 124 150 200 238 293 346
#     4  11  23  38  57  84 116 155 198 248 301 358
#     4  12  26  40  66  90 118 160 192 244 289 350
#     4   9  19  36  58  82 115 153 195 241 294 347
#     4  10  22  39  61  86 117 152 191 236 287 343
#
# _framework density 19.225446999999999
#
# number of rings (size 3 to 8) (size 9 to 14) (size 15 to 20)
#    0.000    1.667    0.833    3.500    3.500    5.333 
#    0.000    0.000    0.000    0.000    0.000    0.000 
#    0.000    0.000    0.000    0.000    0.000    0.000 
#
# Total GULP energy -595057.143123 kJ/mol
# GULP energy per Si atom -12397.023815 kJ/mol
# Density = 1.918169 g / cm^3
# Si number density = 19.225447 Si / 1000 Ang^3
#
#
#
# Elastic Constant Matrix: (Units=GPa)
#
#
# Indices 1 2 3 4 5 6 
#
# 1 91.8248 37.3250 33.1298 0.0000 0.0000 0.0000
# 2 37.3250 98.0730 34.3916 0.0000 0.0000 0.0000
# 3 33.1298 34.3916 93.8299 0.0000 0.0000 0.0000
# 4 0.0000 0.0000 0.0000 40.4885 0.0000 0.0000
# 5 0.0000 0.0000 0.0000 0.0000 32.8525 0.0000
# 6 0.0000 0.0000 0.0000 0.0000 0.0000 31.4887
#
#
#
# Elastic Compliance Matrix: (Units=1/GPa)
#
#
# Indices 1 2 3 4 5 6 
#
# 1 0.013754 -0.004052 -0.003371 0.000000 0.000000 0.000000
# 2 -0.004052 0.012894 -0.003295 0.000000 0.000000 0.000000
# 3 -0.003371 -0.003295 0.013056 0.000000 0.000000 0.000000
# 4 0.000000 0.000000 0.000000 0.024698 0.000000 0.000000
# 5 0.000000 0.000000 0.000000 0.000000 0.030439 0.000000
# 6 0.000000 0.000000 0.000000 0.000000 0.000000 0.031757
#
#
# Mechanical properties :
#
#
# Convention : Reuss Voigt Hill
#
# Bulk Modulus (GPa) = 54.74509 54.82449 54.78479
# Shear Modulus (GPa) = 32.44129 32.89137 32.66633
#
# Velocity S-wave (km/s) = 4.11227 4.14070 4.12651
# Velocity P-wave (km/s) = 7.14737 7.17210 7.15974
#
# Compressibility (1/GPa) = 0.01826648
#
# Stress axis : x y z
#
# Youngs Moduli (GPa) = 72.70764 77.55334 76.59530
#
# Poissons Ratio (x) = 0.31427 0.25819
# Poissons Ratio (y) = 0.29464 0.25241
# Poissons Ratio (z) = 0.24509 0.25557
#
# Static dielectric constant tensor:
#      x y z
#    x 4.013640 0.000000 0.000000 
#    y 0.000000 3.546140 0.000000 
#    z 0.000000 0.000000 3.200000 
# 
# 
# High freq. dielectric constant tensor:
#      x y z
#    x 1.764770 0.000000 0.000000 
#    y 0.000000 1.735820 0.000000 
#    z 0.000000 0.000000 1.765090 
# 
# From -- ./inp_files/10135.got.cif
#   From: 2010.03.12/outbox.cif.g09.slc.cpg/sg57_6_cif.got.tgz:10135.got - 2010.04.16 15:48:40.
