data_PCOD8234212
_publ_section_title
;
Structure prediction by ZEFSAII (Michael W. Deem and Ramdas Pophale) SiO2 
 PCOD8234212
Probable space group: P B C M
;
_chemical_formula_sum "Si O2"
_cell_formula_units_Z 64
_cell_length_a 4.910270
_cell_length_b 24.570844
_cell_length_c 26.840286
_cell_angle_alpha 90.000000
_cell_angle_beta 90.000000
_cell_angle_gamma 90.000000
_cell_volume 3238.266500
_symmetry_space_group_name_H-M "P B C M"
_symmetry_group_IT_number 57
_symmetry_cell_setting 'orthorhombic'
loop_
_space_group_symop_operation_xyz
x,y,z
-x,-y,1/2+z
x,1/2-y,-z
-x,1/2+y,1/2-z
-x,-y,-z
x,y,1/2-z
-x,1/2+y,z
x,1/2-y,1/2+z
loop_
_atom_site_type_symbol
_atom_site_label
_atom_site_fract_x
_atom_site_fract_y
_atom_site_fract_z
Si Si1 0.651196 0.256222 0.444533
Si Si2 0.867524 0.794783 0.603556
Si Si3 0.515098 0.651132 0.693662
Si Si4 0.455025 0.083467 0.899438
Si Si5 0.514386 0.024917 0.054893
Si Si6 0.979631 0.275069 0.306149
Si Si7 0.941669 0.369552 0.051312
Si Si8 0.021063 0.097631 0.058595
O O1 0.533744 0.250000 0.500000
O O2 0.411448 0.237239 0.407773
O O3 0.772173 0.315725 0.433114
O O4 0.907073 0.216913 0.438553
O O5 0.866124 0.860465 0.600910
O O6 0.963181 0.775785 0.658003
O O7 0.459635 0.630521 0.750000
O O8 0.471590 0.599553 0.657273
O O9 0.313961 0.700656 0.679917
O O10 0.816281 0.674612 0.687627
O O11 0.722552 0.084423 0.935029
O O12 0.215256 0.124626 0.916141
O O13 0.377182 0.019992 0.905152
O O14 0.209377 0.044976 0.064923
O O15 0.710716 0.077172 0.062353
O O16 0.500000 0.000000 0.000000
O O17 0.987977 0.251810 0.250000
O O18 0.047729 0.373016 0.995044
#
# Coordination Sequence:
#
# PCOD8234212 Si02
#       8
#     8   8   8   8   8   8   8   8
#     4  12  24  35  53  84 122 158 186 228 291 364
#     4  12  24  39  57  83 122 160 193 239 295 343
#     4  10  21  39  61  89 117 144 188 247 305 358
#     4  12  23  36  62  83 113 153 196 248 297 349
#     4  12  23  40  58  81 115 158 208 245 288 344
#     4  10  21  40  63  87 116 152 195 240 291 363
#     4  12  22  36  55  84 117 154 195 231 289 356
#     4  12  24  39  55  82 119 161 198 246 283 344
#
# _framework density 19.763659000000001
#
# number of rings (size 3 to 8) (size 9 to 14) (size 15 to 20)
#    0.000    0.500    3.750    6.750    1.750    0.000 
#    0.000    0.000    0.000    1.500    0.000    0.000 
#    0.000    0.000    0.000    0.000    0.000    0.000 
#
# Total GULP energy -793433.179617 kJ/mol
# GULP energy per Si atom -12397.393432 kJ/mol
# Density = 1.971868 g / cm^3
# Si number density = 19.763659 Si / 1000 Ang^3
#
#
#
# Elastic Constant Matrix: (Units=GPa)
#
#
# Indices 1 2 3 4 5 6 
#
# 1 93.7534 18.4032 25.4929 0.0000 0.0000 0.0000
# 2 18.4032 91.2813 68.4828 0.0000 0.0000 0.0000
# 3 25.4929 68.4828 92.5309 0.0000 0.0000 0.0000
# 4 0.0000 0.0000 0.0000 25.6710 0.0000 0.0000
# 5 0.0000 0.0000 0.0000 0.0000 12.3992 0.0000
# 6 0.0000 0.0000 0.0000 0.0000 0.0000 36.2858
#
#
#
# Elastic Compliance Matrix: (Units=1/GPa)
#
#
# Indices 1 2 3 4 5 6 
#
# 1 0.011531 0.000132 -0.003274 0.000000 0.000000 0.000000
# 2 0.000132 0.024634 -0.018268 0.000000 0.000000 0.000000
# 3 -0.003274 -0.018268 0.025230 0.000000 0.000000 0.000000
# 4 0.000000 0.000000 0.000000 0.038954 0.000000 0.000000
# 5 0.000000 0.000000 0.000000 0.000000 0.080650 0.000000
# 6 0.000000 0.000000 0.000000 0.000000 0.000000 0.027559
#
#
# Mechanical properties :
#
#
# Convention : Reuss Voigt Hill
#
# Bulk Modulus (GPa) = 53.84123 55.81373 54.82748
# Shear Modulus (GPa) = 19.41215 25.88365 22.64790
#
# Velocity S-wave (km/s) = 3.13743 3.62285 3.38884
# Velocity P-wave (km/s) = 6.35817 6.76771 6.56613
#
# Compressibility (1/GPa) = 0.01857313
#
# Stress axis : x y z
#
# Youngs Moduli (GPa) = 86.72461 40.59416 39.63574
#
# Poissons Ratio (x) = -0.00535 0.12978
# Poissons Ratio (y) = -0.01144 0.72407
# Poissons Ratio (z) = 0.28397 0.74158
#
# Static dielectric constant tensor:
#      x y z
#    x 3.774710 0.000000 0.000000 
#    y 0.000000 4.417570 0.000000 
#    z 0.000000 0.000000 3.491490 
# 
# 
# High freq. dielectric constant tensor:
#      x y z
#    x 1.793850 0.000000 0.000000 
#    y 0.000000 1.754900 0.000000 
#    z 0.000000 0.000000 1.746010 
# 
# From -- ./inp_files/28173.got.cif
#   From: 2010.03.12/outbox.cif.g09.slc.cpg/sg57_15_cif.got.tgz:28173.got - 2010.04.16 15:48:40.
