data_PCOD8234756
_publ_section_title
;
Structure prediction by ZEFSAII (Michael W. Deem and Ramdas Pophale) SiO2 
 PCOD8234756
Probable space group: P B C M
;
_chemical_formula_sum "Si O2"
_cell_formula_units_Z 48
_cell_length_a 14.660279
_cell_length_b 16.664945
_cell_length_c 10.045806
_cell_angle_alpha 90.000000
_cell_angle_beta 90.000000
_cell_angle_gamma 90.000000
_cell_volume 2454.318422
_symmetry_space_group_name_H-M "P B C M"
_symmetry_group_IT_number 57
_symmetry_cell_setting 'orthorhombic'
loop_
_space_group_symop_operation_xyz
x,y,z
-x,-y,1/2+z
x,1/2-y,-z
-x,1/2+y,1/2-z
-x,-y,-z
x,y,1/2-z
-x,1/2+y,z
x,1/2-y,1/2+z
loop_
_atom_site_type_symbol
_atom_site_label
_atom_site_fract_x
_atom_site_fract_y
_atom_site_fract_z
Si Si1 0.845454 0.828944 0.750000
Si Si2 0.417848 0.984015 0.098328
Si Si3 0.238029 0.431604 0.982923
Si Si4 0.804340 0.854722 0.250000
Si Si5 0.041387 0.616014 0.250000
Si Si6 0.862119 0.098559 0.517111
Si Si7 0.997604 0.430503 0.250000
Si Si8 0.318606 0.680632 0.901080
O O1 0.813091 0.874373 0.619011
O O2 0.803680 0.740825 0.750000
O O3 0.955325 0.824107 0.750000
O O4 0.451457 0.994091 0.250000
O O5 0.383072 0.894669 0.071280
O O6 0.500000 0.000000 0.000000
O O7 0.337248 0.047093 0.072717
O O8 0.250446 0.385894 0.121929
O O9 0.176624 0.509829 0.005176
O O10 0.905768 0.888458 0.250000
O O11 0.103433 0.634050 0.377870
O O12 0.004313 0.525873 0.250000
O O13 0.785962 0.157520 0.574156
O O14 0.945649 0.097187 0.618405
O O15 0.328898 0.711281 0.750000
O O16 0.351242 0.750000 0.000000
#
# Coordination Sequence:
#
# PCOD8234756 Si02
#       8
#     4   8   8   4   4   8   4   8
#     4  12  24  40  59  84 128 174 213 263 316 358
#     4  10  23  44  74 101 122 161 206 251 308 386
#     4  11  21  42  63  89 123 162 209 257 314 379
#     4  12  26  36  57  92 128 168 217 261 304 360
#     4  12  22  34  62  88 119 170 224 267 308 365
#     4  11  21  37  63  87 119 172 216 261 315 367
#     4  12  20  38  58  84 123 168 218 269 300 357
#     4  10  23  42  65  96 134 163 202 261 320 369
#
# _framework density 19.557365000000001
#
# number of rings (size 3 to 8) (size 9 to 14) (size 15 to 20)
#    0.000    1.000    5.000    2.000    2.333    2.000 
#    0.000    1.667    0.000    0.000    0.000    0.000 
#    0.000    0.000    0.000    0.000    0.000    0.000 
#
# Total GULP energy -595505.152582 kJ/mol
# GULP energy per Si atom -12406.357345 kJ/mol
# Density = 1.951285 g / cm^3
# Si number density = 19.557365 Si / 1000 Ang^3
#
#
#
# Elastic Constant Matrix: (Units=GPa)
#
#
# Indices 1 2 3 4 5 6 
#
# 1 88.4673 22.6441 46.9587 0.0000 0.0000 0.0000
# 2 22.6441 80.9372 39.8068 0.0000 0.0000 0.0000
# 3 46.9587 39.8068 150.6901 0.0000 0.0000 0.0000
# 4 0.0000 0.0000 0.0000 4.3379 0.0000 0.0000
# 5 0.0000 0.0000 0.0000 0.0000 40.0935 0.0000
# 6 0.0000 0.0000 0.0000 0.0000 0.0000 11.8674
#
#
#
# Elastic Compliance Matrix: (Units=1/GPa)
#
#
# Indices 1 2 3 4 5 6 
#
# 1 0.013823 -0.002010 -0.003777 0.000000 0.000000 0.000000
# 2 -0.002010 0.014492 -0.003202 0.000000 0.000000 0.000000
# 3 -0.003777 -0.003202 0.008659 0.000000 0.000000 0.000000
# 4 0.000000 0.000000 0.000000 0.230525 0.000000 0.000000
# 5 0.000000 0.000000 0.000000 0.000000 0.024942 0.000000
# 6 0.000000 0.000000 0.000000 0.000000 0.000000 0.084265
#
#
# Mechanical properties :
#
#
# Convention : Reuss Voigt Hill
#
# Bulk Modulus (GPa) = 52.63972 59.87932 56.25952
# Shear Modulus (GPa) = 12.46838 25.30542 18.88690
#
# Velocity S-wave (km/s) = 2.52767 3.60099 3.11097
# Velocity P-wave (km/s) = 5.95758 6.92628 6.46011
#
# Compressibility (1/GPa) = 0.01899706
#
# Stress axis : x y z
#
# Youngs Moduli (GPa) = 72.34505 69.00172 115.48855
#
# Poissons Ratio (x) = 0.13868 0.43615
# Poissons Ratio (y) = 0.14540 0.36980
# Poissons Ratio (z) = 0.27321 0.22095
#
# Static dielectric constant tensor:
#      x y z
#    x 3.475110 0.000000 0.000000 
#    y 0.000000 3.621620 0.000000 
#    z 0.000000 0.000000 3.833350 
# 
# 
# High freq. dielectric constant tensor:
#      x y z
#    x 1.749720 0.000000 0.000000 
#    y 0.000000 1.756700 0.000000 
#    z 0.000000 0.000000 1.783800 
# 
# From -- ./inp_files/4777.got.cif
#   From: 2010.03.12/outbox.cif.g09.slc.cpg/sg57_3_cif.got.tgz:4777.got - 2010.04.16 15:48:40.
