data_PCOD8234865
_publ_section_title
;
Structure prediction by ZEFSAII (Michael W. Deem and Ramdas Pophale) SiO2 
 PCOD8234865
Probable space group: P B C M
;
_chemical_formula_sum "Si O2"
_cell_formula_units_Z 48
_cell_length_a 9.777009
_cell_length_b 13.588026
_cell_length_c 18.263090
_cell_angle_alpha 90.000000
_cell_angle_beta 90.000000
_cell_angle_gamma 90.000000
_cell_volume 2426.256118
_symmetry_space_group_name_H-M "P B C M"
_symmetry_group_IT_number 57
_symmetry_cell_setting 'orthorhombic'
loop_
_space_group_symop_operation_xyz
x,y,z
-x,-y,1/2+z
x,1/2-y,-z
-x,1/2+y,1/2-z
-x,-y,-z
x,y,1/2-z
-x,1/2+y,z
x,1/2-y,1/2+z
loop_
_atom_site_type_symbol
_atom_site_label
_atom_site_fract_x
_atom_site_fract_y
_atom_site_fract_z
Si Si1 0.565843 0.127343 0.564657
Si Si2 0.219742 0.577164 0.164012
Si Si3 0.489373 0.410912 0.906365
Si Si4 0.916296 0.627045 0.665964
Si Si5 0.149555 0.730127 0.917358
Si Si6 0.642211 0.733902 0.834304
O O1 0.530970 0.149652 0.479642
O O2 0.699974 0.185026 0.588702
O O3 0.443866 0.158087 0.617527
O O4 0.590123 0.010459 0.573049
O O5 0.215627 0.594497 0.250000
O O6 0.375964 0.566617 0.139871
O O7 0.141417 0.478325 0.140750
O O8 0.143476 0.667916 0.126284
O O9 0.385030 0.345512 0.859178
O O10 0.963806 0.623025 0.750000
O O11 0.801596 0.710813 0.654701
O O12 0.045491 0.651939 0.616412
O O13 0.104710 0.750000 0.000000
O O14 0.598936 0.719072 0.750000
#
# Coordination Sequence:
#
# PCOD8234865 Si02
#       6
#     8   8   8   8   8   8
#     4  11  23  40  63  94 129 157 210 263 313 374
#     4  11  22  42  66  90 126 170 209 262 322 367
#     4  11  22  39  65  94 126 166 207 263 315 375
#     4  10  25  44  61  91 132 169 212 262 316 375
#     4  12  24  42  65  98 127 168 215 258 317 388
#     4  11  22  39  64  92 123 166 215 259 311 371
#
# _framework density 19.783567000000001
#
# number of rings (size 3 to 8) (size 9 to 14) (size 15 to 20)
#    0.000    1.000    5.000    1.500    0.000    4.667 
#    0.000    1.667    0.000    0.000    0.000    0.000 
#    0.000    0.000    0.000    0.000    0.000    0.000 
#
# Total GULP energy -595517.697527 kJ/mol
# GULP energy per Si atom -12406.618698 kJ/mol
# Density = 1.973854 g / cm^3
# Si number density = 19.783567 Si / 1000 Ang^3
#
#
#
# Elastic Constant Matrix: (Units=GPa)
#
#
# Indices 1 2 3 4 5 6 
#
# 1 56.5542 23.0629 31.0427 0.0000 0.0000 0.0000
# 2 23.0629 83.3470 30.5141 0.0000 0.0000 0.0000
# 3 31.0427 30.5141 99.6368 0.0000 0.0000 0.0000
# 4 0.0000 0.0000 0.0000 35.7129 0.0000 0.0000
# 5 0.0000 0.0000 0.0000 0.0000 40.2183 0.0000
# 6 0.0000 0.0000 0.0000 0.0000 0.0000 34.9244
#
#
#
# Elastic Compliance Matrix: (Units=1/GPa)
#
#
# Indices 1 2 3 4 5 6 
#
# 1 0.022523 -0.004126 -0.005754 0.000000 0.000000 0.000000
# 2 -0.004126 0.014269 -0.003084 0.000000 0.000000 0.000000
# 3 -0.005754 -0.003084 0.012774 0.000000 0.000000 0.000000
# 4 0.000000 0.000000 0.000000 0.028001 0.000000 0.000000
# 5 0.000000 0.000000 0.000000 0.000000 0.024864 0.000000
# 6 0.000000 0.000000 0.000000 0.000000 0.000000 0.028633
#
#
# Mechanical properties :
#
#
# Convention : Reuss Voigt Hill
#
# Bulk Modulus (GPa) = 42.30549 45.41971 43.86260
# Shear Modulus (GPa) = 30.32669 32.49899 31.41284
#
# Velocity S-wave (km/s) = 3.91950 4.05745 3.98907
# Velocity P-wave (km/s) = 6.47410 6.70513 6.59062
#
# Compressibility (1/GPa) = 0.02363759
#
# Stress axis : x y z
#
# Youngs Moduli (GPa) = 44.39934 70.08228 78.28595
#
# Poissons Ratio (x) = 0.28915 0.45043
# Poissons Ratio (y) = 0.18318 0.24147
# Poissons Ratio (z) = 0.25546 0.21617
#
# Static dielectric constant tensor:
#      x y z
#    x 3.377480 0.000000 0.000000 
#    y 0.000000 3.828930 0.000000 
#    z 0.000000 0.000000 3.725600 
# 
# 
# High freq. dielectric constant tensor:
#      x y z
#    x 1.756450 0.000000 0.000000 
#    y 0.000000 1.789460 0.000000 
#    z 0.000000 0.000000 1.783850 
# 
# From -- ./inp_files/20939.got.cif
#   From: 2010.03.12/outbox.cif.g09.slc.cpg/sg57_11_cif.got.tgz:20939.got - 2010.04.16 15:48:40.
