data_PCOD8234667
_publ_section_title
;
Structure prediction by ZEFSAII (Michael W. Deem and Ramdas Pophale) SiO2 
 PCOD8234667
Probable space group: P B C M
;
_chemical_formula_sum "Si O2"
_cell_formula_units_Z 40
_cell_length_a 8.180701
_cell_length_b 11.809237
_cell_length_c 18.790937
_cell_angle_alpha 90.000000
_cell_angle_beta 90.000000
_cell_angle_gamma 90.000000
_cell_volume 1815.351778
_symmetry_space_group_name_H-M "P B C M"
_symmetry_group_IT_number 57
_symmetry_cell_setting 'orthorhombic'
loop_
_space_group_symop_operation_xyz
x,y,z
-x,-y,1/2+z
x,1/2-y,-z
-x,1/2+y,1/2-z
-x,-y,-z
x,y,1/2-z
-x,1/2+y,z
x,1/2-y,1/2+z
loop_
_atom_site_type_symbol
_atom_site_label
_atom_site_fract_x
_atom_site_fract_y
_atom_site_fract_z
Si Si1 0.133086 0.200838 0.892707
Si Si2 0.216036 0.735898 0.166570
Si Si3 0.723672 0.606598 0.474650
Si Si4 0.575820 0.394097 0.429080
Si Si5 0.670705 0.990583 0.171372
O O1 0.233786 0.318768 0.904590
O O2 0.953431 0.221452 0.864495
O O3 0.222818 0.123776 0.834300
O O4 0.133660 0.131597 0.967436
O O5 0.235463 0.769050 0.250000
O O6 0.359524 0.791348 0.118965
O O7 0.221029 0.601378 0.155176
O O8 0.723664 0.471503 0.459920
O O9 0.548870 0.647071 0.509303
O O10 0.481205 0.486744 0.381425
O O11 0.597662 0.998353 0.250000
#
# Coordination Sequence:
#
# PCOD8234667 Si02
#       5
#     8   8   8   8   8
#     4  10  22  43  63  93 136 165 212 264 330 394
#     4  11  25  43  67  97 130 176 221 267 327 388
#     4   9  22  44  64  97 124 170 218 265 335 380
#     4  10  22  44  69  92 133 166 224 276 321 388
#     4  10  23  42  64  94 129 171 221 269 319 387
#
# _framework density 22.034296999999999
#
# number of rings (size 3 to 8) (size 9 to 14) (size 15 to 20)
#    0.000    2.000    0.000    1.200   11.200    0.800 
#   18.000    2.000    0.000    0.000    0.000    0.000 
#    0.000    0.000    0.000    0.000    0.000    0.000 
#
# Total GULP energy -495675.017304 kJ/mol
# GULP energy per Si atom -12391.875433 kJ/mol
# Density = 2.198415 g / cm^3
# Si number density = 22.034297 Si / 1000 Ang^3
#
#
#
# Elastic Constant Matrix: (Units=GPa)
#
#
# Indices 1 2 3 4 5 6 
#
# 1 76.8030 21.0767 35.4132 0.0000 0.0000 0.0000
# 2 21.0767 81.4511 43.8090 0.0000 0.0000 0.0000
# 3 35.4132 43.8090 81.2452 0.0000 0.0000 0.0000
# 4 0.0000 0.0000 0.0000 40.4908 0.0000 0.0000
# 5 0.0000 0.0000 0.0000 0.0000 29.7629 0.0000
# 6 0.0000 0.0000 0.0000 0.0000 0.0000 35.2315
#
#
#
# Elastic Compliance Matrix: (Units=1/GPa)
#
#
# Indices 1 2 3 4 5 6 
#
# 1 0.016313 -0.000559 -0.006809 0.000000 0.000000 0.000000
# 2 -0.000559 0.017312 -0.009091 0.000000 0.000000 0.000000
# 3 -0.006809 -0.009091 0.020179 0.000000 0.000000 0.000000
# 4 0.000000 0.000000 0.000000 0.024697 0.000000 0.000000
# 5 0.000000 0.000000 0.000000 0.000000 0.033599 0.000000
# 6 0.000000 0.000000 0.000000 0.000000 0.000000 0.028384
#
#
# Mechanical properties :
#
#
# Convention : Reuss Voigt Hill
#
# Bulk Modulus (GPa) = 47.88151 48.89968 48.39059
# Shear Modulus (GPa) = 27.72177 30.37708 29.04942
#
# Velocity S-wave (km/s) = 3.55085 3.71701 3.63488
# Velocity P-wave (km/s) = 6.21200 6.37670 6.29489
#
# Compressibility (1/GPa) = 0.02088489
#
# Stress axis : x y z
#
# Youngs Moduli (GPa) = 61.29927 57.76441 49.55742
#
# Poissons Ratio (x) = 0.03228 0.33745
# Poissons Ratio (y) = 0.03426 0.45054
# Poissons Ratio (z) = 0.41741 0.52515
#
# Static dielectric constant tensor:
#      x y z
#    x 3.714140 0.000000 0.000000 
#    y 0.000000 4.086680 0.000000 
#    z 0.000000 0.000000 4.109310 
# 
# 
# High freq. dielectric constant tensor:
#      x y z
#    x 1.844110 0.000000 0.000000 
#    y 0.000000 1.877830 0.000000 
#    z 0.000000 0.000000 1.868300 
# 
# From -- ./inp_files/24148.got.cif
#   From: 2010.03.12/outbox.cif.g09.slc.cpg/sg57_13_cif.got.tgz:24148.got - 2010.04.16 15:48:40.
