data_PCOD8234111
_publ_section_title
;
Structure prediction by ZEFSAII (Michael W. Deem and Ramdas Pophale) SiO2 
 PCOD8234111
Probable space group: P B C M
;
_chemical_formula_sum "Si O2"
_cell_formula_units_Z 64
_cell_length_a 11.623349
_cell_length_b 15.290251
_cell_length_c 15.976202
_cell_angle_alpha 90.000000
_cell_angle_beta 90.000000
_cell_angle_gamma 90.000000
_cell_volume 2839.353305
_symmetry_space_group_name_H-M "P B C M"
_symmetry_group_IT_number 57
_symmetry_cell_setting 'orthorhombic'
loop_
_space_group_symop_operation_xyz
x,y,z
-x,-y,1/2+z
x,1/2-y,-z
-x,1/2+y,1/2-z
-x,-y,-z
x,y,1/2-z
-x,1/2+y,z
x,1/2-y,1/2+z
loop_
_atom_site_type_symbol
_atom_site_label
_atom_site_fract_x
_atom_site_fract_y
_atom_site_fract_z
Si Si1 0.322838 0.624272 0.348400
Si Si2 0.034063 0.234007 0.406470
Si Si3 0.724213 0.482890 0.340460
Si Si4 0.820774 0.972358 0.429885
Si Si5 0.945480 0.962307 0.893835
Si Si6 0.740072 0.801757 0.344979
Si Si7 0.413078 0.357341 0.849247
Si Si8 0.800878 0.301865 0.348717
O O1 0.307973 0.601761 0.250000
O O2 0.261559 0.551972 0.404754
O O3 0.455198 0.633544 0.374767
O O4 0.270739 0.717245 0.372245
O O5 0.080155 0.250000 0.500000
O O6 0.998637 0.133611 0.392722
O O7 0.137089 0.253593 0.342854
O O8 0.925514 0.296546 0.391482
O O9 0.664841 0.468375 0.250000
O O10 0.854371 0.518397 0.321301
O O11 0.650653 0.557134 0.389671
O O12 0.733409 0.387350 0.384998
O O13 0.944868 0.973842 0.382601
O O14 0.859951 0.978801 0.526202
O O15 0.749917 0.885151 0.406334
O O16 0.709917 0.831792 0.250000
O O17 0.643551 0.734121 0.380960
O O18 0.393562 0.358263 0.750000
O O19 0.818822 0.311572 0.250000
#
# Coordination Sequence:
#
# PCOD8234111 Si02
#       8
#     8   8   8   8   8   8   8   8
#     4  10  21  39  61  87 121 159 204 250 297 358
#     4  12  22  38  60  86 121 159 190 245 303 364
#     4  10  21  38  61  86 118 156 201 254 303 359
#     4  11  23  39  58  91 123 160 196 250 306 365
#     4  11  23  38  60  88 124 159 198 243 309 372
#     4  11  22  38  62  91 120 157 204 249 301 361
#     4   9  20  38  61  87 116 156 202 251 304 351
#     4  10  22  37  58  88 118 153 200 248 297 358
#
# _framework density 22.540344999999999
#
# number of rings (size 3 to 8) (size 9 to 14) (size 15 to 20)
#    0.000    1.500    3.750    1.500    1.750    3.500 
#    0.000    4.375    0.000    3.750    0.000    0.000 
#    0.000    0.000    0.000    0.000    0.000    0.000 
#
# Total GULP energy -793098.466288 kJ/mol
# GULP energy per Si atom -12392.163536 kJ/mol
# Density = 2.248904 g / cm^3
# Si number density = 22.540345 Si / 1000 Ang^3
#
#
#
# Elastic Constant Matrix: (Units=GPa)
#
#
# Indices 1 2 3 4 5 6 
#
# 1 142.8438 68.2645 19.8040 0.0000 0.0000 0.0000
# 2 68.2645 181.5404 29.6444 0.0000 0.0000 0.0000
# 3 19.8040 29.6444 37.3855 0.0000 0.0000 0.0000
# 4 0.0000 0.0000 0.0000 27.1493 0.0000 0.0000
# 5 0.0000 0.0000 0.0000 0.0000 20.1738 0.0000
# 6 0.0000 0.0000 0.0000 0.0000 0.0000 24.8775
#
#
#
# Elastic Compliance Matrix: (Units=1/GPa)
#
#
# Indices 1 2 3 4 5 6 
#
# 1 0.008705 -0.002895 -0.002316 0.000000 0.000000 0.000000
# 2 -0.002895 0.007291 -0.004247 0.000000 0.000000 0.000000
# 3 -0.002316 -0.004247 0.031343 0.000000 0.000000 0.000000
# 4 0.000000 0.000000 0.000000 0.036833 0.000000 0.000000
# 5 0.000000 0.000000 0.000000 0.000000 0.049569 0.000000
# 6 0.000000 0.000000 0.000000 0.000000 0.000000 0.040197
#
#
# Mechanical properties :
#
#
# Convention : Reuss Voigt Hill
#
# Bulk Modulus (GPa) = 35.18363 66.35508 50.76936
# Shear Modulus (GPa) = 24.71218 30.71056 27.71137
#
# Velocity S-wave (km/s) = 3.31471 3.69517 3.51010
# Velocity P-wave (km/s) = 5.50389 6.90710 6.24503
#
# Compressibility (1/GPa) = 0.02842231
#
# Stress axis : x y z
#
# Youngs Moduli (GPa) = 114.87166 137.16069 31.90520
#
# Poissons Ratio (x) = 0.39713 0.07388
# Poissons Ratio (y) = 0.33259 0.13551
# Poissons Ratio (z) = 0.26600 0.58257
#
# Static dielectric constant tensor:
#      x y z
#    x 3.948280 0.000000 0.000000 
#    y 0.000000 4.330210 0.000000 
#    z 0.000000 0.000000 3.707870 
# 
# 
# High freq. dielectric constant tensor:
#      x y z
#    x 1.878180 0.000000 0.000000 
#    y 0.000000 1.907020 0.000000 
#    z 0.000000 0.000000 1.860460 
# 
# From -- ./inp_files/21997.got.cif
#   From: 2010.03.12/outbox.cif.g09.slc.cpg/sg57_11_cif.got.tgz:21997.got - 2010.04.16 15:48:40.
