data_PCOD8234487
_publ_section_title
;
Structure prediction by ZEFSAII (Michael W. Deem and Ramdas Pophale) SiO2 
 PCOD8234487
Probable space group: P B C M
;
_chemical_formula_sum "Si O2"
_cell_formula_units_Z 32
_cell_length_a 10.460675
_cell_length_b 10.933935
_cell_length_c 14.026434
_cell_angle_alpha 90.000000
_cell_angle_beta 90.000000
_cell_angle_gamma 90.000000
_cell_volume 1604.292191
_symmetry_space_group_name_H-M "P B C M"
_symmetry_group_IT_number 57
_symmetry_cell_setting 'orthorhombic'
loop_
_space_group_symop_operation_xyz
x,y,z
-x,-y,1/2+z
x,1/2-y,-z
-x,1/2+y,1/2-z
-x,-y,-z
x,y,1/2-z
-x,1/2+y,z
x,1/2-y,1/2+z
loop_
_atom_site_type_symbol
_atom_site_label
_atom_site_fract_x
_atom_site_fract_y
_atom_site_fract_z
Si Si1 0.103216 0.878004 0.250000
Si Si2 0.321497 0.201914 0.903222
Si Si3 0.560600 0.536862 0.750000
Si Si4 0.706843 0.902093 0.750000
Si Si5 0.925355 0.544641 0.592717
Si Si6 0.808290 0.383006 0.750000
O O1 0.198730 0.763301 0.250000
O O2 0.016633 0.869201 0.344295
O O3 0.177487 0.004699 0.250000
O O4 0.421770 0.120294 0.844048
O O5 0.278946 0.318907 0.842765
O O6 0.197920 0.124340 0.934959
O O7 0.389069 0.250000 0.000000
O O8 0.423387 0.477609 0.750000
O O9 0.663327 0.428732 0.750000
O O10 0.881976 0.428948 0.655937
O O11 0.000000 0.500000 0.500000
#
# Coordination Sequence:
#
# PCOD8234487 Si02
#       6
#     4   8   4   4   8   4
#     4  11  23  33  61  91 117 157 197 241 301 369
#     4  10  22  40  64  88 119 158 201 249 304 362
#     4   9  22  43  62  85 118 163 203 254 294 346
#     4  11  23  39  65  87 119 163 205 243 305 349
#     4  10  22  38  61  88 124 154 191 247 306 364
#     4   9  22  39  56  89 120 153 201 246 296 360
#
# _framework density 19.946491000000002
#
# number of rings (size 3 to 8) (size 9 to 14) (size 15 to 20)
#    0.000    2.000    0.000    3.750   14.000    1.000 
#    0.000    0.000    0.000    0.000    0.000    0.000 
#    0.000    0.000    0.000    0.000    0.000    0.000 
#
# Total GULP energy -396841.688443 kJ/mol
# GULP energy per Si atom -12401.302764 kJ/mol
# Density = 1.990109 g / cm^3
# Si number density = 19.946491 Si / 1000 Ang^3
#
#
#
# Elastic Constant Matrix: (Units=GPa)
#
#
# Indices 1 2 3 4 5 6 
#
# 1 64.4317 5.5940 17.2775 0.0000 0.0000 0.0000
# 2 5.5940 93.3709 23.2726 0.0000 0.0000 0.0000
# 3 17.2775 23.2726 139.9226 0.0000 0.0000 0.0000
# 4 0.0000 0.0000 0.0000 12.8078 0.0000 0.0000
# 5 0.0000 0.0000 0.0000 0.0000 -484.2807 0.0000
# 6 0.0000 0.0000 0.0000 0.0000 0.0000 24.7389
#
#
#
# Elastic Compliance Matrix: (Units=1/GPa)
#
#
# Indices 1 2 3 4 5 6 
#
# 1 0.016073 -0.000489 -0.001903 0.000000 0.000000 0.000000
# 2 -0.000489 0.011188 -0.001801 0.000000 0.000000 0.000000
# 3 -0.001903 -0.001801 0.007681 0.000000 0.000000 0.000000
# 4 0.000000 0.000000 0.000000 0.078078 0.000000 0.000000
# 5 0.000000 0.000000 0.000000 0.000000 -0.002065 0.000000
# 6 0.000000 0.000000 0.000000 0.000000 0.000000 0.040422
#
#
# Mechanical properties :
#
#
# Convention : Reuss Voigt Hill
#
# Bulk Modulus (GPa) = 37.65417 43.33482 40.49449
# Shear Modulus (GPa) = 29.65340 -72.57472 -21.46066
#
# Velocity S-wave (km/s) = 3.85989 -6.03852 -3.28367
# Velocity P-wave (km/s) = 6.22765 5.18127 2.44316
#
# Compressibility (1/GPa) = 0.02655748
#
# Stress axis : x y z
#
# Youngs Moduli (GPa) = 62.21563 89.38134 130.18609
#
# Poissons Ratio (x) = 0.04367 0.24780
# Poissons Ratio (y) = 0.03039 0.23440
# Poissons Ratio (z) = 0.11842 0.16093
#
# Static dielectric constant tensor:
#      x y z
#    x 3.414180 0.000000 0.000000 
#    y 0.000000 3.638650 0.000000 
#    z 0.000000 0.000000 3.759040 
# 
# 
# High freq. dielectric constant tensor:
#      x y z
#    x 1.765260 0.000000 0.000000 
#    y 0.000000 1.786110 0.000000 
#    z 0.000000 0.000000 1.784550 
# 
# From -- ./inp_files/15574.got.cif
#   From: 2010.03.12/outbox.cif.g09.slc.cpg/sg57_8_cif.got.tgz:15574.got - 2010.04.16 15:48:40.
