data_PCOD8234625
_publ_section_title
;
Structure prediction by ZEFSAII (Michael W. Deem and Ramdas Pophale) SiO2 
 PCOD8234625
Probable space group: P B C M
;
_chemical_formula_sum "Si O2"
_cell_formula_units_Z 48
_cell_length_a 16.809052
_cell_length_b 15.846416
_cell_length_c 8.556534
_cell_angle_alpha 90.000000
_cell_angle_beta 90.000000
_cell_angle_gamma 90.000000
_cell_volume 2279.146039
_symmetry_space_group_name_H-M "P B C M"
_symmetry_group_IT_number 57
_symmetry_cell_setting 'orthorhombic'
loop_
_space_group_symop_operation_xyz
x,y,z
-x,-y,1/2+z
x,1/2-y,-z
-x,1/2+y,1/2-z
-x,-y,-z
x,y,1/2-z
-x,1/2+y,z
x,1/2-y,1/2+z
loop_
_atom_site_type_symbol
_atom_site_label
_atom_site_fract_x
_atom_site_fract_y
_atom_site_fract_z
Si Si1 0.691216 0.660977 0.064407
Si Si2 0.154091 0.084100 0.567810
Si Si3 0.675323 0.162997 0.570639
Si Si4 0.588013 0.998002 0.935688
Si Si5 0.002581 0.339085 0.933817
Si Si6 0.158598 0.908024 0.069624
O O1 0.697054 0.663202 0.250000
O O2 0.632901 0.586475 0.005456
O O3 0.657992 0.750000 0.000000
O O4 0.778983 0.647338 0.994591
O O5 0.139878 0.100611 0.750000
O O6 0.071702 0.095206 0.474326
O O7 0.179579 0.988294 0.536543
O O8 0.642412 0.250000 0.500000
O O9 0.652333 0.165410 0.750000
O O10 0.770034 0.157849 0.543614
O O11 0.632855 0.080689 0.496428
O O12 0.587703 0.998440 0.750000
O O13 0.500000 0.000000 0.000000
O O14 0.986958 0.336316 0.750000
O O15 0.031913 0.250000 0.000000
O O16 0.922105 0.363714 0.020178
O O17 0.154339 0.936816 0.250000
#
# Coordination Sequence:
#
# PCOD8234625 Si02
#       6
#     8   8   8   8   8   8
#     4  11  23  43  67  95 131 170 214 266 322 382
#     4  12  24  40  63  92 124 167 217 264 320 381
#     4  10  22  41  65  94 129 168 210 258 316 375
#     4  10  23  44  67  94 130 168 207 260 321 382
#     4  12  25  41  59  87 125 167 216 267 319 377
#     4  11  22  41  64  89 126 168 212 266 321 377
#
# _framework density 21.060521999999999
#
# number of rings (size 3 to 8) (size 9 to 14) (size 15 to 20)
#    0.000    1.000    1.667    5.500    0.000    5.333 
#    0.000    3.333    0.000    0.000    0.000    0.000 
#    0.000    0.000    0.000    0.000    0.000    0.000 
#
# Total GULP energy -595441.248780 kJ/mol
# GULP energy per Si atom -12405.026016 kJ/mol
# Density = 2.101259 g / cm^3
# Si number density = 21.060522 Si / 1000 Ang^3
#
#
#
# Elastic Constant Matrix: (Units=GPa)
#
#
# Indices 1 2 3 4 5 6 
#
# 1 127.2374 48.8476 39.9291 0.0000 0.0000 0.0000
# 2 48.8476 153.9589 37.3894 0.0000 0.0000 0.0000
# 3 39.9291 37.3894 56.1256 0.0000 0.0000 0.0000
# 4 0.0000 0.0000 0.0000 39.3808 0.0000 0.0000
# 5 0.0000 0.0000 0.0000 0.0000 33.9070 0.0000
# 6 0.0000 0.0000 0.0000 0.0000 0.0000 30.2631
#
#
#
# Elastic Compliance Matrix: (Units=1/GPa)
#
#
# Indices 1 2 3 4 5 6 
#
# 1 0.010527 -0.001815 -0.006280 0.000000 0.000000 0.000000
# 2 -0.001815 0.008062 -0.004079 0.000000 0.000000 0.000000
# 3 -0.006280 -0.004079 0.025003 0.000000 0.000000 0.000000
# 4 0.000000 0.000000 0.000000 0.025393 0.000000 0.000000
# 5 0.000000 0.000000 0.000000 0.000000 0.029492 0.000000
# 6 0.000000 0.000000 0.000000 0.000000 0.000000 0.033044
#
#
# Mechanical properties :
#
#
# Convention : Reuss Voigt Hill
#
# Bulk Modulus (GPa) = 51.96810 65.51710 58.74260
# Shear Modulus (GPa) = 30.81038 34.78723 32.79880
#
# Velocity S-wave (km/s) = 3.82900 4.06861 3.95062
# Velocity P-wave (km/s) = 6.65413 7.29712 6.98303
#
# Compressibility (1/GPa) = 0.01924257
#
# Stress axis : x y z
#
# Youngs Moduli (GPa) = 94.99542 124.04285 39.99585
#
# Poissons Ratio (x) = 0.22511 0.25118
# Poissons Ratio (y) = 0.17240 0.16316
# Poissons Ratio (z) = 0.59658 0.50602
#
# Static dielectric constant tensor:
#      x y z
#    x 4.533510 0.000000 0.000000 
#    y 0.000000 4.115880 0.000000 
#    z 0.000000 0.000000 3.719040 
# 
# 
# High freq. dielectric constant tensor:
#      x y z
#    x 1.823830 0.000000 0.000000 
#    y 0.000000 1.839760 0.000000 
#    z 0.000000 0.000000 1.823750 
# 
# From -- ./inp_files/6519.got.cif
#   From: 2010.03.12/outbox.cif.g09.slc.cpg/sg57_4_cif.got.tgz:6519.got - 2010.04.16 15:48:40.
