data_PCOD8234573
_publ_section_title
;
Structure prediction by ZEFSAII (Michael W. Deem and Ramdas Pophale) SiO2 
 PCOD8234573
Probable space group: P B C M
;
_chemical_formula_sum "Si O2"
_cell_formula_units_Z 40
_cell_length_a 12.299157
_cell_length_b 18.653900
_cell_length_c 8.731293
_cell_angle_alpha 90.000000
_cell_angle_beta 90.000000
_cell_angle_gamma 90.000000
_cell_volume 2003.196496
_symmetry_space_group_name_H-M "P B C M"
_symmetry_group_IT_number 57
_symmetry_cell_setting 'orthorhombic'
loop_
_space_group_symop_operation_xyz
x,y,z
-x,-y,1/2+z
x,1/2-y,-z
-x,1/2+y,1/2-z
-x,-y,-z
x,y,1/2-z
-x,1/2+y,z
x,1/2-y,1/2+z
loop_
_atom_site_type_symbol
_atom_site_label
_atom_site_fract_x
_atom_site_fract_y
_atom_site_fract_z
Si Si1 0.312281 0.597116 0.570112
Si Si2 0.303727 0.052421 0.571014
Si Si3 0.052643 0.429743 0.428849
Si Si4 0.468680 0.173565 0.570084
Si Si5 0.110205 0.672854 0.430533
O O1 0.288108 0.604035 0.750000
O O2 0.340489 0.515670 0.527994
O O3 0.412430 0.646885 0.518796
O O4 0.207254 0.619573 0.474131
O O5 0.322204 0.035640 0.750000
O O6 0.179857 0.072825 0.536139
O O7 0.377781 0.117829 0.513181
O O8 0.026834 0.429779 0.250000
O O9 0.000000 0.500000 0.500000
O O10 0.001899 0.358673 0.504044
O O11 0.442026 0.250000 0.500000
O O12 0.463039 0.181148 0.750000
O O13 0.134661 0.750000 0.500000
O O14 0.101426 0.679226 0.250000
#
# Coordination Sequence:
#
# PCOD8234573 Si02
#       5
#     8   8   8   8   8
#     4  11  22  38  63  92 122 158 205 253 304 369
#     4  10  22  40  63  90 123 160 202 251 304 365
#     4  11  22  39  63  91 124 162 204 251 304 364
#     4  10  23  41  60  88 123 161 202 250 307 365
#     4  12  25  41  62  90 125 163 205 258 312 365
#
# _framework density 19.968086
#
# number of rings (size 3 to 8) (size 9 to 14) (size 15 to 20)
#    0.000    1.200    2.000    4.200    0.000    5.600 
#    0.000    2.000    0.000    0.000    0.000    0.000 
#    0.000    0.000    0.000    0.000    0.000    0.000 
#
# Total GULP energy -496281.420411 kJ/mol
# GULP energy per Si atom -12407.035510 kJ/mol
# Density = 1.992264 g / cm^3
# Si number density = 19.968086 Si / 1000 Ang^3
#
#
#
# Elastic Constant Matrix: (Units=GPa)
#
#
# Indices 1 2 3 4 5 6 
#
# 1 66.4207 34.7409 35.4690 0.0000 0.0000 0.0000
# 2 34.7409 131.5946 37.1144 0.0000 0.0000 0.0000
# 3 35.4690 37.1144 92.2724 0.0000 0.0000 0.0000
# 4 0.0000 0.0000 0.0000 42.0265 0.0000 0.0000
# 5 0.0000 0.0000 0.0000 0.0000 22.4637 0.0000
# 6 0.0000 0.0000 0.0000 0.0000 0.0000 37.5480
#
#
#
# Elastic Compliance Matrix: (Units=1/GPa)
#
#
# Indices 1 2 3 4 5 6 
#
# 1 0.020328 -0.003567 -0.006379 0.000000 0.000000 0.000000
# 2 -0.003567 0.009198 -0.002328 0.000000 0.000000 0.000000
# 3 -0.006379 -0.002328 0.014226 0.000000 0.000000 0.000000
# 4 0.000000 0.000000 0.000000 0.023795 0.000000 0.000000
# 5 0.000000 0.000000 0.000000 0.000000 0.044516 0.000000
# 6 0.000000 0.000000 0.000000 0.000000 0.000000 0.026633
#
#
# Mechanical properties :
#
#
# Convention : Reuss Voigt Hill
#
# Bulk Modulus (GPa) = 52.07753 56.10403 54.09078
# Shear Modulus (GPa) = 29.47335 32.60519 31.03927
#
# Velocity S-wave (km/s) = 3.84607 4.04526 3.94692
# Velocity P-wave (km/s) = 6.77200 7.06942 6.92231
#
# Compressibility (1/GPa) = 0.01920214
#
# Stress axis : x y z
#
# Youngs Moduli (GPa) = 49.19352 108.72479 70.29391
#
# Poissons Ratio (x) = 0.38787 0.44840
# Poissons Ratio (y) = 0.17549 0.16366
# Poissons Ratio (z) = 0.31381 0.25313
#
# Static dielectric constant tensor:
#      x y z
#    x 3.836070 0.000000 0.000000 
#    y 0.000000 4.177080 0.000000 
#    z 0.000000 0.000000 3.614130 
# 
# 
# High freq. dielectric constant tensor:
#      x y z
#    x 1.790280 0.000000 0.000000 
#    y 0.000000 1.787960 0.000000 
#    z 0.000000 0.000000 1.782170 
# 
# From -- ./inp_files/2627.got.cif
#   From: 2010.03.12/outbox.cif.g09.slc.cpg/sg57_2_cif.got.tgz:2627.got - 2010.04.16 15:48:40.
