data_PCOD8234722
_publ_section_title
;
Structure prediction by ZEFSAII (Michael W. Deem and Ramdas Pophale) SiO2 
 PCOD8234722
Probable space group: P B C M
;
_chemical_formula_sum "Si O2"
_cell_formula_units_Z 56
_cell_length_a 15.825040
_cell_length_b 11.733106
_cell_length_c 14.380548
_cell_angle_alpha 90.000000
_cell_angle_beta 90.000000
_cell_angle_gamma 90.000000
_cell_volume 2670.135167
_symmetry_space_group_name_H-M "P B C M"
_symmetry_group_IT_number 57
_symmetry_cell_setting 'orthorhombic'
loop_
_space_group_symop_operation_xyz
x,y,z
-x,-y,1/2+z
x,1/2-y,-z
-x,1/2+y,1/2-z
-x,-y,-z
x,y,1/2-z
-x,1/2+y,z
x,1/2-y,1/2+z
loop_
_atom_site_type_symbol
_atom_site_label
_atom_site_fract_x
_atom_site_fract_y
_atom_site_fract_z
Si Si1 0.835451 0.754029 0.391266
Si Si2 0.916709 0.982420 0.853577
Si Si3 0.621975 0.019478 0.532439
Si Si4 0.103466 0.496297 0.146536
Si Si5 0.461798 0.422047 0.358729
Si Si6 0.198052 0.617693 0.990462
Si Si7 0.351421 0.295675 0.853759
O O1 0.848452 0.750000 0.500000
O O2 0.872900 0.639913 0.348052
O O3 0.737582 0.768389 0.364600
O O4 0.885886 0.860385 0.350509
O O5 0.924412 0.032658 0.750000
O O6 0.011264 0.973489 0.895867
O O7 0.860929 0.071014 0.909598
O O8 0.588358 0.010493 0.425941
O O9 0.641434 0.892729 0.569048
O O10 0.557230 0.081241 0.602582
O O11 0.704922 0.096198 0.534442
O O12 0.112424 0.546502 0.250000
O O13 0.176599 0.552847 0.085567
O O14 0.458071 0.462241 0.250000
O O15 0.425431 0.295400 0.369081
O O16 0.179830 0.750000 0.000000
O O17 0.358741 0.348334 0.750000
#
# Coordination Sequence:
#
# PCOD8234722 Si02
#       7
#     8   8   8   8   8   8   8
#     4  12  22  39  70 100 131 171 222 280 336 398
#     4  11  25  43  66  96 133 176 224 278 336 398
#     4  11  23  42  64  93 131 173 221 271 339 402
#     4  11  25  43  66  98 133 174 225 281 337 396
#     4  10  23  40  65  96 128 166 219 281 337 396
#     4  12  27  44  66  94 135 181 223 271 335 406
#     4  11  21  38  66  97 130 168 218 275 334 402
#
# _framework density 20.972719999999999
#
# number of rings (size 3 to 8) (size 9 to 14) (size 15 to 20)
#    0.000    0.857    2.857    4.286    2.000    5.143 
#    0.000    0.000    0.000    0.000    0.000    0.000 
#    0.000    0.000    0.000    0.000    0.000    0.000 
#
# Total GULP energy -694618.876584 kJ/mol
# GULP energy per Si atom -12403.908510 kJ/mol
# Density = 2.092499 g / cm^3
# Si number density = 20.972720 Si / 1000 Ang^3
#
#
#
# Elastic Constant Matrix: (Units=GPa)
#
#
# Indices 1 2 3 4 5 6 
#
# 1 128.5931 33.5469 33.5806 0.0000 0.0000 0.0000
# 2 33.5469 105.2577 23.3872 0.0000 0.0000 0.0000
# 3 33.5806 23.3872 129.1665 0.0000 0.0000 0.0000
# 4 0.0000 0.0000 0.0000 5.6324 0.0000 0.0000
# 5 0.0000 0.0000 0.0000 0.0000 34.3692 0.0000
# 6 0.0000 0.0000 0.0000 0.0000 0.0000 33.0654
#
#
#
# Elastic Compliance Matrix: (Units=1/GPa)
#
#
# Indices 1 2 3 4 5 6 
#
# 1 0.008897 -0.002419 -0.001875 0.000000 0.000000 0.000000
# 2 -0.002419 0.010556 -0.001282 0.000000 0.000000 0.000000
# 3 -0.001875 -0.001282 0.008462 0.000000 0.000000 0.000000
# 4 0.000000 0.000000 0.000000 0.177545 0.000000 0.000000
# 5 0.000000 0.000000 0.000000 0.000000 0.029096 0.000000
# 6 0.000000 0.000000 0.000000 0.000000 0.000000 0.030243
#
#
# Mechanical properties :
#
#
# Convention : Reuss Voigt Hill
#
# Bulk Modulus (GPa) = 59.65848 60.44964 60.05406
# Shear Modulus (GPa) = 17.75948 32.78024 25.26986
#
# Velocity S-wave (km/s) = 2.91312 3.95776 3.47492
# Velocity P-wave (km/s) = 6.31051 7.05484 6.69303
#
# Compressibility (1/GPa) = 0.01676208
#
# Stress axis : x y z
#
# Youngs Moduli (GPa) = 112.39505 94.72915 118.18047
#
# Poissons Ratio (x) = 0.22915 0.22160
# Poissons Ratio (y) = 0.27189 0.15156
# Poissons Ratio (z) = 0.21075 0.12149
#
# Static dielectric constant tensor:
#      x y z
#    x 3.953300 0.000000 0.000000 
#    y 0.000000 3.697330 0.000000 
#    z 0.000000 0.000000 4.075480 
# 
# 
# High freq. dielectric constant tensor:
#      x y z
#    x 1.834030 0.000000 0.000000 
#    y 0.000000 1.803200 0.000000 
#    z 0.000000 0.000000 1.842700 
# 
# From -- ./inp_files/18470.got.cif
#   From: 2010.03.12/outbox.cif.g09.slc.cpg/sg57_10_cif.got.tgz:18470.got - 2010.04.16 15:48:40.
