data_PCOD8234997
_publ_section_title
;
Structure prediction by ZEFSAII (Michael W. Deem and Ramdas Pophale) SiO2 
 PCOD8234997
Probable space group: P B C M
;
_chemical_formula_sum "Si O2"
_cell_formula_units_Z 40
_cell_length_a 25.246537
_cell_length_b 9.214214
_cell_length_c 8.519000
_cell_angle_alpha 90.000000
_cell_angle_beta 90.000000
_cell_angle_gamma 90.000000
_cell_volume 1981.749368
_symmetry_space_group_name_H-M "P B C M"
_symmetry_group_IT_number 57
_symmetry_cell_setting 'orthorhombic'
loop_
_space_group_symop_operation_xyz
x,y,z
-x,-y,1/2+z
x,1/2-y,-z
-x,1/2+y,1/2-z
-x,-y,-z
x,y,1/2-z
-x,1/2+y,z
x,1/2-y,1/2+z
loop_
_atom_site_type_symbol
_atom_site_label
_atom_site_fract_x
_atom_site_fract_y
_atom_site_fract_z
Si Si1 0.451346 0.410675 0.565824
Si Si2 0.048517 0.909409 0.564454
Si Si3 0.348662 0.591223 0.935595
Si Si4 0.858631 0.594270 0.064291
Si Si5 0.743331 0.596285 0.935396
O O1 0.451092 0.250000 0.500000
O O2 0.500000 0.500000 0.500000
O O3 0.457478 0.402434 0.750000
O O4 0.397392 0.489483 0.515722
O O5 0.041984 0.750000 0.500000
O O6 0.046995 0.909053 0.750000
O O7 0.104155 0.971722 0.506422
O O8 0.000000 0.000000 0.500000
O O9 0.339654 0.595106 0.750000
O O10 0.361158 0.750000 0.000000
O O11 0.296632 0.531115 0.020318
O O12 0.863188 0.594938 0.250000
O O13 0.877009 0.750000 0.000000
O O14 0.799107 0.557762 0.013618
O O15 0.750614 0.607591 0.750000
O O16 0.721629 0.750000 0.000000
#
# Coordination Sequence:
#
# PCOD8234997 Si02
#       5
#     8   8   8   8   8
#     4  11  24  41  64  91 123 159 201 248 301 359
#     4  12  25  43  64  91 123 160 203 250 302 359
#     4  11  24  41  61  89 122 160 202 250 301 357
#     4  11  22  40  64  92 124 161 202 249 301 359
#     4  11  22  39  63  91 122 160 202 249 300 358
#
# _framework density 20.184187999999999
#
# number of rings (size 3 to 8) (size 9 to 14) (size 15 to 20)
#    0.000    0.800    0.000    9.600    0.000    7.200 
#    0.000    4.000    0.000    0.000    0.000    0.000 
#    0.000    0.000    0.000    0.000    0.000    0.000 
#
# Total GULP energy -496294.330495 kJ/mol
# GULP energy per Si atom -12407.358262 kJ/mol
# Density = 2.013825 g / cm^3
# Si number density = 20.184188 Si / 1000 Ang^3
#
#
#
# Elastic Constant Matrix: (Units=GPa)
#
#
# Indices 1 2 3 4 5 6 
#
# 1 114.3745 84.1763 55.6009 0.0000 0.0000 0.0000
# 2 84.1763 176.9995 65.7507 0.0000 0.0000 0.0000
# 3 55.6009 65.7507 163.4435 0.0000 0.0000 0.0000
# 4 0.0000 0.0000 0.0000 41.2479 0.0000 0.0000
# 5 0.0000 0.0000 0.0000 0.0000 36.6287 0.0000
# 6 0.0000 0.0000 0.0000 0.0000 0.0000 341.9659
#
#
#
# Elastic Compliance Matrix: (Units=1/GPa)
#
#
# Indices 1 2 3 4 5 6 
#
# 1 0.014269 -0.005858 -0.002497 0.000000 0.000000 0.000000
# 2 -0.005858 0.009047 -0.001647 0.000000 0.000000 0.000000
# 3 -0.002497 -0.001647 0.007630 0.000000 0.000000 0.000000
# 4 0.000000 0.000000 0.000000 0.024244 0.000000 0.000000
# 5 0.000000 0.000000 0.000000 0.000000 0.027301 0.000000
# 6 0.000000 0.000000 0.000000 0.000000 0.000000 0.002924
#
#
# Mechanical properties :
#
#
# Convention : Reuss Voigt Hill
#
# Bulk Modulus (GPa) = 91.39148 96.20816 93.79982
# Shear Modulus (GPa) = 45.84332 100.58780 73.21556
#
# Velocity S-wave (km/s) = 4.77093 7.06705 6.02930
# Velocity P-wave (km/s) = 8.70208 10.69390 9.74899
#
# Compressibility (1/GPa) = 0.01094194
#
# Stress axis : x y z
#
# Youngs Moduli (GPa) = 70.08389 110.52863 131.05529
#
# Poissons Ratio (x) = 0.64749 0.32729
# Poissons Ratio (y) = 0.41056 0.21582
# Poissons Ratio (z) = 0.17502 0.18202
#
# Static dielectric constant tensor:
#      x y z
#    x 3.823520 0.000000 0.000000 
#    y 0.000000 3.841820 0.000000 
#    z 0.000000 0.000000 3.911130 
# 
# 
# High freq. dielectric constant tensor:
#      x y z
#    x 1.804040 0.000000 0.000000 
#    y 0.000000 1.798720 0.000000 
#    z 0.000000 0.000000 1.812510 
# 
# From -- ./inp_files/8906.got.cif
#   From: 2010.03.12/outbox.cif.g09.slc.cpg/sg57_5_cif.got.tgz:8906.got - 2010.04.16 15:48:40.
