data_PCOD8234377
_publ_section_title
;
Structure prediction by ZEFSAII (Michael W. Deem and Ramdas Pophale) SiO2 
 PCOD8234377
Probable space group: P B C M
;
_chemical_formula_sum "Si O2"
_cell_formula_units_Z 40
_cell_length_a 8.577954
_cell_length_b 8.797891
_cell_length_c 23.763289
_cell_angle_alpha 90.000000
_cell_angle_beta 90.000000
_cell_angle_gamma 90.000000
_cell_volume 1793.365620
_symmetry_space_group_name_H-M "P B C M"
_symmetry_group_IT_number 57
_symmetry_cell_setting 'orthorhombic'
loop_
_space_group_symop_operation_xyz
x,y,z
-x,-y,1/2+z
x,1/2-y,-z
-x,1/2+y,1/2-z
-x,-y,-z
x,y,1/2-z
-x,1/2+y,z
x,1/2-y,1/2+z
loop_
_atom_site_type_symbol
_atom_site_label
_atom_site_fract_x
_atom_site_fract_y
_atom_site_fract_z
Si Si1 0.486021 0.158457 0.627020
Si Si2 0.075309 0.866251 0.897156
Si Si3 0.666454 0.408309 0.814808
Si Si4 0.210923 0.952452 0.082205
Si Si5 0.255744 0.398602 0.028978
O O1 0.533699 0.326644 0.646973
O O2 0.650247 0.069416 0.626039
O O3 0.405036 0.157677 0.565335
O O4 0.373035 0.085285 0.674248
O O5 0.158500 0.871487 0.835954
O O6 0.106911 0.701467 0.924192
O O7 0.137394 0.008073 0.933104
O O8 0.890862 0.904073 0.893934
O O9 0.654634 0.362503 0.750000
O O10 0.294226 0.988354 0.022624
O O11 0.176432 0.250000 0.000000
#
# Coordination Sequence:
#
# PCOD8234377 Si02
#       5
#     8   8   8   8   8
#     4  10  22  37  61  90 116 151 198 244 299 362
#     4  10  23  38  58  86 118 160 204 241 293 359
#     4  10  21  41  62  85 117 153 197 255 304 348
#     4  11  21  38  57  84 122 154 193 243 292 354
#     4  11  21  36  59  87 119 156 192 237 296 357
#
# _framework density 22.304431000000001
#
# number of rings (size 3 to 8) (size 9 to 14) (size 15 to 20)
#    0.000    1.600    0.000    4.800    0.000    4.800 
#    0.000    5.000    0.000    0.000    0.000    0.000 
#    0.000    0.000    0.000    0.000    0.000    0.000 
#
# Total GULP energy -495603.821963 kJ/mol
# GULP energy per Si atom -12390.095549 kJ/mol
# Density = 2.225367 g / cm^3
# Si number density = 22.304431 Si / 1000 Ang^3
#
#
#
# Elastic Constant Matrix: (Units=GPa)
#
#
# Indices 1 2 3 4 5 6 
#
# 1 54.9100 16.8219 31.5535 0.0000 0.0000 0.0000
# 2 16.8219 85.1205 41.4859 0.0000 0.0000 0.0000
# 3 31.5535 41.4859 96.6336 0.0000 0.0000 0.0000
# 4 0.0000 0.0000 0.0000 26.4136 0.0000 0.0000
# 5 0.0000 0.0000 0.0000 0.0000 21.0514 0.0000
# 6 0.0000 0.0000 0.0000 0.0000 0.0000 42.3554
#
#
#
# Elastic Compliance Matrix: (Units=1/GPa)
#
#
# Indices 1 2 3 4 5 6 
#
# 1 0.022498 -0.001095 -0.006876 0.000000 0.000000 0.000000
# 2 -0.001095 0.014910 -0.006043 0.000000 0.000000 0.000000
# 3 -0.006876 -0.006043 0.015188 0.000000 0.000000 0.000000
# 4 0.000000 0.000000 0.000000 0.037859 0.000000 0.000000
# 5 0.000000 0.000000 0.000000 0.000000 0.047503 0.000000
# 6 0.000000 0.000000 0.000000 0.000000 0.000000 0.023610
#
#
# Mechanical properties :
#
#
# Convention : Reuss Voigt Hill
#
# Bulk Modulus (GPa) = 40.70465 46.26516 43.48490
# Shear Modulus (GPa) = 25.27975 27.75093 26.51534
#
# Velocity S-wave (km/s) = 3.37025 3.53113 3.45163
# Velocity P-wave (km/s) = 5.78221 6.11660 5.95175
#
# Compressibility (1/GPa) = 0.02456722
#
# Stress axis : x y z
#
# Youngs Moduli (GPa) = 44.44751 67.06964 65.84058
#
# Poissons Ratio (x) = 0.07343 0.45274
# Poissons Ratio (y) = 0.04866 0.39791
# Poissons Ratio (z) = 0.30563 0.40533
#
# Static dielectric constant tensor:
#      x y z
#    x 3.994230 0.000000 0.000000 
#    y 0.000000 4.183550 0.000000 
#    z 0.000000 0.000000 3.692260 
# 
# 
# High freq. dielectric constant tensor:
#      x y z
#    x 1.873910 0.000000 0.000000 
#    y 0.000000 1.895220 0.000000 
#    z 0.000000 0.000000 1.842960 
# 
# From -- ./inp_files/26492.got.cif
#   From: 2010.03.12/outbox.cif.g09.slc.cpg/sg57_14_cif.got.tgz:26492.got - 2010.04.16 15:48:40.
