data_PCOD8234196
_publ_section_title
;
Structure prediction by ZEFSAII (Michael W. Deem and Ramdas Pophale) SiO2 
 PCOD8234196
Probable space group: P B C M
;
_chemical_formula_sum "Si O2"
_cell_formula_units_Z 48
_cell_length_a 32.115395
_cell_length_b 4.971208
_cell_length_c 14.129957
_cell_angle_alpha 90.000000
_cell_angle_beta 90.000000
_cell_angle_gamma 90.000000
_cell_volume 2255.880255
_symmetry_space_group_name_H-M "P B C M"
_symmetry_group_IT_number 57
_symmetry_cell_setting 'orthorhombic'
loop_
_space_group_symop_operation_xyz
x,y,z
-x,-y,1/2+z
x,1/2-y,-z
-x,1/2+y,1/2-z
-x,-y,-z
x,y,1/2-z
-x,1/2+y,z
x,1/2-y,1/2+z
loop_
_atom_site_type_symbol
_atom_site_label
_atom_site_fract_x
_atom_site_fract_y
_atom_site_fract_z
Si Si1 0.652398 0.624408 0.250000
Si Si2 0.798106 0.009395 0.563533
Si Si3 0.596228 0.138651 0.250000
Si Si4 0.149322 0.466069 0.750000
Si Si5 0.525789 0.229351 0.110179
Si Si6 0.905874 0.453074 0.750000
Si Si7 0.974161 0.231425 0.389480
Si Si8 0.295546 0.509293 0.936154
O O1 0.612453 0.440153 0.250000
O O2 0.678916 0.557235 0.342589
O O3 0.634782 0.929567 0.250000
O O4 0.817966 0.250000 0.500000
O O5 0.797229 0.750000 0.500000
O O6 0.823907 0.929006 0.655936
O O7 0.751327 0.092391 0.594790
O O8 0.567929 0.119514 0.156770
O O9 0.135085 0.773545 0.750000
O O10 0.109615 0.262125 0.750000
O O11 0.511106 0.525372 0.141291
O O12 0.534832 0.250000 0.000000
O O13 0.932040 0.373259 0.657295
O O14 0.965440 0.250000 0.500000
O O15 0.988751 0.527960 0.358189
O O16 0.295031 0.250000 0.000000
O O17 0.315253 0.750000 0.000000
#
# Coordination Sequence:
#
# PCOD8234196 Si02
#       8
#     4   8   4   4   8   4   8   8
#     4  12  25  39  60  94 129 160 197 252 316 369
#     4  10  22  42  66  89 119 163 209 250 296 361
#     4  12  24  37  59  90 125 158 193 250 315 365
#     4  12  25  39  60  94 129 160 197 252 316 369
#     4  10  21  39  61  83 112 156 206 249 292 353
#     4  12  24  37  59  90 125 158 193 250 315 365
#     4  10  21  39  61  83 112 156 206 249 292 353
#     4  10  22  42  66  89 119 163 209 250 296 361
#
# _framework density 21.277726000000001
#
# number of rings (size 3 to 8) (size 9 to 14) (size 15 to 20)
#    0.000    1.333    0.000    5.500    0.000    4.000 
#    0.000    6.667    0.000    0.000    0.000    0.000 
#    0.000    0.000    0.000    0.000    0.000    0.000 
#
# Total GULP energy -595044.832085 kJ/mol
# GULP energy per Si atom -12396.767335 kJ/mol
# Density = 2.122930 g / cm^3
# Si number density = 21.277726 Si / 1000 Ang^3
#
#
#
# Elastic Constant Matrix: (Units=GPa)
#
#
# Indices 1 2 3 4 5 6 
#
# 1 90.4083 20.3126 60.5675 0.0000 0.0000 0.0000
# 2 20.3126 107.1143 34.1816 0.0000 0.0000 0.0000
# 3 60.5675 34.1816 135.5296 0.0000 0.0000 0.0000
# 4 0.0000 0.0000 0.0000 27.8348 0.0000 0.0000
# 5 0.0000 0.0000 0.0000 0.0000 -31.5034 0.0000
# 6 0.0000 0.0000 0.0000 0.0000 0.0000 49.2125
#
#
#
# Elastic Compliance Matrix: (Units=1/GPa)
#
#
# Indices 1 2 3 4 5 6 
#
# 1 0.015852 -0.000811 -0.006880 0.000000 0.000000 0.000000
# 2 -0.000811 0.010194 -0.002209 0.000000 0.000000 0.000000
# 3 -0.006880 -0.002209 0.011010 0.000000 0.000000 0.000000
# 4 0.000000 0.000000 0.000000 0.035926 0.000000 0.000000
# 5 0.000000 0.000000 0.000000 0.000000 -0.031743 0.000000
# 6 0.000000 0.000000 0.000000 0.000000 0.000000 0.020320
#
#
# Mechanical properties :
#
#
# Convention : Reuss Voigt Hill
#
# Bulk Modulus (GPa) = 57.94400 62.57506 60.25953
# Shear Modulus (GPa) = 57.39781 23.64149 40.51965
#
# Velocity S-wave (km/s) = 5.19943 3.33692 4.36859
# Velocity P-wave (km/s) = 7.95844 6.65727 7.33676
#
# Compressibility (1/GPa) = 0.01725804
#
# Stress axis : x y z
#
# Youngs Moduli (GPa) = 63.08337 98.09291 90.82600
#
# Poissons Ratio (x) = 0.07952 0.62486
# Poissons Ratio (y) = 0.05114 0.20062
# Poissons Ratio (z) = 0.43400 0.21667
#
# Static dielectric constant tensor:
#      x y z
#    x 3.775530 0.000000 0.000000 
#    y 0.000000 4.065570 0.000000 
#    z 0.000000 0.000000 3.788960 
# 
# 
# High freq. dielectric constant tensor:
#      x y z
#    x 1.824040 0.000000 0.000000 
#    y 0.000000 1.853850 0.000000 
#    z 0.000000 0.000000 1.846060 
# 
# From -- ./inp_files/19626.got.cif
#   From: 2010.03.12/outbox.cif.g09.slc.cpg/sg57_10_cif.got.tgz:19626.got - 2010.04.16 15:48:40.
