data_PCOD8234146
_publ_section_title
;
Structure prediction by ZEFSAII (Michael W. Deem and Ramdas Pophale) SiO2 
 PCOD8234146
Probable space group: P B C M
;
_chemical_formula_sum "Si O2"
_cell_formula_units_Z 40
_cell_length_a 12.520624
_cell_length_b 17.998002
_cell_length_c 8.383867
_cell_angle_alpha 90.000000
_cell_angle_beta 90.000000
_cell_angle_gamma 90.000000
_cell_volume 1889.272702
_symmetry_space_group_name_H-M "P B C M"
_symmetry_group_IT_number 57
_symmetry_cell_setting 'orthorhombic'
loop_
_space_group_symop_operation_xyz
x,y,z
-x,-y,1/2+z
x,1/2-y,-z
-x,1/2+y,1/2-z
-x,-y,-z
x,y,1/2-z
-x,1/2+y,z
x,1/2-y,1/2+z
loop_
_atom_site_type_symbol
_atom_site_label
_atom_site_fract_x
_atom_site_fract_y
_atom_site_fract_z
Si Si1 0.670132 0.423785 0.566728
Si Si2 0.514978 0.829143 0.065387
Si Si3 0.874030 0.170538 0.437079
Si Si4 0.704085 0.917980 0.933781
Si Si5 0.103044 0.168098 0.563318
O O1 0.641679 0.406940 0.750000
O O2 0.579288 0.388252 0.457491
O O3 0.784728 0.389829 0.521193
O O4 0.673048 0.511476 0.540035
O O5 0.544119 0.823459 0.250000
O O6 0.475440 0.750000 0.000000
O O7 0.620823 0.852516 0.970246
O O8 0.833452 0.250000 0.500000
O O9 0.898514 0.176268 0.250000
O O10 0.981272 0.145718 0.527141
O O11 0.698669 0.941004 0.750000
O O12 0.822583 0.891030 0.975077
O O13 0.128571 0.250000 0.500000
O O14 0.125893 0.164809 0.750000
#
# Coordination Sequence:
#
# PCOD8234146 Si02
#       5
#     8   8   8   8   8
#     4  11  24  42  63  91 125 161 202 248 302 360
#     4  12  25  43  66  92 122 158 202 249 300 358
#     4  10  21  38  62  90 122 159 202 249 297 354
#     4  12  25  42  63  89 123 161 202 249 304 361
#     4  11  22  39  63  90 122 159 203 251 300 357
#
# _framework density 21.172169
#
# number of rings (size 3 to 8) (size 9 to 14) (size 15 to 20)
#    0.000    0.800    0.000    9.600    0.000    5.600 
#    0.000    0.000    0.000    0.000    0.000    0.000 
#    0.000    0.000    0.000    0.000    0.000    0.000 
#
# Total GULP energy -496396.098056 kJ/mol
# GULP energy per Si atom -12409.902451 kJ/mol
# Density = 2.112398 g / cm^3
# Si number density = 21.172169 Si / 1000 Ang^3
#
#
#
# Elastic Constant Matrix: (Units=GPa)
#
#
# Indices 1 2 3 4 5 6 
#
# 1 87.3374 32.5404 30.3621 0.0000 0.0000 0.0000
# 2 32.5404 82.6022 17.7471 0.0000 0.0000 0.0000
# 3 30.3621 17.7471 93.9156 0.0000 0.0000 0.0000
# 4 0.0000 0.0000 0.0000 33.5768 0.0000 0.0000
# 5 0.0000 0.0000 0.0000 0.0000 28.5023 0.0000
# 6 0.0000 0.0000 0.0000 0.0000 0.0000 70.0484
#
#
#
# Elastic Compliance Matrix: (Units=1/GPa)
#
#
# Indices 1 2 3 4 5 6 
#
# 1 0.014608 -0.004941 -0.003789 0.000000 0.000000 0.000000
# 2 -0.004941 0.014290 -0.001103 0.000000 0.000000 0.000000
# 3 -0.003789 -0.001103 0.012081 0.000000 0.000000 0.000000
# 4 0.000000 0.000000 0.000000 0.029782 0.000000 0.000000
# 5 0.000000 0.000000 0.000000 0.000000 0.035085 0.000000
# 6 0.000000 0.000000 0.000000 0.000000 0.000000 0.014276
#
#
# Mechanical properties :
#
#
# Convention : Reuss Voigt Hill
#
# Bulk Modulus (GPa) = 46.91877 47.23939 47.07908
# Shear Modulus (GPa) = 34.03875 38.63921 36.33898
#
# Velocity S-wave (km/s) = 4.01398 4.27664 4.14739
# Velocity P-wave (km/s) = 6.60995 6.83715 6.72451
#
# Compressibility (1/GPa) = 0.02131343
#
# Stress axis : x y z
#
# Youngs Moduli (GPa) = 68.45644 69.98144 82.77292
#
# Poissons Ratio (x) = 0.34575 0.31362
# Poissons Ratio (y) = 0.33821 0.09130
# Poissons Ratio (z) = 0.25938 0.07719
#
# Static dielectric constant tensor:
#      x y z
#    x 3.885660 0.000000 0.000000 
#    y 0.000000 3.743250 0.000000 
#    z 0.000000 0.000000 3.877450 
# 
# 
# High freq. dielectric constant tensor:
#      x y z
#    x 1.841080 0.000000 0.000000 
#    y 0.000000 1.829210 0.000000 
#    z 0.000000 0.000000 1.844830 
# 
# From -- ./inp_files/2663.got.cif
#   From: 2010.03.12/outbox.cif.g09.slc.cpg/sg57_2_cif.got.tgz:2663.got - 2010.04.16 15:48:40.
