data_PCOD8234118
_publ_section_title
;
Structure prediction by ZEFSAII (Michael W. Deem and Ramdas Pophale) SiO2 
 PCOD8234118
Probable space group: P B C M
;
_chemical_formula_sum "Si O2"
_cell_formula_units_Z 48
_cell_length_a 14.901996
_cell_length_b 18.908256
_cell_length_c 8.591377
_cell_angle_alpha 90.000000
_cell_angle_beta 90.000000
_cell_angle_gamma 90.000000
_cell_volume 2420.798786
_symmetry_space_group_name_H-M "P B C M"
_symmetry_group_IT_number 57
_symmetry_cell_setting 'orthorhombic'
loop_
_space_group_symop_operation_xyz
x,y,z
-x,-y,1/2+z
x,1/2-y,-z
-x,1/2+y,1/2-z
-x,-y,-z
x,y,1/2-z
-x,1/2+y,z
x,1/2-y,1/2+z
loop_
_atom_site_type_symbol
_atom_site_label
_atom_site_fract_x
_atom_site_fract_y
_atom_site_fract_z
Si Si1 0.894058 0.825214 0.068976
Si Si2 0.103531 0.824923 0.069424
Si Si3 0.403844 0.674504 0.932520
Si Si4 0.405777 0.325264 0.932634
Si Si5 0.250777 0.919068 0.931092
Si Si6 0.754402 0.928350 0.932033
O O1 0.868139 0.827429 0.250000
O O2 0.998919 0.838481 0.041820
O O3 0.864350 0.750000 0.000000
O O4 0.844051 0.886194 0.975047
O O5 0.129456 0.826033 0.250000
O O6 0.133803 0.750000 0.000000
O O7 0.155593 0.886639 0.980744
O O8 0.413106 0.682436 0.750000
O O9 0.373685 0.750000 0.000000
O O10 0.499281 0.649622 0.999395
O O11 0.330666 0.616150 0.972664
O O12 0.415740 0.316991 0.750000
O O13 0.332059 0.382688 0.979210
O O14 0.375272 0.250000 0.000000
O O15 0.267513 0.906145 0.750000
O O16 0.249043 0.001612 0.966302
O O17 0.755705 0.947152 0.750000
#
# Coordination Sequence:
#
# PCOD8234118 Si02
#       6
#     8   8   8   8   8   8
#     4  10  21  38  62  89 117 152 193 239 287 339
#     4  10  21  39  62  88 117 150 193 240 287 340
#     4  11  22  39  63  88 116 150 191 238 286 339
#     4  10  21  38  61  88 116 149 191 237 285 337
#     4  12  25  40  59  84 117 155 194 237 289 347
#     4  11  24  40  59  85 119 156 194 238 288 344
#
# _framework density 19.828166
#
# number of rings (size 3 to 8) (size 9 to 14) (size 15 to 20)
#    0.000    1.333    0.000    7.000    0.000    7.333 
#    0.000    0.000    0.000    0.000    0.000    0.000 
#    0.000    0.000    0.000    0.000    0.000    0.000 
#
# Total GULP energy -595548.406194 kJ/mol
# GULP energy per Si atom -12407.258462 kJ/mol
# Density = 1.978304 g / cm^3
# Si number density = 19.828166 Si / 1000 Ang^3
#
#
#
# Elastic Constant Matrix: (Units=GPa)
#
#
# Indices 1 2 3 4 5 6 
#
# 1 90.8941 57.7387 34.3494 0.0000 0.0000 0.0000
# 2 57.7387 119.3520 31.2642 0.0000 0.0000 0.0000
# 3 34.3494 31.2642 78.9292 0.0000 0.0000 0.0000
# 4 0.0000 0.0000 0.0000 37.5787 0.0000 0.0000
# 5 0.0000 0.0000 0.0000 0.0000 87.8851 0.0000
# 6 0.0000 0.0000 0.0000 0.0000 0.0000 9.6083
#
#
#
# Elastic Compliance Matrix: (Units=1/GPa)
#
#
# Indices 1 2 3 4 5 6 
#
# 1 0.017320 -0.007146 -0.004707 0.000000 0.000000 0.000000
# 2 -0.007146 0.012297 -0.001761 0.000000 0.000000 0.000000
# 3 -0.004707 -0.001761 0.015416 0.000000 0.000000 0.000000
# 4 0.000000 0.000000 0.000000 0.026611 0.000000 0.000000
# 5 0.000000 0.000000 0.000000 0.000000 0.011378 0.000000
# 6 0.000000 0.000000 0.000000 0.000000 0.000000 0.104076
#
#
# Mechanical properties :
#
#
# Convention : Reuss Voigt Hill
#
# Bulk Modulus (GPa) = 56.16525 59.54222 57.85374
# Shear Modulus (GPa) = 22.70041 38.06929 30.38485
#
# Velocity S-wave (km/s) = 3.38724 4.38649 3.91885
# Velocity P-wave (km/s) = 6.60949 7.46655 7.05105
#
# Compressibility (1/GPa) = 0.01780460
#
# Stress axis : x y z
#
# Youngs Moduli (GPa) = 57.73728 81.32210 64.86950
#
# Poissons Ratio (x) = 0.58111 0.30534
# Poissons Ratio (y) = 0.41258 0.11424
# Poissons Ratio (z) = 0.27177 0.14321
#
# Static dielectric constant tensor:
#      x y z
#    x 3.700290 0.000000 0.000000 
#    y 0.000000 3.370050 0.000000 
#    z 0.000000 0.000000 3.764470 
# 
# 
# High freq. dielectric constant tensor:
#      x y z
#    x 1.785190 0.000000 0.000000 
#    y 0.000000 1.770420 0.000000 
#    z 0.000000 0.000000 1.792460 
# 
# From -- ./inp_files/4591.got.cif
#   From: 2010.03.12/outbox.cif.g09.slc.cpg/sg57_3_cif.got.tgz:4591.got - 2010.04.16 15:48:40.
