data_PCOD8234021
_publ_section_title
;
Structure prediction by ZEFSAII (Michael W. Deem and Ramdas Pophale) SiO2 
 PCOD8234021
Probable space group: P B C M
;
_chemical_formula_sum "Si O2"
_cell_formula_units_Z 56
_cell_length_a 9.270585
_cell_length_b 13.950586
_cell_length_c 21.755284
_cell_angle_alpha 90.000000
_cell_angle_beta 90.000000
_cell_angle_gamma 90.000000
_cell_volume 2813.612910
_symmetry_space_group_name_H-M "P B C M"
_symmetry_group_IT_number 57
_symmetry_cell_setting 'orthorhombic'
loop_
_space_group_symop_operation_xyz
x,y,z
-x,-y,1/2+z
x,1/2-y,-z
-x,1/2+y,1/2-z
-x,-y,-z
x,y,1/2-z
-x,1/2+y,z
x,1/2-y,1/2+z
loop_
_atom_site_type_symbol
_atom_site_label
_atom_site_fract_x
_atom_site_fract_y
_atom_site_fract_z
Si Si1 0.234241 0.748457 0.823101
Si Si2 0.481316 0.247736 0.098434
Si Si3 0.577247 0.899043 0.497789
Si Si4 0.016698 0.373569 0.127132
Si Si5 0.918582 0.599080 0.005721
Si Si6 0.018711 0.600836 0.135584
Si Si7 0.219733 0.275564 0.682040
O O1 0.252517 0.738429 0.750000
O O2 0.386257 0.739855 0.856095
O O3 0.138538 0.661275 0.849476
O O4 0.166126 0.851606 0.840313
O O5 0.442298 0.351078 0.069200
O O6 0.348858 0.206239 0.136283
O O7 0.506616 0.168655 0.045926
O O8 0.746307 0.911770 0.512191
O O9 0.500000 0.000000 0.500000
O O10 0.033189 0.487035 0.135868
O O11 0.138047 0.323609 0.167909
O O12 0.041332 0.341783 0.055714
O O13 0.980721 0.645717 0.068191
O O14 0.000000 0.500000 0.000000
O O15 0.889459 0.634400 0.179705
O O16 0.284082 0.268167 0.750000
#
# Coordination Sequence:
#
# PCOD8234021 Si02
#       7
#     8   8   8   8   8   8   8
#     4  11  26  42  60  91 127 167 215 255 300 370
#     4  11  25  41  64  91 128 165 201 255 312 374
#     4  11  25  43  66  96 128 159 203 253 316 378
#     4  10  22  40  65  91 124 159 208 262 311 360
#     4  10  21  37  67  97 121 152 202 260 314 372
#     4  10  22  40  65  91 124 159 208 262 311 360
#     4  11  22  39  62  88 122 169 208 250 302 363
#
# _framework density 19.903236
#
# number of rings (size 3 to 8) (size 9 to 14) (size 15 to 20)
#    0.000    1.429    2.857    2.143    8.000    5.714 
#    0.000    0.000    0.000    5.143    0.000    0.000 
#    0.000    0.000    0.000    0.000    0.000    0.000 
#
# Total GULP energy -694260.747886 kJ/mol
# GULP energy per Si atom -12397.513355 kJ/mol
# Density = 1.985793 g / cm^3
# Si number density = 19.903236 Si / 1000 Ang^3
#
#
#
# Elastic Constant Matrix: (Units=GPa)
#
#
# Indices 1 2 3 4 5 6 
#
# 1 93.6382 3.7732 28.9204 0.0000 0.0000 0.0000
# 2 3.7732 76.6532 9.0321 0.0000 0.0000 0.0000
# 3 28.9204 9.0321 121.4423 0.0000 0.0000 0.0000
# 4 0.0000 0.0000 0.0000 21.9870 0.0000 0.0000
# 5 0.0000 0.0000 0.0000 0.0000 -5.4582 0.0000
# 6 0.0000 0.0000 0.0000 0.0000 0.0000 16.6865
#
#
#
# Elastic Compliance Matrix: (Units=1/GPa)
#
#
# Indices 1 2 3 4 5 6 
#
# 1 0.011532 -0.000246 -0.002728 0.000000 0.000000 0.000000
# 2 -0.000246 0.013166 -0.000921 0.000000 0.000000 0.000000
# 3 -0.002728 -0.000921 0.008952 0.000000 0.000000 0.000000
# 4 0.000000 0.000000 0.000000 0.045481 0.000000 0.000000
# 5 0.000000 0.000000 0.000000 0.000000 -0.183211 0.000000
# 6 0.000000 0.000000 0.000000 0.000000 0.000000 0.059929
#
#
# Mechanical properties :
#
#
# Convention : Reuss Voigt Hill
#
# Bulk Modulus (GPa) = 38.66790 41.68724 40.17757
# Shear Modulus (GPa) = -180.24009 23.31027 -78.46491
#
# Velocity S-wave (km/s) = -9.52653 3.42596 -6.28560
# Velocity P-wave (km/s) = 10.07652 6.05310 5.69632
#
# Compressibility (1/GPa) = 0.02586125
#
# Stress axis : x y z
#
# Youngs Moduli (GPa) = 86.71644 75.95111 111.70124
#
# Poissons Ratio (x) = 0.01870 0.30471
# Poissons Ratio (y) = 0.02135 0.10283
# Poissons Ratio (z) = 0.23655 0.06992
#
# Static dielectric constant tensor:
#      x y z
#    x 3.715000 0.000000 0.000000 
#    y 0.000000 3.546800 0.000000 
#    z 0.000000 0.000000 4.167580 
# 
# 
# High freq. dielectric constant tensor:
#      x y z
#    x 1.773810 0.000000 0.000000 
#    y 0.000000 1.772940 0.000000 
#    z 0.000000 0.000000 1.792590 
# 
# From -- ./inp_files/24444.got.cif
#   From: 2010.03.12/outbox.cif.g09.slc.cpg/sg57_13_cif.got.tgz:24444.got - 2010.04.16 15:48:40.
