data_PCOD8234075
_publ_section_title
;
Structure prediction by ZEFSAII (Michael W. Deem and Ramdas Pophale) SiO2 
 PCOD8234075
Probable space group: P B C M
;
_chemical_formula_sum "Si O2"
_cell_formula_units_Z 48
_cell_length_a 9.664127
_cell_length_b 18.236175
_cell_length_c 14.540522
_cell_angle_alpha 90.000000
_cell_angle_beta 90.000000
_cell_angle_gamma 90.000000
_cell_volume 2562.573776
_symmetry_space_group_name_H-M "P B C M"
_symmetry_group_IT_number 57
_symmetry_cell_setting 'orthorhombic'
loop_
_space_group_symop_operation_xyz
x,y,z
-x,-y,1/2+z
x,1/2-y,-z
-x,1/2+y,1/2-z
-x,-y,-z
x,y,1/2-z
-x,1/2+y,z
x,1/2-y,1/2+z
loop_
_atom_site_type_symbol
_atom_site_label
_atom_site_fract_x
_atom_site_fract_y
_atom_site_fract_z
Si Si1 0.526074 0.802105 0.085914
Si Si2 0.972361 0.473399 0.250000
Si Si3 0.717237 0.970038 0.250000
Si Si4 0.789060 0.308465 0.080849
Si Si5 0.712490 0.795044 0.250000
Si Si6 0.132140 0.974928 0.445550
Si Si7 0.378724 0.462591 0.446775
Si Si8 0.024960 0.800597 0.250000
O O1 0.367895 0.814840 0.120164
O O2 0.624271 0.766156 0.163188
O O3 0.595383 0.877113 0.055912
O O4 0.524131 0.750000 0.000000
O O5 0.885971 0.497990 0.161006
O O6 0.990980 0.386964 0.250000
O O7 0.128706 0.505210 0.250000
O O8 0.718499 0.882546 0.250000
O O9 0.639584 0.996126 0.156689
O O10 0.837148 0.388193 0.044466
O O11 0.889766 0.277106 0.159825
O O12 0.798121 0.250000 0.000000
O O13 0.870637 0.764265 0.250000
O O14 0.247669 0.024921 0.489950
O O15 0.000000 0.000000 0.500000
O O16 0.500000 0.500000 0.500000
#
# Coordination Sequence:
#
# PCOD8234075 Si02
#       8
#     8   4   4   8   4   8   8   4
#     4  10  21  38  60  82 115 153 191 234 285 342
#     4   9  18  34  56  82 110 154 188 225 284 343
#     4   9  18  34  56  80 115 150 186 228 283 346
#     4  10  21  38  60  84 113 152 193 232 284 343
#     4   9  19  35  57  85 112 149 189 235 283 341
#     4  11  21  37  61  85 118 152 192 240 287 345
#     4  11  21  37  59  88 114 151 194 236 287 339
#     4   9  19  35  57  85 111 147 195 232 280 350
#
# _framework density 18.731169000000001
#
# number of rings (size 3 to 8) (size 9 to 14) (size 15 to 20)
#    0.000    2.000    3.333    0.500    2.333    1.333 
#    0.000    3.333    0.000    0.000    0.000    0.000 
#    0.000    0.000    0.000    0.000    0.000    0.000 
#
# Total GULP energy -594951.842830 kJ/mol
# GULP energy per Si atom -12394.830059 kJ/mol
# Density = 1.868854 g / cm^3
# Si number density = 18.731169 Si / 1000 Ang^3
#
#
#
# Elastic Constant Matrix: (Units=GPa)
#
#
# Indices 1 2 3 4 5 6 
#
# 1 176.5187 35.8301 86.0059 0.0000 0.0000 0.0000
# 2 35.8301 47.1860 34.5339 0.0000 0.0000 0.0000
# 3 86.0059 34.5339 153.5069 0.0000 0.0000 0.0000
# 4 0.0000 0.0000 0.0000 20.0629 0.0000 0.0000
# 5 0.0000 0.0000 0.0000 0.0000 44.4464 0.0000
# 6 0.0000 0.0000 0.0000 0.0000 0.0000 25.4754
#
#
#
# Elastic Compliance Matrix: (Units=1/GPa)
#
#
# Indices 1 2 3 4 5 6 
#
# 1 0.008235 -0.003443 -0.003839 0.000000 0.000000 0.000000
# 2 -0.003443 0.026809 -0.004102 0.000000 0.000000 0.000000
# 3 -0.003839 -0.004102 0.009588 0.000000 0.000000 0.000000
# 4 0.000000 0.000000 0.000000 0.049843 0.000000 0.000000
# 5 0.000000 0.000000 0.000000 0.000000 0.022499 0.000000
# 6 0.000000 0.000000 0.000000 0.000000 0.000000 0.039253
#
#
# Mechanical properties :
#
#
# Convention : Reuss Voigt Hill
#
# Bulk Modulus (GPa) = 45.73822 76.66126 61.19974
# Shear Modulus (GPa) = 26.84071 32.71972 29.78022
#
# Velocity S-wave (km/s) = 3.78953 4.18402 3.99165
# Velocity P-wave (km/s) = 6.60444 8.02230 7.34765
#
# Compressibility (1/GPa) = 0.02186355
#
# Stress axis : x y z
#
# Youngs Moduli (GPa) = 121.44023 37.30026 104.29603
#
# Poissons Ratio (x) = 0.12843 0.40039
# Poissons Ratio (y) = 0.41814 0.42784
# Poissons Ratio (z) = 0.46621 0.15301
#
# Static dielectric constant tensor:
#      x y z
#    x 3.762220 0.000000 0.000000 
#    y 0.000000 3.054010 0.000000 
#    z 0.000000 0.000000 3.752240 
# 
# 
# High freq. dielectric constant tensor:
#      x y z
#    x 1.748680 0.000000 0.000000 
#    y 0.000000 1.688010 0.000000 
#    z 0.000000 0.000000 1.740800 
# 
# From -- ./inp_files/16482.got.cif
#   From: 2010.03.12/outbox.cif.g09.slc.cpg/sg57_9_cif.got.tgz:16482.got - 2010.04.16 15:48:40.
