data_PCOD8234839
_publ_section_title
;
Structure prediction by ZEFSAII (Michael W. Deem and Ramdas Pophale) SiO2 
 PCOD8234839
Probable space group: P B C M
;
_chemical_formula_sum "Si O2"
_cell_formula_units_Z 48
_cell_length_a 9.773085
_cell_length_b 13.982855
_cell_length_c 16.980499
_cell_angle_alpha 90.000000
_cell_angle_beta 90.000000
_cell_angle_gamma 90.000000
_cell_volume 2320.480796
_symmetry_space_group_name_H-M "P B C M"
_symmetry_group_IT_number 57
_symmetry_cell_setting 'orthorhombic'
loop_
_space_group_symop_operation_xyz
x,y,z
-x,-y,1/2+z
x,1/2-y,-z
-x,1/2+y,1/2-z
-x,-y,-z
x,y,1/2-z
-x,1/2+y,z
x,1/2-y,1/2+z
loop_
_atom_site_type_symbol
_atom_site_label
_atom_site_fract_x
_atom_site_fract_y
_atom_site_fract_z
Si Si1 0.209517 0.763650 0.406840
Si Si2 0.337784 0.094560 0.160604
Si Si3 0.173839 0.933440 0.841476
Si Si4 0.896663 0.459731 0.157806
Si Si5 0.482540 0.229733 0.589324
Si Si6 0.435441 0.017340 0.586128
O O1 0.203027 0.750000 0.500000
O O2 0.134079 0.675766 0.362553
O O3 0.129332 0.860759 0.386910
O O4 0.365646 0.767365 0.372195
O O5 0.310829 0.121289 0.250000
O O6 0.373232 0.193513 0.118615
O O7 0.204036 0.042840 0.124497
O O8 0.462612 0.021283 0.152317
O O9 0.218651 0.941146 0.750000
O O10 0.293342 0.962318 0.902489
O O11 0.049413 0.004866 0.858569
O O12 0.867589 0.443914 0.250000
O O13 0.513188 0.250000 0.500000
O O14 0.410715 0.128365 0.602683
O O15 0.500000 0.000000 0.500000
#
# Coordination Sequence:
#
# PCOD8234839 Si02
#       6
#     8   8   8   8   8   8
#     4  11  22  40  66  96 125 173 222 270 329 392
#     4  11  23  39  63  95 127 166 217 267 318 385
#     4  11  25  44  66  94 131 175 218 265 324 400
#     4  10  24  44  64  92 136 176 213 270 334 393
#     4  11  22  38  65  93 131 168 213 274 331 380
#     4  12  22  41  67  96 128 165 217 273 323 382
#
# _framework density 20.685368
#
# number of rings (size 3 to 8) (size 9 to 14) (size 15 to 20)
#    0.000    1.000    5.000    2.000    0.000    4.000 
#    0.000    5.000    0.000    0.000    0.000    0.000 
#    0.000    0.000    0.000    0.000    0.000    0.000 
#
# Total GULP energy -595192.564655 kJ/mol
# GULP energy per Si atom -12399.845097 kJ/mol
# Density = 2.063829 g / cm^3
# Si number density = 20.685368 Si / 1000 Ang^3
#
#
#
# Elastic Constant Matrix: (Units=GPa)
#
#
# Indices 1 2 3 4 5 6 
#
# 1 110.9660 52.6371 50.3017 0.0000 0.0000 0.0000
# 2 52.6371 168.2068 58.7996 0.0000 0.0000 0.0000
# 3 50.3017 58.7996 70.4517 0.0000 0.0000 0.0000
# 4 0.0000 0.0000 0.0000 31.4849 0.0000 0.0000
# 5 0.0000 0.0000 0.0000 0.0000 24.0402 0.0000
# 6 0.0000 0.0000 0.0000 0.0000 0.0000 23.1889
#
#
#
# Elastic Compliance Matrix: (Units=1/GPa)
#
#
# Indices 1 2 3 4 5 6 
#
# 1 0.013496 -0.001207 -0.008628 0.000000 0.000000 0.000000
# 2 -0.001207 0.008502 -0.006234 0.000000 0.000000 0.000000
# 3 -0.008628 -0.006234 0.025558 0.000000 0.000000 0.000000
# 4 0.000000 0.000000 0.000000 0.031761 0.000000 0.000000
# 5 0.000000 0.000000 0.000000 0.000000 0.041597 0.000000
# 6 0.000000 0.000000 0.000000 0.000000 0.000000 0.043124
#
#
# Mechanical properties :
#
#
# Convention : Reuss Voigt Hill
#
# Bulk Modulus (GPa) = 64.86566 74.78902 69.82734
# Shear Modulus (GPa) = 24.83668 28.26854 26.55261
#
# Velocity S-wave (km/s) = 3.46885 3.70076 3.58668
# Velocity P-wave (km/s) = 6.88987 7.38206 7.14021
#
# Compressibility (1/GPa) = 0.01541648
#
# Stress axis : x y z
#
# Youngs Moduli (GPa) = 74.09824 117.61954 39.12726
#
# Poissons Ratio (x) = 0.14197 0.33760
# Poissons Ratio (y) = 0.08944 0.24392
# Poissons Ratio (z) = 0.63934 0.73324
#
# Static dielectric constant tensor:
#      x y z
#    x 3.717380 0.000000 0.000000 
#    y 0.000000 3.901850 0.000000 
#    z 0.000000 0.000000 3.607500 
# 
# 
# High freq. dielectric constant tensor:
#      x y z
#    x 1.797600 0.000000 0.000000 
#    y 0.000000 1.827800 0.000000 
#    z 0.000000 0.000000 1.803830 
# 
# From -- ./inp_files/20918.got.cif
#   From: 2010.03.12/outbox.cif.g09.slc.cpg/sg57_11_cif.got.tgz:20918.got - 2010.04.16 15:48:40.
