data_PCOD8234770
_publ_section_title
;
Structure prediction by ZEFSAII (Michael W. Deem and Ramdas Pophale) SiO2 
 PCOD8234770
Probable space group: P B C M
;
_chemical_formula_sum "Si O2"
_cell_formula_units_Z 40
_cell_length_a 7.501611
_cell_length_b 11.894603
_cell_length_c 20.318341
_cell_angle_alpha 90.000000
_cell_angle_beta 90.000000
_cell_angle_gamma 90.000000
_cell_volume 1812.978843
_symmetry_space_group_name_H-M "P B C M"
_symmetry_group_IT_number 57
_symmetry_cell_setting 'orthorhombic'
loop_
_space_group_symop_operation_xyz
x,y,z
-x,-y,1/2+z
x,1/2-y,-z
-x,1/2+y,1/2-z
-x,-y,-z
x,y,1/2-z
-x,1/2+y,z
x,1/2-y,1/2+z
loop_
_atom_site_type_symbol
_atom_site_label
_atom_site_fract_x
_atom_site_fract_y
_atom_site_fract_z
Si Si1 0.226466 0.508121 0.132110
Si Si2 0.142894 0.096749 0.175512
Si Si3 0.098364 0.286213 0.071564
Si Si4 0.424581 0.591336 0.823311
Si Si5 0.309941 0.761477 0.572538
O O1 0.168290 0.411042 0.082326
O O2 0.380772 0.464638 0.180276
O O3 0.306992 0.607292 0.088245
O O4 0.058736 0.550633 0.174131
O O5 0.183837 0.137141 0.250000
O O6 0.172170 0.201636 0.127127
O O7 0.277889 0.999094 0.153699
O O8 0.885829 0.291643 0.073705
O O9 0.167919 0.250000 0.000000
O O10 0.377018 0.635797 0.750000
O O11 0.428468 0.695316 0.873958
O O12 0.396037 0.750000 0.500000
#
# Coordination Sequence:
#
# PCOD8234770 Si02
#       5
#     8   8   8   8   8
#     4  11  24  43  67  96 131 178 220 272 332 391
#     4  10  23  43  65  93 130 174 221 275 330 386
#     4  10  23  42  70  98 133 177 222 272 326 397
#     4  11  25  43  65  96 132 172 224 276 327 392
#     4  10  24  43  69 100 134 176 221 275 328 396
#
# _framework density 22.063136
#
# number of rings (size 3 to 8) (size 9 to 14) (size 15 to 20)
#    0.000    1.600    2.000    0.600    5.600    9.600 
#    0.000    0.000    0.000    0.000    0.000    0.000 
#    0.000    0.000    0.000    0.000    0.000    0.000 
#
# Total GULP energy -496164.915612 kJ/mol
# GULP energy per Si atom -12404.122890 kJ/mol
# Density = 2.201292 g / cm^3
# Si number density = 22.063136 Si / 1000 Ang^3
#
#
#
# Elastic Constant Matrix: (Units=GPa)
#
#
# Indices 1 2 3 4 5 6 
#
# 1 62.2707 32.4905 15.7587 0.0000 0.0000 0.0000
# 2 32.4905 148.7266 73.3193 0.0000 0.0000 0.0000
# 3 15.7587 73.3193 150.2990 0.0000 0.0000 0.0000
# 4 0.0000 0.0000 0.0000 24.0962 0.0000 0.0000
# 5 0.0000 0.0000 0.0000 0.0000 9.5027 0.0000
# 6 0.0000 0.0000 0.0000 0.0000 0.0000 21.0573
#
#
#
# Elastic Compliance Matrix: (Units=1/GPa)
#
#
# Indices 1 2 3 4 5 6 
#
# 1 0.018125 -0.003980 0.000041 0.000000 0.000000 0.000000
# 2 -0.003980 0.009727 -0.004328 0.000000 0.000000 0.000000
# 3 0.000041 -0.004328 0.008760 0.000000 0.000000 0.000000
# 4 0.000000 0.000000 0.000000 0.041500 0.000000 0.000000
# 5 0.000000 0.000000 0.000000 0.000000 0.105234 0.000000
# 6 0.000000 0.000000 0.000000 0.000000 0.000000 0.047489
#
#
# Mechanical properties :
#
#
# Convention : Reuss Voigt Hill
#
# Bulk Modulus (GPa) = 49.80285 67.15924 58.48105
# Shear Modulus (GPa) = 19.68033 26.91310 23.29671
#
# Velocity S-wave (km/s) = 2.98988 3.49638 3.25300
# Velocity P-wave (km/s) = 5.87716 6.84144 6.37755
#
# Compressibility (1/GPa) = 0.02007917
#
# Stress axis : x y z
#
# Youngs Moduli (GPa) = 55.17227 102.81116 114.15284
#
# Poissons Ratio (x) = 0.40917 -0.00469
# Poissons Ratio (y) = 0.21957 0.49400
# Poissons Ratio (z) = -0.00226 0.44492
#
# Static dielectric constant tensor:
#      x y z
#    x 3.988310 0.000000 0.000000 
#    y 0.000000 3.889670 0.000000 
#    z 0.000000 0.000000 3.880260 
# 
# 
# High freq. dielectric constant tensor:
#      x y z
#    x 1.871170 0.000000 0.000000 
#    y 0.000000 1.869290 0.000000 
#    z 0.000000 0.000000 1.868480 
# 
# From -- ./inp_files/24123.got.cif
#   From: 2010.03.12/outbox.cif.g09.slc.cpg/sg57_13_cif.got.tgz:24123.got - 2010.04.16 15:48:40.
