data_PCOD8234601
_publ_section_title
;
Structure prediction by ZEFSAII (Michael W. Deem and Ramdas Pophale) SiO2 
 PCOD8234601
Probable space group: P B C M
;
_chemical_formula_sum "Si O2"
_cell_formula_units_Z 64
_cell_length_a 10.107347
_cell_length_b 19.969690
_cell_length_c 16.886270
_cell_angle_alpha 90.000000
_cell_angle_beta 90.000000
_cell_angle_gamma 90.000000
_cell_volume 3408.334637
_symmetry_space_group_name_H-M "P B C M"
_symmetry_group_IT_number 57
_symmetry_cell_setting 'orthorhombic'
loop_
_space_group_symop_operation_xyz
x,y,z
-x,-y,1/2+z
x,1/2-y,-z
-x,1/2+y,1/2-z
-x,-y,-z
x,y,1/2-z
-x,1/2+y,z
x,1/2-y,1/2+z
loop_
_atom_site_type_symbol
_atom_site_label
_atom_site_fract_x
_atom_site_fract_y
_atom_site_fract_z
Si Si1 0.980504 0.604838 0.838618
Si Si2 0.685715 0.906880 0.343636
Si Si3 0.859419 0.308388 0.563265
Si Si4 0.083142 0.256791 0.838654
Si Si5 0.388504 0.975129 0.942430
Si Si6 0.117959 0.949323 0.019476
Si Si7 0.604686 0.338760 0.845516
Si Si8 0.378170 0.236393 0.843599
O O1 0.998263 0.576947 0.750000
O O2 0.836599 0.586806 0.874838
O O3 0.987796 0.684812 0.840200
O O4 0.098613 0.570561 0.888394
O O5 0.693374 0.901807 0.250000
O O6 0.608110 0.840371 0.375412
O O7 0.610734 0.972645 0.370445
O O8 0.829995 0.250000 0.500000
O O9 0.881542 0.380251 0.526771
O O10 0.744850 0.306876 0.630024
O O11 0.000464 0.302822 0.604220
O O12 0.081121 0.285749 0.750000
O O13 0.232862 0.259525 0.871370
O O14 0.416632 0.904596 0.899437
O O15 0.258861 0.981067 0.997944
O O16 0.500000 0.000000 0.000000
O O17 0.000000 0.000000 0.000000
O O18 0.601046 0.352640 0.750000
O O19 0.491957 0.286249 0.874259
O O20 0.385105 0.235413 0.750000
#
# Coordination Sequence:
#
# PCOD8234601 Si02
#       8
#     8   8   8   8   8   8   8   8
#     4   9  17  34  61  86 111 148 194 240 286 342
#     4   9  17  35  61  84 107 150 201 236 283 356
#     4  11  22  35  56  86 122 153 191 238 302 358
#     4   9  17  34  59  86 112 145 189 239 288 343
#     4  11  24  38  57  83 120 158 192 241 300 354
#     4  11  22  39  57  84 120 152 193 246 293 346
#     4  10  22  41  60  83 117 160 199 244 295 355
#     4   8  17  34  59  85 107 140 195 244 279 332
#
# _framework density 18.7775
#
# number of rings (size 3 to 8) (size 9 to 14) (size 15 to 20)
#    0.000    2.250    2.500    2.250    0.000    3.000 
#    0.000    2.500    0.000    0.000    0.000    0.000 
#    0.000    0.000    0.000    0.000    0.000    0.000 
#
# Total GULP energy -792885.028867 kJ/mol
# GULP energy per Si atom -12388.828576 kJ/mol
# Density = 1.873476 g / cm^3
# Si number density = 18.777500 Si / 1000 Ang^3
#
#
#
# Elastic Constant Matrix: (Units=GPa)
#
#
# Indices 1 2 3 4 5 6 
#
# 1 102.0386 63.4612 37.6509 0.0000 0.0000 0.0000
# 2 63.4612 93.4833 29.1695 0.0000 0.0000 0.0000
# 3 37.6509 29.1695 61.2265 0.0000 0.0000 0.0000
# 4 0.0000 0.0000 0.0000 21.2236 0.0000 0.0000
# 5 0.0000 0.0000 0.0000 0.0000 30.7732 0.0000
# 6 0.0000 0.0000 0.0000 0.0000 0.0000 30.5267
#
#
#
# Elastic Compliance Matrix: (Units=1/GPa)
#
#
# Indices 1 2 3 4 5 6 
#
# 1 0.018923 -0.010824 -0.006480 0.000000 0.000000 0.000000
# 2 -0.010824 0.018756 -0.002280 0.000000 0.000000 0.000000
# 3 -0.006480 -0.002280 0.021404 0.000000 0.000000 0.000000
# 4 0.000000 0.000000 0.000000 0.047117 0.000000 0.000000
# 5 0.000000 0.000000 0.000000 0.000000 0.032496 0.000000
# 6 0.000000 0.000000 0.000000 0.000000 0.000000 0.032758
#
#
# Mechanical properties :
#
#
# Convention : Reuss Voigt Hill
#
# Bulk Modulus (GPa) = 50.21125 57.47908 53.84517
# Shear Modulus (GPa) = 23.01390 24.93582 23.97486
#
# Velocity S-wave (km/s) = 3.50467 3.64808 3.57709
# Velocity P-wave (km/s) = 6.57078 6.95857 6.76745
#
# Compressibility (1/GPa) = 0.01991585
#
# Stress axis : x y z
#
# Youngs Moduli (GPa) = 52.84575 53.31536 46.72104
#
# Poissons Ratio (x) = 0.57709 0.30274
# Poissons Ratio (y) = 0.57200 0.10651
# Poissons Ratio (z) = 0.34243 0.12154
#
# Static dielectric constant tensor:
#      x y z
#    x 3.653840 0.000000 0.000000 
#    y 0.000000 3.323050 0.000000 
#    z 0.000000 0.000000 3.498110 
# 
# 
# High freq. dielectric constant tensor:
#      x y z
#    x 1.724870 0.000000 0.000000 
#    y 0.000000 1.732000 0.000000 
#    z 0.000000 0.000000 1.722710 
# 
# From -- ./inp_files/21447.got.cif
#   From: 2010.03.12/outbox.cif.g09.slc.cpg/sg57_11_cif.got.tgz:21447.got - 2010.04.16 15:48:40.
