data_PCOD8234176
_publ_section_title
;
Structure prediction by ZEFSAII (Michael W. Deem and Ramdas Pophale) SiO2 
 PCOD8234176
Probable space group: P B C M
;
_chemical_formula_sum "Si O2"
_cell_formula_units_Z 48
_cell_length_a 19.092577
_cell_length_b 8.856955
_cell_length_c 14.061679
_cell_angle_alpha 90.000000
_cell_angle_beta 90.000000
_cell_angle_gamma 90.000000
_cell_volume 2377.859383
_symmetry_space_group_name_H-M "P B C M"
_symmetry_group_IT_number 57
_symmetry_cell_setting 'orthorhombic'
loop_
_space_group_symop_operation_xyz
x,y,z
-x,-y,1/2+z
x,1/2-y,-z
-x,1/2+y,1/2-z
-x,-y,-z
x,y,1/2-z
-x,1/2+y,z
x,1/2-y,1/2+z
loop_
_atom_site_type_symbol
_atom_site_label
_atom_site_fract_x
_atom_site_fract_y
_atom_site_fract_z
Si Si1 0.541810 0.496707 0.750000
Si Si2 0.599042 0.156616 0.750000
Si Si3 0.835538 0.074718 0.980529
Si Si4 0.566668 0.914329 0.039864
Si Si5 0.089398 0.070329 0.640067
Si Si6 0.947932 0.591896 0.360195
Si Si7 0.681217 0.099356 0.940623
O O1 0.559493 0.318410 0.750000
O O2 0.457986 0.522201 0.750000
O O3 0.572218 0.576227 0.845189
O O4 0.649278 0.137775 0.839120
O O5 0.843204 0.981952 0.079582
O O6 0.844731 0.250000 0.000000
O O7 0.760548 0.038560 0.932725
O O8 0.895520 0.022406 0.909774
O O9 0.554743 0.750000 0.000000
O O10 0.500000 0.000000 0.000000
O O11 0.638116 0.973802 0.995998
O O12 0.111000 0.066190 0.750000
O O13 0.064905 0.236372 0.607663
O O14 0.027296 0.953670 0.615274
O O15 0.933799 0.570622 0.250000
O O16 0.679911 0.250000 0.000000
#
# Coordination Sequence:
#
# PCOD8234176 Si02
#       7
#     4   4   8   8   8   8   8
#     4  12  24  40  74 100 124 173 211 276 336 382
#     4  12  24  42  74  98 134 163 227 264 340 390
#     4  11  24  40  62  88 127 173 214 257 329 384
#     4  12  24  42  66  96 134 162 217 268 323 397
#     4  10  21  40  64  94 127 165 219 276 320 382
#     4  10  21  38  66  95 126 165 218 276 326 379
#     4  11  25  45  63  95 130 178 213 272 322 400
#
# _framework density 20.186222999999998
#
# number of rings (size 3 to 8) (size 9 to 14) (size 15 to 20)
#    0.000    1.000    3.333    3.500    1.167    3.333 
#    6.000    0.000    0.000    0.000    0.000    0.000 
#    0.000    0.000    0.000    0.000    0.000    0.000 
#
# Total GULP energy -595262.187167 kJ/mol
# GULP energy per Si atom -12401.295566 kJ/mol
# Density = 2.014028 g / cm^3
# Si number density = 20.186223 Si / 1000 Ang^3
#
#
#
# Elastic Constant Matrix: (Units=GPa)
#
#
# Indices 1 2 3 4 5 6 
#
# 1 94.5374 44.7175 53.0477 0.0000 0.0000 0.0000
# 2 44.7175 111.7655 38.5948 0.0000 0.0000 0.0000
# 3 53.0477 38.5948 140.9482 0.0000 0.0000 0.0000
# 4 0.0000 0.0000 0.0000 33.8729 0.0000 0.0000
# 5 0.0000 0.0000 0.0000 0.0000 20.0773 0.0000
# 6 0.0000 0.0000 0.0000 0.0000 0.0000 30.9273
#
#
#
# Elastic Compliance Matrix: (Units=1/GPa)
#
#
# Indices 1 2 3 4 5 6 
#
# 1 0.015252 -0.004550 -0.004494 0.000000 0.000000 0.000000
# 2 -0.004550 0.011239 -0.001365 0.000000 0.000000 0.000000
# 3 -0.004494 -0.001365 0.009160 0.000000 0.000000 0.000000
# 4 0.000000 0.000000 0.000000 0.029522 0.000000 0.000000
# 5 0.000000 0.000000 0.000000 0.000000 0.049807 0.000000
# 6 0.000000 0.000000 0.000000 0.000000 0.000000 0.032334
#
#
# Mechanical properties :
#
#
# Convention : Reuss Voigt Hill
#
# Bulk Modulus (GPa) = 67.42152 68.88567 68.15359
# Shear Modulus (GPa) = 28.88864 31.03491 29.96178
#
# Velocity S-wave (km/s) = 3.78710 3.92526 3.85680
# Velocity P-wave (km/s) = 7.25225 7.39883 7.32591
#
# Compressibility (1/GPa) = 0.01483206
#
# Stress axis : x y z
#
# Youngs Moduli (GPa) = 65.56460 88.97372 109.16953
#
# Poissons Ratio (x) = 0.40487 0.49064
# Poissons Ratio (y) = 0.29835 0.14901
# Poissons Ratio (z) = 0.29467 0.12145
#
# Static dielectric constant tensor:
#      x y z
#    x 4.067800 0.000000 0.000000 
#    y 0.000000 2.473110 0.000000 
#    z 0.000000 0.000000 3.987890 
# 
# 
# High freq. dielectric constant tensor:
#      x y z
#    x 1.781520 0.000000 0.000000 
#    y 0.000000 1.797140 0.000000 
#    z 0.000000 0.000000 1.808260 
# 
# From -- ./inp_files/18984.got.cif
#   From: 2010.03.12/outbox.cif.g09.slc.cpg/sg57_10_cif.got.tgz:18984.got - 2010.04.16 15:48:40.
