data_PCOD8234194
_publ_section_title
;
Structure prediction by ZEFSAII (Michael W. Deem and Ramdas Pophale) SiO2 
 PCOD8234194
Probable space group: P B C M
;
_chemical_formula_sum "Si O2"
_cell_formula_units_Z 40
_cell_length_a 24.254794
_cell_length_b 8.819106
_cell_length_c 9.202291
_cell_angle_alpha 90.000000
_cell_angle_beta 90.000000
_cell_angle_gamma 90.000000
_cell_volume 1968.421571
_symmetry_space_group_name_H-M "P B C M"
_symmetry_group_IT_number 57
_symmetry_cell_setting 'orthorhombic'
loop_
_space_group_symop_operation_xyz
x,y,z
-x,-y,1/2+z
x,1/2-y,-z
-x,1/2+y,1/2-z
-x,-y,-z
x,y,1/2-z
-x,1/2+y,z
x,1/2-y,1/2+z
loop_
_atom_site_type_symbol
_atom_site_label
_atom_site_fract_x
_atom_site_fract_y
_atom_site_fract_z
Si Si1 0.118349 0.569526 0.020962
Si Si2 0.042508 0.424930 0.250000
Si Si3 0.073251 0.071130 0.250000
Si Si4 0.657789 0.910413 0.425154
Si Si5 0.761610 0.099760 0.089247
Si Si6 0.550640 0.585021 0.428269
O O1 0.114349 0.469157 0.878599
O O2 0.111979 0.750000 0.000000
O O3 0.067535 0.509591 0.113165
O O4 0.177609 0.524962 0.088486
O O5 0.053687 0.245045 0.250000
O O6 0.977382 0.452938 0.250000
O O7 0.663549 0.750000 0.500000
O O8 0.648674 0.899717 0.250000
O O9 0.606403 0.993809 0.507398
O O10 0.714359 0.990957 0.471030
O O11 0.744806 0.146843 0.250000
O O12 0.764008 0.250000 0.000000
O O13 0.549466 0.750000 0.500000
O O14 0.500000 0.500000 0.500000
O O15 0.548931 0.586299 0.250000
#
# Coordination Sequence:
#
# PCOD8234194 Si02
#       6
#     8   4   4   8   8   8
#     4  11  23  43  64  91 124 164 206 257 314 374
#     4  12  24  44  64  92 130 154 215 248 315 378
#     4  12  26  40  66  94 120 170 197 264 309 376
#     4  10  21  39  60  90 125 163 207 258 311 370
#     4  10  23  41  64  90 122 160 203 252 305 368
#     4  11  22  39  62  91 126 169 214 264 319 376
#
# _framework density 20.320851000000001
#
# number of rings (size 3 to 8) (size 9 to 14) (size 15 to 20)
#    0.000    1.200    1.000    6.600    4.200    4.000 
#    0.000    2.000    0.000    0.000    0.000    0.000 
#    0.000    0.000    0.000    0.000    0.000    0.000 
#
# Total GULP energy -495604.546708 kJ/mol
# GULP energy per Si atom -12390.113668 kJ/mol
# Density = 2.027460 g / cm^3
# Si number density = 20.320851 Si / 1000 Ang^3
#
#
#
# Elastic Constant Matrix: (Units=GPa)
#
#
# Indices 1 2 3 4 5 6 
#
# 1 121.2913 35.5434 28.2342 0.0000 0.0000 0.0000
# 2 35.5434 80.8077 20.0431 0.0000 0.0000 0.0000
# 3 28.2342 20.0431 125.8359 0.0000 0.0000 0.0000
# 4 0.0000 0.0000 0.0000 33.6200 0.0000 0.0000
# 5 0.0000 0.0000 0.0000 0.0000 40.0337 0.0000
# 6 0.0000 0.0000 0.0000 0.0000 0.0000 36.8370
#
#
#
# Elastic Compliance Matrix: (Units=1/GPa)
#
#
# Indices 1 2 3 4 5 6 
#
# 1 0.009752 -0.003901 -0.001567 0.000000 0.000000 0.000000
# 2 -0.003901 0.014444 -0.001425 0.000000 0.000000 0.000000
# 3 -0.001567 -0.001425 0.008525 0.000000 0.000000 0.000000
# 4 0.000000 0.000000 0.000000 0.029744 0.000000 0.000000
# 5 0.000000 0.000000 0.000000 0.000000 0.024979 0.000000
# 6 0.000000 0.000000 0.000000 0.000000 0.000000 0.027147
#
#
# Mechanical properties :
#
#
# Convention : Reuss Voigt Hill
#
# Bulk Modulus (GPa) = 52.80988 55.06404 53.93696
# Shear Modulus (GPa) = 37.12209 38.37244 37.74726
#
# Velocity S-wave (km/s) = 4.27874 4.35020 4.31462
# Velocity P-wave (km/s) = 7.10314 7.23799 7.17088
#
# Compressibility (1/GPa) = 0.01893585
#
# Stress axis : x y z
#
# Youngs Moduli (GPa) = 102.53781 69.23063 117.29579
#
# Poissons Ratio (x) = 0.27007 0.18378
# Poissons Ratio (y) = 0.40000 0.16720
# Poissons Ratio (z) = 0.16066 0.09868
#
# Static dielectric constant tensor:
#      x y z
#    x 4.846660 0.000000 0.000000 
#    y 0.000000 3.565260 0.000000 
#    z 0.000000 0.000000 3.924340 
# 
# 
# High freq. dielectric constant tensor:
#      x y z
#    x 1.816550 0.000000 0.000000 
#    y 0.000000 1.780300 0.000000 
#    z 0.000000 0.000000 1.812880 
# 
# From -- ./inp_files/8989.got.cif
#   From: 2010.03.12/outbox.cif.g09.slc.cpg/sg57_5_cif.got.tgz:8989.got - 2010.04.16 15:48:40.
