data_PCOD8234056
_publ_section_title
;
Structure prediction by ZEFSAII (Michael W. Deem and Ramdas Pophale) SiO2 
 PCOD8234056
Probable space group: P B C M
;
_chemical_formula_sum "Si O2"
_cell_formula_units_Z 40
_cell_length_a 25.428268
_cell_length_b 9.530029
_cell_length_c 8.523454
_cell_angle_alpha 90.000000
_cell_angle_beta 90.000000
_cell_angle_gamma 90.000000
_cell_volume 2065.506775
_symmetry_space_group_name_H-M "P B C M"
_symmetry_group_IT_number 57
_symmetry_cell_setting 'orthorhombic'
loop_
_space_group_symop_operation_xyz
x,y,z
-x,-y,1/2+z
x,1/2-y,-z
-x,1/2+y,1/2-z
-x,-y,-z
x,y,1/2-z
-x,1/2+y,z
x,1/2-y,1/2+z
loop_
_atom_site_type_symbol
_atom_site_label
_atom_site_fract_x
_atom_site_fract_y
_atom_site_fract_z
Si Si1 0.655286 0.902974 0.434575
Si Si2 0.143274 0.599723 0.064995
Si Si3 0.046247 0.094019 0.566774
Si Si4 0.255486 0.596818 0.935378
Si Si5 0.454131 0.095057 0.064895
O O1 0.666825 0.750000 0.500000
O O2 0.647408 0.895503 0.250000
O O3 0.602097 0.966478 0.509865
O O4 0.704801 0.995535 0.477846
O O5 0.153413 0.614480 0.250000
O O6 0.100912 0.481135 0.024002
O O7 0.123615 0.750000 0.000000
O O8 0.196434 0.551435 0.979254
O O9 0.045605 0.250000 0.500000
O O10 0.037796 0.105245 0.750000
O O11 0.000000 0.000000 0.500000
O O12 0.263750 0.590058 0.750000
O O13 0.267370 0.750000 0.000000
O O14 0.456439 0.097817 0.250000
O O15 0.462089 0.250000 0.000000
O O16 0.500000 0.000000 0.000000
#
# Coordination Sequence:
#
# PCOD8234056 Si02
#       5
#     8   8   8   8   8
#     4  11  22  39  60  85 116 152 191 236 287 343
#     4  10  21  38  59  85 115 151 191 237 287 341
#     4  11  24  40  61  87 118 153 194 238 287 341
#     4  11  22  38  60  87 117 153 193 238 286 340
#     4  11  22  39  60  86 116 151 192 237 288 343
#
# _framework density 19.365708000000001
#
# number of rings (size 3 to 8) (size 9 to 14) (size 15 to 20)
#    0.000    1.200    0.000    9.600    0.000    6.400 
#    0.000    6.000    0.000    0.000    0.000    0.000 
#    0.000    0.000    0.000    0.000    0.000    0.000 
#
# Total GULP energy -496155.647641 kJ/mol
# GULP energy per Si atom -12403.891191 kJ/mol
# Density = 1.932163 g / cm^3
# Si number density = 19.365708 Si / 1000 Ang^3
#
#
#
# Elastic Constant Matrix: (Units=GPa)
#
#
# Indices 1 2 3 4 5 6 
#
# 1 124.3531 91.3901 54.4233 0.0000 0.0000 0.0000
# 2 91.3901 120.3200 49.3752 0.0000 0.0000 0.0000
# 3 54.4233 49.3752 149.5072 0.0000 0.0000 0.0000
# 4 0.0000 0.0000 0.0000 37.4376 0.0000 0.0000
# 5 0.0000 0.0000 0.0000 0.0000 36.9403 0.0000
# 6 0.0000 0.0000 0.0000 0.0000 0.0000 41.9330
#
#
#
# Elastic Compliance Matrix: (Units=1/GPa)
#
#
# Indices 1 2 3 4 5 6 
#
# 1 0.018967 -0.013388 -0.002483 0.000000 0.000000 0.000000
# 2 -0.013388 0.019064 -0.001422 0.000000 0.000000 0.000000
# 3 -0.002483 -0.001422 0.008062 0.000000 0.000000 0.000000
# 4 0.000000 0.000000 0.000000 0.026711 0.000000 0.000000
# 5 0.000000 0.000000 0.000000 0.000000 0.027071 0.000000
# 6 0.000000 0.000000 0.000000 0.000000 0.000000 0.023848
#
#
# Mechanical properties :
#
#
# Convention : Reuss Voigt Hill
#
# Bulk Modulus (GPa) = 86.90622 87.17304 87.03963
# Shear Modulus (GPa) = 30.83654 36.52829 33.68241
#
# Velocity S-wave (km/s) = 3.99473 4.34779 4.17499
# Velocity P-wave (km/s) = 8.13946 8.38548 8.26339
#
# Compressibility (1/GPa) = 0.01150666
#
# Stress axis : x y z
#
# Youngs Moduli (GPa) = 52.72194 52.45550 124.03414
#
# Poissons Ratio (x) = 0.70227 0.30799
# Poissons Ratio (y) = 0.70584 0.17643
# Poissons Ratio (z) = 0.13091 0.07461
#
# Static dielectric constant tensor:
#      x y z
#    x 3.947020 0.000000 0.000000 
#    y 0.000000 3.543510 0.000000 
#    z 0.000000 0.000000 3.799440 
# 
# 
# High freq. dielectric constant tensor:
#      x y z
#    x 1.769630 0.000000 0.000000 
#    y 0.000000 1.753660 0.000000 
#    z 0.000000 0.000000 1.779880 
# 
# From -- ./inp_files/8925.got.cif
#   From: 2010.03.12/outbox.cif.g09.slc.cpg/sg57_5_cif.got.tgz:8925.got - 2010.04.16 15:48:40.
