data_PCOD8234608
_publ_section_title
;
Structure prediction by ZEFSAII (Michael W. Deem and Ramdas Pophale) SiO2 
 PCOD8234608
Probable space group: P B C M
;
_chemical_formula_sum "Si O2"
_cell_formula_units_Z 48
_cell_length_a 9.831781
_cell_length_b 9.126465
_cell_length_c 28.296141
_cell_angle_alpha 90.000000
_cell_angle_beta 90.000000
_cell_angle_gamma 90.000000
_cell_volume 2538.995901
_symmetry_space_group_name_H-M "P B C M"
_symmetry_group_IT_number 57
_symmetry_cell_setting 'orthorhombic'
loop_
_space_group_symop_operation_xyz
x,y,z
-x,-y,1/2+z
x,1/2-y,-z
-x,1/2+y,1/2-z
-x,-y,-z
x,y,1/2-z
-x,1/2+y,z
x,1/2-y,1/2+z
loop_
_atom_site_type_symbol
_atom_site_label
_atom_site_fract_x
_atom_site_fract_y
_atom_site_fract_z
Si Si1 0.143775 0.141981 0.963871
Si Si2 0.375397 0.709224 0.693831
Si Si3 0.157218 0.952775 0.132322
Si Si4 0.162340 0.873922 0.471051
Si Si5 0.868723 0.700799 0.637397
Si Si6 0.645982 0.956265 0.194370
O O1 0.206310 0.153238 0.911556
O O2 0.986148 0.190190 0.957765
O O3 0.221035 0.250000 0.000000
O O4 0.152945 0.985026 0.986023
O O5 0.355405 0.699593 0.750000
O O6 0.262039 0.608277 0.670147
O O7 0.365680 0.876736 0.675055
O O8 0.519282 0.642129 0.677674
O O9 0.220835 0.932815 0.078887
O O10 0.020246 0.861783 0.140084
O O11 0.128887 0.123560 0.142272
O O12 0.248036 0.750000 0.500000
O O13 0.782883 0.624207 0.678348
O O14 0.650832 0.965003 0.250000
#
# Coordination Sequence:
#
# PCOD8234608 Si02
#       6
#     8   8   8   8   8   8
#     4   9  16  30  47  76 111 148 185 223 269 323
#     4  10  22  41  63  83 109 145 187 230 279 341
#     4  11  22  35  55  88 117 149 188 232 282 325
#     4   9  18  28  49  76 111 150 185 225 269 329
#     4  11  22  34  57  86 118 149 186 235 279 327
#     4  10  22  41  63  84 108 146 187 228 281 341
#
# _framework density 18.905111999999999
#
# number of rings (size 3 to 8) (size 9 to 14) (size 15 to 20)
#    0.000    2.000    1.667    2.000    9.333    2.667 
#    0.000    0.000    0.000    2.000    0.000    0.000 
#    0.000    0.000    0.000    0.000    0.000    0.000 
#
# Total GULP energy -594682.157260 kJ/mol
# GULP energy per Si atom -12389.211610 kJ/mol
# Density = 1.886208 g / cm^3
# Si number density = 18.905112 Si / 1000 Ang^3
#
#
#
# Elastic Constant Matrix: (Units=GPa)
#
#
# Indices 1 2 3 4 5 6 
#
# 1 56.0717 32.3551 24.1612 0.0000 0.0000 0.0000
# 2 32.3551 141.7579 28.9151 0.0000 0.0000 0.0000
# 3 24.1612 28.9151 34.1415 0.0000 0.0000 0.0000
# 4 0.0000 0.0000 0.0000 31.6036 0.0000 0.0000
# 5 0.0000 0.0000 0.0000 0.0000 2.9109 0.0000
# 6 0.0000 0.0000 0.0000 0.0000 0.0000 24.0412
#
#
#
# Elastic Compliance Matrix: (Units=1/GPa)
#
#
# Indices 1 2 3 4 5 6 
#
# 1 0.026478 -0.002685 -0.016464 0.000000 0.000000 0.000000
# 2 -0.002685 0.008800 -0.005552 0.000000 0.000000 0.000000
# 3 -0.016464 -0.005552 0.045643 0.000000 0.000000 0.000000
# 4 0.000000 0.000000 0.000000 0.031642 0.000000 0.000000
# 5 0.000000 0.000000 0.000000 0.000000 0.343534 0.000000
# 6 0.000000 0.000000 0.000000 0.000000 0.000000 0.041595
#
#
# Mechanical properties :
#
#
# Convention : Reuss Voigt Hill
#
# Bulk Modulus (GPa) = 31.72756 44.75931 38.24343
# Shear Modulus (GPa) = 8.96699 21.48045 15.22372
#
# Velocity S-wave (km/s) = 2.18024 3.37445 2.84081
# Velocity P-wave (km/s) = 4.81216 6.23777 5.57075
#
# Compressibility (1/GPa) = 0.03151834
#
# Stress axis : x y z
#
# Youngs Moduli (GPa) = 37.76741 113.64028 21.90910
#
# Poissons Ratio (x) = 0.30515 0.36070
# Poissons Ratio (y) = 0.10141 0.12165
# Poissons Ratio (z) = 0.62179 0.63097
#
# Static dielectric constant tensor:
#      x y z
#    x 3.096900 0.000000 0.000000 
#    y 0.000000 3.756990 0.000000 
#    z 0.000000 0.000000 3.734920 
# 
# 
# High freq. dielectric constant tensor:
#      x y z
#    x 1.682170 0.000000 0.000000 
#    y 0.000000 1.759330 0.000000 
#    z 0.000000 0.000000 1.743510 
# 
# From -- ./inp_files/29449.got.cif
#   From: 2010.03.12/outbox.cif.g09.slc.cpg/sg57_15_cif.got.tgz:29449.got - 2010.04.16 15:48:40.
