data_PCOD8234962
_publ_section_title
;
Structure prediction by ZEFSAII (Michael W. Deem and Ramdas Pophale) SiO2 
 PCOD8234962
Probable space group: P B C M
;
_chemical_formula_sum "Si O2"
_cell_formula_units_Z 40
_cell_length_a 12.754926
_cell_length_b 9.872319
_cell_length_c 15.025118
_cell_angle_alpha 90.000000
_cell_angle_beta 90.000000
_cell_angle_gamma 90.000000
_cell_volume 1891.973351
_symmetry_space_group_name_H-M "P B C M"
_symmetry_group_IT_number 57
_symmetry_cell_setting 'orthorhombic'
loop_
_space_group_symop_operation_xyz
x,y,z
-x,-y,1/2+z
x,1/2-y,-z
-x,1/2+y,1/2-z
-x,-y,-z
x,y,1/2-z
-x,1/2+y,z
x,1/2-y,1/2+z
loop_
_atom_site_type_symbol
_atom_site_label
_atom_site_fract_x
_atom_site_fract_y
_atom_site_fract_z
Si Si1 0.088272 0.777125 0.146658
Si Si2 0.149354 0.273623 0.148066
Si Si3 0.759623 0.443694 0.900848
Si Si4 0.606356 0.355333 0.750000
Si Si5 0.408045 0.545672 0.750000
Si Si6 0.753801 0.504964 0.097292
O O1 0.094093 0.737894 0.250000
O O2 0.138705 0.652899 0.092356
O O3 0.969191 0.795619 0.114115
O O4 0.148977 0.916662 0.131422
O O5 0.150904 0.224275 0.250000
O O6 0.211841 0.412678 0.140725
O O7 0.205968 0.159158 0.089541
O O8 0.674362 0.371378 0.839101
O O9 0.714394 0.459242 0.000118
O O10 0.514564 0.463110 0.750000
O O11 0.561406 0.203529 0.750000
O O12 0.344252 0.506688 0.662265
#
# Coordination Sequence:
#
# PCOD8234962 Si02
#       6
#     8   8   8   4   4   8
#     4  11  21  41  67  99 139 186 221 262 322 392
#     4  11  23  39  67 101 143 182 221 262 318 392
#     4  12  24  43  69  99 137 176 221 272 329 394
#     4  12  28  50  73  97 128 170 221 283 343 390
#     4  12  28  50  73  97 128 170 221 283 343 390
#     4  12  24  43  69  99 137 176 221 272 329 394
#
# _framework density 21.141946000000001
#
# number of rings (size 3 to 8) (size 9 to 14) (size 15 to 20)
#    0.000    0.400    6.000    2.400    2.800    8.800 
#    0.000    0.000    0.000    0.000    0.000    0.000 
#    0.000    0.000    0.000    0.000    0.000    0.000 
#
# Total GULP energy -496324.018776 kJ/mol
# GULP energy per Si atom -12408.100469 kJ/mol
# Density = 2.109383 g / cm^3
# Si number density = 21.141946 Si / 1000 Ang^3
#
#
#
# Elastic Constant Matrix: (Units=GPa)
#
#
# Indices 1 2 3 4 5 6 
#
# 1 80.3791 26.4285 32.6581 0.0000 0.0000 0.0000
# 2 26.4285 125.9193 -6.8548 0.0000 0.0000 0.0000
# 3 32.6581 -6.8548 97.8711 0.0000 0.0000 0.0000
# 4 0.0000 0.0000 0.0000 28.3035 0.0000 0.0000
# 5 0.0000 0.0000 0.0000 0.0000 4.6105 0.0000
# 6 0.0000 0.0000 0.0000 0.0000 0.0000 44.3337
#
#
#
# Elastic Compliance Matrix: (Units=1/GPa)
#
#
# Indices 1 2 3 4 5 6 
#
# 1 0.015896 -0.003639 -0.005559 0.000000 0.000000 0.000000
# 2 -0.003639 0.008805 0.001831 0.000000 0.000000 0.000000
# 3 -0.005559 0.001831 0.012201 0.000000 0.000000 0.000000
# 4 0.000000 0.000000 0.000000 0.035331 0.000000 0.000000
# 5 0.000000 0.000000 0.000000 0.000000 0.216897 0.000000
# 6 0.000000 0.000000 0.000000 0.000000 0.000000 0.022556
#
#
# Mechanical properties :
#
#
# Convention : Reuss Voigt Hill
#
# Bulk Modulus (GPa) = 45.11088 45.40368 45.25728
# Shear Modulus (GPa) = 14.97855 32.24538 23.61196
#
# Velocity S-wave (km/s) = 2.66461 3.90960 3.34553
# Velocity P-wave (km/s) = 5.55431 6.47319 6.03127
#
# Compressibility (1/GPa) = 0.02216760
#
# Stress axis : x y z
#
# Youngs Moduli (GPa) = 62.90785 113.57131 81.96187
#
# Poissons Ratio (x) = 0.41329 0.45564
# Poissons Ratio (y) = 0.22892 -0.15007
# Poissons Ratio (z) = 0.34972 -0.20795
#
# Static dielectric constant tensor:
#      x y z
#    x 3.645120 0.000000 0.000000 
#    y 0.000000 3.896560 0.000000 
#    z 0.000000 0.000000 3.919490 
# 
# 
# High freq. dielectric constant tensor:
#      x y z
#    x 1.807380 0.000000 0.000000 
#    y 0.000000 1.848040 0.000000 
#    z 0.000000 0.000000 1.839130 
# 
# From -- ./inp_files/18229.got.cif
#   From: 2010.03.12/outbox.cif.g09.slc.cpg/sg57_10_cif.got.tgz:18229.got - 2010.04.16 15:48:40.
