data_PCOD8234613
_publ_section_title
;
Structure prediction by ZEFSAII (Michael W. Deem and Ramdas Pophale) SiO2 
 PCOD8234613
Probable space group: P B C M
;
_chemical_formula_sum "Si O2"
_cell_formula_units_Z 48
_cell_length_a 11.570798
_cell_length_b 11.889784
_cell_length_c 16.908907
_cell_angle_alpha 90.000000
_cell_angle_beta 90.000000
_cell_angle_gamma 90.000000
_cell_volume 2326.230857
_symmetry_space_group_name_H-M "P B C M"
_symmetry_group_IT_number 57
_symmetry_cell_setting 'orthorhombic'
loop_
_space_group_symop_operation_xyz
x,y,z
-x,-y,1/2+z
x,1/2-y,-z
-x,1/2+y,1/2-z
-x,-y,-z
x,y,1/2-z
-x,1/2+y,z
x,1/2-y,1/2+z
loop_
_atom_site_type_symbol
_atom_site_label
_atom_site_fract_x
_atom_site_fract_y
_atom_site_fract_z
Si Si1 0.202401 0.186418 0.660869
Si Si2 0.948965 0.896767 0.838597
Si Si3 0.253034 0.534596 0.604700
Si Si4 0.410437 0.152049 0.159507
Si Si5 0.826772 0.459245 0.572904
Si Si6 0.347382 0.770348 0.907276
O O1 0.182642 0.142668 0.750000
O O2 0.102506 0.275248 0.638532
O O3 0.327216 0.241513 0.651726
O O4 0.199339 0.083908 0.601429
O O5 0.002191 0.895860 0.750000
O O6 0.845039 0.987890 0.836537
O O7 0.043015 0.926127 0.904474
O O8 0.363427 0.450621 0.605501
O O9 0.191158 0.542628 0.520271
O O10 0.297696 0.656714 0.632391
O O11 0.416926 0.109845 0.250000
O O12 0.533411 0.193331 0.130777
O O13 0.741554 0.369596 0.612800
O O14 0.365695 0.750000 0.000000
#
# Coordination Sequence:
#
# PCOD8234613 Si02
#       6
#     8   8   8   8   8   8
#     4   9  21  40  60  91 126 162 210 261 318 378
#     4  10  22  41  63  90 127 166 208 263 322 377
#     4  10  23  43  63  93 127 166 210 261 320 375
#     4  10  23  41  64  92 125 168 209 256 318 377
#     4  11  23  39  64  95 122 166 214 259 316 379
#     4  10  25  41  63  92 128 161 213 262 313 372
#
# _framework density 20.634236999999999
#
# number of rings (size 3 to 8) (size 9 to 14) (size 15 to 20)
#    0.000    2.000    0.000    2.500    7.000    6.000 
#    3.000    0.000    0.000    0.000    0.000    0.000 
#    0.000    0.000    0.000    0.000    0.000    0.000 
#
# Total GULP energy -595272.452359 kJ/mol
# GULP energy per Si atom -12401.509424 kJ/mol
# Density = 2.058727 g / cm^3
# Si number density = 20.634237 Si / 1000 Ang^3
#
#
#
# Elastic Constant Matrix: (Units=GPa)
#
#
# Indices 1 2 3 4 5 6 
#
# 1 125.5847 62.7181 39.0429 0.0000 0.0000 0.0000
# 2 62.7181 137.1153 41.4117 0.0000 0.0000 0.0000
# 3 39.0429 41.4117 55.1379 0.0000 0.0000 0.0000
# 4 0.0000 0.0000 0.0000 12.4809 0.0000 0.0000
# 5 0.0000 0.0000 0.0000 0.0000 31.9033 0.0000
# 6 0.0000 0.0000 0.0000 0.0000 0.0000 19.1920
#
#
#
# Elastic Compliance Matrix: (Units=1/GPa)
#
#
# Indices 1 2 3 4 5 6 
#
# 1 0.011439 -0.003603 -0.005394 0.000000 0.000000 0.000000
# 2 -0.003603 0.010568 -0.005386 0.000000 0.000000 0.000000
# 3 -0.005394 -0.005386 0.026000 0.000000 0.000000 0.000000
# 4 0.000000 0.000000 0.000000 0.080122 0.000000 0.000000
# 5 0.000000 0.000000 0.000000 0.000000 0.031345 0.000000
# 6 0.000000 0.000000 0.000000 0.000000 0.000000 0.052105
#
#
# Mechanical properties :
#
#
# Convention : Reuss Voigt Hill
#
# Bulk Modulus (GPa) = 51.96889 67.13146 59.55017
# Shear Modulus (GPa) = 20.26270 24.35959 22.31114
#
# Velocity S-wave (km/s) = 3.13708 3.43963 3.29183
# Velocity P-wave (km/s) = 6.19372 6.95553 6.58565
#
# Compressibility (1/GPa) = 0.01924228
#
# Stress axis : x y z
#
# Youngs Moduli (GPa) = 87.41913 94.62596 38.46089
#
# Poissons Ratio (x) = 0.34098 0.20744
# Poissons Ratio (y) = 0.31501 0.20713
# Poissons Ratio (z) = 0.47151 0.50961
#
# Static dielectric constant tensor:
#      x y z
#    x 3.751990 0.000000 0.000000 
#    y 0.000000 3.923760 0.000000 
#    z 0.000000 0.000000 3.680970 
# 
# 
# High freq. dielectric constant tensor:
#      x y z
#    x 1.813580 0.000000 0.000000 
#    y 0.000000 1.816790 0.000000 
#    z 0.000000 0.000000 1.801410 
# 
# From -- ./inp_files/21819.got.cif
#   From: 2010.03.12/outbox.cif.g09.slc.cpg/sg57_11_cif.got.tgz:21819.got - 2010.04.16 15:48:40.
