data_PCOD8234587
_publ_section_title
;
Structure prediction by ZEFSAII (Michael W. Deem and Ramdas Pophale) SiO2 
 PCOD8234587
Probable space group: P B C M
;
_chemical_formula_sum "Si O2"
_cell_formula_units_Z 48
_cell_length_a 15.914554
_cell_length_b 9.519082
_cell_length_c 14.996492
_cell_angle_alpha 90.000000
_cell_angle_beta 90.000000
_cell_angle_gamma 90.000000
_cell_volume 2271.847734
_symmetry_space_group_name_H-M "P B C M"
_symmetry_group_IT_number 57
_symmetry_cell_setting 'orthorhombic'
loop_
_space_group_symop_operation_xyz
x,y,z
-x,-y,1/2+z
x,1/2-y,-z
-x,1/2+y,1/2-z
-x,-y,-z
x,y,1/2-z
-x,1/2+y,z
x,1/2-y,1/2+z
loop_
_atom_site_type_symbol
_atom_site_label
_atom_site_fract_x
_atom_site_fract_y
_atom_site_fract_z
Si Si1 0.033038 0.381886 0.561448
Si Si2 0.140482 0.863626 0.646234
Si Si3 0.315088 0.380580 0.891698
Si Si4 0.396143 0.495448 0.250000
Si Si5 0.169673 0.557799 0.847845
Si Si6 0.448113 0.316374 0.750000
Si Si7 0.721042 0.569908 0.908314
O O1 0.054278 0.250000 0.500000
O O2 0.960294 0.361068 0.634927
O O3 0.000000 0.500000 0.500000
O O4 0.118996 0.434999 0.603599
O O5 0.162592 0.885890 0.750000
O O6 0.169650 0.711981 0.606997
O O7 0.189286 0.986477 0.590707
O O8 0.264204 0.502264 0.841818
O O9 0.403921 0.370079 0.841218
O O10 0.265635 0.232000 0.879837
O O11 0.324057 0.427279 0.994961
O O12 0.457277 0.628749 0.250000
O O13 0.450085 0.352421 0.250000
O O14 0.339165 0.508119 0.338258
O O15 0.130599 0.579117 0.750000
#
# Coordination Sequence:
#
# PCOD8234587 Si02
#       7
#     8   8   8   4   8   4   8
#     4  12  25  42  59  88 127 166 216 266 314 373
#     4  11  24  42  62  88 126 166 214 266 318 381
#     4  10  22  40  65  95 128 165 213 264 316 386
#     4  10  22  42  64  97 130 165 214 257 322 387
#     4  11  24  41  62  91 125 165 217 264 318 376
#     4  10  22  42  64  95 132 165 208 267 314 389
#     4  10  22  40  66  95 126 170 212 258 324 384
#
# _framework density 21.128177000000001
#
# number of rings (size 3 to 8) (size 9 to 14) (size 15 to 20)
#    0.000    1.333    3.333    1.500    4.667    2.000 
#    0.000    0.000    0.000    0.000    0.000    0.000 
#    0.000    0.000    0.000    0.000    0.000    0.000 
#
# Total GULP energy -595037.968917 kJ/mol
# GULP energy per Si atom -12396.624352 kJ/mol
# Density = 2.108009 g / cm^3
# Si number density = 21.128177 Si / 1000 Ang^3
#
#
#
# Elastic Constant Matrix: (Units=GPa)
#
#
# Indices 1 2 3 4 5 6 
#
# 1 51.6308 18.8918 12.9355 0.0000 0.0000 0.0000
# 2 18.8918 94.4884 21.9403 0.0000 0.0000 0.0000
# 3 12.9355 21.9403 95.4306 0.0000 0.0000 0.0000
# 4 0.0000 0.0000 0.0000 30.7535 0.0000 0.0000
# 5 0.0000 0.0000 0.0000 0.0000 27.0496 0.0000
# 6 0.0000 0.0000 0.0000 0.0000 0.0000 43.7777
#
#
#
# Elastic Compliance Matrix: (Units=1/GPa)
#
#
# Indices 1 2 3 4 5 6 
#
# 1 0.021256 -0.003783 -0.002012 0.000000 0.000000 0.000000
# 2 -0.003783 0.011853 -0.002212 0.000000 0.000000 0.000000
# 3 -0.002012 -0.002212 0.011260 0.000000 0.000000 0.000000
# 4 0.000000 0.000000 0.000000 0.032517 0.000000 0.000000
# 5 0.000000 0.000000 0.000000 0.000000 0.036969 0.000000
# 6 0.000000 0.000000 0.000000 0.000000 0.000000 0.022843
#
#
# Mechanical properties :
#
#
# Convention : Reuss Voigt Hill
#
# Bulk Modulus (GPa) = 35.26564 38.78721 37.02642
# Shear Modulus (GPa) = 30.83295 32.83497 31.83396
#
# Velocity S-wave (km/s) = 3.82426 3.94646 3.88584
# Velocity P-wave (km/s) = 6.01893 6.25812 6.13969
#
# Compressibility (1/GPa) = 0.02835621
#
# Stress axis : x y z
#
# Youngs Moduli (GPa) = 47.04459 84.36414 88.80885
#
# Poissons Ratio (x) = 0.31914 0.17865
# Poissons Ratio (y) = 0.17796 0.19648
# Poissons Ratio (z) = 0.09463 0.18665
#
# Static dielectric constant tensor:
#      x y z
#    x 3.573860 0.000000 0.000000 
#    y 0.000000 3.834030 0.000000 
#    z 0.000000 0.000000 3.936990 
# 
# 
# High freq. dielectric constant tensor:
#      x y z
#    x 1.803850 0.000000 0.000000 
#    y 0.000000 1.836870 0.000000 
#    z 0.000000 0.000000 1.838820 
# 
# From -- ./inp_files/19005.got.cif
#   From: 2010.03.12/outbox.cif.g09.slc.cpg/sg57_10_cif.got.tgz:19005.got - 2010.04.16 15:48:40.
