data_PCOD8234169
_publ_section_title
;
Structure prediction by ZEFSAII (Michael W. Deem and Ramdas Pophale) SiO2 
 PCOD8234169
Probable space group: P B C M
;
_chemical_formula_sum "Si O2"
_cell_formula_units_Z 56
_cell_length_a 14.624005
_cell_length_b 22.522497
_cell_length_c 8.448356
_cell_angle_alpha 90.000000
_cell_angle_beta 90.000000
_cell_angle_gamma 90.000000
_cell_volume 2782.627486
_symmetry_space_group_name_H-M "P B C M"
_symmetry_group_IT_number 57
_symmetry_cell_setting 'orthorhombic'
loop_
_space_group_symop_operation_xyz
x,y,z
-x,-y,1/2+z
x,1/2-y,-z
-x,1/2+y,1/2-z
-x,-y,-z
x,y,1/2-z
-x,1/2+y,z
x,1/2-y,1/2+z
loop_
_atom_site_type_symbol
_atom_site_label
_atom_site_fract_x
_atom_site_fract_y
_atom_site_fract_z
Si Si1 0.200890 0.583245 0.567924
Si Si2 0.095754 0.478712 0.067081
Si Si3 0.413615 0.426844 0.935373
Si Si4 0.065492 0.812223 0.064991
Si Si5 0.310766 0.186815 0.934699
Si Si6 0.126072 0.353385 0.933435
Si Si7 0.380658 0.551603 0.433838
O O1 0.183673 0.566045 0.750000
O O2 0.168268 0.530850 0.452960
O O3 0.145893 0.642226 0.523473
O O4 0.308257 0.591442 0.531974
O O5 0.084653 0.460810 0.250000
O O6 0.132012 0.422909 0.969672
O O7 0.000000 0.500000 0.000000
O O8 0.402747 0.438919 0.750000
O O9 0.520014 0.424483 0.985012
O O10 0.365554 0.365522 0.979349
O O11 0.367318 0.481914 0.026064
O O12 0.044297 0.809828 0.250000
O O13 0.101721 0.750000 0.000000
O O14 0.973230 0.829120 0.975445
O O15 0.330762 0.183050 0.750000
O O16 0.346029 0.250000 0.000000
O O17 0.202621 0.181092 0.966884
O O18 0.146449 0.342227 0.750000
O O19 0.362825 0.561417 0.250000
#
# Coordination Sequence:
#
# PCOD8234169 Si02
#       7
#     8   8   8   8   8   8   8
#     4  11  23  39  60  87 121 158 198 245 295 354
#     4  12  23  37  58  87 121 157 198 246 300 352
#     4  10  21  40  64  92 124 157 197 245 301 363
#     4  11  24  41  60  82 114 155 202 247 292 347
#     4  12  25  42  63  89 123 161 205 253 303 365
#     4  12  24  40  62  87 120 160 201 246 298 358
#     4  10  21  38  64  94 123 156 196 246 302 361
#
# _framework density 20.124863999999999
#
# number of rings (size 3 to 8) (size 9 to 14) (size 15 to 20)
#    0.000    0.857    1.429    6.857    0.000    3.429 
#    0.000    0.714    0.000    1.714    0.000    0.000 
#    0.000    0.000    0.000    0.000    0.000    0.000 
#
# Total GULP energy -694780.689466 kJ/mol
# GULP energy per Si atom -12406.798026 kJ/mol
# Density = 2.007906 g / cm^3
# Si number density = 20.124864 Si / 1000 Ang^3
#
#
#
# Elastic Constant Matrix: (Units=GPa)
#
#
# Indices 1 2 3 4 5 6 
#
# 1 107.3575 42.7178 15.8586 0.0000 0.0000 0.0000
# 2 42.7178 111.8038 9.3034 0.0000 0.0000 0.0000
# 3 15.8586 9.3034 59.5036 0.0000 0.0000 0.0000
# 4 0.0000 0.0000 0.0000 32.5383 0.0000 0.0000
# 5 0.0000 0.0000 0.0000 0.0000 34.1565 0.0000
# 6 0.0000 0.0000 0.0000 0.0000 0.0000 17.3407
#
#
#
# Elastic Compliance Matrix: (Units=1/GPa)
#
#
# Indices 1 2 3 4 5 6 
#
# 1 0.011305 -0.004122 -0.002368 0.000000 0.000000 0.000000
# 2 -0.004122 0.010565 -0.000553 0.000000 0.000000 0.000000
# 3 -0.002368 -0.000553 0.017523 0.000000 0.000000 0.000000
# 4 0.000000 0.000000 0.000000 0.030733 0.000000 0.000000
# 5 0.000000 0.000000 0.000000 0.000000 0.029277 0.000000
# 6 0.000000 0.000000 0.000000 0.000000 0.000000 0.057668
#
#
# Mechanical properties :
#
#
# Convention : Reuss Voigt Hill
#
# Bulk Modulus (GPa) = 39.51669 46.04717 42.78193
# Shear Modulus (GPa) = 27.84055 30.85944 29.35000
#
# Velocity S-wave (km/s) = 3.72343 3.92011 3.82304
# Velocity P-wave (km/s) = 6.17767 6.58939 6.38685
#
# Compressibility (1/GPa) = 0.02530576
#
# Stress axis : x y z
#
# Youngs Moduli (GPa) = 88.45824 94.64956 57.06650
#
# Poissons Ratio (x) = 0.39017 0.13515
# Poissons Ratio (y) = 0.36465 0.03157
# Poissons Ratio (z) = 0.20950 0.05237
#
# Static dielectric constant tensor:
#      x y z
#    x 3.778010 0.000000 0.000000 
#    y 0.000000 3.722420 0.000000 
#    z 0.000000 0.000000 3.712480 
# 
# 
# High freq. dielectric constant tensor:
#      x y z
#    x 1.788810 0.000000 0.000000 
#    y 0.000000 1.781710 0.000000 
#    z 0.000000 0.000000 1.800240 
# 
# From -- ./inp_files/5278.got.cif
#   From: 2010.03.12/outbox.cif.g09.slc.cpg/sg57_3_cif.got.tgz:5278.got - 2010.04.16 15:48:40.
