data_PCOD8234028
_publ_section_title
;
Structure prediction by ZEFSAII (Michael W. Deem and Ramdas Pophale) SiO2 
 PCOD8234028
Probable space group: P B C M
;
_chemical_formula_sum "Si O2"
_cell_formula_units_Z 48
_cell_length_a 12.526633
_cell_length_b 22.200657
_cell_length_c 8.889574
_cell_angle_alpha 90.000000
_cell_angle_beta 90.000000
_cell_angle_gamma 90.000000
_cell_volume 2472.185930
_symmetry_space_group_name_H-M "P B C M"
_symmetry_group_IT_number 57
_symmetry_cell_setting 'orthorhombic'
loop_
_space_group_symop_operation_xyz
x,y,z
-x,-y,1/2+z
x,1/2-y,-z
-x,1/2+y,1/2-z
-x,-y,-z
x,y,1/2-z
-x,1/2+y,z
x,1/2-y,1/2+z
loop_
_atom_site_type_symbol
_atom_site_label
_atom_site_fract_x
_atom_site_fract_y
_atom_site_fract_z
Si Si1 0.255526 0.359103 0.426716
Si Si2 0.537690 0.688453 0.072321
Si Si3 0.384219 0.595676 0.580196
Si Si4 0.023488 0.186723 0.927522
Si Si5 0.268047 0.002259 0.926525
Si Si6 0.851011 0.406768 0.080084
O O1 0.276863 0.350561 0.250000
O O2 0.341240 0.321420 0.519738
O O3 0.141041 0.333864 0.475301
O O4 0.262023 0.428619 0.474462
O O5 0.532961 0.694198 0.250000
O O6 0.493552 0.750000 0.000000
O O7 0.465100 0.633393 0.019586
O O8 0.429821 0.590434 0.750000
O O9 0.370578 0.528510 0.508713
O O10 0.265817 0.626081 0.579687
O O11 0.011608 0.192691 0.750000
O O12 0.939161 0.137621 0.989910
O O13 0.994404 0.250000 0.000000
O O14 0.280667 0.994418 0.750000
O O15 0.159311 0.968120 0.981254
O O16 0.883292 0.425035 0.250000
#
# Coordination Sequence:
#
# PCOD8234028 Si02
#       6
#     8   8   8   8   8   8
#     4  10  22  39  59  83 117 153 190 235 280 334
#     4  12  25  40  60  84 114 150 191 234 281 338
#     4   9  19  38  60  85 116 148 186 233 284 337
#     4  10  21  38  57  82 114 151 191 234 281 333
#     4   9  18  35  58  87 115 147 188 233 285 335
#     4   8  18  36  57  83 115 148 185 233 285 336
#
# _framework density 19.416015000000002
#
# number of rings (size 3 to 8) (size 9 to 14) (size 15 to 20)
#    1.000    1.333    0.000    2.500    0.000    6.000 
#    0.000    1.667    0.000    0.000    0.000    0.000 
#    0.000    0.000    0.000    0.000    0.000    0.000 
#
# Total GULP energy -594987.498889 kJ/mol
# GULP energy per Si atom -12395.572894 kJ/mol
# Density = 1.937182 g / cm^3
# Si number density = 19.416015 Si / 1000 Ang^3
#
#
#
# Elastic Constant Matrix: (Units=GPa)
#
#
# Indices 1 2 3 4 5 6 
#
# 1 47.0911 -1.9231 16.3638 0.0000 0.0000 0.0000
# 2 -1.9231 78.4496 29.1158 0.0000 0.0000 0.0000
# 3 16.3638 29.1158 85.8871 0.0000 0.0000 0.0000
# 4 0.0000 0.0000 0.0000 31.3699 0.0000 0.0000
# 5 0.0000 0.0000 0.0000 0.0000 25.2809 0.0000
# 6 0.0000 0.0000 0.0000 0.0000 0.0000 13.7122
#
#
#
# Elastic Compliance Matrix: (Units=1/GPa)
#
#
# Indices 1 2 3 4 5 6 
#
# 1 0.023170 0.002524 -0.005270 0.000000 0.000000 0.000000
# 2 0.002524 0.014857 -0.005517 0.000000 0.000000 0.000000
# 3 -0.005270 -0.005517 0.014518 0.000000 0.000000 0.000000
# 4 0.000000 0.000000 0.000000 0.031878 0.000000 0.000000
# 5 0.000000 0.000000 0.000000 0.000000 0.039556 0.000000
# 6 0.000000 0.000000 0.000000 0.000000 0.000000 0.072928
#
#
# Mechanical properties :
#
#
# Convention : Reuss Voigt Hill
#
# Bulk Modulus (GPa) = 27.76451 33.17119 30.46785
# Shear Modulus (GPa) = 22.17907 25.26401 23.72154
#
# Velocity S-wave (km/s) = 3.38347 3.61112 3.49915
# Velocity P-wave (km/s) = 5.44010 5.87439 5.66141
#
# Compressibility (1/GPa) = 0.03601721
#
# Stress axis : x y z
#
# Youngs Moduli (GPa) = 43.15953 67.31025 68.88168
#
# Poissons Ratio (x) = -0.16989 0.36301
# Poissons Ratio (y) = -0.10893 0.38004
# Poissons Ratio (z) = 0.22746 0.37137
#
# Static dielectric constant tensor:
#      x y z
#    x 3.502170 0.000000 0.000000 
#    y 0.000000 3.521130 0.000000 
#    z 0.000000 0.000000 3.440590 
# 
# 
# High freq. dielectric constant tensor:
#      x y z
#    x 1.750730 0.000000 0.000000 
#    y 0.000000 1.752220 0.000000 
#    z 0.000000 0.000000 1.754350 
# 
# From -- ./inp_files/3156.got.cif
#   From: 2010.03.12/outbox.cif.g09.slc.cpg/sg57_2_cif.got.tgz:3156.got - 2010.04.16 15:48:40.
