data_PCOD8234436
_publ_section_title
;
Structure prediction by ZEFSAII (Michael W. Deem and Ramdas Pophale) SiO2 
 PCOD8234436
Probable space group: P B C M
;
_chemical_formula_sum "Si O2"
_cell_formula_units_Z 40
_cell_length_a 5.564024
_cell_length_b 9.883085
_cell_length_c 27.387147
_cell_angle_alpha 90.000000
_cell_angle_beta 90.000000
_cell_angle_gamma 90.000000
_cell_volume 1506.011604
_symmetry_space_group_name_H-M "P B C M"
_symmetry_group_IT_number 57
_symmetry_cell_setting 'orthorhombic'
loop_
_space_group_symop_operation_xyz
x,y,z
-x,-y,1/2+z
x,1/2-y,-z
-x,1/2+y,1/2-z
-x,-y,-z
x,y,1/2-z
-x,1/2+y,z
x,1/2-y,1/2+z
loop_
_atom_site_type_symbol
_atom_site_label
_atom_site_fract_x
_atom_site_fract_y
_atom_site_fract_z
Si Si1 0.252804 0.662558 0.406832
Si Si2 0.768480 0.056738 0.250000
Si Si3 0.123484 0.115438 0.330852
Si Si4 0.614217 0.772566 0.250000
Si Si5 0.247752 0.923816 0.008958
Si Si6 0.434961 0.920774 0.388000
O O1 0.241463 0.694082 0.466002
O O2 0.459837 0.756741 0.378724
O O3 0.327732 0.503193 0.402867
O O4 0.995789 0.678632 0.379993
O O5 0.575561 0.934134 0.250000
O O6 0.642973 0.202256 0.250000
O O7 0.920893 0.040797 0.299063
O O8 0.239402 0.233749 0.298663
O O9 0.313926 0.997779 0.343012
O O10 0.243489 0.898587 0.067335
O O11 0.500000 0.000000 0.000000
O O12 0.000000 0.000000 0.000000
#
# Coordination Sequence:
#
# PCOD8234436 Si02
#       6
#     8   4   8   4   8   8
#     4  11  24  43  68 102 140 185 234 289 349 419
#     4  11  26  46  69  97 131 173 223 287 356 430
#     4  11  24  43  70  98 132 175 230 287 350 424
#     4  11  26  46  69  97 131 173 223 287 356 430
#     4  10  21  44  68 103 145 194 240 290 349 417
#     4  11  24  43  68 102 140 185 234 289 349 419
#
# _framework density 26.560217999999999
#
# number of rings (size 3 to 8) (size 9 to 14) (size 15 to 20)
#    0.000    1.200    2.000    3.000    0.000   11.200 
#    0.000    2.000    0.000    0.000    0.000    0.000 
#    0.000    0.000    0.000    0.000    0.000    0.000 
#
# Total GULP energy -495529.177335 kJ/mol
# GULP energy per Si atom -12388.229433 kJ/mol
# Density = 2.649977 g / cm^3
# Si number density = 26.560218 Si / 1000 Ang^3
#
#
#
# Elastic Constant Matrix: (Units=GPa)
#
#
# Indices 1 2 3 4 5 6 
#
# 1 77.7027 -26.2640 10.2490 0.0000 0.0000 0.0000
# 2 -26.2640 45.1862 -19.2750 0.0000 0.0000 0.0000
# 3 10.2490 -19.2750 141.9000 0.0000 0.0000 0.0000
# 4 0.0000 0.0000 0.0000 20.7615 0.0000 0.0000
# 5 0.0000 0.0000 0.0000 0.0000 48.3794 0.0000
# 6 0.0000 0.0000 0.0000 0.0000 0.0000 28.7420
#
#
#
# Elastic Compliance Matrix: (Units=1/GPa)
#
#
# Indices 1 2 3 4 5 6 
#
# 1 0.016018 0.009359 0.000114 0.000000 0.000000 0.000000
# 2 0.009359 0.028960 0.003258 0.000000 0.000000 0.000000
# 3 0.000114 0.003258 0.007481 0.000000 0.000000 0.000000
# 4 0.000000 0.000000 0.000000 0.048166 0.000000 0.000000
# 5 0.000000 0.000000 0.000000 0.000000 0.020670 0.000000
# 6 0.000000 0.000000 0.000000 0.000000 0.000000 0.034792
#
#
# Mechanical properties :
#
#
# Convention : Reuss Voigt Hill
#
# Bulk Modulus (GPa) = 12.83335 21.57876 17.20606
# Shear Modulus (GPa) = 31.92860 39.58186 35.75523
#
# Velocity S-wave (km/s) = 3.47092 3.86459 3.67303
# Velocity P-wave (km/s) = 4.57224 5.29674 4.94777
#
# Compressibility (1/GPa) = 0.07792197
#
# Stress axis : x y z
#
# Youngs Moduli (GPa) = 62.43022 34.53018 133.66333
#
# Poissons Ratio (x) = -0.32317 -0.01529
# Poissons Ratio (y) = -0.58429 -0.43545
# Poissons Ratio (z) = -0.00714 -0.11249
#
# Static dielectric constant tensor:
#      x y z
#    x 4.454850 0.000000 0.000000 
#    y 0.000000 4.277860 0.000000 
#    z 0.000000 0.000000 5.502660 
# 
# 
# High freq. dielectric constant tensor:
#      x y z
#    x 2.041880 0.000000 0.000000 
#    y 0.000000 2.072550 0.000000 
#    z 0.000000 0.000000 2.106460 
# 
# From -- ./inp_files/13572.got.cif
#   From: 2010.03.12/outbox.cif.g09.slc.cpg/sg57_7_cif.got.tgz:13572.got - 2010.04.16 15:48:40.
