data_PCOD8234828
_publ_section_title
;
Structure prediction by ZEFSAII (Michael W. Deem and Ramdas Pophale) SiO2 
 PCOD8234828
Probable space group: P B C M
;
_chemical_formula_sum "Si O2"
_cell_formula_units_Z 64
_cell_length_a 14.396475
_cell_length_b 8.797248
_cell_length_c 24.160642
_cell_angle_alpha 90.000000
_cell_angle_beta 90.000000
_cell_angle_gamma 90.000000
_cell_volume 3059.929868
_symmetry_space_group_name_H-M "P B C M"
_symmetry_group_IT_number 57
_symmetry_cell_setting 'orthorhombic'
loop_
_space_group_symop_operation_xyz
x,y,z
-x,-y,1/2+z
x,1/2-y,-z
-x,1/2+y,1/2-z
-x,-y,-z
x,y,1/2-z
-x,1/2+y,z
x,1/2-y,1/2+z
loop_
_atom_site_type_symbol
_atom_site_label
_atom_site_fract_x
_atom_site_fract_y
_atom_site_fract_z
Si Si1 0.778279 0.926958 0.006183
Si Si2 0.585021 0.000817 0.645845
Si Si3 0.109012 0.470467 0.899796
Si Si4 0.593354 0.421781 0.018493
Si Si5 0.911225 0.613772 0.895311
Si Si6 0.596906 0.835188 0.184544
Si Si7 0.232606 0.635855 0.813065
Si Si8 0.777708 0.478750 0.684837
O O1 0.827506 0.000364 0.952989
O O2 0.679577 0.006794 0.014723
O O3 0.759249 0.750000 0.000000
O O4 0.843358 0.956685 0.058599
O O5 0.605711 0.056734 0.583968
O O6 0.486319 0.053487 0.668627
O O7 0.663730 0.070478 0.684911
O O8 0.588612 0.818341 0.649128
O O9 0.087167 0.294189 0.893397
O O10 0.162059 0.529492 0.846047
O O11 0.014530 0.561344 0.907960
O O12 0.586691 0.250000 0.000000
O O13 0.500000 0.500000 0.000000
O O14 0.873621 0.549754 0.837287
O O15 0.595807 0.799845 0.250000
O O16 0.690899 0.918890 0.165373
O O17 0.198114 0.634122 0.750000
O O18 0.233412 0.806826 0.837235
O O19 0.783820 0.478892 0.750000
#
# Coordination Sequence:
#
# PCOD8234828 Si02
#       8
#     8   8   8   8   8   8   8   8
#     4  10  24  44  68  96 131 170 218 270 326 392
#     4  12  24  41  66  94 133 173 222 268 328 395
#     4  11  23  44  64 102 127 170 218 272 331 388
#     4  12  27  43  65  98 135 177 217 269 327 389
#     4  11  24  40  71  91 132 169 215 272 326 397
#     4  11  23  40  65  96 132 172 219 270 324 391
#     4  11  23  42  66  94 132 170 217 273 328 394
#     4  10  24  42  64  97 131 171 217 268 329 391
#
# _framework density 20.915512
#
# number of rings (size 3 to 8) (size 9 to 14) (size 15 to 20)
#    0.000    1.000    1.250    4.875    5.250    4.000 
#    0.000    0.000    0.000    0.000    0.000    0.000 
#    0.000    0.000    0.000    0.000    0.000    0.000 
#
# Total GULP energy -794031.200767 kJ/mol
# GULP energy per Si atom -12406.737512 kJ/mol
# Density = 2.086791 g / cm^3
# Si number density = 20.915512 Si / 1000 Ang^3
#
#
#
# Elastic Constant Matrix: (Units=GPa)
#
#
# Indices 1 2 3 4 5 6 
#
# 1 134.4929 62.1132 32.5003 0.0000 0.0000 0.0000
# 2 62.1132 127.9994 46.3861 0.0000 0.0000 0.0000
# 3 32.5003 46.3861 71.8802 0.0000 0.0000 0.0000
# 4 0.0000 0.0000 0.0000 35.8094 0.0000 0.0000
# 5 0.0000 0.0000 0.0000 0.0000 11.8986 0.0000
# 6 0.0000 0.0000 0.0000 0.0000 0.0000 43.9663
#
#
#
# Elastic Compliance Matrix: (Units=1/GPa)
#
#
# Indices 1 2 3 4 5 6 
#
# 1 0.009752 -0.004091 -0.001769 0.000000 0.000000 0.000000
# 2 -0.004091 0.011914 -0.005838 0.000000 0.000000 0.000000
# 3 -0.001769 -0.005838 0.018480 0.000000 0.000000 0.000000
# 4 0.000000 0.000000 0.000000 0.027926 0.000000 0.000000
# 5 0.000000 0.000000 0.000000 0.000000 0.084044 0.000000
# 6 0.000000 0.000000 0.000000 0.000000 0.000000 0.022745
#
#
# Mechanical properties :
#
#
# Convention : Reuss Voigt Hill
#
# Bulk Modulus (GPa) = 59.70905 68.48572 64.09738
# Shear Modulus (GPa) = 24.52906 31.22638 27.87772
#
# Velocity S-wave (km/s) = 3.42829 3.86810 3.65481
# Velocity P-wave (km/s) = 6.65436 7.26393 6.96582
#
# Compressibility (1/GPa) = 0.01674788
#
# Stress axis : x y z
#
# Youngs Moduli (GPa) = 102.53928 83.93740 54.11363
#
# Poissons Ratio (x) = 0.34341 0.09574
# Poissons Ratio (y) = 0.41952 0.31593
# Poissons Ratio (z) = 0.18142 0.49005
#
# Static dielectric constant tensor:
#      x y z
#    x 3.886370 0.000000 0.000000 
#    y 0.000000 3.965710 0.000000 
#    z 0.000000 0.000000 3.860730 
# 
# 
# High freq. dielectric constant tensor:
#      x y z
#    x 1.830660 0.000000 0.000000 
#    y 0.000000 1.833620 0.000000 
#    z 0.000000 0.000000 1.824560 
# 
# From -- ./inp_files/27510.got.cif
#   From: 2010.03.12/outbox.cif.g09.slc.cpg/sg57_14_cif.got.tgz:27510.got - 2010.04.16 15:48:40.
