data_PCOD8234922
_publ_section_title
;
Structure prediction by ZEFSAII (Michael W. Deem and Ramdas Pophale) SiO2 
 PCOD8234922
Probable space group: P B C M
;
_chemical_formula_sum "Si O2"
_cell_formula_units_Z 64
_cell_length_a 22.836947
_cell_length_b 17.309638
_cell_length_c 9.066491
_cell_angle_alpha 90.000000
_cell_angle_beta 90.000000
_cell_angle_gamma 90.000000
_cell_volume 3583.977415
_symmetry_space_group_name_H-M "P B C M"
_symmetry_group_IT_number 57
_symmetry_cell_setting 'orthorhombic'
loop_
_space_group_symop_operation_xyz
x,y,z
-x,-y,1/2+z
x,1/2-y,-z
-x,1/2+y,1/2-z
-x,-y,-z
x,y,1/2-z
-x,1/2+y,z
x,1/2-y,1/2+z
loop_
_atom_site_type_symbol
_atom_site_label
_atom_site_fract_x
_atom_site_fract_y
_atom_site_fract_z
Si Si1 0.048376 0.172215 0.923202
Si Si2 0.919599 0.125103 0.919138
Si Si3 0.118335 0.045736 0.416153
Si Si4 0.438805 0.170162 0.420458
Si Si5 0.239408 0.974105 0.079635
Si Si6 0.804447 0.327108 0.574928
Si Si7 0.460589 0.937365 0.921649
Si Si8 0.632015 0.520890 0.078386
O O1 0.051156 0.182757 0.750000
O O2 0.982787 0.152192 0.975845
O O3 0.069711 0.250000 0.000000
O O4 0.093143 0.105659 0.967911
O O5 0.907286 0.150372 0.750000
O O6 0.917808 0.033038 0.932723
O O7 0.871688 0.163540 0.024385
O O8 0.111899 0.078145 0.250000
O O9 0.186363 0.032097 0.456081
O O10 0.424823 0.250000 0.500000
O O11 0.426351 0.184596 0.250000
O O12 0.506987 0.145107 0.446744
O O13 0.395120 0.102297 0.478321
O O14 0.235519 0.947168 0.250000
O O15 0.298981 0.019933 0.045503
O O16 0.235188 0.898420 0.978522
O O17 0.778467 0.250000 0.500000
O O18 0.801362 0.320569 0.750000
O O19 0.455717 0.956229 0.750000
O O20 0.500000 0.000000 0.000000
O O21 0.396524 0.946390 0.995107
O O22 0.617627 0.510736 0.250000
#
# Coordination Sequence:
#
# PCOD8234922 Si02
#       8
#     8   8   8   8   8   8   8   8
#     4  11  22  34  50  73 101 132 168 210 257 310
#     4   9  19  35  54  76 100 128 163 205 258 316
#     4   9  18  34  54  74  99 131 166 207 256 308
#     4   9  18  31  49  76 106 135 167 205 249 293
#     4   9  19  37  57  75 101 137 173 210 255 305
#     4  11  21  33  52  77 104 132 166 209 256 307
#     4   9  17  30  49  74 102 131 166 204 244 292
#     4   9  18  34  55  77 102 134 171 210 254 301
#
# _framework density 17.857254999999999
#
# number of rings (size 3 to 8) (size 9 to 14) (size 15 to 20)
#    0.000    2.500    0.000    4.125    0.000    7.000 
#    0.000    1.250    0.000    3.000    0.000    0.000 
#    0.000    0.000    0.000    0.000    0.000    0.000 
#
# Total GULP energy -793472.525042 kJ/mol
# GULP energy per Si atom -12398.008204 kJ/mol
# Density = 1.781661 g / cm^3
# Si number density = 17.857255 Si / 1000 Ang^3
#
#
#
# Elastic Constant Matrix: (Units=GPa)
#
#
# Indices 1 2 3 4 5 6 
#
# 1 89.6518 45.8421 39.2621 0.0000 0.0000 0.0000
# 2 45.8421 94.9591 48.0172 0.0000 0.0000 0.0000
# 3 39.2621 48.0172 86.3579 0.0000 0.0000 0.0000
# 4 0.0000 0.0000 0.0000 31.9912 0.0000 0.0000
# 5 0.0000 0.0000 0.0000 0.0000 25.9345 0.0000
# 6 0.0000 0.0000 0.0000 0.0000 0.0000 16.9857
#
#
#
# Elastic Compliance Matrix: (Units=1/GPa)
#
#
# Indices 1 2 3 4 5 6 
#
# 1 0.015784 -0.005552 -0.004089 0.000000 0.000000 0.000000
# 2 -0.005552 0.016603 -0.006707 0.000000 0.000000 0.000000
# 3 -0.004089 -0.006707 0.017168 0.000000 0.000000 0.000000
# 4 0.000000 0.000000 0.000000 0.031259 0.000000 0.000000
# 5 0.000000 0.000000 0.000000 0.000000 0.038559 0.000000
# 6 0.000000 0.000000 0.000000 0.000000 0.000000 0.058873
#
#
# Mechanical properties :
#
#
# Convention : Reuss Voigt Hill
#
# Bulk Modulus (GPa) = 59.31874 59.69020 59.50447
# Shear Modulus (GPa) = 23.08812 24.17211 23.63012
#
# Velocity S-wave (km/s) = 3.59963 3.68316 3.64164
# Velocity P-wave (km/s) = 7.11104 7.18237 7.14679
#
# Compressibility (1/GPa) = 0.01685808
#
# Stress axis : x y z
#
# Youngs Moduli (GPa) = 63.35527 60.23060 58.24731
#
# Poissons Ratio (x) = 0.33441 0.23817
# Poissons Ratio (y) = 0.35176 0.39068
# Poissons Ratio (z) = 0.25906 0.40399
#
# Static dielectric constant tensor:
#      x y z
#    x 3.325220 0.000000 0.000000 
#    y 0.000000 3.245930 0.000000 
#    z 0.000000 0.000000 3.352400 
# 
# 
# High freq. dielectric constant tensor:
#      x y z
#    x 1.680990 0.000000 0.000000 
#    y 0.000000 1.679690 0.000000 
#    z 0.000000 0.000000 1.692260 
# 
# From -- ./inp_files/8553.got.cif
#   From: 2010.03.12/outbox.cif.g09.slc.cpg/sg57_5_cif.got.tgz:8553.got - 2010.04.16 15:48:40.
