data_PCOD8234484
_publ_section_title
;
Structure prediction by ZEFSAII (Michael W. Deem and Ramdas Pophale) SiO2 
 PCOD8234484
Probable space group: P B C M
;
_chemical_formula_sum "Si O2"
_cell_formula_units_Z 64
_cell_length_a 23.634182
_cell_length_b 15.456922
_cell_length_c 8.402266
_cell_angle_alpha 90.000000
_cell_angle_beta 90.000000
_cell_angle_gamma 90.000000
_cell_volume 3069.446141
_symmetry_space_group_name_H-M "P B C M"
_symmetry_group_IT_number 57
_symmetry_cell_setting 'orthorhombic'
loop_
_space_group_symop_operation_xyz
x,y,z
-x,-y,1/2+z
x,1/2-y,-z
-x,1/2+y,1/2-z
-x,-y,-z
x,y,1/2-z
-x,1/2+y,z
x,1/2-y,1/2+z
loop_
_atom_site_type_symbol
_atom_site_label
_atom_site_fract_x
_atom_site_fract_y
_atom_site_fract_z
Si Si1 0.371172 0.999864 0.933311
Si Si2 0.566421 0.840500 0.935658
Si Si3 0.941035 0.088794 0.434837
Si Si4 0.249405 0.505372 0.564226
Si Si5 0.443347 0.656040 0.936477
Si Si6 0.180601 0.340254 0.938659
Si Si7 0.936095 0.597353 0.434630
Si Si8 0.822393 0.158915 0.434569
O O1 0.380469 0.022984 0.750000
O O2 0.407191 0.915827 0.974895
O O3 0.389252 0.082743 0.037216
O O4 0.306175 0.978497 0.966327
O O5 0.552383 0.831380 0.750000
O O6 0.592188 0.750000 0.000000
O O7 0.509039 0.862052 0.029516
O O8 0.946692 0.062163 0.250000
O O9 0.890265 0.155896 0.461988
O O10 0.001563 0.128122 0.495924
O O11 0.927299 0.003785 0.534535
O O12 0.263825 0.499807 0.750000
O O13 0.220574 0.417439 0.500057
O O14 0.207018 0.584125 0.534639
O O15 0.431422 0.650069 0.750000
O O16 0.424890 0.750000 0.000000
O O17 0.179520 0.342250 0.750000
O O18 0.116984 0.351848 0.012879
O O19 0.206080 0.250000 0.000000
O O20 0.931773 0.615291 0.250000
O O21 0.800048 0.250000 0.500000
O O22 0.806655 0.148583 0.250000
#
# Coordination Sequence:
#
# PCOD8234484 Si02
#       8
#     8   8   8   8   8   8   8   8
#     4  12  25  42  64  92 124 164 208 256 306 363
#     4  11  22  40  65  97 133 170 208 252 302 357
#     4   9  18  32  55  84 115 148 189 236 293 358
#     4  11  24  44  63  85 116 156 203 256 304 355
#     4  11  22  40  65  97 133 169 206 251 301 359
#     4  10  22  38  60  85 115 152 194 242 297 357
#     4   9  17  33  55  83 115 150 187 236 295 355
#     4  11  23  39  60  87 116 154 197 246 301 363
#
# _framework density 20.850669
#
# number of rings (size 3 to 8) (size 9 to 14) (size 15 to 20)
#    0.000    1.500    1.250    5.250    0.000    3.500 
#    0.000    3.750    0.000    0.000    0.000    0.000 
#    0.000    0.000    0.000    0.000    0.000    0.000 
#
# Total GULP energy -793659.852766 kJ/mol
# GULP energy per Si atom -12400.935199 kJ/mol
# Density = 2.080321 g / cm^3
# Si number density = 20.850669 Si / 1000 Ang^3
#
#
#
# Elastic Constant Matrix: (Units=GPa)
#
#
# Indices 1 2 3 4 5 6 
#
# 1 75.5782 36.1847 15.5242 0.0000 0.0000 0.0000
# 2 36.1847 120.0016 15.1617 0.0000 0.0000 0.0000
# 3 15.5242 15.1617 53.6267 0.0000 0.0000 0.0000
# 4 0.0000 0.0000 0.0000 33.6268 0.0000 0.0000
# 5 0.0000 0.0000 0.0000 0.0000 18.7992 0.0000
# 6 0.0000 0.0000 0.0000 0.0000 0.0000 7.9688
#
#
#
# Elastic Compliance Matrix: (Units=1/GPa)
#
#
# Indices 1 2 3 4 5 6 
#
# 1 0.016039 -0.004407 -0.003397 0.000000 0.000000 0.000000
# 2 -0.004407 0.009853 -0.001510 0.000000 0.000000 0.000000
# 3 -0.003397 -0.001510 0.020058 0.000000 0.000000 0.000000
# 4 0.000000 0.000000 0.000000 0.029738 0.000000 0.000000
# 5 0.000000 0.000000 0.000000 0.000000 0.053194 0.000000
# 6 0.000000 0.000000 0.000000 0.000000 0.000000 0.125489
#
#
# Mechanical properties :
#
#
# Convention : Reuss Voigt Hill
#
# Bulk Modulus (GPa) = 36.60118 42.54974 39.57546
# Shear Modulus (GPa) = 17.72385 24.23471 20.97928
#
# Velocity S-wave (km/s) = 2.91870 3.41295 3.17546
# Velocity P-wave (km/s) = 5.38057 5.99851 5.69792
#
# Compressibility (1/GPa) = 0.02732153
#
# Stress axis : x y z
#
# Youngs Moduli (GPa) = 62.34746 101.49295 49.85615
#
# Poissons Ratio (x) = 0.44730 0.16937
# Poissons Ratio (y) = 0.27478 0.07528
# Poissons Ratio (z) = 0.21180 0.15324
#
# Static dielectric constant tensor:
#      x y z
#    x 3.879550 0.000000 0.000000 
#    y 0.000000 3.900950 0.000000 
#    z 0.000000 0.000000 3.691020 
# 
# 
# High freq. dielectric constant tensor:
#      x y z
#    x 1.817250 0.000000 0.000000 
#    y 0.000000 1.814850 0.000000 
#    z 0.000000 0.000000 1.815170 
# 
# From -- ./inp_files/9371.got.cif
#   From: 2010.03.12/outbox.cif.g09.slc.cpg/sg57_5_cif.got.tgz:9371.got - 2010.04.16 15:48:40.
