data_PCOD8234818
_publ_section_title
;
Structure prediction by ZEFSAII (Michael W. Deem and Ramdas Pophale) SiO2 
 PCOD8234818
Probable space group: P B C M
;
_chemical_formula_sum "Si O2"
_cell_formula_units_Z 36
_cell_length_a 20.517978
_cell_length_b 8.965158
_cell_length_c 9.044572
_cell_angle_alpha 90.000000
_cell_angle_beta 90.000000
_cell_angle_gamma 90.000000
_cell_volume 1663.721113
_symmetry_space_group_name_H-M "P B C M"
_symmetry_group_IT_number 57
_symmetry_cell_setting 'orthorhombic'
loop_
_space_group_symop_operation_xyz
x,y,z
-x,-y,1/2+z
x,1/2-y,-z
-x,1/2+y,1/2-z
-x,-y,-z
x,y,1/2-z
-x,1/2+y,z
x,1/2-y,1/2+z
loop_
_atom_site_type_symbol
_atom_site_label
_atom_site_fract_x
_atom_site_fract_y
_atom_site_fract_z
Si Si1 0.213382 0.903758 0.424761
Si Si2 0.682675 0.599240 0.579620
Si Si3 0.911054 0.028111 0.406976
Si Si4 0.016385 0.250000 0.500000
Si Si5 0.554820 0.405751 0.920023
O O1 0.236024 0.750000 0.500000
O O2 0.224206 0.894268 0.250000
O O3 0.137272 0.935746 0.457984
O O4 0.254786 0.037502 0.493412
O O5 0.660207 0.750000 0.500000
O O6 0.701002 0.630126 0.750000
O O7 0.623851 0.484926 0.566553
O O8 0.873643 0.049520 0.250000
O O9 0.971431 0.142526 0.401512
O O10 0.936897 0.858652 0.406878
O O11 0.534407 0.381804 0.750000
O O12 0.561927 0.250000 0.000000
O O13 0.500000 0.500000 0.000000
#
# Coordination Sequence:
#
# PCOD8234818 Si02
#       5
#     8   8   8   4   8
#     4  12  26  44  67  94 128 172 221 272 333 395
#     4  11  25  45  69  99 135 176 223 274 329 388
#     4  11  23  42  66  94 128 167 216 267 327 397
#     4  10  24  40  66  96 128 166 212 266 332 390
#     4  11  24  42  69 103 141 183 226 275 328 387
#
# _framework density 21.638241000000001
#
# number of rings (size 3 to 8) (size 9 to 14) (size 15 to 20)
#    0.000    0.889    1.111    5.333    1.556   11.556 
#    0.000    0.000    0.000    0.000    0.000    0.000 
#    0.000    0.000    0.000    0.000    0.000    0.000 
#
# Total GULP energy -446476.362700 kJ/mol
# GULP energy per Si atom -12402.121186 kJ/mol
# Density = 2.158899 g / cm^3
# Si number density = 21.638241 Si / 1000 Ang^3
#
#
#
# Elastic Constant Matrix: (Units=GPa)
#
#
# Indices 1 2 3 4 5 6 
#
# 1 68.1808 22.9899 45.6862 0.0000 0.0000 0.0000
# 2 22.9899 148.2246 68.6614 0.0000 0.0000 0.0000
# 3 45.6862 68.6614 199.4163 0.0000 0.0000 0.0000
# 4 0.0000 0.0000 0.0000 31.7341 0.0000 0.0000
# 5 0.0000 0.0000 0.0000 0.0000 -25.5920 0.0000
# 6 0.0000 0.0000 0.0000 0.0000 0.0000 35.0106
#
#
#
# Elastic Compliance Matrix: (Units=1/GPa)
#
#
# Indices 1 2 3 4 5 6 
#
# 1 0.017455 -0.001017 -0.003649 0.000000 0.000000 0.000000
# 2 -0.001017 0.008086 -0.002551 0.000000 0.000000 0.000000
# 3 -0.003649 -0.002551 0.006729 0.000000 0.000000 0.000000
# 4 0.000000 0.000000 0.000000 0.031512 0.000000 0.000000
# 5 0.000000 0.000000 0.000000 0.000000 -0.039075 0.000000
# 6 0.000000 0.000000 0.000000 0.000000 0.000000 0.028563
#
#
# Mechanical properties :
#
#
# Convention : Reuss Voigt Hill
#
# Bulk Modulus (GPa) = 56.06664 76.72185 66.39424
# Shear Modulus (GPa) = 67.88997 26.79615 47.34306
#
# Velocity S-wave (km/s) = 5.60742 3.52287 4.68261
# Velocity P-wave (km/s) = 8.23962 7.21672 7.74507
#
# Compressibility (1/GPa) = 0.01783592
#
# Stress axis : x y z
#
# Youngs Moduli (GPa) = 57.29106 123.67054 148.61245
#
# Poissons Ratio (x) = 0.12579 0.54224
# Poissons Ratio (y) = 0.05827 0.37912
# Poissons Ratio (z) = 0.20904 0.31549
#
# Static dielectric constant tensor:
#      x y z
#    x 3.820290 0.000000 0.000000 
#    y 0.000000 4.061710 0.000000 
#    z 0.000000 0.000000 3.984090 
# 
# 
# High freq. dielectric constant tensor:
#      x y z
#    x 1.847650 0.000000 0.000000 
#    y 0.000000 1.868130 0.000000 
#    z 0.000000 0.000000 1.860530 
# 
# From -- ./inp_files/7623.got.cif
#   From: 2010.03.12/outbox.cif.g09.slc.cpg/sg57_4_cif.got.tgz:7623.got - 2010.04.16 15:48:40.
