data_PCOD8234847
_publ_section_title
;
Structure prediction by ZEFSAII (Michael W. Deem and Ramdas Pophale) SiO2 
 PCOD8234847
Probable space group: P B C M
;
_chemical_formula_sum "Si O2"
_cell_formula_units_Z 32
_cell_length_a 5.481836
_cell_length_b 13.698253
_cell_length_c 17.081744
_cell_angle_alpha 90.000000
_cell_angle_beta 90.000000
_cell_angle_gamma 90.000000
_cell_volume 1282.695085
_symmetry_space_group_name_H-M "P B C M"
_symmetry_group_IT_number 57
_symmetry_cell_setting 'orthorhombic'
loop_
_space_group_symop_operation_xyz
x,y,z
-x,-y,1/2+z
x,1/2-y,-z
-x,1/2+y,1/2-z
-x,-y,-z
x,y,1/2-z
-x,1/2+y,z
x,1/2-y,1/2+z
loop_
_atom_site_type_symbol
_atom_site_label
_atom_site_fract_x
_atom_site_fract_y
_atom_site_fract_z
Si Si1 0.382780 0.885160 0.663726
Si Si2 0.250752 0.982167 0.405783
Si Si3 0.608892 0.772635 0.250000
Si Si4 0.102479 0.896174 0.250000
Si Si5 0.948381 0.147944 0.027822
O O1 0.277569 0.913072 0.750000
O O2 0.481900 0.984766 0.623325
O O3 0.590968 0.800339 0.674344
O O4 0.175593 0.837115 0.611603
O O5 0.160003 0.069456 0.461747
O O6 0.085911 0.962951 0.328190
O O7 0.248671 0.887090 0.461445
O O8 0.364953 0.840840 0.250000
O O9 0.866984 0.826108 0.250000
O O10 0.062598 0.250000 0.000000
#
# Coordination Sequence:
#
# PCOD8234847 Si02
#       5
#     8   8   4   4   8
#     4  10  24  44  72 107 145 199 251 313 371 462
#     4  11  26  44  76 107 153 194 258 316 382 451
#     4  10  27  41  82 109 151 199 256 308 374 454
#     4  12  25  49  76 119 147 203 256 310 380 460
#     4  11  26  47  70 106 153 198 255 318 390 450
#
# _framework density 24.947472999999999
#
# number of rings (size 3 to 8) (size 9 to 14) (size 15 to 20)
#    0.750    0.500    1.250    2.250   12.250    1.000 
#    4.500    0.000    0.000    0.000    0.000    0.000 
#    0.000    0.000    0.000    0.000    0.000    0.000 
#
# Total GULP energy -396493.357798 kJ/mol
# GULP energy per Si atom -12390.417431 kJ/mol
# Density = 2.489069 g / cm^3
# Si number density = 24.947473 Si / 1000 Ang^3
#
#
#
# Elastic Constant Matrix: (Units=GPa)
#
#
# Indices 1 2 3 4 5 6 
#
# 1 57.1301 -1.8223 7.3972 0.0000 0.0000 0.0000
# 2 -1.8223 91.4518 23.7064 0.0000 0.0000 0.0000
# 3 7.3972 23.7064 136.0900 0.0000 0.0000 0.0000
# 4 0.0000 0.0000 0.0000 39.4121 0.0000 0.0000
# 5 0.0000 0.0000 0.0000 0.0000 27.2908 0.0000
# 6 0.0000 0.0000 0.0000 0.0000 0.0000 8.5535
#
#
#
# Elastic Compliance Matrix: (Units=1/GPa)
#
#
# Indices 1 2 3 4 5 6 
#
# 1 0.017662 0.000629 -0.001070 0.000000 0.000000 0.000000
# 2 0.000629 0.011474 -0.002033 0.000000 0.000000 0.000000
# 3 -0.001070 -0.002033 0.007760 0.000000 0.000000 0.000000
# 4 0.000000 0.000000 0.000000 0.025373 0.000000 0.000000
# 5 0.000000 0.000000 0.000000 0.000000 0.036642 0.000000
# 6 0.000000 0.000000 0.000000 0.000000 0.000000 0.116912
#
#
# Mechanical properties :
#
#
# Convention : Reuss Voigt Hill
#
# Bulk Modulus (GPa) = 31.29862 38.13717 34.71790
# Shear Modulus (GPa) = 21.60565 32.07731 26.84148
#
# Velocity S-wave (km/s) = 2.94606 3.58969 3.28368
# Velocity P-wave (km/s) = 4.91380 5.70099 5.32197
#
# Compressibility (1/GPa) = 0.03195029
#
# Stress axis : x y z
#
# Youngs Moduli (GPa) = 56.61715 87.15163 128.85999
#
# Poissons Ratio (x) = -0.05484 0.13784
# Poissons Ratio (y) = -0.03563 0.26197
# Poissons Ratio (z) = 0.06056 0.17718
#
# Static dielectric constant tensor:
#      x y z
#    x 3.854180 0.000000 0.000000 
#    y 0.000000 4.654220 0.000000 
#    z 0.000000 0.000000 4.857890 
# 
# 
# High freq. dielectric constant tensor:
#      x y z
#    x 1.955170 0.000000 0.000000 
#    y 0.000000 1.998290 0.000000 
#    z 0.000000 0.000000 2.012860 
# 
# From -- ./inp_files/19917.got.cif
#   From: 2010.03.12/outbox.cif.g09.slc.cpg/sg57_10_cif.got.tgz:19917.got - 2010.04.16 15:48:40.
