data_PCOD8234843
_publ_section_title
;
Structure prediction by ZEFSAII (Michael W. Deem and Ramdas Pophale) SiO2 
 PCOD8234843
Probable space group: P B C M
;
_chemical_formula_sum "Si O2"
_cell_formula_units_Z 40
_cell_length_a 12.590556
_cell_length_b 8.909434
_cell_length_c 15.139192
_cell_angle_alpha 90.000000
_cell_angle_beta 90.000000
_cell_angle_gamma 90.000000
_cell_volume 1698.234740
_symmetry_space_group_name_H-M "P B C M"
_symmetry_group_IT_number 57
_symmetry_cell_setting 'orthorhombic'
loop_
_space_group_symop_operation_xyz
x,y,z
-x,-y,1/2+z
x,1/2-y,-z
-x,1/2+y,1/2-z
-x,-y,-z
x,y,1/2-z
-x,1/2+y,z
x,1/2-y,1/2+z
loop_
_atom_site_type_symbol
_atom_site_label
_atom_site_fract_x
_atom_site_fract_y
_atom_site_fract_z
Si Si1 0.200203 0.274754 0.649365
Si Si2 0.607880 0.171512 0.147818
Si Si3 0.007778 0.863123 0.065241
Si Si4 0.217117 0.602558 0.850140
Si Si5 0.410371 0.153697 0.589569
O O1 0.161676 0.296114 0.750000
O O2 0.232901 0.436853 0.606525
O O3 0.303268 0.172009 0.645838
O O4 0.106643 0.193509 0.596492
O O5 0.623691 0.119663 0.250000
O O6 0.710881 0.263128 0.109122
O O7 0.510252 0.287143 0.144460
O O8 0.582339 0.029177 0.083121
O O9 0.089580 0.873812 0.146460
O O10 0.065765 0.750000 0.000000
O O11 0.000000 0.000000 0.000000
O O12 0.255656 0.594403 0.750000
O O13 0.401582 0.250000 0.500000
#
# Coordination Sequence:
#
# PCOD8234843 Si02
#       5
#     8   8   8   8   8
#     4  11  24  45  69  96 139 186 233 288 348 423
#     4  11  24  45  71 102 139 187 237 288 352 426
#     4  12  25  43  67  99 139 181 226 290 351 410
#     4  10  24  44  69  99 137 184 235 284 346 418
#     4  12  26  43  70 103 141 181 236 292 356 413
#
# _framework density 23.553871000000001
#
# number of rings (size 3 to 8) (size 9 to 14) (size 15 to 20)
#    0.000    0.800    2.000    4.800    2.800    2.400 
#    0.000    0.000    0.000    0.000    0.000    0.000 
#    0.000    0.000    0.000    0.000    0.000    0.000 
#
# Total GULP energy -495525.304539 kJ/mol
# GULP energy per Si atom -12388.132613 kJ/mol
# Density = 2.350026 g / cm^3
# Si number density = 23.553871 Si / 1000 Ang^3
#
#
#
# Elastic Constant Matrix: (Units=GPa)
#
#
# Indices 1 2 3 4 5 6 
#
# 1 156.7616 69.4746 20.8962 0.0000 0.0000 0.0000
# 2 69.4746 189.5135 34.6175 0.0000 0.0000 0.0000
# 3 20.8962 34.6175 71.2410 0.0000 0.0000 0.0000
# 4 0.0000 0.0000 0.0000 38.3810 0.0000 0.0000
# 5 0.0000 0.0000 0.0000 0.0000 29.8690 0.0000
# 6 0.0000 0.0000 0.0000 0.0000 0.0000 48.9504
#
#
#
# Elastic Compliance Matrix: (Units=1/GPa)
#
#
# Indices 1 2 3 4 5 6 
#
# 1 0.007677 -0.002637 -0.000970 0.000000 0.000000 0.000000
# 2 -0.002637 0.006697 -0.002480 0.000000 0.000000 0.000000
# 3 -0.000970 -0.002480 0.015527 0.000000 0.000000 0.000000
# 4 0.000000 0.000000 0.000000 0.026055 0.000000 0.000000
# 5 0.000000 0.000000 0.000000 0.000000 0.033480 0.000000
# 6 0.000000 0.000000 0.000000 0.000000 0.000000 0.020429
#
#
# Mechanical properties :
#
#
# Convention : Reuss Voigt Hill
#
# Bulk Modulus (GPa) = 56.41910 74.16585 65.29247
# Shear Modulus (GPa) = 39.07845 42.94192 41.01019
#
# Velocity S-wave (km/s) = 4.07764 4.27445 4.17720
# Velocity P-wave (km/s) = 6.79520 7.47779 7.14465
#
# Compressibility (1/GPa) = 0.01772449
#
# Stress axis : x y z
#
# Youngs Moduli (GPa) = 130.25545 149.33100 64.40474
#
# Poissons Ratio (x) = 0.39381 0.06250
# Poissons Ratio (y) = 0.34351 0.15975
# Poissons Ratio (z) = 0.12640 0.37041
#
# Static dielectric constant tensor:
#      x y z
#    x 4.260970 0.000000 0.000000 
#    y 0.000000 4.531810 0.000000 
#    z 0.000000 0.000000 3.991110 
# 
# 
# High freq. dielectric constant tensor:
#      x y z
#    x 1.939410 0.000000 0.000000 
#    y 0.000000 1.951470 0.000000 
#    z 0.000000 0.000000 1.919480 
# 
# From -- ./inp_files/21568.got.cif
#   From: 2010.03.12/outbox.cif.g09.slc.cpg/sg57_11_cif.got.tgz:21568.got - 2010.04.16 15:48:40.
