data_PCOD8234282
_publ_section_title
;
Structure prediction by ZEFSAII (Michael W. Deem and Ramdas Pophale) SiO2 
 PCOD8234282
Probable space group: P B C M
;
_chemical_formula_sum "Si O2"
_cell_formula_units_Z 48
_cell_length_a 17.246862
_cell_length_b 7.814337
_cell_length_c 16.402264
_cell_angle_alpha 90.000000
_cell_angle_beta 90.000000
_cell_angle_gamma 90.000000
_cell_volume 2210.578912
_symmetry_space_group_name_H-M "P B C M"
_symmetry_group_IT_number 57
_symmetry_cell_setting 'orthorhombic'
loop_
_space_group_symop_operation_xyz
x,y,z
-x,-y,1/2+z
x,1/2-y,-z
-x,1/2+y,1/2-z
-x,-y,-z
x,y,1/2-z
-x,1/2+y,z
x,1/2-y,1/2+z
loop_
_atom_site_type_symbol
_atom_site_label
_atom_site_fract_x
_atom_site_fract_y
_atom_site_fract_z
Si Si1 0.090060 0.812647 0.845932
Si Si2 0.747382 0.344259 0.155733
Si Si3 0.390143 0.622805 0.099959
Si Si4 0.044958 0.380236 0.439120
Si Si5 0.536266 0.779192 0.343697
Si Si6 0.345560 0.415678 0.948557
O O1 0.080380 0.831220 0.750000
O O2 0.166034 0.706481 0.869726
O O3 0.014526 0.720608 0.880929
O O4 0.100759 0.004141 0.883160
O O5 0.742838 0.395835 0.250000
O O6 0.690667 0.184538 0.138360
O O7 0.726682 0.510706 0.102156
O O8 0.422965 0.462078 0.150283
O O9 0.452951 0.775839 0.110133
O O10 0.377307 0.568750 0.006096
O O11 0.091223 0.250000 0.500000
O O12 0.000000 0.500000 0.500000
O O13 0.525096 0.727846 0.250000
O O14 0.587305 0.632919 0.385905
O O15 0.318378 0.250000 0.000000
#
# Coordination Sequence:
#
# PCOD8234282 Si02
#       6
#     8   8   8   8   8   8
#     4  10  21  39  65  93 126 163 204 249 299 358
#     4  11  23  41  63  89 121 159 198 245 302 361
#     4  11  23  38  58  86 119 158 203 253 306 359
#     4   9  19  37  62  92 124 158 198 244 295 357
#     4  11  21  37  59  84 117 160 209 258 303 358
#     4  10  23  40  60  86 118 156 202 255 305 359
#
# _framework density 21.713768999999999
#
# number of rings (size 3 to 8) (size 9 to 14) (size 15 to 20)
#    0.000    1.667    0.000    4.500    0.000    6.667 
#    0.000   11.667    0.000   18.000    0.000    0.000 
#    0.000    0.000    0.000    0.000    0.000    0.000 
#
# Total GULP energy -595144.161665 kJ/mol
# GULP energy per Si atom -12398.836701 kJ/mol
# Density = 2.166435 g / cm^3
# Si number density = 21.713769 Si / 1000 Ang^3
#
#
#
# Elastic Constant Matrix: (Units=GPa)
#
#
# Indices 1 2 3 4 5 6 
#
# 1 72.7229 16.8415 50.4601 0.0000 0.0000 0.0000
# 2 16.8415 79.5316 41.2281 0.0000 0.0000 0.0000
# 3 50.4601 41.2281 125.2342 0.0000 0.0000 0.0000
# 4 0.0000 0.0000 0.0000 42.3804 0.0000 0.0000
# 5 0.0000 0.0000 0.0000 0.0000 24.6781 0.0000
# 6 0.0000 0.0000 0.0000 0.0000 0.0000 28.8901
#
#
#
# Elastic Compliance Matrix: (Units=1/GPa)
#
#
# Indices 1 2 3 4 5 6 
#
# 1 0.019087 -0.000066 -0.007669 0.000000 0.000000 0.000000
# 2 -0.000066 0.015161 -0.004964 0.000000 0.000000 0.000000
# 3 -0.007669 -0.004964 0.012709 0.000000 0.000000 0.000000
# 4 0.000000 0.000000 0.000000 0.023596 0.000000 0.000000
# 5 0.000000 0.000000 0.000000 0.000000 0.040522 0.000000
# 6 0.000000 0.000000 0.000000 0.000000 0.000000 0.034614
#
#
# Mechanical properties :
#
#
# Convention : Reuss Voigt Hill
#
# Bulk Modulus (GPa) = 46.38567 54.94981 50.66774
# Shear Modulus (GPa) = 28.04651 30.45366 29.25008
#
# Velocity S-wave (km/s) = 3.59785 3.74907 3.67423
# Velocity P-wave (km/s) = 6.21836 6.64094 6.43312
#
# Compressibility (1/GPa) = 0.02155838
#
# Stress axis : x y z
#
# Youngs Moduli (GPa) = 52.39038 65.95801 78.68206
#
# Poissons Ratio (x) = 0.00438 0.60341
# Poissons Ratio (y) = 0.00348 0.39061
# Poissons Ratio (z) = 0.40178 0.32744
#
# Static dielectric constant tensor:
#      x y z
#    x 3.565490 0.000000 0.000000 
#    y 0.000000 4.427670 0.000000 
#    z 0.000000 0.000000 4.171700 
# 
# 
# High freq. dielectric constant tensor:
#      x y z
#    x 1.824480 0.000000 0.000000 
#    y 0.000000 1.869120 0.000000 
#    z 0.000000 0.000000 1.875320 
# 
# From -- ./inp_files/22418.got.cif
#   From: 2010.03.12/outbox.cif.g09.slc.cpg/sg57_12_cif.got.tgz:22418.got - 2010.04.16 15:48:40.
