data_PCOD8234052
_publ_section_title
;
Structure prediction by ZEFSAII (Michael W. Deem and Ramdas Pophale) SiO2 
 PCOD8234052
Probable space group: P B C M
;
_chemical_formula_sum "Si O2"
_cell_formula_units_Z 48
_cell_length_a 15.231629
_cell_length_b 17.758622
_cell_length_c 8.842597
_cell_angle_alpha 90.000000
_cell_angle_beta 90.000000
_cell_angle_gamma 90.000000
_cell_volume 2391.858308
_symmetry_space_group_name_H-M "P B C M"
_symmetry_group_IT_number 57
_symmetry_cell_setting 'orthorhombic'
loop_
_space_group_symop_operation_xyz
x,y,z
-x,-y,1/2+z
x,1/2-y,-z
-x,1/2+y,1/2-z
-x,-y,-z
x,y,1/2-z
-x,1/2+y,z
x,1/2-y,1/2+z
loop_
_atom_site_type_symbol
_atom_site_label
_atom_site_fract_x
_atom_site_fract_y
_atom_site_fract_z
Si Si1 0.647700 0.411345 0.425698
Si Si2 0.979418 0.420423 0.928830
Si Si3 0.513603 0.668553 0.071334
Si Si4 0.827593 0.330121 0.425726
Si Si5 0.683090 0.920977 0.929327
Si Si6 0.849682 0.830612 0.928330
O O1 0.620396 0.414547 0.250000
O O2 0.566777 0.383740 0.524098
O O3 0.727464 0.353971 0.450756
O O4 0.674140 0.493646 0.488123
O O5 0.972397 0.428780 0.750000
O O6 0.056130 0.362846 0.976316
O O7 0.888176 0.391835 0.995416
O O8 0.000000 0.500000 0.000000
O O9 0.513928 0.677531 0.250000
O O10 0.602504 0.629646 0.011228
O O11 0.503426 0.750000 0.000000
O O12 0.844945 0.250000 0.500000
O O13 0.852174 0.325744 0.250000
O O14 0.684172 0.922107 0.750000
O O15 0.773899 0.886172 0.991187
O O16 0.841651 0.822221 0.750000
O O17 0.835304 0.750000 0.000000
#
# Coordination Sequence:
#
# PCOD8234052 Si02
#       6
#     8   8   8   8   8   8
#     4  10  21  39  61  83 112 150 190 236 288 339
#     4  11  23  39  61  87 117 153 193 238 288 343
#     4  11  22  36  57  84 114 148 187 232 281 337
#     4  11  23  39  60  85 116 154 194 238 289 343
#     4   9  19  37  59  83 113 148 186 230 281 336
#     4  10  21  38  59  84 114 149 187 228 279 336
#
# _framework density 20.068079000000001
#
# number of rings (size 3 to 8) (size 9 to 14) (size 15 to 20)
#    0.000    1.667    0.000    4.500    0.000    8.000 
#    0.000    2.500    0.000    0.000    0.000    0.000 
#    0.000    0.000    0.000    0.000    0.000    0.000 
#
# Total GULP energy -595440.980610 kJ/mol
# GULP energy per Si atom -12405.020429 kJ/mol
# Density = 2.002240 g / cm^3
# Si number density = 20.068079 Si / 1000 Ang^3
#
#
#
# Elastic Constant Matrix: (Units=GPa)
#
#
# Indices 1 2 3 4 5 6 
#
# 1 79.7675 4.4357 33.3419 0.0000 0.0000 0.0000
# 2 4.4357 101.0655 26.1554 0.0000 0.0000 0.0000
# 3 33.3419 26.1554 62.6114 0.0000 0.0000 0.0000
# 4 0.0000 0.0000 0.0000 33.3383 0.0000 0.0000
# 5 0.0000 0.0000 0.0000 0.0000 24.7402 0.0000
# 6 0.0000 0.0000 0.0000 0.0000 0.0000 -35.2333
#
#
#
# Elastic Compliance Matrix: (Units=1/GPa)
#
#
# Indices 1 2 3 4 5 6 
#
# 1 0.016390 0.001726 -0.009449 0.000000 0.000000 0.000000
# 2 0.001726 0.011276 -0.005629 0.000000 0.000000 0.000000
# 3 -0.009449 -0.005629 0.023355 0.000000 0.000000 0.000000
# 4 0.000000 0.000000 0.000000 0.029996 0.000000 0.000000
# 5 0.000000 0.000000 0.000000 0.000000 0.040420 0.000000
# 6 0.000000 0.000000 0.000000 0.000000 0.000000 -0.028382
#
#
# Mechanical properties :
#
#
# Convention : Reuss Voigt Hill
#
# Bulk Modulus (GPa) = 41.12565 41.25673 41.19119
# Shear Modulus (GPa) = 39.10390 16.53647 27.82018
#
# Velocity S-wave (km/s) = 4.41904 2.87369 3.72733
# Velocity P-wave (km/s) = 6.82457 5.62261 6.25254
#
# Compressibility (1/GPa) = 0.02431573
#
# Stress axis : x y z
#
# Youngs Moduli (GPa) = 61.01259 88.68618 42.81729
#
# Poissons Ratio (x) = -0.15308 0.40458
# Poissons Ratio (y) = -0.10531 0.24104
# Poissons Ratio (z) = 0.57651 0.49926
#
# Static dielectric constant tensor:
#      x y z
#    x 5.445720 0.000000 0.000000 
#    y 0.000000 3.804250 0.000000 
#    z 0.000000 0.000000 3.547000 
# 
# 
# High freq. dielectric constant tensor:
#      x y z
#    x 1.799340 0.000000 0.000000 
#    y 0.000000 1.801640 0.000000 
#    z 0.000000 0.000000 1.768630 
# 
# From -- ./inp_files/4573.got.cif
#   From: 2010.03.12/outbox.cif.g09.slc.cpg/sg57_3_cif.got.tgz:4573.got - 2010.04.16 15:48:40.
