data_PCOD8234521
_publ_section_title
;
Structure prediction by ZEFSAII (Michael W. Deem and Ramdas Pophale) SiO2 
 PCOD8234521
Probable space group: P B C M
;
_chemical_formula_sum "Si O2"
_cell_formula_units_Z 56
_cell_length_a 20.888459
_cell_length_b 9.001694
_cell_length_c 12.865620
_cell_angle_alpha 90.000000
_cell_angle_beta 90.000000
_cell_angle_gamma 90.000000
_cell_volume 2419.142034
_symmetry_space_group_name_H-M "P B C M"
_symmetry_group_IT_number 57
_symmetry_cell_setting 'orthorhombic'
loop_
_space_group_symop_operation_xyz
x,y,z
-x,-y,1/2+z
x,1/2-y,-z
-x,1/2+y,1/2-z
-x,-y,-z
x,y,1/2-z
-x,1/2+y,z
x,1/2-y,1/2+z
loop_
_atom_site_type_symbol
_atom_site_label
_atom_site_fract_x
_atom_site_fract_y
_atom_site_fract_z
Si Si1 0.462696 0.853037 0.366118
Si Si2 0.924430 0.332404 0.127005
Si Si3 0.163089 0.178258 0.629797
Si Si4 0.799527 0.501331 0.128165
Si Si5 0.712270 0.915950 0.035402
Si Si6 0.579433 0.027403 0.429060
Si Si7 0.954984 0.009163 0.374537
O O1 0.444454 0.902064 0.250000
O O2 0.423322 0.955954 0.445719
O O3 0.447455 0.678534 0.378263
O O4 0.537818 0.887515 0.388653
O O5 0.934787 0.322641 0.250000
O O6 0.851239 0.375190 0.102541
O O7 0.939148 0.171287 0.076650
O O8 0.975285 0.454938 0.085062
O O9 0.150427 0.204739 0.750000
O O10 0.172146 0.342889 0.580670
O O11 0.227806 0.083142 0.614579
O O12 0.100369 0.099392 0.583418
O O13 0.783388 0.510044 0.250000
O O14 0.733446 0.481206 0.064173
O O15 0.653505 0.993902 0.096037
O O16 0.691950 0.750000 0.000000
O O17 0.953783 0.019845 0.250000
#
# Coordination Sequence:
#
# PCOD8234521 Si02
#       7
#     8   8   8   8   8   8   8
#     4  10  22  42  67  95 128 162 202 252 305 364
#     4   9  16  28  50  79 110 147 195 250 306 359
#     4   9  18  34  54  78 111 152 198 244 297 360
#     4   9  18  35  56  80 111 153 201 246 298 361
#     4  10  22  39  61  87 121 161 199 248 297 363
#     4  10  23  41  66  98 129 163 207 253 308 368
#     4   9  16  28  49  79 111 148 194 251 307 359
#
# _framework density 23.148703000000001
#
# number of rings (size 3 to 8) (size 9 to 14) (size 15 to 20)
#    0.000    2.571    0.000    1.286    4.000    5.143 
#    5.143    0.714    0.000    0.000    0.000    0.000 
#    0.000    0.000    0.000    0.000    0.000    0.000 
#
# Total GULP energy -694312.656803 kJ/mol
# GULP energy per Si atom -12398.440300 kJ/mol
# Density = 2.309602 g / cm^3
# Si number density = 23.148703 Si / 1000 Ang^3
#
#
#
# Elastic Constant Matrix: (Units=GPa)
#
#
# Indices 1 2 3 4 5 6 
#
# 1 130.5716 45.6552 4.4047 0.0000 0.0000 0.0000
# 2 45.6552 100.1044 16.7087 0.0000 0.0000 0.0000
# 3 4.4047 16.7087 57.5352 0.0000 0.0000 0.0000
# 4 0.0000 0.0000 0.0000 26.6030 0.0000 0.0000
# 5 0.0000 0.0000 0.0000 0.0000 19.7614 0.0000
# 6 0.0000 0.0000 0.0000 0.0000 0.0000 31.9080
#
#
#
# Elastic Compliance Matrix: (Units=1/GPa)
#
#
# Indices 1 2 3 4 5 6 
#
# 1 0.009127 -0.004252 0.000536 0.000000 0.000000 0.000000
# 2 -0.004252 0.012480 -0.003299 0.000000 0.000000 0.000000
# 3 0.000536 -0.003299 0.018298 0.000000 0.000000 0.000000
# 4 0.000000 0.000000 0.000000 0.037590 0.000000 0.000000
# 5 0.000000 0.000000 0.000000 0.000000 0.050604 0.000000
# 6 0.000000 0.000000 0.000000 0.000000 0.000000 0.031340
#
#
# Mechanical properties :
#
#
# Convention : Reuss Voigt Hill
#
# Bulk Modulus (GPa) = 38.64741 46.86092 42.75417
# Shear Modulus (GPa) = 27.45857 30.41733 28.93795
#
# Velocity S-wave (km/s) = 3.44784 3.62884 3.53950
# Velocity P-wave (km/s) = 5.70803 6.15186 5.93410
#
# Compressibility (1/GPa) = 0.02587496
#
# Stress axis : x y z
#
# Youngs Moduli (GPa) = 109.56052 80.13137 54.65210
#
# Poissons Ratio (x) = 0.34074 -0.02930
# Poissons Ratio (y) = 0.46588 0.18028
# Poissons Ratio (z) = -0.05874 0.26432
#
# Static dielectric constant tensor:
#      x y z
#    x 3.997600 0.000000 0.000000 
#    y 0.000000 4.087920 0.000000 
#    z 0.000000 0.000000 4.285460 
# 
# 
# High freq. dielectric constant tensor:
#      x y z
#    x 1.899760 0.000000 0.000000 
#    y 0.000000 1.901310 0.000000 
#    z 0.000000 0.000000 1.937720 
# 
# From -- ./inp_files/19374.got.cif
#   From: 2010.03.12/outbox.cif.g09.slc.cpg/sg57_10_cif.got.tgz:19374.got - 2010.04.16 15:48:40.
