data_PCOD8234248
_publ_section_title
;
Structure prediction by ZEFSAII (Michael W. Deem and Ramdas Pophale) SiO2 
 PCOD8234248
Probable space group: P B C M
;
_chemical_formula_sum "Si O2"
_cell_formula_units_Z 64
_cell_length_a 18.465222
_cell_length_b 9.372220
_cell_length_c 18.161950
_cell_angle_alpha 90.000000
_cell_angle_beta 90.000000
_cell_angle_gamma 90.000000
_cell_volume 3143.109300
_symmetry_space_group_name_H-M "P B C M"
_symmetry_group_IT_number 57
_symmetry_cell_setting 'orthorhombic'
loop_
_space_group_symop_operation_xyz
x,y,z
-x,-y,1/2+z
x,1/2-y,-z
-x,1/2+y,1/2-z
-x,-y,-z
x,y,1/2-z
-x,1/2+y,z
x,1/2-y,1/2+z
loop_
_atom_site_type_symbol
_atom_site_label
_atom_site_fract_x
_atom_site_fract_y
_atom_site_fract_z
Si Si1 0.687139 0.445114 0.417629
Si Si2 0.959361 0.401494 0.333579
Si Si3 0.085363 0.209869 0.334429
Si Si4 0.380417 0.796624 0.669531
Si Si5 0.565183 0.404783 0.526672
Si Si6 0.831425 0.262274 0.419324
Si Si7 0.235022 0.267809 0.587405
Si Si8 0.762195 0.022485 0.332203
O O1 0.634178 0.365053 0.359616
O O2 0.642519 0.458015 0.494399
O O3 0.756996 0.348351 0.430622
O O4 0.710555 0.602812 0.390416
O O5 0.952456 0.349044 0.250000
O O6 0.964726 0.570732 0.340977
O O7 0.886294 0.352234 0.371614
O O8 0.034411 0.337232 0.364992
O O9 0.111036 0.233652 0.250000
O O10 0.154448 0.195355 0.386384
O O11 0.417935 0.786227 0.750000
O O12 0.429922 0.892777 0.615427
O O13 0.304868 0.874851 0.677518
O O14 0.544907 0.250000 0.500000
O O15 0.500000 0.500000 0.500000
O O16 0.866426 0.250000 0.500000
O O17 0.820764 0.106798 0.381943
O O18 0.235223 0.250000 0.500000
O O19 0.260977 0.124129 0.627839
O O20 0.793817 0.989668 0.250000
#
# Coordination Sequence:
#
# PCOD8234248 Si02
#       8
#     8   8   8   8   8   8   8   8
#     4  10  21  40  61  88 124 162 208 255 308 379
#     4  10  22  40  60  80 110 158 207 257 318 392
#     4  10  23  41  58  80 113 156 208 260 319 394
#     4   9  19  38  63  88 119 161 210 254 296 365
#     4  10  21  39  63  91 126 168 208 245 308 377
#     4  11  20  37  62  88 115 156 204 259 316 379
#     4  12  23  37  59  90 124 157 204 266 326 374
#     4  10  22  36  57  89 124 159 195 251 319 376
#
# _framework density 20.362002
#
# number of rings (size 3 to 8) (size 9 to 14) (size 15 to 20)
#    0.000    1.750    1.250    4.125    1.750    3.500 
#    0.000    3.750    0.000    0.000    0.000    0.000 
#    0.000    0.000    0.000    0.000    0.000    0.000 
#
# Total GULP energy -793368.957375 kJ/mol
# GULP energy per Si atom -12396.389959 kJ/mol
# Density = 2.031566 g / cm^3
# Si number density = 20.362002 Si / 1000 Ang^3
#
#
#
# Elastic Constant Matrix: (Units=GPa)
#
#
# Indices 1 2 3 4 5 6 
#
# 1 76.6868 27.3236 31.8597 0.0000 0.0000 0.0000
# 2 27.3236 109.5143 35.7200 0.0000 0.0000 0.0000
# 3 31.8597 35.7200 137.3994 0.0000 0.0000 0.0000
# 4 0.0000 0.0000 0.0000 24.5072 0.0000 0.0000
# 5 0.0000 0.0000 0.0000 0.0000 24.8180 0.0000
# 6 0.0000 0.0000 0.0000 0.0000 0.0000 35.9340
#
#
#
# Elastic Compliance Matrix: (Units=1/GPa)
#
#
# Indices 1 2 3 4 5 6 
#
# 1 0.015225 -0.002892 -0.002778 0.000000 0.000000 0.000000
# 2 -0.002892 0.010527 -0.002066 0.000000 0.000000 0.000000
# 3 -0.002778 -0.002066 0.008459 0.000000 0.000000 0.000000
# 4 0.000000 0.000000 0.000000 0.040804 0.000000 0.000000
# 5 0.000000 0.000000 0.000000 0.000000 0.040293 0.000000
# 6 0.000000 0.000000 0.000000 0.000000 0.000000 0.027829
#
#
# Mechanical properties :
#
#
# Convention : Reuss Voigt Hill
#
# Bulk Modulus (GPa) = 53.36871 57.04525 55.20698
# Shear Modulus (GPa) = 30.32936 32.29832 31.31384
#
# Velocity S-wave (km/s) = 3.86360 3.98704 3.92581
# Velocity P-wave (km/s) = 6.79486 7.01938 6.90803
#
# Compressibility (1/GPa) = 0.01873757
#
# Stress axis : x y z
#
# Youngs Moduli (GPa) = 65.68194 94.99633 118.21194
#
# Poissons Ratio (x) = 0.27476 0.32844
# Poissons Ratio (y) = 0.18998 0.24422
# Poissons Ratio (z) = 0.18249 0.19626
#
# Static dielectric constant tensor:
#      x y z
#    x 3.376140 0.000000 0.000000 
#    y 0.000000 3.956060 0.000000 
#    z 0.000000 0.000000 4.062160 
# 
# 
# High freq. dielectric constant tensor:
#      x y z
#    x 1.770750 0.000000 0.000000 
#    y 0.000000 1.804830 0.000000 
#    z 0.000000 0.000000 1.798150 
# 
# From -- ./inp_files/23085.got.cif
#   From: 2010.03.12/outbox.cif.g09.slc.cpg/sg57_12_cif.got.tgz:23085.got - 2010.04.16 15:48:40.
