data_PCOD8234740
_publ_section_title
;
Structure prediction by ZEFSAII (Michael W. Deem and Ramdas Pophale) SiO2 
 PCOD8234740
Probable space group: P B C M
;
_chemical_formula_sum "Si O2"
_cell_formula_units_Z 64
_cell_length_a 12.598174
_cell_length_b 28.835783
_cell_length_c 8.995589
_cell_angle_alpha 90.000000
_cell_angle_beta 90.000000
_cell_angle_gamma 90.000000
_cell_volume 3267.901485
_symmetry_space_group_name_H-M "P B C M"
_symmetry_group_IT_number 57
_symmetry_cell_setting 'orthorhombic'
loop_
_space_group_symop_operation_xyz
x,y,z
-x,-y,1/2+z
x,1/2-y,-z
-x,1/2+y,1/2-z
-x,-y,-z
x,y,1/2-z
-x,1/2+y,z
x,1/2-y,1/2+z
loop_
_atom_site_type_symbol
_atom_site_label
_atom_site_fract_x
_atom_site_fract_y
_atom_site_fract_z
Si Si1 0.114536 0.206835 0.577214
Si Si2 0.537808 0.545976 0.422769
Si Si3 0.063852 0.636410 0.923632
Si Si4 0.264490 0.800780 0.426375
Si Si5 0.240125 0.078477 0.423173
Si Si6 0.015040 0.450793 0.927334
Si Si7 0.311746 0.323529 0.576181
Si Si8 0.540796 0.352632 0.575045
O O1 0.054200 0.250000 0.500000
O O2 0.114509 0.215687 0.750000
O O3 0.236214 0.209818 0.518224
O O4 0.048274 0.160816 0.535909
O O5 0.500000 0.500000 0.500000
O O6 0.513527 0.542253 0.250000
O O7 0.663412 0.543750 0.456173
O O8 0.483322 0.594267 0.478282
O O9 0.072304 0.624715 0.750000
O O10 0.159651 0.670308 0.971516
O O11 0.068477 0.587979 0.014412
O O12 0.262031 0.750000 0.500000
O O13 0.272796 0.794101 0.250000
O O14 0.363998 0.830929 0.481878
O O15 0.221832 0.084620 0.250000
O O16 0.274606 0.127318 0.488556
O O17 0.130654 0.061749 0.493002
O O18 0.006834 0.454066 0.750000
O O19 0.000000 0.500000 0.000000
O O20 0.288115 0.316687 0.750000
O O21 0.437730 0.319750 0.545021
O O22 0.567761 0.352195 0.750000
#
# Coordination Sequence:
#
# PCOD8234740 Si02
#       8
#     8   8   8   8   8   8   8   8
#     4  11  22  35  56  85 115 145 185 235 285 345
#     4   9  18  34  56  83 115 152 196 244 294 352
#     4  10  23  42  60  84 117 153 197 249 297 349
#     4  11  24  42  64  87 119 161 206 255 309 367
#     4   8  16  33  55  76 105 147 186 227 285 343
#     4  11  22  37  60  87 117 156 198 244 299 358
#     4   9  17  35  59  81 108 145 188 233 288 346
#     4   9  20  38  60  85 117 154 198 249 298 356
#
# _framework density 19.584434999999999
#
# number of rings (size 3 to 8) (size 9 to 14) (size 15 to 20)
#    0.000    2.250    1.250    3.000    0.000    4.000 
#    0.000    6.875    0.000    0.000    0.000    0.000 
#    0.000    0.000    0.000    0.000    0.000    0.000 
#
# Total GULP energy -792993.576606 kJ/mol
# GULP energy per Si atom -12390.524634 kJ/mol
# Density = 1.953986 g / cm^3
# Si number density = 19.584435 Si / 1000 Ang^3
#
#
#
# Elastic Constant Matrix: (Units=GPa)
#
#
# Indices 1 2 3 4 5 6 
#
# 1 112.1076 51.4289 48.3865 0.0000 0.0000 0.0000
# 2 51.4289 132.8990 56.5948 0.0000 0.0000 0.0000
# 3 48.3865 56.5948 76.3118 0.0000 0.0000 0.0000
# 4 0.0000 0.0000 0.0000 38.9506 0.0000 0.0000
# 5 0.0000 0.0000 0.0000 0.0000 30.5997 0.0000
# 6 0.0000 0.0000 0.0000 0.0000 0.0000 25.9625
#
#
#
# Elastic Compliance Matrix: (Units=1/GPa)
#
#
# Indices 1 2 3 4 5 6 
#
# 1 0.012695 -0.002170 -0.006440 0.000000 0.000000 0.000000
# 2 -0.002170 0.011369 -0.007055 0.000000 0.000000 0.000000
# 3 -0.006440 -0.007055 0.022420 0.000000 0.000000 0.000000
# 4 0.000000 0.000000 0.000000 0.025674 0.000000 0.000000
# 5 0.000000 0.000000 0.000000 0.000000 0.032680 0.000000
# 6 0.000000 0.000000 0.000000 0.000000 0.000000 0.038517
#
#
# Mechanical properties :
#
#
# Convention : Reuss Voigt Hill
#
# Bulk Modulus (GPa) = 65.99482 70.45984 68.22733
# Shear Modulus (GPa) = 27.81845 30.09643 28.95744
#
# Velocity S-wave (km/s) = 3.77296 3.92440 3.84942
# Velocity P-wave (km/s) = 7.26299 7.52264 7.39395
#
# Compressibility (1/GPa) = 0.01515270
#
# Stress axis : x y z
#
# Youngs Moduli (GPa) = 78.77013 87.95952 44.60317
#
# Poissons Ratio (x) = 0.19090 0.28724
# Poissons Ratio (y) = 0.17095 0.31469
# Poissons Ratio (z) = 0.50728 0.62059
#
# Static dielectric constant tensor:
#      x y z
#    x 3.831410 0.000000 0.000000 
#    y 0.000000 3.660750 0.000000 
#    z 0.000000 0.000000 -22.655680 
# 
# 
# High freq. dielectric constant tensor:
#      x y z
#    x 1.766810 0.000000 0.000000 
#    y 0.000000 1.770440 0.000000 
#    z 0.000000 0.000000 1.747430 
# 
# From -- ./inp_files/3814.got.cif
#   From: 2010.03.12/outbox.cif.g09.slc.cpg/sg57_2_cif.got.tgz:3814.got - 2010.04.16 15:48:40.
