data_PCOD8234979
_publ_section_title
;
Structure prediction by ZEFSAII (Michael W. Deem and Ramdas Pophale) SiO2 
 PCOD8234979
Probable space group: P B C M
;
_chemical_formula_sum "Si O2"
_cell_formula_units_Z 40
_cell_length_a 6.734405
_cell_length_b 29.251655
_cell_length_c 9.071671
_cell_angle_alpha 90.000000
_cell_angle_beta 90.000000
_cell_angle_gamma 90.000000
_cell_volume 1787.051074
_symmetry_space_group_name_H-M "P B C M"
_symmetry_group_IT_number 57
_symmetry_cell_setting 'orthorhombic'
loop_
_space_group_symop_operation_xyz
x,y,z
-x,-y,1/2+z
x,1/2-y,-z
-x,1/2+y,1/2-z
-x,-y,-z
x,y,1/2-z
-x,1/2+y,z
x,1/2-y,1/2+z
loop_
_atom_site_type_symbol
_atom_site_label
_atom_site_fract_x
_atom_site_fract_y
_atom_site_fract_z
Si Si1 0.221684 0.527868 0.087073
Si Si2 0.139664 0.204772 0.079365
Si Si3 0.818747 0.372762 0.581621
Si Si4 0.419744 0.142960 0.923763
Si Si5 0.681992 0.555604 0.084462
O O1 0.171424 0.509500 0.250000
O O2 0.100774 0.575088 0.052226
O O3 0.453567 0.540865 0.078956
O O4 0.178642 0.486704 0.971719
O O5 0.179441 0.215160 0.250000
O O6 0.987929 0.163705 0.055303
O O7 0.056107 0.250000 0.000000
O O8 0.342516 0.189527 0.999692
O O9 0.735557 0.370560 0.750000
O O10 0.648717 0.361597 0.465233
O O11 0.394399 0.146369 0.750000
O O12 0.291410 0.100046 0.982842
O O13 0.750231 0.567966 0.250000
#
# Coordination Sequence:
#
# PCOD8234979 Si02
#       5
#     8   8   8   8   8
#     4   8  14  27  49  79 112 147 188 232 281 335
#     4  11  24  43  64  86 114 147 189 241 294 346
#     4   9  20  39  62  86 116 154 193 238 289 342
#     4  11  22  37  60  88 119 155 194 236 283 341
#     4   9  16  28  49  79 115 153 191 232 279 332
#
# _framework density 22.383241999999999
#
# number of rings (size 3 to 8) (size 9 to 14) (size 15 to 20)
#    0.000    2.400    0.000    4.200    0.000    7.200 
#    0.000    3.000    0.000    0.000    0.000    0.000 
#    0.000    0.000    0.000    0.000    0.000    0.000 
#
# Total GULP energy -496061.396526 kJ/mol
# GULP energy per Si atom -12401.534913 kJ/mol
# Density = 2.233230 g / cm^3
# Si number density = 22.383242 Si / 1000 Ang^3
#
#
#
# Elastic Constant Matrix: (Units=GPa)
#
#
# Indices 1 2 3 4 5 6 
#
# 1 12.2034 27.8518 31.3083 0.0000 0.0000 0.0000
# 2 27.8518 134.8227 77.5455 0.0000 0.0000 0.0000
# 3 31.3083 77.5455 177.3530 0.0000 0.0000 0.0000
# 4 0.0000 0.0000 0.0000 45.7021 0.0000 0.0000
# 5 0.0000 0.0000 0.0000 0.0000 25.1200 0.0000
# 6 0.0000 0.0000 0.0000 0.0000 0.0000 30.9233
#
#
#
# Elastic Compliance Matrix: (Units=1/GPa)
#
#
# Indices 1 2 3 4 5 6 
#
# 1 0.213269 -0.029930 -0.024562 0.000000 0.000000 0.000000
# 2 -0.029930 0.014110 -0.000886 0.000000 0.000000 0.000000
# 3 -0.024562 -0.000886 0.010362 0.000000 0.000000 0.000000
# 4 0.000000 0.000000 0.000000 0.021881 0.000000 0.000000
# 5 0.000000 0.000000 0.000000 0.000000 0.039809 0.000000
# 6 0.000000 0.000000 0.000000 0.000000 0.000000 0.032338
#
#
# Mechanical properties :
#
#
# Convention : Reuss Voigt Hill
#
# Bulk Modulus (GPa) = 7.87496 66.42116 37.14806
# Shear Modulus (GPa) = 10.31242 32.86063 21.58653
#
# Velocity S-wave (km/s) = 2.14877 3.83572 3.10886
# Velocity P-wave (km/s) = 3.11162 7.02538 5.43314
#
# Compressibility (1/GPa) = 0.12698477
#
# Stress axis : x y z
#
# Youngs Moduli (GPa) = 4.68891 70.87406 96.50947
#
# Poissons Ratio (x) = 2.12127 2.37047
# Poissons Ratio (y) = 0.14034 0.08547
# Poissons Ratio (z) = 0.11517 0.06277
#
# Static dielectric constant tensor:
#      x y z
#    x 3.910980 0.000000 0.000000 
#    y 0.000000 4.287980 0.000000 
#    z 0.000000 0.000000 3.994740 
# 
# 
# High freq. dielectric constant tensor:
#      x y z
#    x 1.884180 0.000000 0.000000 
#    y 0.000000 1.886650 0.000000 
#    z 0.000000 0.000000 1.877530 
# 
# From -- ./inp_files/1746.got.cif
#   From: 2010.03.12/outbox.cif.g09.slc.cpg/sg57_1_cif.got.tgz:1746.got - 2010.04.16 15:48:40.
