data_PCOD8234734
_publ_section_title
;
Structure prediction by ZEFSAII (Michael W. Deem and Ramdas Pophale) SiO2 
 PCOD8234734
Probable space group: P B C M
;
_chemical_formula_sum "Si O2"
_cell_formula_units_Z 32
_cell_length_a 7.901369
_cell_length_b 11.727006
_cell_length_c 15.618382
_cell_angle_alpha 90.000000
_cell_angle_beta 90.000000
_cell_angle_gamma 90.000000
_cell_volume 1447.189931
_symmetry_space_group_name_H-M "P B C M"
_symmetry_group_IT_number 57
_symmetry_cell_setting 'orthorhombic'
loop_
_space_group_symop_operation_xyz
x,y,z
-x,-y,1/2+z
x,1/2-y,-z
-x,1/2+y,1/2-z
-x,-y,-z
x,y,1/2-z
-x,1/2+y,z
x,1/2-y,1/2+z
loop_
_atom_site_type_symbol
_atom_site_label
_atom_site_fract_x
_atom_site_fract_y
_atom_site_fract_z
Si Si1 0.012395 0.050193 0.250000
Si Si2 0.705063 0.250000 0.500000
Si Si3 0.546877 0.898580 0.892277
Si Si4 0.654234 0.989911 0.250000
Si Si5 0.136739 0.537143 0.929851
Si Si6 0.723202 0.764810 0.750000
O O1 0.095341 0.174807 0.250000
O O2 0.068800 0.980292 0.166041
O O3 0.812262 0.077152 0.250000
O O4 0.591441 0.157943 0.451971
O O5 0.823877 0.327580 0.439073
O O6 0.619440 0.798012 0.834072
O O7 0.460266 0.995428 0.833707
O O8 0.694870 0.960458 0.945928
O O9 0.748300 0.869256 0.250000
O O10 0.000000 0.500000 0.000000
#
# Coordination Sequence:
#
# PCOD8234734 Si02
#       6
#     4   4   8   4   8   4
#     4  10  24  42  64  98 134 170 224 276 327 393
#     4  12  24  40  66  94 134 180 216 272 330 384
#     4  10  23  41  64  95 126 168 224 270 324 397
#     4  11  21  41  68  94 126 171 221 270 326 397
#     4  11  25  44  66  99 135 173 223 274 331 401
#     4   9  21  41  64  88 126 169 211 276 335 376
#
# _framework density 22.111819000000001
#
# number of rings (size 3 to 8) (size 9 to 14) (size 15 to 20)
#    0.000    1.500    0.000    4.500    0.000   11.000 
#    0.000    0.000    0.000    0.000    0.000    0.000 
#    0.000    0.000    0.000    0.000    0.000    0.000 
#
# Total GULP energy -396858.896721 kJ/mol
# GULP energy per Si atom -12401.840523 kJ/mol
# Density = 2.206149 g / cm^3
# Si number density = 22.111819 Si / 1000 Ang^3
#
#
#
# Elastic Constant Matrix: (Units=GPa)
#
#
# Indices 1 2 3 4 5 6 
#
# 1 143.6311 55.2394 54.6086 0.0000 0.0000 0.0000
# 2 55.2394 113.4111 58.1251 0.0000 0.0000 0.0000
# 3 54.6086 58.1251 130.6587 0.0000 0.0000 0.0000
# 4 0.0000 0.0000 0.0000 -13.5310 0.0000 0.0000
# 5 0.0000 0.0000 0.0000 0.0000 39.5980 0.0000
# 6 0.0000 0.0000 0.0000 0.0000 0.0000 29.8511
#
#
#
# Elastic Compliance Matrix: (Units=1/GPa)
#
#
# Indices 1 2 3 4 5 6 
#
# 1 0.009102 -0.003217 -0.002373 0.000000 0.000000 0.000000
# 2 -0.003217 0.012559 -0.004242 0.000000 0.000000 0.000000
# 3 -0.002373 -0.004242 0.010533 0.000000 0.000000 0.000000
# 4 0.000000 0.000000 0.000000 -0.073904 0.000000 0.000000
# 5 0.000000 0.000000 0.000000 0.000000 0.025254 0.000000
# 6 0.000000 0.000000 0.000000 0.000000 0.000000 0.033500
#
#
# Mechanical properties :
#
#
# Convention : Reuss Voigt Hill
#
# Bulk Modulus (GPa) = 79.81879 80.40523 80.11201
# Shear Modulus (GPa) = 122.30155 25.83214 74.06685
#
# Velocity S-wave (km/s) = 7.44517 3.42168 5.79389
# Velocity P-wave (km/s) = 10.49207 7.21474 9.00378
#
# Compressibility (1/GPa) = 0.01252838
#
# Stress axis : x y z
#
# Youngs Moduli (GPa) = 109.86949 79.62634 94.94395
#
# Poissons Ratio (x) = 0.25616 0.22529
# Poissons Ratio (y) = 0.35345 0.40278
# Poissons Ratio (z) = 0.26071 0.33780
#
# Static dielectric constant tensor:
#      x y z
#    x 4.200030 0.000000 0.000000 
#    y 0.000000 3.816980 0.000000 
#    z 0.000000 0.000000 4.052950 
# 
# 
# High freq. dielectric constant tensor:
#      x y z
#    x 1.886620 0.000000 0.000000 
#    y 0.000000 1.864910 0.000000 
#    z 0.000000 0.000000 1.875120 
# 
# From -- ./inp_files/15628.got.cif
#   From: 2010.03.12/outbox.cif.g09.slc.cpg/sg57_8_cif.got.tgz:15628.got - 2010.04.16 15:48:40.
