data_PCOD8234505
_publ_section_title
;
Structure prediction by ZEFSAII (Michael W. Deem and Ramdas Pophale) SiO2 
 PCOD8234505
Probable space group: P B C M
;
_chemical_formula_sum "Si O2"
_cell_formula_units_Z 48
_cell_length_a 7.110278
_cell_length_b 13.781822
_cell_length_c 24.629143
_cell_angle_alpha 90.000000
_cell_angle_beta 90.000000
_cell_angle_gamma 90.000000
_cell_volume 2413.473408
_symmetry_space_group_name_H-M "P B C M"
_symmetry_group_IT_number 57
_symmetry_cell_setting 'orthorhombic'
loop_
_space_group_symop_operation_xyz
x,y,z
-x,-y,1/2+z
x,1/2-y,-z
-x,1/2+y,1/2-z
-x,-y,-z
x,y,1/2-z
-x,1/2+y,z
x,1/2-y,1/2+z
loop_
_atom_site_type_symbol
_atom_site_label
_atom_site_fract_x
_atom_site_fract_y
_atom_site_fract_z
Si Si1 0.914884 0.403764 0.556938
Si Si2 0.599739 0.985131 0.116693
Si Si3 0.250971 0.182924 0.810552
Si Si4 0.234581 0.553196 0.944647
Si Si5 0.880133 0.275418 0.129216
Si Si6 0.554225 0.337626 0.689135
O O1 0.796304 0.474867 0.595071
O O2 0.799349 0.389650 0.500918
O O3 0.948915 0.298099 0.582343
O O4 0.119472 0.452459 0.550251
O O5 0.642004 0.885223 0.146973
O O6 0.454228 0.969916 0.066719
O O7 0.515286 0.061125 0.159388
O O8 0.252506 0.136451 0.750000
O O9 0.354271 0.285671 0.809971
O O10 0.038682 0.205827 0.826536
O O11 0.166140 0.620095 0.895505
O O12 0.700562 0.230777 0.158437
O O13 0.628282 0.357827 0.750000
#
# Coordination Sequence:
#
# PCOD8234505 Si02
#       6
#     8   8   8   8   8   8
#     4  10  23  38  61  86 121 155 198 244 290 355
#     4  11  21  39  61  87 118 154 194 248 297 351
#     4  11  22  38  60  87 118 154 198 244 295 356
#     4  11  21  39  61  88 118 157 196 240 299 352
#     4  11  21  39  61  85 119 156 196 243 297 349
#     4  10  22  39  59  84 116 154 196 243 296 352
#
# _framework density 19.888349000000002
#
# number of rings (size 3 to 8) (size 9 to 14) (size 15 to 20)
#    0.000    1.333    3.333    3.000    0.000    0.000 
#    0.000    0.000    0.000    0.000    0.000    0.000 
#    0.000    0.000    0.000    0.000    0.000    0.000 
#
# Total GULP energy -595324.415982 kJ/mol
# GULP energy per Si atom -12402.592000 kJ/mol
# Density = 1.984308 g / cm^3
# Si number density = 19.888349 Si / 1000 Ang^3
#
#
#
# Elastic Constant Matrix: (Units=GPa)
#
#
# Indices 1 2 3 4 5 6 
#
# 1 54.0298 10.9486 3.7062 0.0000 0.0000 0.0000
# 2 10.9486 53.5541 5.1934 0.0000 0.0000 0.0000
# 3 3.7062 5.1934 83.3451 0.0000 0.0000 0.0000
# 4 0.0000 0.0000 0.0000 25.4047 0.0000 0.0000
# 5 0.0000 0.0000 0.0000 0.0000 36.0398 0.0000
# 6 0.0000 0.0000 0.0000 0.0000 0.0000 24.5442
#
#
#
# Elastic Compliance Matrix: (Units=1/GPa)
#
#
# Indices 1 2 3 4 5 6 
#
# 1 0.019340 -0.003894 -0.000617 0.000000 0.000000 0.000000
# 2 -0.003894 0.019570 -0.001046 0.000000 0.000000 0.000000
# 3 -0.000617 -0.001046 0.012091 0.000000 0.000000 0.000000
# 4 0.000000 0.000000 0.000000 0.039363 0.000000 0.000000
# 5 0.000000 0.000000 0.000000 0.000000 0.027747 0.000000
# 6 0.000000 0.000000 0.000000 0.000000 0.000000 0.040743
#
#
# Mechanical properties :
#
#
# Convention : Reuss Voigt Hill
#
# Bulk Modulus (GPa) = 25.07162 25.62502 25.34832
# Shear Modulus (GPa) = 27.28305 28.60314 27.94310
#
# Velocity S-wave (km/s) = 3.70781 3.79646 3.75240
# Velocity P-wave (km/s) = 5.56454 5.66832 5.61667
#
# Compressibility (1/GPa) = 0.03988574
#
# Stress axis : x y z
#
# Youngs Moduli (GPa) = 51.70703 51.09800 82.70640
#
# Poissons Ratio (x) = 0.19897 0.05106
# Poissons Ratio (y) = 0.20134 0.08654
# Poissons Ratio (z) = 0.03192 0.05346
#
# Static dielectric constant tensor:
#      x y z
#    x 3.480630 0.000000 0.000000 
#    y 0.000000 3.513860 0.000000 
#    z 0.000000 0.000000 3.768490 
# 
# 
# High freq. dielectric constant tensor:
#      x y z
#    x 1.774230 0.000000 0.000000 
#    y 0.000000 1.774870 0.000000 
#    z 0.000000 0.000000 1.785710 
# 
# From -- ./inp_files/27934.got.cif
#   From: 2010.03.12/outbox.cif.g09.slc.cpg/sg57_14_cif.got.tgz:27934.got - 2010.04.16 15:48:40.
