data_PCOD8234729
_publ_section_title
;
Structure prediction by ZEFSAII (Michael W. Deem and Ramdas Pophale) SiO2 
 PCOD8234729
Probable space group: P B C M
;
_chemical_formula_sum "Si O2"
_cell_formula_units_Z 48
_cell_length_a 13.741412
_cell_length_b 10.000003
_cell_length_c 16.268250
_cell_angle_alpha 90.000000
_cell_angle_beta 90.000000
_cell_angle_gamma 90.000000
_cell_volume 2235.487928
_symmetry_space_group_name_H-M "P B C M"
_symmetry_group_IT_number 57
_symmetry_cell_setting 'orthorhombic'
loop_
_space_group_symop_operation_xyz
x,y,z
-x,-y,1/2+z
x,1/2-y,-z
-x,1/2+y,1/2-z
-x,-y,-z
x,y,1/2-z
-x,1/2+y,z
x,1/2-y,1/2+z
loop_
_atom_site_type_symbol
_atom_site_label
_atom_site_fract_x
_atom_site_fract_y
_atom_site_fract_z
Si Si1 0.294988 0.857474 0.653740
Si Si2 0.697840 0.814514 0.911134
Si Si3 0.014397 0.873598 0.056517
Si Si4 0.484179 0.628192 0.055569
Si Si5 0.204930 0.576027 0.847282
Si Si6 0.826277 0.897254 0.343025
O O1 0.302645 0.876124 0.750000
O O2 0.399294 0.901181 0.619571
O O3 0.267158 0.707059 0.629581
O O4 0.212546 0.960726 0.621327
O O5 0.583010 0.834292 0.896252
O O6 0.739236 0.711200 0.844307
O O7 0.750706 0.956631 0.901090
O O8 0.719267 0.750000 0.000000
O O9 0.094118 0.901094 0.126391
O O10 0.913976 0.840964 0.102481
O O11 0.045808 0.750000 0.000000
O O12 0.000000 0.000000 0.000000
O O13 0.448948 0.750000 0.000000
O O14 0.500000 0.500000 0.000000
O O15 0.209031 0.544776 0.750000
O O16 0.863044 0.914471 0.250000
#
# Coordination Sequence:
#
# PCOD8234729 Si02
#       6
#     8   8   8   8   8   8
#     4  10  23  41  63  90 123 162 208 258 310 368
#     4  11  23  40  62  91 124 160 206 254 308 370
#     4  12  25  40  63  92 122 159 203 254 309 368
#     4  11  23  39  62  90 122 161 202 251 307 364
#     4  11  24  43  65  91 124 166 210 258 312 372
#     4  11  23  41  62  88 123 162 203 255 311 370
#
# _framework density 21.471820999999998
#
# number of rings (size 3 to 8) (size 9 to 14) (size 15 to 20)
#    0.000    1.000    0.000    7.500    0.000    4.667 
#    0.000    9.167    0.000    0.000    0.000    0.000 
#    0.000    0.000    0.000    0.000    0.000    0.000 
#
# Total GULP energy -595429.716232 kJ/mol
# GULP energy per Si atom -12404.785755 kJ/mol
# Density = 2.142295 g / cm^3
# Si number density = 21.471821 Si / 1000 Ang^3
#
#
#
# Elastic Constant Matrix: (Units=GPa)
#
#
# Indices 1 2 3 4 5 6 
#
# 1 123.1154 20.8608 48.0021 0.0000 0.0000 0.0000
# 2 20.8608 125.9738 34.3849 0.0000 0.0000 0.0000
# 3 48.0021 34.3849 58.4161 0.0000 0.0000 0.0000
# 4 0.0000 0.0000 0.0000 34.0378 0.0000 0.0000
# 5 0.0000 0.0000 0.0000 0.0000 41.1890 0.0000
# 6 0.0000 0.0000 0.0000 0.0000 0.0000 36.5702
#
#
#
# Elastic Compliance Matrix: (Units=1/GPa)
#
#
# Indices 1 2 3 4 5 6 
#
# 1 0.012026 0.000841 -0.010377 0.000000 0.000000 0.000000
# 2 0.000841 0.009516 -0.006293 0.000000 0.000000 0.000000
# 3 -0.010377 -0.006293 0.029350 0.000000 0.000000 0.000000
# 4 0.000000 0.000000 0.000000 0.029379 0.000000 0.000000
# 5 0.000000 0.000000 0.000000 0.000000 0.024278 0.000000
# 6 0.000000 0.000000 0.000000 0.000000 0.000000 0.027345
#
#
# Mechanical properties :
#
#
# Convention : Reuss Voigt Hill
#
# Bulk Modulus (GPa) = 51.98954 57.11120 54.55037
# Shear Modulus (GPa) = 29.41814 35.97658 32.69736
#
# Velocity S-wave (km/s) = 3.70548 4.09776 3.90654
# Velocity P-wave (km/s) = 6.52479 7.00320 6.76822
#
# Compressibility (1/GPa) = 0.01923464
#
# Stress axis : x y z
#
# Youngs Moduli (GPa) = 83.15373 105.08068 34.07191
#
# Poissons Ratio (x) = -0.08837 0.35357
# Poissons Ratio (y) = -0.06993 0.21440
# Poissons Ratio (z) = 0.86289 0.66124
#
# Static dielectric constant tensor:
#      x y z
#    x 4.244320 0.000000 0.000000 
#    y 0.000000 4.128090 0.000000 
#    z 0.000000 0.000000 3.679000 
# 
# 
# High freq. dielectric constant tensor:
#      x y z
#    x 1.850940 0.000000 0.000000 
#    y 0.000000 1.861980 0.000000 
#    z 0.000000 0.000000 1.839170 
# 
# From -- ./inp_files/22430.got.cif
#   From: 2010.03.12/outbox.cif.g09.slc.cpg/sg57_12_cif.got.tgz:22430.got - 2010.04.16 15:48:40.
