data_PCOD8234313
_publ_section_title
;
Structure prediction by ZEFSAII (Michael W. Deem and Ramdas Pophale) SiO2 
 PCOD8234313
Probable space group: P B C M
;
_chemical_formula_sum "Si O2"
_cell_formula_units_Z 40
_cell_length_a 12.404609
_cell_length_b 10.138784
_cell_length_c 16.922557
_cell_angle_alpha 90.000000
_cell_angle_beta 90.000000
_cell_angle_gamma 90.000000
_cell_volume 2128.310247
_symmetry_space_group_name_H-M "P B C M"
_symmetry_group_IT_number 57
_symmetry_cell_setting 'orthorhombic'
loop_
_space_group_symop_operation_xyz
x,y,z
-x,-y,1/2+z
x,1/2-y,-z
-x,1/2+y,1/2-z
-x,-y,-z
x,y,1/2-z
-x,1/2+y,z
x,1/2-y,1/2+z
loop_
_atom_site_type_symbol
_atom_site_label
_atom_site_fract_x
_atom_site_fract_y
_atom_site_fract_z
Si Si1 0.936099 0.506779 0.157457
Si Si2 0.912698 0.273602 0.907673
Si Si3 0.688596 0.978001 0.840007
Si Si4 0.679044 0.281974 0.658826
Si Si5 0.490130 0.125123 0.445539
O O1 0.959632 0.525683 0.250000
O O2 0.961833 0.355880 0.134218
O O3 0.812711 0.538149 0.135642
O O4 0.007967 0.604518 0.106104
O O5 0.798556 0.313672 0.870794
O O6 0.897801 0.250000 0.000000
O O7 0.671707 0.935081 0.750000
O O8 0.617039 0.881738 0.892707
O O9 0.651276 0.128417 0.853078
O O10 0.670748 0.323393 0.750000
O O11 0.595242 0.368675 0.609607
O O12 0.478049 0.250000 0.500000
O O13 0.500000 0.000000 0.500000
#
# Coordination Sequence:
#
# PCOD8234313 Si02
#       5
#     8   8   8   8   8
#     4  10  21  40  62  86 121 164 199 242 302 364
#     4  11  22  38  63  92 121 155 205 252 302 350
#     4   9  20  39  61  83 118 161 201 239 296 360
#     4  10  21  40  63  85 118 162 200 239 300 370
#     4  12  23  39  61  89 119 154 196 251 302 352
#
# _framework density 18.794253000000001
#
# number of rings (size 3 to 8) (size 9 to 14) (size 15 to 20)
#    0.000    1.600    2.000    4.800    2.800    0.800 
#    3.600    0.000    0.000    0.000    0.000    0.000 
#    0.000    0.000    0.000    0.000    0.000    0.000 
#
# Total GULP energy -496197.260304 kJ/mol
# GULP energy per Si atom -12404.931508 kJ/mol
# Density = 1.875148 g / cm^3
# Si number density = 18.794253 Si / 1000 Ang^3
#
#
#
# Elastic Constant Matrix: (Units=GPa)
#
#
# Indices 1 2 3 4 5 6 
#
# 1 102.1584 57.9899 57.5213 0.0000 0.0000 0.0000
# 2 57.9899 87.0493 52.0622 0.0000 0.0000 0.0000
# 3 57.5213 52.0622 118.0025 0.0000 0.0000 0.0000
# 4 0.0000 0.0000 0.0000 31.0862 0.0000 0.0000
# 5 0.0000 0.0000 0.0000 0.0000 34.6842 0.0000
# 6 0.0000 0.0000 0.0000 0.0000 0.0000 35.5293
#
#
#
# Elastic Compliance Matrix: (Units=1/GPa)
#
#
# Indices 1 2 3 4 5 6 
#
# 1 0.017385 -0.008847 -0.004571 0.000000 0.000000 0.000000
# 2 -0.008847 0.020108 -0.004559 0.000000 0.000000 0.000000
# 3 -0.004571 -0.004559 0.012714 0.000000 0.000000 0.000000
# 4 0.000000 0.000000 0.000000 0.032169 0.000000 0.000000
# 5 0.000000 0.000000 0.000000 0.000000 0.028832 0.000000
# 6 0.000000 0.000000 0.000000 0.000000 0.000000 0.028146
#
#
# Mechanical properties :
#
#
# Convention : Reuss Voigt Hill
#
# Bulk Modulus (GPa) = 70.16385 71.37300 70.76843
# Shear Modulus (GPa) = 27.76887 29.56906 28.66896
#
# Velocity S-wave (km/s) = 3.84802 3.97079 3.90989
# Velocity P-wave (km/s) = 7.56020 7.68644 7.62358
#
# Compressibility (1/GPa) = 0.01425235
#
# Stress axis : x y z
#
# Youngs Moduli (GPa) = 57.52225 49.73086 78.65446
#
# Poissons Ratio (x) = 0.43999 0.35951
# Poissons Ratio (y) = 0.50892 0.35858
# Poissons Ratio (z) = 0.26292 0.22672
#
# Static dielectric constant tensor:
#      x y z
#    x 3.437590 0.000000 0.000000 
#    y 0.000000 3.328120 0.000000 
#    z 0.000000 0.000000 3.628570 
# 
# 
# High freq. dielectric constant tensor:
#      x y z
#    x 1.733200 0.000000 0.000000 
#    y 0.000000 1.719270 0.000000 
#    z 0.000000 0.000000 1.749890 
# 
# From -- ./inp_files/17393.got.cif
#   From: 2010.03.12/outbox.cif.g09.slc.cpg/sg57_9_cif.got.tgz:17393.got - 2010.04.16 15:48:40.
