data_PCOD8234016
_publ_section_title
;
Structure prediction by ZEFSAII (Michael W. Deem and Ramdas Pophale) SiO2 
 PCOD8234016
Probable space group: P B C M
;
_chemical_formula_sum "Si O2"
_cell_formula_units_Z 52
_cell_length_a 21.470247
_cell_length_b 4.999278
_cell_length_c 20.604471
_cell_angle_alpha 90.000000
_cell_angle_beta 90.000000
_cell_angle_gamma 90.000000
_cell_volume 2211.596008
_symmetry_space_group_name_H-M "P B C M"
_symmetry_group_IT_number 57
_symmetry_cell_setting 'orthorhombic'
loop_
_space_group_symop_operation_xyz
x,y,z
-x,-y,1/2+z
x,1/2-y,-z
-x,1/2+y,1/2-z
-x,-y,-z
x,y,1/2-z
-x,1/2+y,z
x,1/2-y,1/2+z
loop_
_atom_site_type_symbol
_atom_site_label
_atom_site_fract_x
_atom_site_fract_y
_atom_site_fract_z
Si Si1 0.235900 0.669434 0.072593
Si Si2 0.547175 0.953853 0.250000
Si Si3 0.468460 0.723725 0.925576
Si Si4 0.357975 0.640701 0.145882
Si Si5 0.299740 0.544267 0.750000
Si Si6 0.958964 0.674600 0.324451
Si Si7 0.780049 0.940047 0.250000
Si Si8 0.830420 0.699878 0.379559
O O1 0.292540 0.534150 0.115188
O O2 0.185166 0.428442 0.066473
O O3 0.209710 0.931249 0.110018
O O4 0.256458 0.750000 0.000000
O O5 0.499205 0.708169 0.250000
O O6 0.595960 0.950551 0.311790
O O7 0.492344 0.457882 0.890470
O O8 0.395015 0.756077 0.917048
O O9 0.487192 0.750000 0.000000
O O10 0.341604 0.903052 0.187328
O O11 0.284087 0.230776 0.750000
O O12 0.239339 0.746703 0.750000
O O13 0.935493 0.643096 0.250000
O O14 0.903110 0.622528 0.375751
O O15 0.014137 0.467269 0.338148
O O16 0.818499 0.858610 0.312679
#
# Coordination Sequence:
#
# PCOD8234016 Si02
#       8
#     8   4   8   8   4   8   4   8
#     4  12  27  44  66  98 133 182 232 275 332 394
#     4  11  26  43  64  96 129 168 211 268 342 411
#     4  10  22  39  59  81 111 156 208 257 308 372
#     4  11  23  41  64  91 126 168 203 276 322 406
#     4  11  24  36  60  92 132 152 207 248 328 399
#     4  10  21  37  64 104 139 174 221 275 337 400
#     4  12  20  41  60 100 123 174 198 252 338 398
#     4  12  23  43  70  95 144 176 216 285 334 405
#
# _framework density 23.512432
#
# number of rings (size 3 to 8) (size 9 to 14) (size 15 to 20)
#    0.000    0.923    3.846    2.769    0.000    6.154 
#    0.000    3.077    0.000    9.231    0.000    0.000 
#    0.000    0.000    0.000    0.000    0.000    0.000 
#
# Total GULP energy -644184.451710 kJ/mol
# GULP energy per Si atom -12388.162533 kJ/mol
# Density = 2.345892 g / cm^3
# Si number density = 23.512432 Si / 1000 Ang^3
#
#
#
# Elastic Constant Matrix: (Units=GPa)
#
#
# Indices 1 2 3 4 5 6 
#
# 1 124.1063 26.1005 36.5658 0.0000 0.0000 0.0000
# 2 26.1005 95.3399 18.0808 0.0000 0.0000 0.0000
# 3 36.5658 18.0808 67.4042 0.0000 0.0000 0.0000
# 4 0.0000 0.0000 0.0000 19.3728 0.0000 0.0000
# 5 0.0000 0.0000 0.0000 0.0000 36.8539 0.0000
# 6 0.0000 0.0000 0.0000 0.0000 0.0000 28.9351
#
#
#
# Elastic Compliance Matrix: (Units=1/GPa)
#
#
# Indices 1 2 3 4 5 6 
#
# 1 0.009868 -0.001777 -0.004877 0.000000 0.000000 0.000000
# 2 -0.001777 0.011371 -0.002086 0.000000 0.000000 0.000000
# 3 -0.004877 -0.002086 0.018041 0.000000 0.000000 0.000000
# 4 0.000000 0.000000 0.000000 0.051619 0.000000 0.000000
# 5 0.000000 0.000000 0.000000 0.000000 0.027134 0.000000
# 6 0.000000 0.000000 0.000000 0.000000 0.000000 0.034560
#
#
# Mechanical properties :
#
#
# Convention : Reuss Voigt Hill
#
# Bulk Modulus (GPa) = 45.87042 49.81606 47.84324
# Shear Modulus (GPa) = 28.19453 30.77258 29.48356
#
# Velocity S-wave (km/s) = 3.46661 3.62163 3.54497
# Velocity P-wave (km/s) = 5.96444 6.22265 6.09491
#
# Compressibility (1/GPa) = 0.02180054
#
# Stress axis : x y z
#
# Youngs Moduli (GPa) = 101.33668 87.94420 55.42906
#
# Poissons Ratio (x) = 0.15625 0.27031
# Poissons Ratio (y) = 0.18004 0.11565
# Poissons Ratio (z) = 0.49419 0.18348
#
# Static dielectric constant tensor:
#      x y z
#    x 4.258260 0.000000 0.000000 
#    y 0.000000 -7.313720 0.000000 
#    z 0.000000 0.000000 4.009020 
# 
# 
# High freq. dielectric constant tensor:
#      x y z
#    x 1.928790 0.000000 0.000000 
#    y 0.000000 1.931650 0.000000 
#    z 0.000000 0.000000 1.921230 
# 
# From -- ./inp_files/25771.got.cif
#   From: 2010.03.12/outbox.cif.g09.slc.cpg/sg57_13_cif.got.tgz:25771.got - 2010.04.16 15:48:40.
