data_PCOD8234658
_publ_section_title
;
Structure prediction by ZEFSAII (Michael W. Deem and Ramdas Pophale) SiO2 
 PCOD8234658
Probable space group: P B C M
;
_chemical_formula_sum "Si O2"
_cell_formula_units_Z 52
_cell_length_a 7.792251
_cell_length_b 20.911887
_cell_length_c 14.591573
_cell_angle_alpha 90.000000
_cell_angle_beta 90.000000
_cell_angle_gamma 90.000000
_cell_volume 2377.706632
_symmetry_space_group_name_H-M "P B C M"
_symmetry_group_IT_number 57
_symmetry_cell_setting 'orthorhombic'
loop_
_space_group_symop_operation_xyz
x,y,z
-x,-y,1/2+z
x,1/2-y,-z
-x,1/2+y,1/2-z
-x,-y,-z
x,y,1/2-z
-x,1/2+y,z
x,1/2-y,1/2+z
loop_
_atom_site_type_symbol
_atom_site_label
_atom_site_fract_x
_atom_site_fract_y
_atom_site_fract_z
Si Si1 0.924585 0.079578 0.750000
Si Si2 0.886460 0.621428 0.061392
Si Si3 0.010446 0.442211 0.750000
Si Si4 0.475642 0.803723 0.069058
Si Si5 0.718042 0.965961 0.250000
Si Si6 0.783646 0.754809 0.648633
Si Si7 0.406043 0.441546 0.048894
Si Si8 0.895029 0.329807 0.092620
O O1 0.850214 0.112031 0.840137
O O2 0.132367 0.087665 0.750000
O O3 0.868538 0.005368 0.750000
O O4 0.949242 0.595903 0.158396
O O5 0.772245 0.685164 0.078373
O O6 0.778326 0.570492 0.000644
O O7 0.057742 0.640691 0.006017
O O8 0.809785 0.463839 0.750000
O O9 0.616439 0.791722 0.148748
O O10 0.483121 0.877130 0.035233
O O11 0.278121 0.787649 0.092377
O O12 0.539730 0.750000 0.000000
O O13 0.608327 0.957836 0.342866
O O14 0.800980 0.783650 0.750000
O O15 0.952033 0.713897 0.627764
O O16 0.500000 0.500000 0.000000
#
# Coordination Sequence:
#
# PCOD8234658 Si02
#       8
#     4   8   4   8   4   8   8   8
#     4  10  22  42  68 105 139 183 243 298 348 445
#     4  12  23  48  73 102 146 198 235 308 376 431
#     4  10  26  40  72 103 140 192 246 290 375 441
#     4  12  26  46  72 108 144 191 247 302 368 440
#     4  10  24  50  70 106 147 195 253 302 367 450
#     4  12  24  46  73 105 148 187 244 307 368 438
#     4  12  28  46  75 106 150 198 242 308 376 440
#     4  12  25  44  77 103 141 188 251 297 364 443
#
# _framework density 21.869814000000002
#
# number of rings (size 3 to 8) (size 9 to 14) (size 15 to 20)
#    0.462    0.000    6.154    1.385    6.462    1.846 
#    0.000    0.000    0.000    0.000    0.000    0.000 
#    0.000    0.000    0.000    0.000    0.000    0.000 
#
# Total GULP energy -644535.780254 kJ/mol
# GULP energy per Si atom -12394.918851 kJ/mol
# Density = 2.182004 g / cm^3
# Si number density = 21.869814 Si / 1000 Ang^3
#
#
#
# Elastic Constant Matrix: (Units=GPa)
#
#
# Indices 1 2 3 4 5 6 
#
# 1 133.6836 41.2355 45.1854 0.0000 0.0000 0.0000
# 2 41.2355 124.1192 53.1785 0.0000 0.0000 0.0000
# 3 45.1854 53.1785 155.0234 0.0000 0.0000 0.0000
# 4 0.0000 0.0000 0.0000 29.3365 0.0000 0.0000
# 5 0.0000 0.0000 0.0000 0.0000 16.2257 0.0000
# 6 0.0000 0.0000 0.0000 0.0000 0.0000 31.5195
#
#
#
# Elastic Compliance Matrix: (Units=1/GPa)
#
#
# Indices 1 2 3 4 5 6 
#
# 1 0.008752 -0.002127 -0.001821 0.000000 0.000000 0.000000
# 2 -0.002127 0.009962 -0.002797 0.000000 0.000000 0.000000
# 3 -0.001821 -0.002797 0.007941 0.000000 0.000000 0.000000
# 4 0.000000 0.000000 0.000000 0.034087 0.000000 0.000000
# 5 0.000000 0.000000 0.000000 0.000000 0.061631 0.000000
# 6 0.000000 0.000000 0.000000 0.000000 0.000000 0.031726
#
#
# Mechanical properties :
#
#
# Convention : Reuss Voigt Hill
#
# Bulk Modulus (GPa) = 75.96798 76.89165 76.42982
# Shear Modulus (GPa) = 29.07332 33.63147 31.35240
#
# Velocity S-wave (km/s) = 3.65002 3.92574 3.79039
# Velocity P-wave (km/s) = 7.25089 7.46885 7.36068
#
# Compressibility (1/GPa) = 0.01316344
#
# Stress axis : x y z
#
# Youngs Moduli (GPa) = 114.25780 100.38140 125.92796
#
# Poissons Ratio (x) = 0.21355 0.22935
# Poissons Ratio (y) = 0.24307 0.35225
# Poissons Ratio (z) = 0.20809 0.28079
#
# Static dielectric constant tensor:
#      x y z
#    x 3.830420 0.000000 0.000000 
#    y 0.000000 3.967200 0.000000 
#    z 0.000000 0.000000 4.003050 
# 
# 
# High freq. dielectric constant tensor:
#      x y z
#    x 1.851090 0.000000 0.000000 
#    y 0.000000 1.862250 0.000000 
#    z 0.000000 0.000000 1.867770 
# 
# From -- ./inp_files/16681.got.cif
#   From: 2010.03.12/outbox.cif.g09.slc.cpg/sg57_9_cif.got.tgz:16681.got - 2010.04.16 15:48:40.
