data_PCOD8234970
_publ_section_title
;
Structure prediction by ZEFSAII (Michael W. Deem and Ramdas Pophale) SiO2 
 PCOD8234970
Probable space group: P B C M
;
_chemical_formula_sum "Si O2"
_cell_formula_units_Z 48
_cell_length_a 9.961920
_cell_length_b 28.736365
_cell_length_c 8.920744
_cell_angle_alpha 90.000000
_cell_angle_beta 90.000000
_cell_angle_gamma 90.000000
_cell_volume 2553.735758
_symmetry_space_group_name_H-M "P B C M"
_symmetry_group_IT_number 57
_symmetry_cell_setting 'orthorhombic'
loop_
_space_group_symop_operation_xyz
x,y,z
-x,-y,1/2+z
x,1/2-y,-z
-x,1/2+y,1/2-z
-x,-y,-z
x,y,1/2-z
-x,1/2+y,z
x,1/2-y,1/2+z
loop_
_atom_site_type_symbol
_atom_site_label
_atom_site_fract_x
_atom_site_fract_y
_atom_site_fract_z
Si Si1 0.999694 0.123318 0.419835
Si Si2 0.746149 0.355229 0.424624
Si Si3 0.486237 0.200057 0.928314
Si Si4 0.301399 0.123603 0.070745
Si Si5 0.380830 0.028594 0.926471
Si Si6 0.781833 0.056399 0.081545
O O1 0.007109 0.140779 0.250000
O O2 0.891957 0.157236 0.502839
O O3 0.940666 0.070010 0.431560
O O4 0.147786 0.125105 0.489485
O O5 0.766474 0.355712 0.250000
O O6 0.634029 0.318184 0.473413
O O7 0.698786 0.407041 0.477524
O O8 0.467113 0.201611 0.750000
O O9 0.466270 0.250000 0.000000
O O10 0.373675 0.167689 0.000426
O O11 0.309786 0.124301 0.250000
O O12 0.369475 0.077140 0.010020
O O13 0.404611 0.037083 0.750000
O O14 0.246840 0.997355 0.958660
O O15 0.500000 0.000000 0.000000
O O16 0.729974 0.065738 0.250000
#
# Coordination Sequence:
#
# PCOD8234970 Si02
#       6
#     8   8   8   8   8   8
#     4   8  18  37  58  82 115 153 191 233 287 344
#     4   9  18  34  58  85 111 142 185 236 285 336
#     4  11  24  41  62  88 115 147 192 241 292 353
#     4  11  23  39  60  86 119 157 195 242 297 347
#     4  11  22  35  54  83 120 161 202 244 289 343
#     4   8  17  34  54  78 113 153 191 231 278 335
#
# _framework density 18.795994
#
# number of rings (size 3 to 8) (size 9 to 14) (size 15 to 20)
#    1.000    1.333    0.000    2.500    0.000    8.667 
#    0.000    0.833    0.000    2.000    0.000    0.000 
#    0.000    0.000    0.000    0.000    0.000    0.000 
#
# Total GULP energy -594677.382468 kJ/mol
# GULP energy per Si atom -12389.112135 kJ/mol
# Density = 1.875321 g / cm^3
# Si number density = 18.795994 Si / 1000 Ang^3
#
#
#
# Elastic Constant Matrix: (Units=GPa)
#
#
# Indices 1 2 3 4 5 6 
#
# 1 112.5024 55.6111 40.7797 0.0000 0.0000 0.0000
# 2 55.6111 128.0446 38.8355 0.0000 0.0000 0.0000
# 3 40.7797 38.8355 63.1091 0.0000 0.0000 0.0000
# 4 0.0000 0.0000 0.0000 30.5240 0.0000 0.0000
# 5 0.0000 0.0000 0.0000 0.0000 26.3991 0.0000
# 6 0.0000 0.0000 0.0000 0.0000 0.0000 9.3729
#
#
#
# Elastic Compliance Matrix: (Units=1/GPa)
#
#
# Indices 1 2 3 4 5 6 
#
# 1 0.012952 -0.003795 -0.006034 0.000000 0.000000 0.000000
# 2 -0.003795 0.010714 -0.004141 0.000000 0.000000 0.000000
# 3 -0.006034 -0.004141 0.022293 0.000000 0.000000 0.000000
# 4 0.000000 0.000000 0.000000 0.032761 0.000000 0.000000
# 5 0.000000 0.000000 0.000000 0.000000 0.037880 0.000000
# 6 0.000000 0.000000 0.000000 0.000000 0.000000 0.106690
#
#
# Mechanical properties :
#
#
# Convention : Reuss Voigt Hill
#
# Bulk Modulus (GPa) = 55.49676 63.78986 59.64331
# Shear Modulus (GPa) = 19.43749 24.48787 21.96268
#
# Velocity S-wave (km/s) = 3.21928 3.61338 3.42201
# Velocity P-wave (km/s) = 6.58850 7.17080 6.88581
#
# Compressibility (1/GPa) = 0.01801907
#
# Stress axis : x y z
#
# Youngs Moduli (GPa) = 77.20971 93.33698 44.85807
#
# Poissons Ratio (x) = 0.35422 0.27066
# Poissons Ratio (y) = 0.29301 0.18574
# Poissons Ratio (z) = 0.46587 0.38648
#
# Static dielectric constant tensor:
#      x y z
#    x 3.622220 0.000000 0.000000 
#    y 0.000000 3.303000 0.000000 
#    z 0.000000 0.000000 3.489900 
# 
# 
# High freq. dielectric constant tensor:
#      x y z
#    x 1.729900 0.000000 0.000000 
#    y 0.000000 1.706730 0.000000 
#    z 0.000000 0.000000 1.738020 
# 
# From -- ./inp_files/3533.got.cif
#   From: 2010.03.12/outbox.cif.g09.slc.cpg/sg57_2_cif.got.tgz:3533.got - 2010.04.16 15:48:40.
