data_PCOD8234251
_publ_section_title
;
Structure prediction by ZEFSAII (Michael W. Deem and Ramdas Pophale) SiO2 
 PCOD8234251
Probable space group: P B C M
;
_chemical_formula_sum "Si O2"
_cell_formula_units_Z 64
_cell_length_a 9.426754
_cell_length_b 13.255959
_cell_length_c 25.349688
_cell_angle_alpha 90.000000
_cell_angle_beta 90.000000
_cell_angle_gamma 90.000000
_cell_volume 3167.713858
_symmetry_space_group_name_H-M "P B C M"
_symmetry_group_IT_number 57
_symmetry_cell_setting 'orthorhombic'
loop_
_space_group_symop_operation_xyz
x,y,z
-x,-y,1/2+z
x,1/2-y,-z
-x,1/2+y,1/2-z
-x,-y,-z
x,y,1/2-z
-x,1/2+y,z
x,1/2-y,1/2+z
loop_
_atom_site_type_symbol
_atom_site_label
_atom_site_fract_x
_atom_site_fract_y
_atom_site_fract_z
Si Si1 0.962823 0.890413 0.902360
Si Si2 0.873994 0.809909 0.355341
Si Si3 0.769448 0.508387 0.925744
Si Si4 0.704073 0.637196 0.022418
Si Si5 0.919810 0.456143 0.191964
Si Si6 0.574214 0.731475 0.689706
Si Si7 0.392980 0.540734 0.691673
Si Si8 0.506308 0.109167 0.113028
O O1 0.970588 0.773875 0.884429
O O2 0.831680 0.899734 0.941312
O O3 0.101887 0.928691 0.934475
O O4 0.947888 0.957821 0.850443
O O5 0.823774 0.891467 0.397579
O O6 0.738130 0.758878 0.327686
O O7 0.971348 0.863688 0.312262
O O8 0.654584 0.447648 0.891923
O O9 0.694842 0.549521 0.978644
O O10 0.558800 0.637266 0.056099
O O11 0.728375 0.750000 0.000000
O O12 0.940219 0.504717 0.250000
O O13 0.762121 0.408849 0.186319
O O14 0.556900 0.769271 0.750000
O O15 0.521748 0.617531 0.683900
O O16 0.473412 0.792186 0.649285
O O17 0.408309 0.491039 0.750000
O O18 0.396474 0.457515 0.646391
#
# Coordination Sequence:
#
# PCOD8234251 Si02
#       8
#     8   8   8   8   8   8   8   8
#     4  11  23  42  67  91 127 170 209 262 319 381
#     4  11  21  42  65  95 130 169 209 266 314 381
#     4  11  25  42  65  97 129 162 219 267 320 373
#     4  12  23  45  69  93 123 170 214 266 325 381
#     4  10  22  39  63  96 129 166 213 256 312 381
#     4  11  22  38  64  94 128 171 209 254 320 386
#     4  10  21  39  63  92 128 168 205 258 319 379
#     4  12  23  42  66  94 129 165 213 269 317 383
#
# _framework density 20.203842999999999
#
# number of rings (size 3 to 8) (size 9 to 14) (size 15 to 20)
#    0.000    1.000    5.000    1.500    1.750    2.000 
#    0.000    1.250    0.000    0.000    0.000    0.000 
#    0.000    0.000    0.000    0.000    0.000    0.000 
#
# Total GULP energy -793402.595543 kJ/mol
# GULP energy per Si atom -12396.915555 kJ/mol
# Density = 2.015786 g / cm^3
# Si number density = 20.203843 Si / 1000 Ang^3
#
#
#
# Elastic Constant Matrix: (Units=GPa)
#
#
# Indices 1 2 3 4 5 6 
#
# 1 63.8157 35.2429 15.4294 0.0000 0.0000 0.0000
# 2 35.2429 88.4038 35.9344 0.0000 0.0000 0.0000
# 3 15.4294 35.9344 89.0936 0.0000 0.0000 0.0000
# 4 0.0000 0.0000 0.0000 36.9951 0.0000 0.0000
# 5 0.0000 0.0000 0.0000 0.0000 28.0612 0.0000
# 6 0.0000 0.0000 0.0000 0.0000 0.0000 31.2601
#
#
#
# Elastic Compliance Matrix: (Units=1/GPa)
#
#
# Indices 1 2 3 4 5 6 
#
# 1 0.020101 -0.007892 -0.000298 0.000000 0.000000 0.000000
# 2 -0.007892 0.016629 -0.005340 0.000000 0.000000 0.000000
# 3 -0.000298 -0.005340 0.013430 0.000000 0.000000 0.000000
# 4 0.000000 0.000000 0.000000 0.027031 0.000000 0.000000
# 5 0.000000 0.000000 0.000000 0.000000 0.035636 0.000000
# 6 0.000000 0.000000 0.000000 0.000000 0.000000 0.031990
#
#
# Mechanical properties :
#
#
# Convention : Reuss Voigt Hill
#
# Bulk Modulus (GPa) = 43.29276 46.05847 44.67562
# Shear Modulus (GPa) = 27.84343 29.57704 28.71024
#
# Velocity S-wave (km/s) = 3.71634 3.83029 3.77374
# Velocity P-wave (km/s) = 6.31581 6.51213 6.41472
#
# Compressibility (1/GPa) = 0.02309855
#
# Stress axis : x y z
#
# Youngs Moduli (GPa) = 49.74949 60.13705 74.46250
#
# Poissons Ratio (x) = 0.47462 0.02218
# Poissons Ratio (y) = 0.39263 0.39764
# Poissons Ratio (z) = 0.01482 0.32114
#
# Static dielectric constant tensor:
#      x y z
#    x 3.674140 0.000000 0.000000 
#    y 0.000000 3.635290 0.000000 
#    z 0.000000 0.000000 3.861510 
# 
# 
# High freq. dielectric constant tensor:
#      x y z
#    x 1.786620 0.000000 0.000000 
#    y 0.000000 1.785790 0.000000 
#    z 0.000000 0.000000 1.798890 
# 
# From -- ./inp_files/26874.got.cif
#   From: 2010.03.12/outbox.cif.g09.slc.cpg/sg57_14_cif.got.tgz:26874.got - 2010.04.16 15:48:40.
