data_PCOD8234466
_publ_section_title
;
Structure prediction by ZEFSAII (Michael W. Deem and Ramdas Pophale) SiO2 
 PCOD8234466
Probable space group: P B C M
;
_chemical_formula_sum "Si O2"
_cell_formula_units_Z 48
_cell_length_a 31.249282
_cell_length_b 9.136033
_cell_length_c 8.594710
_cell_angle_alpha 90.000000
_cell_angle_beta 90.000000
_cell_angle_gamma 90.000000
_cell_volume 2453.742190
_symmetry_space_group_name_H-M "P B C M"
_symmetry_group_IT_number 57
_symmetry_cell_setting 'orthorhombic'
loop_
_space_group_symop_operation_xyz
x,y,z
-x,-y,1/2+z
x,1/2-y,-z
-x,1/2+y,1/2-z
-x,-y,-z
x,y,1/2-z
-x,1/2+y,z
x,1/2-y,1/2+z
loop_
_atom_site_type_symbol
_atom_site_label
_atom_site_fract_x
_atom_site_fract_y
_atom_site_fract_z
Si Si1 0.460332 0.411681 0.065714
Si Si2 0.618417 0.086177 0.933737
Si Si3 0.122186 0.090079 0.566156
Si Si4 0.960463 0.411560 0.933941
Si Si5 0.798116 0.410622 0.931980
Si Si6 0.704467 0.089745 0.067627
O O1 0.462995 0.407434 0.250000
O O2 0.462263 0.250000 0.000000
O O3 0.500000 0.500000 0.000000
O O4 0.416779 0.486637 0.013211
O O5 0.611623 0.087916 0.750000
O O6 0.615145 0.250000 0.000000
O O7 0.664637 0.013985 0.978172
O O8 0.115680 0.250000 0.500000
O O9 0.123980 0.101663 0.750000
O O10 0.082928 0.990026 0.510543
O O11 0.166012 0.019214 0.499021
O O12 0.964051 0.405474 0.750000
O O13 0.960803 0.250000 0.000000
O O14 0.000000 0.500000 0.000000
O O15 0.804762 0.391496 0.750000
O O16 0.751029 0.482354 0.966118
O O17 0.803900 0.250000 0.000000
O O18 0.693720 0.094456 0.250000
O O19 0.708621 0.250000 0.000000
#
# Coordination Sequence:
#
# PCOD8234466 Si02
#       6
#     8   8   8   8   8   8
#     4  12  25  43  63  87 116 149 188 232 281 334
#     4  11  21  36  58  86 117 152 191 233 280 333
#     4  10  22  38  55  79 110 146 185 229 277 331
#     4  11  23  39  60  85 114 146 185 229 279 334
#     4   9  18  33  54  80 109 141 183 230 278 328
#     4   9  16  29  51  79 110 144 182 229 277 328
#
# _framework density 19.561958000000001
#
# number of rings (size 3 to 8) (size 9 to 14) (size 15 to 20)
#    0.000    1.667    0.000    6.500    0.000    4.000 
#    0.000    0.833    0.000    2.000    0.000    0.000 
#    0.000    0.000    0.000    0.000    0.000    0.000 
#
# Total GULP energy -595080.160473 kJ/mol
# GULP energy per Si atom -12397.503343 kJ/mol
# Density = 1.951743 g / cm^3
# Si number density = 19.561958 Si / 1000 Ang^3
#
#
#
# Elastic Constant Matrix: (Units=GPa)
#
#
# Indices 1 2 3 4 5 6 
#
# 1 197.1101 89.2007 60.1977 0.0000 0.0000 0.0000
# 2 89.2007 135.7650 45.9832 0.0000 0.0000 0.0000
# 3 60.1977 45.9832 108.6496 0.0000 0.0000 0.0000
# 4 0.0000 0.0000 0.0000 32.4824 0.0000 0.0000
# 5 0.0000 0.0000 0.0000 0.0000 32.2282 0.0000
# 6 0.0000 0.0000 0.0000 0.0000 0.0000 39.8291
#
#
#
# Elastic Compliance Matrix: (Units=1/GPa)
#
#
# Indices 1 2 3 4 5 6 
#
# 1 0.007761 -0.004253 -0.002500 0.000000 0.000000 0.000000
# 2 -0.004253 0.010928 -0.002269 0.000000 0.000000 0.000000
# 3 -0.002500 -0.002269 0.011550 0.000000 0.000000 0.000000
# 4 0.000000 0.000000 0.000000 0.030786 0.000000 0.000000
# 5 0.000000 0.000000 0.000000 0.000000 0.031029 0.000000
# 6 0.000000 0.000000 0.000000 0.000000 0.000000 0.025107
#
#
# Mechanical properties :
#
#
# Convention : Reuss Voigt Hill
#
# Bulk Modulus (GPa) = 81.99901 92.47646 87.23774
# Shear Modulus (GPa) = 35.90150 37.31747 36.60948
#
# Velocity S-wave (km/s) = 4.28865 4.37241 4.33073
# Velocity P-wave (km/s) = 8.15671 8.53621 8.34862
#
# Compressibility (1/GPa) = 0.01219527
#
# Stress axis : x y z
#
# Youngs Moduli (GPa) = 128.84281 91.50674 86.58339
#
# Poissons Ratio (x) = 0.38913 0.21650
# Poissons Ratio (y) = 0.54791 0.19645
# Poissons Ratio (z) = 0.32217 0.20762
#
# Static dielectric constant tensor:
#      x y z
#    x 4.371990 0.000000 0.000000 
#    y 0.000000 3.437360 0.000000 
#    z 0.000000 0.000000 3.677820 
# 
# 
# High freq. dielectric constant tensor:
#      x y z
#    x 1.792730 0.000000 0.000000 
#    y 0.000000 1.740290 0.000000 
#    z 0.000000 0.000000 1.771140 
# 
# From -- ./inp_files/10028.got.cif
#   From: 2010.03.12/outbox.cif.g09.slc.cpg/sg57_6_cif.got.tgz:10028.got - 2010.04.16 15:48:40.
