data_PCOD8234842
_publ_section_title
;
Structure prediction by ZEFSAII (Michael W. Deem and Ramdas Pophale) SiO2 
 PCOD8234842
Probable space group: P B C M
;
_chemical_formula_sum "Si O2"
_cell_formula_units_Z 40
_cell_length_a 12.262946
_cell_length_b 9.149432
_cell_length_c 16.874869
_cell_angle_alpha 90.000000
_cell_angle_beta 90.000000
_cell_angle_gamma 90.000000
_cell_volume 1893.343267
_symmetry_space_group_name_H-M "P B C M"
_symmetry_group_IT_number 57
_symmetry_cell_setting 'orthorhombic'
loop_
_space_group_symop_operation_xyz
x,y,z
-x,-y,1/2+z
x,1/2-y,-z
-x,1/2+y,1/2-z
-x,-y,-z
x,y,1/2-z
-x,1/2+y,z
x,1/2-y,1/2+z
loop_
_atom_site_type_symbol
_atom_site_label
_atom_site_fract_x
_atom_site_fract_y
_atom_site_fract_z
Si Si1 0.970835 0.871273 0.057571
Si Si2 0.609051 0.030393 0.841161
Si Si3 0.580482 0.786587 0.408876
Si Si4 0.773069 0.971789 0.341090
Si Si5 0.821960 0.301103 0.339970
O O1 0.078992 0.811643 0.099628
O O2 0.887295 0.916118 0.125183
O O3 0.918648 0.750000 0.000000
O O4 0.000000 0.000000 0.000000
O O5 0.579196 0.060971 0.750000
O O6 0.534207 0.134452 0.894354
O O7 0.734627 0.071899 0.858897
O O8 0.591068 0.860316 0.858132
O O9 0.591044 0.750000 0.500000
O O10 0.674116 0.900893 0.387719
O O11 0.767370 0.923499 0.250000
O O12 0.762788 0.145629 0.351061
O O13 0.865814 0.316901 0.250000
#
# Coordination Sequence:
#
# PCOD8234842 Si02
#       5
#     8   8   8   8   8
#     4  12  25  43  66  97 133 172 217 279 336 392
#     4  11  24  44  69  97 132 178 222 269 331 404
#     4  12  26  43  68 102 136 171 224 278 338 390
#     4  11  24  44  67  94 133 178 223 272 331 403
#     4  10  24  44  67  94 131 176 224 269 326 397
#
# _framework density 21.126650000000001
#
# number of rings (size 3 to 8) (size 9 to 14) (size 15 to 20)
#    0.000    0.800    2.000    4.800    5.600    2.400 
#    0.000    0.000    0.000    0.000    0.000    0.000 
#    0.000    0.000    0.000    0.000    0.000    0.000 
#
# Total GULP energy -496248.429852 kJ/mol
# GULP energy per Si atom -12406.210746 kJ/mol
# Density = 2.107857 g / cm^3
# Si number density = 21.126650 Si / 1000 Ang^3
#
#
#
# Elastic Constant Matrix: (Units=GPa)
#
#
# Indices 1 2 3 4 5 6 
#
# 1 69.5376 8.2175 32.9156 0.0000 0.0000 0.0000
# 2 8.2175 85.0476 11.4995 0.0000 0.0000 0.0000
# 3 32.9156 11.4995 109.2760 0.0000 0.0000 0.0000
# 4 0.0000 0.0000 0.0000 40.8547 0.0000 0.0000
# 5 0.0000 0.0000 0.0000 0.0000 19.1559 0.0000
# 6 0.0000 0.0000 0.0000 0.0000 0.0000 24.6686
#
#
#
# Elastic Compliance Matrix: (Units=1/GPa)
#
#
# Indices 1 2 3 4 5 6 
#
# 1 0.016848 -0.000955 -0.004974 0.000000 0.000000 0.000000
# 2 -0.000955 0.011982 -0.000973 0.000000 0.000000 0.000000
# 3 -0.004974 -0.000973 0.010752 0.000000 0.000000 0.000000
# 4 0.000000 0.000000 0.000000 0.024477 0.000000 0.000000
# 5 0.000000 0.000000 0.000000 0.000000 0.052203 0.000000
# 6 0.000000 0.000000 0.000000 0.000000 0.000000 0.040537
#
#
# Mechanical properties :
#
#
# Convention : Reuss Voigt Hill
#
# Bulk Modulus (GPa) = 38.79518 41.01406 39.90462
# Shear Modulus (GPa) = 27.90217 31.01777 29.45997
#
# Velocity S-wave (km/s) = 3.63810 3.83584 3.73828
# Velocity P-wave (km/s) = 6.00422 6.25091 6.12881
#
# Compressibility (1/GPa) = 0.02577640
#
# Stress axis : x y z
#
# Youngs Moduli (GPa) = 59.35339 83.45849 93.00667
#
# Poissons Ratio (x) = 0.07973 0.46265
# Poissons Ratio (y) = 0.05670 0.09051
# Poissons Ratio (z) = 0.29525 0.08122
#
# Static dielectric constant tensor:
#      x y z
#    x 4.377050 0.000000 0.000000 
#    y 0.000000 4.018770 0.000000 
#    z 0.000000 0.000000 4.003100 
# 
# 
# High freq. dielectric constant tensor:
#      x y z
#    x 1.830060 0.000000 0.000000 
#    y 0.000000 1.844840 0.000000 
#    z 0.000000 0.000000 1.844290 
# 
# From -- ./inp_files/21587.got.cif
#   From: 2010.03.12/outbox.cif.g09.slc.cpg/sg57_11_cif.got.tgz:21587.got - 2010.04.16 15:48:40.
