data_PCOD8234200
_publ_section_title
;
Structure prediction by ZEFSAII (Michael W. Deem and Ramdas Pophale) SiO2 
 PCOD8234200
Probable space group: P B C M
;
_chemical_formula_sum "Si O2"
_cell_formula_units_Z 48
_cell_length_a 9.680379
_cell_length_b 29.185933
_cell_length_c 8.956094
_cell_angle_alpha 90.000000
_cell_angle_beta 90.000000
_cell_angle_gamma 90.000000
_cell_volume 2530.373235
_symmetry_space_group_name_H-M "P B C M"
_symmetry_group_IT_number 57
_symmetry_cell_setting 'orthorhombic'
loop_
_space_group_symop_operation_xyz
x,y,z
-x,-y,1/2+z
x,1/2-y,-z
-x,1/2+y,1/2-z
-x,-y,-z
x,y,1/2-z
-x,1/2+y,z
x,1/2-y,1/2+z
loop_
_atom_site_type_symbol
_atom_site_label
_atom_site_fract_x
_atom_site_fract_y
_atom_site_fract_z
Si Si1 0.216001 0.702756 0.576076
Si Si2 0.378135 0.473385 0.078025
Si Si3 0.707143 0.878839 0.574175
Si Si4 0.468676 0.298741 0.426568
Si Si5 0.030633 0.628993 0.076084
Si Si6 0.107189 0.530791 0.418223
O O1 0.178098 0.750000 0.500000
O O2 0.197593 0.709578 0.750000
O O3 0.372734 0.687729 0.537128
O O4 0.103462 0.667282 0.520424
O O5 0.412869 0.461818 0.250000
O O6 0.256577 0.509775 0.065248
O O7 0.500000 0.500000 0.000000
O O8 0.344433 0.426570 0.993633
O O9 0.676253 0.879103 0.750000
O O10 0.627259 0.837244 0.497842
O O11 0.868434 0.872519 0.539768
O O12 0.431245 0.250000 0.500000
O O13 0.441772 0.295568 0.250000
O O14 0.058036 0.638608 0.250000
O O15 0.102668 0.582269 0.019081
O O16 0.054107 0.533095 0.250000
O O17 0.000000 0.500000 0.500000
#
# Coordination Sequence:
#
# PCOD8234200 Si02
#       6
#     8   8   8   8   8   8
#     4  10  22  40  63  90 118 153 194 242 295 351
#     4  11  24  40  60  89 122 159 201 247 297 352
#     4  11  23  40  62  88 120 159 199 246 298 350
#     4  10  22  41  63  90 120 155 198 245 297 356
#     4  10  22  39  60  88 120 156 197 242 293 351
#     4  10  21  39  61  86 118 158 198 241 292 345
#
# _framework density 18.969532999999998
#
# number of rings (size 3 to 8) (size 9 to 14) (size 15 to 20)
#    0.000    1.667    1.667    2.000    2.333    5.333 
#    0.000    0.000    0.000    0.000    0.000    0.000 
#    0.000    0.000    0.000    0.000    0.000    0.000 
#
# Total GULP energy -595268.212976 kJ/mol
# GULP energy per Si atom -12401.421104 kJ/mol
# Density = 1.892636 g / cm^3
# Si number density = 18.969533 Si / 1000 Ang^3
#
#
#
# Elastic Constant Matrix: (Units=GPa)
#
#
# Indices 1 2 3 4 5 6 
#
# 1 90.1103 78.5934 63.7625 0.0000 0.0000 0.0000
# 2 78.5934 167.0970 81.3298 0.0000 0.0000 0.0000
# 3 63.7625 81.3298 111.1847 0.0000 0.0000 0.0000
# 4 0.0000 0.0000 0.0000 40.7817 0.0000 0.0000
# 5 0.0000 0.0000 0.0000 0.0000 33.3529 0.0000
# 6 0.0000 0.0000 0.0000 0.0000 0.0000 22.6609
#
#
#
# Elastic Compliance Matrix: (Units=1/GPa)
#
#
# Indices 1 2 3 4 5 6 
#
# 1 0.022698 -0.006740 -0.008087 0.000000 0.000000 0.000000
# 2 -0.006740 0.011295 -0.004396 0.000000 0.000000 0.000000
# 3 -0.008087 -0.004396 0.016848 0.000000 0.000000 0.000000
# 4 0.000000 0.000000 0.000000 0.024521 0.000000 0.000000
# 5 0.000000 0.000000 0.000000 0.000000 0.029982 0.000000
# 6 0.000000 0.000000 0.000000 0.000000 0.000000 0.044129
#
#
# Mechanical properties :
#
#
# Convention : Reuss Voigt Hill
#
# Bulk Modulus (GPa) = 80.68551 90.64037 85.66294
# Shear Modulus (GPa) = 26.03473 29.00618 27.52046
#
# Velocity S-wave (km/s) = 3.70868 3.91460 3.81303
# Velocity P-wave (km/s) = 7.80805 8.26547 8.04001
#
# Compressibility (1/GPa) = 0.01239380
#
# Stress axis : x y z
#
# Youngs Moduli (GPa) = 44.05581 88.53819 59.35514
#
# Poissons Ratio (x) = 0.59675 0.48000
# Poissons Ratio (y) = 0.29694 0.26095
# Poissons Ratio (z) = 0.35628 0.38926
#
# Static dielectric constant tensor:
#      x y z
#    x 3.517330 0.000000 0.000000 
#    y 0.000000 3.530200 0.000000 
#    z 0.000000 0.000000 3.662830 
# 
# 
# High freq. dielectric constant tensor:
#      x y z
#    x 1.743870 0.000000 0.000000 
#    y 0.000000 1.752380 0.000000 
#    z 0.000000 0.000000 1.748890 
# 
# From -- ./inp_files/2058.got.cif
#   From: 2010.03.12/outbox.cif.g09.slc.cpg/sg57_2_cif.got.tgz:2058.got - 2010.04.16 15:48:40.
