data_PCOD8234918
_publ_section_title
;
Structure prediction by ZEFSAII (Michael W. Deem and Ramdas Pophale) SiO2 
 PCOD8234918
Probable space group: P B C M
;
_chemical_formula_sum "Si O2"
_cell_formula_units_Z 40
_cell_length_a 13.734745
_cell_length_b 18.096575
_cell_length_c 9.071007
_cell_angle_alpha 90.000000
_cell_angle_beta 90.000000
_cell_angle_gamma 90.000000
_cell_volume 2254.615508
_symmetry_space_group_name_H-M "P B C M"
_symmetry_group_IT_number 57
_symmetry_cell_setting 'orthorhombic'
loop_
_space_group_symop_operation_xyz
x,y,z
-x,-y,1/2+z
x,1/2-y,-z
-x,1/2+y,1/2-z
-x,-y,-z
x,y,1/2-z
-x,1/2+y,z
x,1/2-y,1/2+z
loop_
_atom_site_type_symbol
_atom_site_label
_atom_site_fract_x
_atom_site_fract_y
_atom_site_fract_z
Si Si1 0.201888 0.453005 0.576712
Si Si2 0.691097 0.323908 0.076078
Si Si3 0.403876 0.526018 0.578665
Si Si4 0.910260 0.828802 0.425841
Si Si5 0.886711 0.395278 0.424590
O O1 0.187842 0.436784 0.750000
O O2 0.313390 0.472931 0.540152
O O3 0.176438 0.381208 0.481117
O O4 0.132102 0.520456 0.523707
O O5 0.690916 0.312654 0.250000
O O6 0.620053 0.390441 0.029263
O O7 0.799952 0.342556 0.017756
O O8 0.652211 0.250000 0.000000
O O9 0.500000 0.500000 0.500000
O O10 0.424931 0.523580 0.750000
O O11 0.895804 0.750000 0.500000
O O12 0.907598 0.821041 0.250000
O O13 0.011304 0.864371 0.484357
O O14 0.883713 0.394867 0.250000
#
# Coordination Sequence:
#
# PCOD8234918 Si02
#       5
#     8   8   8   8   8
#     4   9  18  35  54  72  97 130 165 206 250 292
#     4   9  17  31  50  75 103 129 157 197 246 294
#     4   9  19  35  55  75  98 128 164 205 250 295
#     4  11  21  32  48  73 103 136 169 202 239 287
#     4   8  16  31  51  73 100 131 164 200 242 290
#
# _framework density 17.741382999999999
#
# number of rings (size 3 to 8) (size 9 to 14) (size 15 to 20)
#    0.000    2.800    0.000    4.200    0.000    1.600 
#    0.000    6.000    0.000    2.400    0.000    0.000 
#    0.000    0.000    0.000    0.000    0.000    0.000 
#
# Total GULP energy -495917.240377 kJ/mol
# GULP energy per Si atom -12397.931009 kJ/mol
# Density = 1.770100 g / cm^3
# Si number density = 17.741383 Si / 1000 Ang^3
#
#
#
# Elastic Constant Matrix: (Units=GPa)
#
#
# Indices 1 2 3 4 5 6 
#
# 1 117.3709 81.2975 47.2534 0.0000 0.0000 0.0000
# 2 81.2975 154.9325 55.0070 0.0000 0.0000 0.0000
# 3 47.2534 55.0070 51.8143 0.0000 0.0000 0.0000
# 4 0.0000 0.0000 0.0000 29.2498 0.0000 0.0000
# 5 0.0000 0.0000 0.0000 0.0000 28.3890 0.0000
# 6 0.0000 0.0000 0.0000 0.0000 0.0000 20.2458
#
#
#
# Elastic Compliance Matrix: (Units=1/GPa)
#
#
# Indices 1 2 3 4 5 6 
#
# 1 0.015567 -0.005020 -0.008867 0.000000 0.000000 0.000000
# 2 -0.005020 0.011978 -0.008137 0.000000 0.000000 0.000000
# 3 -0.008867 -0.008137 0.036025 0.000000 0.000000 0.000000
# 4 0.000000 0.000000 0.000000 0.034188 0.000000 0.000000
# 5 0.000000 0.000000 0.000000 0.000000 0.035225 0.000000
# 6 0.000000 0.000000 0.000000 0.000000 0.000000 0.049393
#
#
# Mechanical properties :
#
#
# Convention : Reuss Voigt Hill
#
# Bulk Modulus (GPa) = 51.22887 76.80371 64.01629
# Shear Modulus (GPa) = 21.46534 24.94759 23.20646
#
# Velocity S-wave (km/s) = 3.48214 3.75398 3.62061
# Velocity P-wave (km/s) = 6.71603 7.88508 7.32392
#
# Compressibility (1/GPa) = 0.01952024
#
# Stress axis : x y z
#
# Youngs Moduli (GPa) = 64.23695 83.48729 27.75828
#
# Poissons Ratio (x) = 0.41914 0.24614
# Poissons Ratio (y) = 0.32250 0.22588
# Poissons Ratio (z) = 0.56961 0.67937
#
# Static dielectric constant tensor:
#      x y z
#    x 3.453240 0.000000 0.000000 
#    y 0.000000 3.257090 0.000000 
#    z 0.000000 0.000000 3.002180 
# 
# 
# High freq. dielectric constant tensor:
#      x y z
#    x 1.675990 0.000000 0.000000 
#    y 0.000000 1.692520 0.000000 
#    z 0.000000 0.000000 1.667010 
# 
# From -- ./inp_files/2679.got.cif
#   From: 2010.03.12/outbox.cif.g09.slc.cpg/sg57_2_cif.got.tgz:2679.got - 2010.04.16 15:48:40.
