data_PCOD8234714
_publ_section_title
;
Structure prediction by ZEFSAII (Michael W. Deem and Ramdas Pophale) SiO2 
 PCOD8234714
Probable space group: P B C M
;
_chemical_formula_sum "Si O2"
_cell_formula_units_Z 32
_cell_length_a 20.690999
_cell_length_b 8.969969
_cell_length_c 8.572990
_cell_angle_alpha 90.000000
_cell_angle_beta 90.000000
_cell_angle_gamma 90.000000
_cell_volume 1591.126537
_symmetry_space_group_name_H-M "P B C M"
_symmetry_group_IT_number 57
_symmetry_cell_setting 'orthorhombic'
loop_
_space_group_symop_operation_xyz
x,y,z
-x,-y,1/2+z
x,1/2-y,-z
-x,1/2+y,1/2-z
-x,-y,-z
x,y,1/2-z
-x,1/2+y,z
x,1/2-y,1/2+z
loop_
_atom_site_type_symbol
_atom_site_label
_atom_site_fract_x
_atom_site_fract_y
_atom_site_fract_z
Si Si1 0.811906 0.085742 0.433721
Si Si2 0.316374 0.415128 0.064803
Si Si3 0.061391 0.084917 0.935112
Si Si4 0.561328 0.085039 0.565433
O O1 0.809419 0.250000 0.500000
O O2 0.814213 0.097595 0.250000
O O3 0.749216 0.995368 0.489070
O O4 0.875057 0.000447 0.496468
O O5 0.325144 0.414086 0.250000
O O6 0.314713 0.250000 0.000000
O O7 0.374632 0.501743 0.986531
O O8 0.058204 0.089785 0.750000
O O9 0.062909 0.250000 0.000000
O O10 0.000000 0.000000 0.000000
O O11 0.562397 0.250000 0.500000
O O12 0.557161 0.090267 0.750000
O O13 0.500000 0.000000 0.500000
#
# Coordination Sequence:
#
# PCOD8234714 Si02
#       4
#     8   8   8   8
#     4  10  23  40  61  88 121 158 201 248 301 358
#     4  11  23  41  63  91 123 160 202 249 301 358
#     4  11  23  40  61  89 121 159 202 250 302 359
#     4  12  25  43  65  92 124 161 202 249 300 357
#
# _framework density 20.111536999999998
#
# number of rings (size 3 to 8) (size 9 to 14) (size 15 to 20)
#    0.000    1.000    0.000    6.750    0.000    8.000 
#    0.000    0.000    0.000    0.000    0.000    0.000 
#    0.000    0.000    0.000    0.000    0.000    0.000 
#
# Total GULP energy -396981.673462 kJ/mol
# GULP energy per Si atom -12405.677296 kJ/mol
# Density = 2.006576 g / cm^3
# Si number density = 20.111537 Si / 1000 Ang^3
#
#
#
# Elastic Constant Matrix: (Units=GPa)
#
#
# Indices 1 2 3 4 5 6 
#
# 1 218.2979 121.4806 74.7750 0.0000 0.0000 0.0000
# 2 121.4806 229.0103 69.8835 0.0000 0.0000 0.0000
# 3 74.7750 69.8835 113.9263 0.0000 0.0000 0.0000
# 4 0.0000 0.0000 0.0000 43.9203 0.0000 0.0000
# 5 0.0000 0.0000 0.0000 0.0000 34.3147 0.0000
# 6 0.0000 0.0000 0.0000 0.0000 0.0000 51.0363
#
#
#
# Elastic Compliance Matrix: (Units=1/GPa)
#
#
# Indices 1 2 3 4 5 6 
#
# 1 0.007220 -0.002933 -0.002940 0.000000 0.000000 0.000000
# 2 -0.002933 0.006564 -0.002101 0.000000 0.000000 0.000000
# 3 -0.002940 -0.002101 0.011996 0.000000 0.000000 0.000000
# 4 0.000000 0.000000 0.000000 0.022768 0.000000 0.000000
# 5 0.000000 0.000000 0.000000 0.000000 0.029142 0.000000
# 6 0.000000 0.000000 0.000000 0.000000 0.000000 0.019594
#
#
# Mechanical properties :
#
#
# Convention : Reuss Voigt Hill
#
# Bulk Modulus (GPa) = 101.70934 121.50141 111.60537
# Shear Modulus (GPa) = 42.91519 45.52728 44.22124
#
# Velocity S-wave (km/s) = 4.62438 4.76304 4.69422
# Velocity P-wave (km/s) = 8.89919 9.52857 9.21925
#
# Compressibility (1/GPa) = 0.00983194
#
# Stress axis : x y z
#
# Youngs Moduli (GPa) = 138.50507 152.35683 83.36099
#
# Poissons Ratio (x) = 0.44683 0.24506
# Poissons Ratio (y) = 0.40621 0.17516
# Poissons Ratio (z) = 0.40717 0.32013
#
# Static dielectric constant tensor:
#      x y z
#    x 4.517530 0.000000 0.000000 
#    y 0.000000 3.841220 0.000000 
#    z 0.000000 0.000000 3.827180 
# 
# 
# High freq. dielectric constant tensor:
#      x y z
#    x 1.811000 0.000000 0.000000 
#    y 0.000000 1.809610 0.000000 
#    z 0.000000 0.000000 1.796290 
# 
# From -- ./inp_files/7532.got.cif
#   From: 2010.03.12/outbox.cif.g09.slc.cpg/sg57_4_cif.got.tgz:7532.got - 2010.04.16 15:48:40.
