data_PCOD8234664
_publ_section_title
;
Structure prediction by ZEFSAII (Michael W. Deem and Ramdas Pophale) SiO2 
 PCOD8234664
Probable space group: P B C M
;
_chemical_formula_sum "Si O2"
_cell_formula_units_Z 64
_cell_length_a 11.648649
_cell_length_b 14.848380
_cell_length_c 17.646246
_cell_angle_alpha 90.000000
_cell_angle_beta 90.000000
_cell_angle_gamma 90.000000
_cell_volume 3052.157649
_symmetry_space_group_name_H-M "P B C M"
_symmetry_group_IT_number 57
_symmetry_cell_setting 'orthorhombic'
loop_
_space_group_symop_operation_xyz
x,y,z
-x,-y,1/2+z
x,1/2-y,-z
-x,1/2+y,1/2-z
-x,-y,-z
x,y,1/2-z
-x,1/2+y,z
x,1/2-y,1/2+z
loop_
_atom_site_type_symbol
_atom_site_label
_atom_site_fract_x
_atom_site_fract_y
_atom_site_fract_z
Si Si1 0.961109 0.927197 0.938319
Si Si2 0.852348 0.610765 0.667022
Si Si3 0.650060 0.368044 0.161523
Si Si4 0.160736 0.898531 0.665911
Si Si5 0.429139 0.461755 0.931890
Si Si6 0.244219 0.152903 0.986767
Si Si7 0.409617 0.670020 0.339465
Si Si8 0.896604 0.080157 0.662656
O O1 0.065420 0.873397 0.897266
O O2 0.887588 0.983215 0.877337
O O3 0.883116 0.851620 0.977516
O O4 0.000000 0.000000 0.000000
O O5 0.823492 0.653668 0.750000
O O6 0.838744 0.504854 0.672914
O O7 0.762436 0.643943 0.604401
O O8 0.984644 0.632690 0.642887
O O9 0.633522 0.383848 0.250000
O O10 0.596070 0.454533 0.122172
O O11 0.586347 0.275771 0.137126
O O12 0.786098 0.359025 0.141237
O O13 0.134009 0.856698 0.750000
O O14 0.284471 0.866248 0.637209
O O15 0.494173 0.383476 0.885852
O O16 0.500000 0.500000 0.000000
O O17 0.315809 0.423359 0.971242
O O18 0.300162 0.250000 0.000000
O O19 0.431478 0.656854 0.250000
O O20 0.896656 0.054774 0.750000
#
# Coordination Sequence:
#
# PCOD8234664 Si02
#       8
#     8   8   8   8   8   8   8   8
#     4  11  19  36  61  88 130 168 208 253 322 383
#     4   9  18  38  64  90 127 176 211 245 317 394
#     4  10  22  42  69  97 124 166 216 272 333 385
#     4   9  18  36  65  96 126 164 214 267 316 380
#     4  12  27  44  68  88 129 174 219 272 332 384
#     4  12  26  41  59  96 137 165 212 272 320 386
#     4  10  23  44  67  97 129 164 225 279 322 390
#     4   9  17  33  62  93 122 161 210 259 315 389
#
# _framework density 20.968772999999999
#
# number of rings (size 3 to 8) (size 9 to 14) (size 15 to 20)
#    0.000    1.750    3.750    2.250    1.750    1.000 
#    0.000    4.375    0.000    0.000    0.000    0.000 
#    0.000    0.000    0.000    0.000    0.000    0.000 
#
# Total GULP energy -793232.670946 kJ/mol
# GULP energy per Si atom -12394.260484 kJ/mol
# Density = 2.092105 g / cm^3
# Si number density = 20.968773 Si / 1000 Ang^3
#
#
#
# Elastic Constant Matrix: (Units=GPa)
#
#
# Indices 1 2 3 4 5 6 
#
# 1 96.8903 50.9549 60.6364 0.0000 0.0000 0.0000
# 2 50.9549 96.2172 44.2890 0.0000 0.0000 0.0000
# 3 60.6364 44.2890 108.1872 0.0000 0.0000 0.0000
# 4 0.0000 0.0000 0.0000 19.9346 0.0000 0.0000
# 5 0.0000 0.0000 0.0000 0.0000 27.8695 0.0000
# 6 0.0000 0.0000 0.0000 0.0000 0.0000 26.1082
#
#
#
# Elastic Compliance Matrix: (Units=1/GPa)
#
#
# Indices 1 2 3 4 5 6 
#
# 1 0.018464 -0.006179 -0.007819 0.000000 0.000000 0.000000
# 2 -0.006179 0.014874 -0.002626 0.000000 0.000000 0.000000
# 3 -0.007819 -0.002626 0.014701 0.000000 0.000000 0.000000
# 4 0.000000 0.000000 0.000000 0.050164 0.000000 0.000000
# 5 0.000000 0.000000 0.000000 0.000000 0.035881 0.000000
# 6 0.000000 0.000000 0.000000 0.000000 0.000000 0.038302
#
#
# Mechanical properties :
#
#
# Convention : Reuss Voigt Hill
#
# Bulk Modulus (GPa) = 67.60997 68.11727 67.86362
# Shear Modulus (GPa) = 23.74571 24.47677 24.11124
#
# Velocity S-wave (km/s) = 3.36881 3.42028 3.39464
# Velocity P-wave (km/s) = 6.88804 6.93926 6.91370
#
# Compressibility (1/GPa) = 0.01479072
#
# Stress axis : x y z
#
# Youngs Moduli (GPa) = 54.15983 67.23072 68.02444
#
# Poissons Ratio (x) = 0.41542 0.53189
# Poissons Ratio (y) = 0.33465 0.17863
# Poissons Ratio (z) = 0.42348 0.17654
#
# Static dielectric constant tensor:
#      x y z
#    x 3.998590 0.000000 0.000000 
#    y 0.000000 3.591810 0.000000 
#    z 0.000000 0.000000 4.384840 
# 
# 
# High freq. dielectric constant tensor:
#      x y z
#    x 1.814900 0.000000 0.000000 
#    y 0.000000 1.800360 0.000000 
#    z 0.000000 0.000000 1.834430 
# 
# From -- ./inp_files/22056.got.cif
#   From: 2010.03.12/outbox.cif.g09.slc.cpg/sg57_12_cif.got.tgz:22056.got - 2010.04.16 15:48:40.
