data_PCOD8234427
_publ_section_title
;
Structure prediction by ZEFSAII (Michael W. Deem and Ramdas Pophale) SiO2 
 PCOD8234427
Probable space group: P B C M
;
_chemical_formula_sum "Si O2"
_cell_formula_units_Z 24
_cell_length_a 9.164049
_cell_length_b 10.668420
_cell_length_c 8.997623
_cell_angle_alpha 90.000000
_cell_angle_beta 90.000000
_cell_angle_gamma 90.000000
_cell_volume 879.660923
_symmetry_space_group_name_H-M "P B C M"
_symmetry_group_IT_number 57
_symmetry_cell_setting 'orthorhombic'
loop_
_space_group_symop_operation_xyz
x,y,z
-x,-y,1/2+z
x,1/2-y,-z
-x,1/2+y,1/2-z
-x,-y,-z
x,y,1/2-z
-x,1/2+y,z
x,1/2-y,1/2+z
loop_
_atom_site_type_symbol
_atom_site_label
_atom_site_fract_x
_atom_site_fract_y
_atom_site_fract_z
Si Si1 0.038252 0.839690 0.750000
Si Si2 0.265073 0.430229 0.250000
Si Si3 0.436700 0.081611 0.250000
Si Si4 0.268831 0.862587 0.250000
Si Si5 0.460269 0.750000 0.000000
Si Si6 0.154325 0.250000 0.000000
O O1 0.110918 0.699289 0.750000
O O2 0.944164 0.843071 0.600291
O O3 0.156071 0.950911 0.750000
O O4 0.429516 0.482729 0.250000
O O5 0.248536 0.342554 0.105465
O O6 0.436868 0.163745 0.398489
O O7 0.276843 0.014491 0.250000
O O8 0.353623 0.829116 0.101172
#
# Coordination Sequence:
#
# PCOD8234427 Si02
#       6
#     4   4   4   4   4   4
#     4  11  21  43  73 102 140 185 241 283 368 416
#     4  11  23  45  70  97 146 177 239 302 346 427
#     4  11  24  42  73 105 145 191 233 292 362 414
#     4  11  22  40  72 108 139 191 229 289 348 443
#     4  10  21  43  64 102 144 187 235 278 356 424
#     4  10  25  43  70 106 130 189 243 298 348 408
#
# _framework density 27.283238999999998
#
# number of rings (size 3 to 8) (size 9 to 14) (size 15 to 20)
#    0.000    1.333    3.333    3.000    0.000    1.333 
#    0.000    5.000    0.000    0.000    0.000    0.000 
#    0.000    0.000    0.000    0.000    0.000    0.000 
#
# Total GULP energy -297539.717336 kJ/mol
# GULP energy per Si atom -12397.488222 kJ/mol
# Density = 2.722114 g / cm^3
# Si number density = 27.283239 Si / 1000 Ang^3
#
#
#
# Elastic Constant Matrix: (Units=GPa)
#
#
# Indices 1 2 3 4 5 6 
#
# 1 79.8017 69.9616 52.4151 0.0000 0.0000 0.0000
# 2 69.9616 128.4142 63.8458 0.0000 0.0000 0.0000
# 3 52.4151 63.8458 211.4428 0.0000 0.0000 0.0000
# 4 0.0000 0.0000 0.0000 140.6482 0.0000 0.0000
# 5 0.0000 0.0000 0.0000 0.0000 47.7361 0.0000
# 6 0.0000 0.0000 0.0000 0.0000 0.0000 2.2648
#
#
#
# Elastic Compliance Matrix: (Units=1/GPa)
#
#
# Indices 1 2 3 4 5 6 
#
# 1 0.025028 -0.012414 -0.002456 0.000000 0.000000 0.000000
# 2 -0.012414 0.015321 -0.001549 0.000000 0.000000 0.000000
# 3 -0.002456 -0.001549 0.005806 0.000000 0.000000 0.000000
# 4 0.000000 0.000000 0.000000 0.007110 0.000000 0.000000
# 5 0.000000 0.000000 0.000000 0.000000 0.020948 0.000000
# 6 0.000000 0.000000 0.000000 0.000000 0.000000 0.441542
#
#
# Mechanical properties :
#
#
# Convention : Reuss Voigt Hill
#
# Bulk Modulus (GPa) = 75.09364 88.01152 81.55258
# Shear Modulus (GPa) = 9.04109 53.69224 31.36666
#
# Velocity S-wave (km/s) = 1.82236 4.44098 3.39435
# Velocity P-wave (km/s) = 5.65787 7.65669 6.73188
#
# Compressibility (1/GPa) = 0.01331671
#
# Stress axis : x y z
#
# Youngs Moduli (GPa) = 39.95591 65.27050 172.24234
#
# Poissons Ratio (x) = 0.81030 0.42295
# Poissons Ratio (y) = 0.49603 0.26676
# Poissons Ratio (z) = 0.09811 0.10109
#
# Static dielectric constant tensor:
#      x y z
#    x 4.985430 0.000000 0.000000 
#    y 0.000000 5.357070 0.000000 
#    z 0.000000 0.000000 5.237780 
# 
# 
# High freq. dielectric constant tensor:
#      x y z
#    x 2.104930 0.000000 0.000000 
#    y 0.000000 2.110770 0.000000 
#    z 0.000000 0.000000 2.130900 
# 
# From -- ./inp_files/954.got.cif
#   From: 2010.03.12/outbox.cif.g09.slc.cpg/sg57_1_cif.got.tgz:954.got - 2010.04.16 15:48:40.
