data_PCOD8234421
_publ_section_title
;
Structure prediction by ZEFSAII (Michael W. Deem and Ramdas Pophale) SiO2 
 PCOD8234421
Probable space group: P B C M
;
_chemical_formula_sum "Si O2"
_cell_formula_units_Z 64
_cell_length_a 14.223291
_cell_length_b 12.204097
_cell_length_c 17.572139
_cell_angle_alpha 90.000000
_cell_angle_beta 90.000000
_cell_angle_gamma 90.000000
_cell_volume 3050.214465
_symmetry_space_group_name_H-M "P B C M"
_symmetry_group_IT_number 57
_symmetry_cell_setting 'orthorhombic'
loop_
_space_group_symop_operation_xyz
x,y,z
-x,-y,1/2+z
x,1/2-y,-z
-x,1/2+y,1/2-z
-x,-y,-z
x,y,1/2-z
-x,1/2+y,z
x,1/2-y,1/2+z
loop_
_atom_site_type_symbol
_atom_site_label
_atom_site_fract_x
_atom_site_fract_y
_atom_site_fract_z
Si Si1 0.246489 0.130536 0.164035
Si Si2 0.316733 0.783408 0.584560
Si Si3 0.112474 0.392316 0.049052
Si Si4 0.687879 0.821221 0.063450
Si Si5 0.050516 0.164460 0.392816
Si Si6 0.857837 0.404797 0.838875
Si Si7 0.372636 0.559670 0.661458
Si Si8 0.450059 0.987034 0.580258
O O1 0.279931 0.129345 0.250000
O O2 0.284034 0.246099 0.133848
O O3 0.134443 0.117384 0.158669
O O4 0.296419 0.024865 0.125630
O O5 0.283359 0.750000 0.500000
O O6 0.228210 0.831950 0.630541
O O7 0.359245 0.676020 0.622406
O O8 0.402613 0.868646 0.585122
O O9 0.217707 0.363095 0.020139
O O10 0.065692 0.292235 0.092964
O O11 0.122868 0.490545 0.108241
O O12 0.051096 0.408370 0.971512
O O13 0.629712 0.922665 0.093653
O O14 0.631185 0.750000 0.000000
O O15 0.954063 0.162283 0.346189
O O16 0.839782 0.435829 0.750000
O O17 0.358643 0.579528 0.750000
O O18 0.474635 0.506374 0.646536
O O19 0.500000 0.000000 0.500000
#
# Coordination Sequence:
#
# PCOD8234421 Si02
#       8
#     8   8   8   8   8   8   8   8
#     4  10  22  41  68  99 134 174 224 282 342 398
#     4  12  28  47  73  99 142 184 234 284 343 424
#     4  10  21  42  68  99 130 177 228 285 337 407
#     4  11  21  40  69  94 133 166 222 287 339 403
#     4  10  22  42  71 100 133 179 236 283 336 414
#     4  12  27  44  67 103 145 183 226 286 356 419
#     4  11  27  46  68 101 142 182 227 285 354 414
#     4  12  26  44  70 102 129 179 234 285 336 413
#
# _framework density 20.982132
#
# number of rings (size 3 to 8) (size 9 to 14) (size 15 to 20)
#    0.000    1.000    5.000    1.875    7.000    5.000 
#    0.000    0.000    0.000    0.000    0.000    0.000 
#    0.000    0.000    0.000    0.000    0.000    0.000 
#
# Total GULP energy -793427.568249 kJ/mol
# GULP energy per Si atom -12397.305754 kJ/mol
# Density = 2.093438 g / cm^3
# Si number density = 20.982132 Si / 1000 Ang^3
#
#
#
# Elastic Constant Matrix: (Units=GPa)
#
#
# Indices 1 2 3 4 5 6 
#
# 1 106.4896 41.9895 24.6208 0.0000 0.0000 0.0000
# 2 41.9895 102.6227 34.7618 0.0000 0.0000 0.0000
# 3 24.6208 34.7618 93.1900 0.0000 0.0000 0.0000
# 4 0.0000 0.0000 0.0000 29.0596 0.0000 0.0000
# 5 0.0000 0.0000 0.0000 0.0000 31.9064 0.0000
# 6 0.0000 0.0000 0.0000 0.0000 0.0000 20.0575
#
#
#
# Elastic Compliance Matrix: (Units=1/GPa)
#
#
# Indices 1 2 3 4 5 6 
#
# 1 0.011366 -0.004159 -0.001452 0.000000 0.000000 0.000000
# 2 -0.004159 0.012676 -0.003629 0.000000 0.000000 0.000000
# 3 -0.001452 -0.003629 0.012468 0.000000 0.000000 0.000000
# 4 0.000000 0.000000 0.000000 0.034412 0.000000 0.000000
# 5 0.000000 0.000000 0.000000 0.000000 0.031342 0.000000
# 6 0.000000 0.000000 0.000000 0.000000 0.000000 0.049857
#
#
# Mechanical properties :
#
#
# Convention : Reuss Voigt Hill
#
# Bulk Modulus (GPa) = 55.46341 56.11628 55.78985
# Shear Modulus (GPa) = 28.31099 29.60005 28.95552
#
# Velocity S-wave (km/s) = 3.67725 3.76004 3.71888
# Velocity P-wave (km/s) = 6.67238 6.75673 6.71469
#
# Compressibility (1/GPa) = 0.01802990
#
# Stress axis : x y z
#
# Youngs Moduli (GPa) = 87.98111 78.89221 80.20455
#
# Poissons Ratio (x) = 0.32810 0.11642
# Poissons Ratio (y) = 0.36590 0.29110
# Poissons Ratio (z) = 0.12771 0.28634
#
# Static dielectric constant tensor:
#      x y z
#    x 4.037500 0.000000 0.000000 
#    y 0.000000 3.983810 0.000000 
#    z 0.000000 0.000000 3.823740 
# 
# 
# High freq. dielectric constant tensor:
#      x y z
#    x 1.826760 0.000000 0.000000 
#    y 0.000000 1.830310 0.000000 
#    z 0.000000 0.000000 1.823140 
# 
# From -- ./inp_files/22631.got.cif
#   From: 2010.03.12/outbox.cif.g09.slc.cpg/sg57_12_cif.got.tgz:22631.got - 2010.04.16 15:48:40.
