data_PCOD8234913
_publ_section_title
;
Structure prediction by ZEFSAII (Michael W. Deem and Ramdas Pophale) SiO2 
 PCOD8234913
Probable space group: P B C M
;
_chemical_formula_sum "Si O2"
_cell_formula_units_Z 64
_cell_length_a 22.900334
_cell_length_b 19.817588
_cell_length_c 9.104468
_cell_angle_alpha 90.000000
_cell_angle_beta 90.000000
_cell_angle_gamma 90.000000
_cell_volume 4131.875107
_symmetry_space_group_name_H-M "P B C M"
_symmetry_group_IT_number 57
_symmetry_cell_setting 'orthorhombic'
loop_
_space_group_symop_operation_xyz
x,y,z
-x,-y,1/2+z
x,1/2-y,-z
-x,1/2+y,1/2-z
-x,-y,-z
x,y,1/2-z
-x,1/2+y,z
x,1/2-y,1/2+z
loop_
_atom_site_type_symbol
_atom_site_label
_atom_site_fract_x
_atom_site_fract_y
_atom_site_fract_z
Si Si1 0.819313 0.936123 0.424513
Si Si2 0.917792 0.468292 0.587750
Si Si3 0.494557 0.100201 0.911944
Si Si4 0.387080 0.319038 0.424697
Si Si5 0.992024 0.896238 0.414288
Si Si6 0.106661 0.178637 0.073173
Si Si7 0.312950 0.443686 0.075516
Si Si8 0.585425 0.468739 0.587785
O O1 0.824156 0.919640 0.250000
O O2 0.854111 0.005206 0.462596
O O3 0.844674 0.873734 0.516584
O O4 0.753478 0.949900 0.477584
O O5 0.914751 0.436015 0.750000
O O6 0.943324 0.411150 0.479291
O O7 0.958445 0.533691 0.591646
O O8 0.513963 0.121714 0.750000
O O9 0.451688 0.157498 0.978470
O O10 0.458331 0.031410 0.906418
O O11 0.554907 0.092268 0.000568
O O12 0.369437 0.250000 0.500000
O O13 0.386044 0.311597 0.250000
O O14 0.338826 0.372616 0.479460
O O15 0.998077 0.865755 0.250000
O O16 0.957612 0.844072 0.518354
O O17 0.107559 0.182872 0.250000
O O18 0.122161 0.250000 0.000000
O O19 0.317858 0.446132 0.250000
O O20 0.353233 0.505692 0.015204
O O21 0.597243 0.440443 0.750000
#
# Coordination Sequence:
#
# PCOD8234913 Si02
#       8
#     8   8   8   8   8   8   8   8
#     4   9  17  30  45  60  82 112 143 171 201 238
#     4   8  14  24  40  61  81 103 131 164 203 244
#     4   8  14  24  37  54  76  99 124 162 208 245
#     4   9  17  28  40  55  78 108 140 171 204 238
#     4   9  16  27  43  61  80 103 132 167 208 247
#     4  11  21  32  44  59  82 110 142 175 205 239
#     4   8  15  28  43  58  80 109 138 170 203 235
#     4   8  13  23  40  58  74  97 129 162 200 244
#
# _framework density 15.489335000000001
#
# number of rings (size 3 to 8) (size 9 to 14) (size 15 to 20)
#    0.000    3.250    0.000    3.750    0.000    4.000 
#    0.000    4.375    0.000    0.000    0.000    0.000 
#    0.000    1.000    0.000    4.250    0.000    4.125 
#
# Total GULP energy -792962.239856 kJ/mol
# GULP energy per Si atom -12390.034998 kJ/mol
# Density = 1.545408 g / cm^3
# Si number density = 15.489335 Si / 1000 Ang^3
#
#
#
# Elastic Constant Matrix: (Units=GPa)
#
#
# Indices 1 2 3 4 5 6 
#
# 1 127.0008 42.2687 42.2037 0.0000 0.0000 0.0000
# 2 42.2687 16.6133 15.9093 0.0000 0.0000 0.0000
# 3 42.2037 15.9093 68.8032 0.0000 0.0000 0.0000
# 4 0.0000 0.0000 0.0000 20.5295 0.0000 0.0000
# 5 0.0000 0.0000 0.0000 0.0000 18.3818 0.0000
# 6 0.0000 0.0000 0.0000 0.0000 0.0000 15.1472
#
#
#
# Elastic Compliance Matrix: (Units=1/GPa)
#
#
# Indices 1 2 3 4 5 6 
#
# 1 0.051540 -0.129542 -0.001661 0.000000 0.000000 0.000000
# 2 -0.129542 0.402903 -0.013702 0.000000 0.000000 0.000000
# 3 -0.001661 -0.013702 0.018721 0.000000 0.000000 0.000000
# 4 0.000000 0.000000 0.000000 0.048710 0.000000 0.000000
# 5 0.000000 0.000000 0.000000 0.000000 0.054402 0.000000
# 6 0.000000 0.000000 0.000000 0.000000 0.000000 0.066019
#
#
# Mechanical properties :
#
#
# Convention : Reuss Voigt Hill
#
# Bulk Modulus (GPa) = 5.45391 45.90898 25.68144
# Shear Modulus (GPa) = 5.03411 18.28073 11.65742
#
# Velocity S-wave (km/s) = 1.80474 3.43915 2.74635
# Velocity P-wave (km/s) = 2.80562 6.74343 5.16456
#
# Compressibility (1/GPa) = 0.18335481
#
# Stress axis : x y z
#
# Youngs Moduli (GPa) = 19.40228 2.48198 53.41490
#
# Poissons Ratio (x) = 0.32152 0.08871
# Poissons Ratio (y) = 2.51341 0.73191
# Poissons Ratio (z) = 0.03222 0.03401
#
# Static dielectric constant tensor:
#      x y z
#    x 3.169040 0.000000 0.000000 
#    y 0.000000 2.729800 0.000000 
#    z 0.000000 0.000000 3.020610 
# 
# 
# High freq. dielectric constant tensor:
#      x y z
#    x 1.583080 0.000000 0.000000 
#    y 0.000000 1.551190 0.000000 
#    z 0.000000 0.000000 1.586050 
# 
# From -- ./inp_files/8726.got.cif
#   From: 2010.03.12/outbox.cif.g09.slc.cpg/sg57_5_cif.got.tgz:8726.got - 2010.04.16 15:48:40.
