data_PCOD8234124
_publ_section_title
;
Structure prediction by ZEFSAII (Michael W. Deem and Ramdas Pophale) SiO2 
 PCOD8234124
Probable space group: P B C M
;
_chemical_formula_sum "Si O2"
_cell_formula_units_Z 64
_cell_length_a 14.244920
_cell_length_b 25.593890
_cell_length_c 8.788712
_cell_angle_alpha 90.000000
_cell_angle_beta 90.000000
_cell_angle_gamma 90.000000
_cell_volume 3204.214245
_symmetry_space_group_name_H-M "P B C M"
_symmetry_group_IT_number 57
_symmetry_cell_setting 'orthorhombic'
loop_
_space_group_symop_operation_xyz
x,y,z
-x,-y,1/2+z
x,1/2-y,-z
-x,1/2+y,1/2-z
-x,-y,-z
x,y,1/2-z
-x,1/2+y,z
x,1/2-y,1/2+z
loop_
_atom_site_type_symbol
_atom_site_label
_atom_site_fract_x
_atom_site_fract_y
_atom_site_fract_z
Si Si1 0.381011 0.602028 0.574607
Si Si2 0.716012 0.995104 0.570136
Si Si3 0.698663 0.693813 0.069886
Si Si4 0.910154 0.804885 0.928593
Si Si5 0.726339 0.305685 0.570308
Si Si6 0.909916 0.137081 0.430373
Si Si7 0.599923 0.597240 0.573605
Si Si8 0.904241 0.019881 0.430508
O O1 0.358523 0.613966 0.750000
O O2 0.325697 0.550747 0.517695
O O3 0.351461 0.652009 0.476478
O O4 0.489813 0.590700 0.548665
O O5 0.725997 0.991226 0.750000
O O6 0.648622 0.949408 0.515536
O O7 0.817740 0.986286 0.494713
O O8 0.683322 0.695911 0.250000
O O9 0.805333 0.676878 0.027219
O O10 0.674896 0.750000 0.000000
O O11 0.629369 0.652620 0.995235
O O12 0.918989 0.798199 0.750000
O O13 0.987525 0.845596 0.991389
O O14 0.935691 0.750000 0.000000
O O15 0.700434 0.250000 0.500000
O O16 0.725601 0.300048 0.750000
O O17 0.828233 0.324576 0.508640
O O18 0.909333 0.137574 0.250000
O O19 0.889395 0.079026 0.488969
O O20 0.628025 0.594875 0.750000
O O21 0.908341 0.015215 0.250000
O O22 0.000000 0.000000 0.500000
#
# Coordination Sequence:
#
# PCOD8234124 Si02
#       8
#     8   8   8   8   8   8   8   8
#     4  10  23  43  64  89 121 158 203 258 313 370
#     4  11  23  42  66  92 123 160 204 253 309 371
#     4  10  21  38  61  88 122 161 201 250 305 364
#     4   9  18  34  55  81 113 150 190 235 286 345
#     4  11  22  38  62  91 124 164 208 257 313 372
#     4   9  19  36  58  84 119 158 196 243 297 358
#     4  11  24  41  64  92 121 156 204 257 311 375
#     4  11  23  40  61  91 127 165 204 246 305 366
#
# _framework density 19.973693999999998
#
# number of rings (size 3 to 8) (size 9 to 14) (size 15 to 20)
#    0.000    1.750    1.250    2.625    1.750    2.500 
#    0.000    1.875    0.000    0.000    0.000    0.000 
#    0.000    0.000    0.000    0.000    0.000    0.000 
#
# Total GULP energy -793798.978600 kJ/mol
# GULP energy per Si atom -12403.109041 kJ/mol
# Density = 1.992823 g / cm^3
# Si number density = 19.973694 Si / 1000 Ang^3
#
#
#
# Elastic Constant Matrix: (Units=GPa)
#
#
# Indices 1 2 3 4 5 6 
#
# 1 109.7670 48.8939 45.4545 0.0000 0.0000 0.0000
# 2 48.8939 113.7776 46.9406 0.0000 0.0000 0.0000
# 3 45.4545 46.9406 79.0943 0.0000 0.0000 0.0000
# 4 0.0000 0.0000 0.0000 34.9235 0.0000 0.0000
# 5 0.0000 0.0000 0.0000 0.0000 29.6702 0.0000
# 6 0.0000 0.0000 0.0000 0.0000 0.0000 39.9549
#
#
#
# Elastic Compliance Matrix: (Units=1/GPa)
#
#
# Indices 1 2 3 4 5 6 
#
# 1 0.012812 -0.003268 -0.005423 0.000000 0.000000 0.000000
# 2 -0.003268 0.012473 -0.005524 0.000000 0.000000 0.000000
# 3 -0.005423 -0.005524 0.019038 0.000000 0.000000 0.000000
# 4 0.000000 0.000000 0.000000 0.028634 0.000000 0.000000
# 5 0.000000 0.000000 0.000000 0.000000 0.033704 0.000000
# 6 0.000000 0.000000 0.000000 0.000000 0.000000 0.025028
#
#
# Mechanical properties :
#
#
# Convention : Reuss Voigt Hill
#
# Bulk Modulus (GPa) = 62.92581 65.02410 63.97495
# Shear Modulus (GPa) = 30.22677 31.66636 30.94657
#
# Velocity S-wave (km/s) = 3.89437 3.98603 3.94047
# Velocity P-wave (km/s) = 7.19682 7.33554 7.26651
#
# Compressibility (1/GPa) = 0.01589173
#
# Stress axis : x y z
#
# Youngs Moduli (GPa) = 78.05375 80.17626 52.52627
#
# Poissons Ratio (x) = 0.26203 0.28486
# Poissons Ratio (y) = 0.25510 0.29015
# Poissons Ratio (z) = 0.42329 0.44289
#
# Static dielectric constant tensor:
#      x y z
#    x 3.789010 0.000000 0.000000 
#    y 0.000000 3.635520 0.000000 
#    z 0.000000 0.000000 3.566350 
# 
# 
# High freq. dielectric constant tensor:
#      x y z
#    x 1.790970 0.000000 0.000000 
#    y 0.000000 1.784870 0.000000 
#    z 0.000000 0.000000 1.774350 
# 
# From -- ./inp_files/5648.got.cif
#   From: 2010.03.12/outbox.cif.g09.slc.cpg/sg57_3_cif.got.tgz:5648.got - 2010.04.16 15:48:40.
