data_PCOD8234403
_publ_section_title
;
Structure prediction by ZEFSAII (Michael W. Deem and Ramdas Pophale) SiO2 
 PCOD8234403
Probable space group: P B C M
;
_chemical_formula_sum "Si O2"
_cell_formula_units_Z 56
_cell_length_a 5.159492
_cell_length_b 15.438594
_cell_length_c 30.031728
_cell_angle_alpha 90.000000
_cell_angle_beta 90.000000
_cell_angle_gamma 90.000000
_cell_volume 2392.186370
_symmetry_space_group_name_H-M "P B C M"
_symmetry_group_IT_number 57
_symmetry_cell_setting 'orthorhombic'
loop_
_space_group_symop_operation_xyz
x,y,z
-x,-y,1/2+z
x,1/2-y,-z
-x,1/2+y,1/2-z
-x,-y,-z
x,y,1/2-z
-x,1/2+y,z
x,1/2-y,1/2+z
loop_
_atom_site_type_symbol
_atom_site_label
_atom_site_fract_x
_atom_site_fract_y
_atom_site_fract_z
Si Si1 0.074022 0.377392 0.200984
Si Si2 0.910810 0.937216 0.698158
Si Si3 0.441064 0.675645 0.655602
Si Si4 0.375854 0.068038 0.032859
Si Si5 0.527494 0.505196 0.124399
Si Si6 0.109254 0.828668 0.533118
Si Si7 0.185063 0.661829 0.371409
O O1 0.971301 0.356855 0.250000
O O2 0.347103 0.327635 0.194788
O O3 0.113757 0.481719 0.195438
O O4 0.857072 0.341671 0.168037
O O5 0.843795 0.915938 0.750000
O O6 0.657144 0.969214 0.671604
O O7 0.016131 0.849312 0.674098
O O8 0.533514 0.598138 0.622496
O O9 0.429485 0.772528 0.635465
O O10 0.302432 0.026004 0.080704
O O11 0.591456 0.143123 0.036082
O O12 0.100873 0.102659 0.014283
O O13 0.500000 0.000000 0.000000
O O14 0.271412 0.563091 0.118648
O O15 0.088853 0.750000 0.500000
O O16 0.027557 0.805330 0.584707
#
# Coordination Sequence:
#
# PCOD8234403 Si02
#       7
#     8   8   8   8   8   8   8
#     4  10  22  42  63  92 132 173 231 291 340 404
#     4  10  21  41  68  94 134 190 232 285 359 415
#     4  11  24  39  68  95 131 184 225 283 355 409
#     4  11  24  44  73 103 139 183 234 287 354 433
#     4  10  23  45  65  99 144 176 232 295 345 415
#     4  11  25  46  70 104 145 178 228 294 360 422
#     4  11  24  43  67 100 140 181 235 289 351 418
#
# _framework density 23.409545999999999
#
# number of rings (size 3 to 8) (size 9 to 14) (size 15 to 20)
#    0.000    1.429    2.857    1.286    4.000    2.286 
#    2.571    0.000    0.000    0.000    0.000    0.000 
#    0.000    0.000    0.000    0.000    0.000    0.000 
#
# Total GULP energy -693838.025076 kJ/mol
# GULP energy per Si atom -12389.964733 kJ/mol
# Density = 2.335626 g / cm^3
# Si number density = 23.409546 Si / 1000 Ang^3
#
#
#
# Elastic Constant Matrix: (Units=GPa)
#
#
# Indices 1 2 3 4 5 6 
#
# 1 81.9472 15.4213 15.2237 0.0000 0.0000 0.0000
# 2 15.4213 74.2238 32.7729 0.0000 0.0000 0.0000
# 3 15.2237 32.7729 139.7832 0.0000 0.0000 0.0000
# 4 0.0000 0.0000 0.0000 29.2307 0.0000 0.0000
# 5 0.0000 0.0000 0.0000 0.0000 29.4150 0.0000
# 6 0.0000 0.0000 0.0000 0.0000 0.0000 37.1080
#
#
#
# Elastic Compliance Matrix: (Units=1/GPa)
#
#
# Indices 1 2 3 4 5 6 
#
# 1 0.012791 -0.002278 -0.000859 0.000000 0.000000 0.000000
# 2 -0.002278 0.015434 -0.003371 0.000000 0.000000 0.000000
# 3 -0.000859 -0.003371 0.008038 0.000000 0.000000 0.000000
# 4 0.000000 0.000000 0.000000 0.034211 0.000000 0.000000
# 5 0.000000 0.000000 0.000000 0.000000 0.033996 0.000000
# 6 0.000000 0.000000 0.000000 0.000000 0.000000 0.026948
#
#
# Mechanical properties :
#
#
# Convention : Reuss Voigt Hill
#
# Bulk Modulus (GPa) = 43.01489 46.97665 44.99577
# Shear Modulus (GPa) = 32.85507 34.65316 33.75412
#
# Velocity S-wave (km/s) = 3.75038 3.85164 3.80135
# Velocity P-wave (km/s) = 6.09661 6.31594 6.20724
#
# Compressibility (1/GPa) = 0.02324777
#
# Stress axis : x y z
#
# Youngs Moduli (GPa) = 78.17812 64.79048 124.41345
#
# Poissons Ratio (x) = 0.14762 0.10686
# Poissons Ratio (y) = 0.17812 0.41934
# Poissons Ratio (z) = 0.06715 0.21838
#
# Static dielectric constant tensor:
#      x y z
#    x 4.022040 0.000000 0.000000 
#    y 0.000000 4.328610 0.000000 
#    z 0.000000 0.000000 4.444710 
# 
# 
# High freq. dielectric constant tensor:
#      x y z
#    x 1.914700 0.000000 0.000000 
#    y 0.000000 1.922210 0.000000 
#    z 0.000000 0.000000 1.924200 
# 
# From -- ./inp_files/29175.got.cif
#   From: 2010.03.12/outbox.cif.g09.slc.cpg/sg57_15_cif.got.tgz:29175.got - 2010.04.16 15:48:40.
