data_PCOD8234002
_publ_section_title
;
Structure prediction by ZEFSAII (Michael W. Deem and Ramdas Pophale) SiO2 
 PCOD8234002
Probable space group: P B C M
;
_chemical_formula_sum "Si O2"
_cell_formula_units_Z 64
_cell_length_a 12.119160
_cell_length_b 14.435719
_cell_length_c 17.456390
_cell_angle_alpha 90.000000
_cell_angle_beta 90.000000
_cell_angle_gamma 90.000000
_cell_volume 3053.974278
_symmetry_space_group_name_H-M "P B C M"
_symmetry_group_IT_number 57
_symmetry_cell_setting 'orthorhombic'
loop_
_space_group_symop_operation_xyz
x,y,z
-x,-y,1/2+z
x,1/2-y,-z
-x,1/2+y,1/2-z
-x,-y,-z
x,y,1/2-z
-x,1/2+y,z
x,1/2-y,1/2+z
loop_
_atom_site_type_symbol
_atom_site_label
_atom_site_fract_x
_atom_site_fract_y
_atom_site_fract_z
Si Si1 0.404675 0.416656 0.416204
Si Si2 0.326073 0.782009 0.918516
Si Si3 0.124877 0.687830 0.840390
Si Si4 0.606724 0.544121 0.093258
Si Si5 0.006919 0.625762 0.163011
Si Si6 0.547367 0.728935 0.162527
Si Si7 0.798481 0.466283 0.585663
Si Si8 0.147424 0.995914 0.080966
O O1 0.412359 0.419831 0.507543
O O2 0.508370 0.474292 0.381522
O O3 0.407543 0.311041 0.390077
O O4 0.285670 0.454015 0.386676
O O5 0.235139 0.712882 0.885879
O O6 0.419871 0.790453 0.855324
O O7 0.278744 0.881771 0.937845
O O8 0.375382 0.750000 0.000000
O O9 0.147996 0.678826 0.750000
O O10 0.032894 0.766710 0.856370
O O11 0.085940 0.589851 0.876127
O O12 0.612195 0.633682 0.147655
O O13 0.723183 0.492365 0.102235
O O14 0.968739 0.614935 0.250000
O O15 0.116789 0.562902 0.151989
O O16 0.907865 0.591422 0.109329
O O17 0.561797 0.758771 0.250000
O O18 0.869317 0.493567 0.510515
#
# Coordination Sequence:
#
# PCOD8234002 Si02
#       8
#     8   8   8   8   8   8   8   8
#     4  10  21  41  64  92 125 166 210 257 311 373
#     4  11  19  36  62  90 123 161 209 262 304 362
#     4  10  21  37  61  92 121 159 207 256 316 371
#     4  10  22  40  66  93 122 164 211 261 312 364
#     4  10  23  40  60  89 127 164 199 258 321 375
#     4  12  25  37  57  92 133 170 203 249 314 386
#     4  10  21  39  66  92 119 159 216 260 310 372
#     4  11  21  40  67  94 119 160 214 265 309 372
#
# _framework density 20.956299000000001
#
# number of rings (size 3 to 8) (size 9 to 14) (size 15 to 20)
#    0.000    1.500    2.500    3.000    1.750    2.500 
#    2.250    0.000    2.750    0.000    0.000    0.000 
#    0.000    0.000    0.000    0.000    0.000    0.000 
#
# Total GULP energy -793732.383152 kJ/mol
# GULP energy per Si atom -12402.068487 kJ/mol
# Density = 2.090860 g / cm^3
# Si number density = 20.956299 Si / 1000 Ang^3
#
#
#
# Elastic Constant Matrix: (Units=GPa)
#
#
# Indices 1 2 3 4 5 6 
#
# 1 58.8135 27.9130 16.8599 0.0000 0.0000 0.0000
# 2 27.9130 105.4993 34.7776 0.0000 0.0000 0.0000
# 3 16.8599 34.7776 72.8768 0.0000 0.0000 0.0000
# 4 0.0000 0.0000 0.0000 25.6738 0.0000 0.0000
# 5 0.0000 0.0000 0.0000 0.0000 24.1417 0.0000
# 6 0.0000 0.0000 0.0000 0.0000 0.0000 33.3505
#
#
#
# Elastic Compliance Matrix: (Units=1/GPa)
#
#
# Indices 1 2 3 4 5 6 
#
# 1 0.019812 -0.004428 -0.002471 0.000000 0.000000 0.000000
# 2 -0.004428 0.012238 -0.004816 0.000000 0.000000 0.000000
# 3 -0.002471 -0.004816 0.016591 0.000000 0.000000 0.000000
# 4 0.000000 0.000000 0.000000 0.038950 0.000000 0.000000
# 5 0.000000 0.000000 0.000000 0.000000 0.041422 0.000000
# 6 0.000000 0.000000 0.000000 0.000000 0.000000 0.029985
#
#
# Mechanical properties :
#
#
# Convention : Reuss Voigt Hill
#
# Bulk Modulus (GPa) = 39.66076 44.03227 41.84652
# Shear Modulus (GPa) = 26.20123 27.14248 26.67186
#
# Velocity S-wave (km/s) = 3.53977 3.60279 3.57141
# Velocity P-wave (km/s) = 5.97270 6.19385 6.08428
#
# Compressibility (1/GPa) = 0.02521384
#
# Stress axis : x y z
#
# Youngs Moduli (GPa) = 50.47330 81.71515 60.27201
#
# Poissons Ratio (x) = 0.36179 0.14891
# Poissons Ratio (y) = 0.22347 0.29025
# Poissons Ratio (z) = 0.12470 0.39351
#
# Static dielectric constant tensor:
#      x y z
#    x 3.775160 0.000000 0.000000 
#    y 0.000000 3.868250 0.000000 
#    z 0.000000 0.000000 3.698460 
# 
# 
# High freq. dielectric constant tensor:
#      x y z
#    x 1.810040 0.000000 0.000000 
#    y 0.000000 1.827430 0.000000 
#    z 0.000000 0.000000 1.811260 
# 
# From -- ./inp_files/22026.got.cif
#   From: 2010.03.12/outbox.cif.g09.slc.cpg/sg57_12_cif.got.tgz:22026.got - 2010.04.16 15:48:40.
