data_PCOD8234185
_publ_section_title
;
Structure prediction by ZEFSAII (Michael W. Deem and Ramdas Pophale) SiO2 
 PCOD8234185
Probable space group: P B C M
;
_chemical_formula_sum "Si O2"
_cell_formula_units_Z 48
_cell_length_a 15.389718
_cell_length_b 8.825849
_cell_length_c 17.518536
_cell_angle_alpha 90.000000
_cell_angle_beta 90.000000
_cell_angle_gamma 90.000000
_cell_volume 2379.495922
_symmetry_space_group_name_H-M "P B C M"
_symmetry_group_IT_number 57
_symmetry_cell_setting 'orthorhombic'
loop_
_space_group_symop_operation_xyz
x,y,z
-x,-y,1/2+z
x,1/2-y,-z
-x,1/2+y,1/2-z
-x,-y,-z
x,y,1/2-z
-x,1/2+y,z
x,1/2-y,1/2+z
loop_
_atom_site_type_symbol
_atom_site_label
_atom_site_fract_x
_atom_site_fract_y
_atom_site_fract_z
Si Si1 0.763104 0.320221 0.160235
Si Si2 0.585839 0.288198 0.088493
Si Si3 0.564521 0.603253 0.338276
Si Si4 0.921844 0.322844 0.582727
Si Si5 0.903343 0.820965 0.418735
Si Si6 0.755003 0.662269 0.162829
O O1 0.742405 0.315954 0.250000
O O2 0.682782 0.244022 0.115097
O O3 0.848069 0.224125 0.142096
O O4 0.775363 0.493202 0.131324
O O5 0.518553 0.200246 0.141484
O O6 0.568442 0.464039 0.103535
O O7 0.572061 0.250000 0.000000
O O8 0.559685 0.547797 0.250000
O O9 0.653076 0.700936 0.350169
O O10 0.904355 0.250000 0.500000
O O11 0.923980 0.502629 0.575312
O O12 0.013088 0.263821 0.617794
O O13 0.886665 0.750000 0.500000
O O14 0.814448 0.791409 0.373988
O O15 0.780924 0.665699 0.250000
#
# Coordination Sequence:
#
# PCOD8234185 Si02
#       6
#     8   8   8   8   8   8
#     4  10  21  39  60  83 114 155 195 240 296 353
#     4  11  22  37  60  89 119 154 198 249 296 350
#     4  10  21  39  60  85 120 160 197 242 299 358
#     4  11  22  38  59  85 116 150 193 241 290 350
#     4  11  22  37  60  85 115 152 190 237 293 348
#     4   9  20  38  58  81 115 153 192 235 286 347
#
# _framework density 20.172339000000001
#
# number of rings (size 3 to 8) (size 9 to 14) (size 15 to 20)
#    0.000    1.667    0.000    7.500    0.000    4.667 
#    0.000    1.667    0.000    0.000    0.000    0.000 
#    0.000    0.000    0.000    0.000    0.000    0.000 
#
# Total GULP energy -595189.611751 kJ/mol
# GULP energy per Si atom -12399.783578 kJ/mol
# Density = 2.012643 g / cm^3
# Si number density = 20.172339 Si / 1000 Ang^3
#
#
#
# Elastic Constant Matrix: (Units=GPa)
#
#
# Indices 1 2 3 4 5 6 
#
# 1 131.8032 48.5088 53.6936 0.0000 0.0000 0.0000
# 2 48.5088 112.1790 42.1532 0.0000 0.0000 0.0000
# 3 53.6936 42.1532 69.5888 0.0000 0.0000 0.0000
# 4 0.0000 0.0000 0.0000 26.3266 0.0000 0.0000
# 5 0.0000 0.0000 0.0000 0.0000 37.6936 0.0000
# 6 0.0000 0.0000 0.0000 0.0000 0.0000 41.4680
#
#
#
# Elastic Compliance Matrix: (Units=1/GPa)
#
#
# Indices 1 2 3 4 5 6 
#
# 1 0.011438 -0.002110 -0.007547 0.000000 0.000000 0.000000
# 2 -0.002110 0.011931 -0.005599 0.000000 0.000000 0.000000
# 3 -0.007547 -0.005599 0.023585 0.000000 0.000000 0.000000
# 4 0.000000 0.000000 0.000000 0.037984 0.000000 0.000000
# 5 0.000000 0.000000 0.000000 0.000000 0.026530 0.000000
# 6 0.000000 0.000000 0.000000 0.000000 0.000000 0.024115
#
#
# Mechanical properties :
#
#
# Convention : Reuss Voigt Hill
#
# Bulk Modulus (GPa) = 60.82243 66.92025 63.87134
# Shear Modulus (GPa) = 29.14156 32.37867 30.76012
#
# Velocity S-wave (km/s) = 3.80495 4.01072 3.90919
# Velocity P-wave (km/s) = 7.03707 7.39555 7.21854
#
# Compressibility (1/GPa) = 0.01644130
#
# Stress axis : x y z
#
# Youngs Moduli (GPa) = 87.42540 83.81775 42.39970
#
# Poissons Ratio (x) = 0.17687 0.32001
# Poissons Ratio (y) = 0.18448 0.23739
# Poissons Ratio (z) = 0.65984 0.46928
#
# Static dielectric constant tensor:
#      x y z
#    x 3.972210 0.000000 0.000000 
#    y 0.000000 3.714150 0.000000 
#    z 0.000000 0.000000 3.508810 
# 
# 
# High freq. dielectric constant tensor:
#      x y z
#    x 1.806780 0.000000 0.000000 
#    y 0.000000 1.780160 0.000000 
#    z 0.000000 0.000000 1.780760 
# 
# From -- ./inp_files/22472.got.cif
#   From: 2010.03.12/outbox.cif.g09.slc.cpg/sg57_12_cif.got.tgz:22472.got - 2010.04.16 15:48:40.
