data_PCOD8234597
_publ_section_title
;
Structure prediction by ZEFSAII (Michael W. Deem and Ramdas Pophale) SiO2 
 PCOD8234597
Probable space group: P B C M
;
_chemical_formula_sum "Si O2"
_cell_formula_units_Z 40
_cell_length_a 8.600913
_cell_length_b 10.270141
_cell_length_c 21.461775
_cell_angle_alpha 90.000000
_cell_angle_beta 90.000000
_cell_angle_gamma 90.000000
_cell_volume 1895.774155
_symmetry_space_group_name_H-M "P B C M"
_symmetry_group_IT_number 57
_symmetry_cell_setting 'orthorhombic'
loop_
_space_group_symop_operation_xyz
x,y,z
-x,-y,1/2+z
x,1/2-y,-z
-x,1/2+y,1/2-z
-x,-y,-z
x,y,1/2-z
-x,1/2+y,z
x,1/2-y,1/2+z
loop_
_atom_site_type_symbol
_atom_site_label
_atom_site_fract_x
_atom_site_fract_y
_atom_site_fract_z
Si Si1 0.138434 0.897248 0.499955
Si Si2 0.813078 0.118514 0.864874
Si Si3 0.152476 0.364857 0.178618
Si Si4 0.356719 0.376880 0.820871
Si Si5 0.314073 0.893266 0.872626
O O1 0.069265 0.750000 0.500000
O O2 0.235762 0.914326 0.436061
O O3 0.257651 0.919312 0.556817
O O4 0.000000 0.000000 0.500000
O O5 0.756239 0.260805 0.844530
O O6 0.999584 0.114753 0.862336
O O7 0.737056 0.012110 0.820127
O O8 0.102299 0.347214 0.250000
O O9 0.243836 0.237416 0.154983
O O10 0.262177 0.489627 0.171745
O O11 0.412560 0.348707 0.750000
O O12 0.499887 0.383875 0.868706
#
# Coordination Sequence:
#
# PCOD8234597 Si02
#       5
#     8   8   8   8   8
#     4  10  22  40  66  94 125 164 214 265 323 381
#     4  11  23  41  66  92 127 167 220 270 321 386
#     4  11  23  39  64  95 126 171 219 266 324 384
#     4  11  25  42  63  96 133 171 216 268 328 386
#     4  11  23  41  63  91 131 170 211 267 323 385
#
# _framework density 21.099558999999999
#
# number of rings (size 3 to 8) (size 9 to 14) (size 15 to 20)
#    0.000    1.200    2.000    3.600    2.800    7.200 
#    0.000    2.000    0.000    0.000    0.000    0.000 
#    0.000    0.000    0.000    0.000    0.000    0.000 
#
# Total GULP energy -496163.066746 kJ/mol
# GULP energy per Si atom -12404.076669 kJ/mol
# Density = 2.105154 g / cm^3
# Si number density = 21.099559 Si / 1000 Ang^3
#
#
#
# Elastic Constant Matrix: (Units=GPa)
#
#
# Indices 1 2 3 4 5 6 
#
# 1 126.4150 38.7381 43.4380 0.0000 0.0000 0.0000
# 2 38.7381 129.0147 30.0067 0.0000 0.0000 0.0000
# 3 43.4380 30.0067 83.2832 0.0000 0.0000 0.0000
# 4 0.0000 0.0000 0.0000 19.1706 0.0000 0.0000
# 5 0.0000 0.0000 0.0000 0.0000 34.1820 0.0000
# 6 0.0000 0.0000 0.0000 0.0000 0.0000 35.8870
#
#
#
# Elastic Compliance Matrix: (Units=1/GPa)
#
#
# Indices 1 2 3 4 5 6 
#
# 1 0.010076 -0.001968 -0.004546 0.000000 0.000000 0.000000
# 2 -0.001968 0.008844 -0.002160 0.000000 0.000000 0.000000
# 3 -0.004546 -0.002160 0.015157 0.000000 0.000000 0.000000
# 4 0.000000 0.000000 0.000000 0.052163 0.000000 0.000000
# 5 0.000000 0.000000 0.000000 0.000000 0.029255 0.000000
# 6 0.000000 0.000000 0.000000 0.000000 0.000000 0.027865
#
#
# Mechanical properties :
#
#
# Convention : Reuss Voigt Hill
#
# Bulk Modulus (GPa) = 59.77941 62.56430 61.17185
# Shear Modulus (GPa) = 30.06890 32.94992 31.50941
#
# Velocity S-wave (km/s) = 3.77914 3.95605 3.86860
# Velocity P-wave (km/s) = 6.88739 7.11220 7.00070
#
# Compressibility (1/GPa) = 0.01672817
#
# Stress axis : x y z
#
# Youngs Moduli (GPa) = 99.24962 113.06616 65.97777
#
# Poissons Ratio (x) = 0.22251 0.29994
# Poissons Ratio (y) = 0.19532 0.14252
# Poissons Ratio (z) = 0.45120 0.24424
#
# Static dielectric constant tensor:
#      x y z
#    x 3.603960 0.000000 0.000000 
#    y 0.000000 4.039380 0.000000 
#    z 0.000000 0.000000 3.785870 
# 
# 
# High freq. dielectric constant tensor:
#      x y z
#    x 1.814190 0.000000 0.000000 
#    y 0.000000 1.846060 0.000000 
#    z 0.000000 0.000000 1.828210 
# 
# From -- ./inp_files/26494.got.cif
#   From: 2010.03.12/outbox.cif.g09.slc.cpg/sg57_14_cif.got.tgz:26494.got - 2010.04.16 15:48:40.
