data_PCOD8234894
_publ_section_title
;
Structure prediction by ZEFSAII (Michael W. Deem and Ramdas Pophale) SiO2 
 PCOD8234894
Probable space group: P B C M
;
_chemical_formula_sum "Si O2"
_cell_formula_units_Z 48
_cell_length_a 11.856618
_cell_length_b 26.012786
_cell_length_c 8.897646
_cell_angle_alpha 90.000000
_cell_angle_beta 90.000000
_cell_angle_gamma 90.000000
_cell_volume 2744.244604
_symmetry_space_group_name_H-M "P B C M"
_symmetry_group_IT_number 57
_symmetry_cell_setting 'orthorhombic'
loop_
_space_group_symop_operation_xyz
x,y,z
-x,-y,1/2+z
x,1/2-y,-z
-x,1/2+y,1/2-z
-x,-y,-z
x,y,1/2-z
-x,1/2+y,z
x,1/2-y,1/2+z
loop_
_atom_site_type_symbol
_atom_site_label
_atom_site_fract_x
_atom_site_fract_y
_atom_site_fract_z
Si Si1 0.233805 0.932157 0.075621
Si Si2 0.656831 0.610780 0.581989
Si Si3 0.833741 0.694964 0.572397
Si Si4 0.467187 0.554092 0.426405
Si Si5 0.989227 0.115956 0.573850
Si Si6 0.149921 0.470622 0.419610
O O1 0.268752 0.933060 0.250000
O O2 0.145251 0.885326 0.041134
O O3 0.343915 0.926322 0.974629
O O4 0.165530 0.983447 0.036242
O O5 0.610143 0.621007 0.750000
O O6 0.726478 0.660323 0.524186
O O7 0.552568 0.599522 0.471902
O O8 0.734659 0.560946 0.584039
O O9 0.821215 0.750000 0.500000
O O10 0.837453 0.701508 0.750000
O O11 0.949411 0.667477 0.512069
O O12 0.500000 0.500000 0.500000
O O13 0.469190 0.545725 0.250000
O O14 0.015715 0.113988 0.750000
O O15 0.050122 0.064571 0.510802
O O16 0.124273 0.490689 0.250000
#
# Coordination Sequence:
#
# PCOD8234894 Si02
#       6
#     8   8   8   8   8   8
#     4  11  20  30  47  71 102 139 176 206 246 301
#     4   9  18  33  52  74 103 136 170 210 258 302
#     4   9  18  35  58  81 104 130 163 210 264 311
#     4  12  23  34  49  71 103 140 179 215 252 303
#     4   8  17  32  49  72 102 135 167 205 255 306
#     4   9  16  29  48  69  99 135 169 206 247 293
#
# _framework density 17.491153000000001
#
# number of rings (size 3 to 8) (size 9 to 14) (size 15 to 20)
#    0.000    2.333    1.667    4.500    0.000    0.667 
#    0.000    5.000    0.000    1.000    0.000    2.333 
#    0.000    0.000    0.000    0.000    0.000    0.000 
#
# Total GULP energy -594933.674395 kJ/mol
# GULP energy per Si atom -12394.451550 kJ/mol
# Density = 1.745134 g / cm^3
# Si number density = 17.491153 Si / 1000 Ang^3
#
#
#
# Elastic Constant Matrix: (Units=GPa)
#
#
# Indices 1 2 3 4 5 6 
#
# 1 120.7282 52.5438 49.8771 0.0000 0.0000 0.0000
# 2 52.5438 96.9354 36.0218 0.0000 0.0000 0.0000
# 3 49.8771 36.0218 78.5691 0.0000 0.0000 0.0000
# 4 0.0000 0.0000 0.0000 22.5592 0.0000 0.0000
# 5 0.0000 0.0000 0.0000 0.0000 24.4075 0.0000
# 6 0.0000 0.0000 0.0000 0.0000 0.0000 11.6237
#
#
#
# Elastic Compliance Matrix: (Units=1/GPa)
#
#
# Indices 1 2 3 4 5 6 
#
# 1 0.012802 -0.004724 -0.005961 0.000000 0.000000 0.000000
# 2 -0.004724 0.014178 -0.003501 0.000000 0.000000 0.000000
# 3 -0.005961 -0.003501 0.018117 0.000000 0.000000 0.000000
# 4 0.000000 0.000000 0.000000 0.044328 0.000000 0.000000
# 5 0.000000 0.000000 0.000000 0.000000 0.040971 0.000000
# 6 0.000000 0.000000 0.000000 0.000000 0.000000 0.086031
#
#
# Mechanical properties :
#
#
# Convention : Reuss Voigt Hill
#
# Bulk Modulus (GPa) = 59.79384 63.67981 61.73682
# Shear Modulus (GPa) = 19.97015 22.23741 21.10378
#
# Velocity S-wave (km/s) = 3.38261 3.56947 3.47730
# Velocity P-wave (km/s) = 7.03672 7.31260 7.17599
#
# Compressibility (1/GPa) = 0.01672413
#
# Stress axis : x y z
#
# Youngs Moduli (GPa) = 78.11411 70.53217 55.19677
#
# Poissons Ratio (x) = 0.33320 0.32902
# Poissons Ratio (y) = 0.36902 0.19326
# Poissons Ratio (z) = 0.46563 0.24695
#
# Static dielectric constant tensor:
#      x y z
#    x 3.436030 0.000000 0.000000 
#    y 0.000000 3.118620 0.000000 
#    z 0.000000 0.000000 3.301750 
# 
# 
# High freq. dielectric constant tensor:
#      x y z
#    x 1.683580 0.000000 0.000000 
#    y 0.000000 1.639770 0.000000 
#    z 0.000000 0.000000 1.662770 
# 
# From -- ./inp_files/3109.got.cif
#   From: 2010.03.12/outbox.cif.g09.slc.cpg/sg57_2_cif.got.tgz:3109.got - 2010.04.16 15:48:40.
