data_PCOD8234882
_publ_section_title
;
Structure prediction by ZEFSAII (Michael W. Deem and Ramdas Pophale) SiO2 
 PCOD8234882
Probable space group: P B C M
;
_chemical_formula_sum "Si O2"
_cell_formula_units_Z 48
_cell_length_a 10.292731
_cell_length_b 16.573126
_cell_length_c 16.598390
_cell_angle_alpha 90.000000
_cell_angle_beta 90.000000
_cell_angle_gamma 90.000000
_cell_volume 2831.398642
_symmetry_space_group_name_H-M "P B C M"
_symmetry_group_IT_number 57
_symmetry_cell_setting 'orthorhombic'
loop_
_space_group_symop_operation_xyz
x,y,z
-x,-y,1/2+z
x,1/2-y,-z
-x,1/2+y,1/2-z
-x,-y,-z
x,y,1/2-z
-x,1/2+y,z
x,1/2-y,1/2+z
loop_
_atom_site_type_symbol
_atom_site_label
_atom_site_fract_x
_atom_site_fract_y
_atom_site_fract_z
Si Si1 0.986660 0.804009 0.421433
Si Si2 0.728161 0.195318 0.921946
Si Si3 0.629866 0.449876 0.990439
Si Si4 0.281756 0.852016 0.841473
Si Si5 0.879291 0.557164 0.011285
Si Si6 0.975715 0.649259 0.340517
O O1 0.002104 0.750000 0.500000
O O2 0.885634 0.875746 0.439772
O O3 0.938960 0.744474 0.350109
O O4 0.129184 0.840418 0.400164
O O5 0.678180 0.257072 0.852585
O O6 0.740132 0.250000 0.000000
O O7 0.633682 0.119623 0.940208
O O8 0.638577 0.409897 0.901709
O O9 0.500000 0.500000 0.000000
O O10 0.745247 0.512104 0.003130
O O11 0.314406 0.877394 0.750000
O O12 0.128521 0.862030 0.860902
O O13 0.888236 0.596399 0.099880
O O14 0.000000 0.500000 0.000000
O O15 0.943704 0.621815 0.250000
#
# Coordination Sequence:
#
# PCOD8234882 Si02
#       6
#     8   8   8   8   8   8
#     4   8  14  27  49  71  94 129 165 204 252 304
#     4   8  14  29  50  70  93 126 171 206 241 304
#     4  11  21  33  51  79 109 140 176 211 255 314
#     4   9  17  33  55  75  98 136 180 219 258 306
#     4  11  17  31  53  75 103 135 165 211 268 311
#     4   9  17  31  52  79 103 130 175 225 264 305
#
# _framework density 16.952752
#
# number of rings (size 3 to 8) (size 9 to 14) (size 15 to 20)
#    0.000    2.667    3.333    2.000    0.000    0.000 
#    0.000   11.667    0.000    0.000    0.000    0.000 
#    0.000    0.000    0.000    0.000    0.000    0.000 
#
# Total GULP energy -594712.245044 kJ/mol
# GULP energy per Si atom -12389.838438 kJ/mol
# Density = 1.691417 g / cm^3
# Si number density = 16.952752 Si / 1000 Ang^3
#
#
#
# Elastic Constant Matrix: (Units=GPa)
#
#
# Indices 1 2 3 4 5 6 
#
# 1 89.1344 61.5052 31.6127 0.0000 0.0000 0.0000
# 2 61.5052 111.0485 43.8931 0.0000 0.0000 0.0000
# 3 31.6127 43.8931 86.7577 0.0000 0.0000 0.0000
# 4 0.0000 0.0000 0.0000 22.9611 0.0000 0.0000
# 5 0.0000 0.0000 0.0000 0.0000 11.6390 0.0000
# 6 0.0000 0.0000 0.0000 0.0000 0.0000 29.4297
#
#
#
# Elastic Compliance Matrix: (Units=1/GPa)
#
#
# Indices 1 2 3 4 5 6 
#
# 1 0.018416 -0.009434 -0.001937 0.000000 0.000000 0.000000
# 2 -0.009434 0.016089 -0.004702 0.000000 0.000000 0.000000
# 3 -0.001937 -0.004702 0.014611 0.000000 0.000000 0.000000
# 4 0.000000 0.000000 0.000000 0.043552 0.000000 0.000000
# 5 0.000000 0.000000 0.000000 0.000000 0.085918 0.000000
# 6 0.000000 0.000000 0.000000 0.000000 0.000000 0.033979
#
#
# Mechanical properties :
#
#
# Convention : Reuss Voigt Hill
#
# Bulk Modulus (GPa) = 58.93219 62.32918 60.63068
# Shear Modulus (GPa) = 19.97056 22.80126 21.38591
#
# Velocity S-wave (km/s) = 3.43594 3.67139 3.55561
# Velocity P-wave (km/s) = 7.11189 7.40394 7.25939
#
# Compressibility (1/GPa) = 0.01696866
#
# Stress axis : x y z
#
# Youngs Moduli (GPa) = 54.30099 62.15510 68.44021
#
# Poissons Ratio (x) = 0.58637 0.13260
# Poissons Ratio (y) = 0.51228 0.32182
# Poissons Ratio (z) = 0.10520 0.29227
#
# Static dielectric constant tensor:
#      x y z
#    x 2.596970 0.000000 0.000000 
#    y 0.000000 3.449210 0.000000 
#    z 0.000000 0.000000 3.600980 
# 
# 
# High freq. dielectric constant tensor:
#      x y z
#    x 1.605200 0.000000 0.000000 
#    y 0.000000 1.661910 0.000000 
#    z 0.000000 0.000000 1.639900 
# 
# From -- ./inp_files/21104.got.cif
#   From: 2010.03.12/outbox.cif.g09.slc.cpg/sg57_11_cif.got.tgz:21104.got - 2010.04.16 15:48:40.
