data_PCOD8234768
_publ_section_title
;
Structure prediction by ZEFSAII (Michael W. Deem and Ramdas Pophale) SiO2 
 PCOD8234768
Probable space group: P B C M
;
_chemical_formula_sum "Si O2"
_cell_formula_units_Z 28
_cell_length_a 8.985473
_cell_length_b 11.102399
_cell_length_c 13.617215
_cell_angle_alpha 90.000000
_cell_angle_beta 90.000000
_cell_angle_gamma 90.000000
_cell_volume 1358.457541
_symmetry_space_group_name_H-M "P B C M"
_symmetry_group_IT_number 57
_symmetry_cell_setting 'orthorhombic'
loop_
_space_group_symop_operation_xyz
x,y,z
-x,-y,1/2+z
x,1/2-y,-z
-x,1/2+y,1/2-z
-x,-y,-z
x,y,1/2-z
-x,1/2+y,z
x,1/2-y,1/2+z
loop_
_atom_site_type_symbol
_atom_site_label
_atom_site_fract_x
_atom_site_fract_y
_atom_site_fract_z
Si Si1 0.953003 0.250000 0.500000
Si Si2 0.796495 0.811203 0.637468
Si Si3 0.564001 0.897499 0.136287
Si Si4 0.285185 0.548716 0.521168
O O1 0.855635 0.369678 0.501395
O O2 0.056499 0.254376 0.403391
O O3 0.824146 0.843130 0.750000
O O4 0.654900 0.725214 0.623040
O O5 0.768324 0.931853 0.578517
O O6 0.546834 0.933348 0.250000
O O7 0.402422 0.876931 0.087528
O O8 0.642890 0.010024 0.082563
#
# Coordination Sequence:
#
# PCOD8234768 Si02
#       4
#     4   8   8   8
#     4  12  26  42  64 100 132 176 212 258 330 392
#     4  11  24  44  67  95 133 171 217 270 323 386
#     4  10  23  42  69  95 124 172 223 271 322 378
#     4  11  24  43  67  95 135 169 216 272 325 383
#
# _framework density 20.611611
#
# number of rings (size 3 to 8) (size 9 to 14) (size 15 to 20)
#    0.000    1.143    2.857    1.714    8.000    3.429 
#    0.000    0.000    0.000    0.000    0.000    0.000 
#    0.000    0.000    0.000    0.000    0.000    0.000 
#
# Total GULP energy -347364.384079 kJ/mol
# GULP energy per Si atom -12405.870860 kJ/mol
# Density = 2.056470 g / cm^3
# Si number density = 20.611611 Si / 1000 Ang^3
#
#
#
# Elastic Constant Matrix: (Units=GPa)
#
#
# Indices 1 2 3 4 5 6 
#
# 1 92.3378 16.6027 30.7719 0.0000 0.0000 0.0000
# 2 16.6027 64.8742 25.8936 0.0000 0.0000 0.0000
# 3 30.7719 25.8936 134.5009 0.0000 0.0000 0.0000
# 4 0.0000 0.0000 0.0000 24.9402 0.0000 0.0000
# 5 0.0000 0.0000 0.0000 0.0000 20.2090 0.0000
# 6 0.0000 0.0000 0.0000 0.0000 0.0000 34.6770
#
#
#
# Elastic Compliance Matrix: (Units=1/GPa)
#
#
# Indices 1 2 3 4 5 6 
#
# 1 0.011991 -0.002138 -0.002332 0.000000 0.000000 0.000000
# 2 -0.002138 0.017079 -0.002799 0.000000 0.000000 0.000000
# 3 -0.002332 -0.002799 0.008507 0.000000 0.000000 0.000000
# 4 0.000000 0.000000 0.000000 0.040096 0.000000 0.000000
# 5 0.000000 0.000000 0.000000 0.000000 0.049483 0.000000
# 6 0.000000 0.000000 0.000000 0.000000 0.000000 0.028838
#
#
# Mechanical properties :
#
#
# Convention : Reuss Voigt Hill
#
# Bulk Modulus (GPa) = 43.40308 48.69435 46.04872
# Shear Modulus (GPa) = 28.05664 30.52822 29.29243
#
# Velocity S-wave (km/s) = 3.69345 3.85270 3.77392
# Velocity P-wave (km/s) = 6.26834 6.59296 6.43270
#
# Compressibility (1/GPa) = 0.02303984
#
# Stress axis : x y z
#
# Youngs Moduli (GPa) = 83.39354 58.55239 117.54773
#
# Poissons Ratio (x) = 0.12519 0.27410
# Poissons Ratio (y) = 0.17831 0.32899
# Poissons Ratio (z) = 0.19446 0.16387
#
# Static dielectric constant tensor:
#      x y z
#    x 3.980560 0.000000 0.000000 
#    y 0.000000 3.635720 0.000000 
#    z 0.000000 0.000000 4.019800 
# 
# 
# High freq. dielectric constant tensor:
#      x y z
#    x 1.818160 0.000000 0.000000 
#    y 0.000000 1.806120 0.000000 
#    z 0.000000 0.000000 1.816650 
# 
# From -- ./inp_files/11206.got.cif
#   From: 2010.03.12/outbox.cif.g09.slc.cpg/sg57_6_cif.got.tgz:11206.got - 2010.04.16 15:48:40.
