data_PCOD8234829
_publ_section_title
;
Structure prediction by ZEFSAII (Michael W. Deem and Ramdas Pophale) SiO2 
 PCOD8234829
Probable space group: P B C M
;
_chemical_formula_sum "Si O2"
_cell_formula_units_Z 36
_cell_length_a 19.436371
_cell_length_b 8.638297
_cell_length_c 9.786640
_cell_angle_alpha 90.000000
_cell_angle_beta 90.000000
_cell_angle_gamma 90.000000
_cell_volume 1643.148918
_symmetry_space_group_name_H-M "P B C M"
_symmetry_group_IT_number 57
_symmetry_cell_setting 'orthorhombic'
loop_
_space_group_symop_operation_xyz
x,y,z
-x,-y,1/2+z
x,1/2-y,-z
-x,1/2+y,1/2-z
-x,-y,-z
x,y,1/2-z
-x,1/2+y,z
x,1/2-y,1/2+z
loop_
_atom_site_type_symbol
_atom_site_label
_atom_site_fract_x
_atom_site_fract_y
_atom_site_fract_z
Si Si1 0.902583 0.990500 0.101550
Si Si2 0.205949 0.597057 0.908194
Si Si3 0.995186 0.250000 0.500000
Si Si4 0.445850 0.420696 0.750000
Si Si5 0.591782 0.938584 0.250000
Si Si6 0.357122 0.567959 0.520417
O O1 0.865515 0.985227 0.250000
O O2 0.956480 0.851463 0.096552
O O3 0.846902 0.976309 0.978313
O O4 0.945576 0.148716 0.094606
O O5 0.185315 0.627372 0.750000
O O6 0.283238 0.531591 0.912600
O O7 0.201322 0.750000 0.000000
O O8 0.431385 0.238706 0.750000
O O9 0.527378 0.444979 0.750000
O O10 0.416419 0.502108 0.616128
O O11 0.639531 0.976035 0.378889
O O12 0.369135 0.750000 0.500000
#
# Coordination Sequence:
#
# PCOD8234829 Si02
#       6
#     8   8   4   4   4   8
#     4  11  23  42  69 100 135 183 229 287 345 412
#     4  11  24  42  68  99 136 181 232 283 343 414
#     4  10  24  42  66 100 140 172 232 286 348 406
#     4  12  24  48  68 108 140 181 228 285 345 413
#     4  12  26  42  76 102 140 181 228 287 347 407
#     4  11  24  44  69 100 140 184 232 286 340 415
#
# _framework density 21.909151000000001
#
# number of rings (size 3 to 8) (size 9 to 14) (size 15 to 20)
#    0.000    0.889    2.222    4.667    6.222    4.444 
#    4.000    0.000    0.000    0.000    0.000    0.000 
#    0.000    0.000    0.000    0.000    0.000    0.000 
#
# Total GULP energy -446482.865191 kJ/mol
# GULP energy per Si atom -12402.301811 kJ/mol
# Density = 2.185929 g / cm^3
# Si number density = 21.909151 Si / 1000 Ang^3
#
#
#
# Elastic Constant Matrix: (Units=GPa)
#
#
# Indices 1 2 3 4 5 6 
#
# 1 88.3660 18.7544 36.9043 0.0000 0.0000 0.0000
# 2 18.7544 108.5022 25.5652 0.0000 0.0000 0.0000
# 3 36.9043 25.5652 185.8669 0.0000 0.0000 0.0000
# 4 0.0000 0.0000 0.0000 18.6838 0.0000 0.0000
# 5 0.0000 0.0000 0.0000 0.0000 41.2573 0.0000
# 6 0.0000 0.0000 0.0000 0.0000 0.0000 34.6549
#
#
#
# Elastic Compliance Matrix: (Units=1/GPa)
#
#
# Indices 1 2 3 4 5 6 
#
# 1 0.012617 -0.001644 -0.002279 0.000000 0.000000 0.000000
# 2 -0.001644 0.009739 -0.001013 0.000000 0.000000 0.000000
# 3 -0.002279 -0.001013 0.005972 0.000000 0.000000 0.000000
# 4 0.000000 0.000000 0.000000 0.053522 0.000000 0.000000
# 5 0.000000 0.000000 0.000000 0.000000 0.024238 0.000000
# 6 0.000000 0.000000 0.000000 0.000000 0.000000 0.028856
#
#
# Mechanical properties :
#
#
# Convention : Reuss Voigt Hill
#
# Bulk Modulus (GPa) = 54.18205 60.57590 57.37898
# Shear Modulus (GPa) = 33.11929 39.01994 36.06961
#
# Velocity S-wave (km/s) = 3.89223 4.22475 4.06190
# Velocity P-wave (km/s) = 6.70696 7.17682 6.94586
#
# Compressibility (1/GPa) = 0.01845630
#
# Stress axis : x y z
#
# Youngs Moduli (GPa) = 79.25644 102.67708 167.44601
#
# Poissons Ratio (x) = 0.16879 0.38162
# Poissons Ratio (y) = 0.13029 0.16966
# Poissons Ratio (z) = 0.18063 0.10403
#
# Static dielectric constant tensor:
#      x y z
#    x 4.184540 0.000000 0.000000 
#    y 0.000000 3.987720 0.000000 
#    z 0.000000 0.000000 3.919110 
# 
# 
# High freq. dielectric constant tensor:
#      x y z
#    x 1.868450 0.000000 0.000000 
#    y 0.000000 1.852630 0.000000 
#    z 0.000000 0.000000 1.873530 
# 
# From -- ./inp_files/7665.got.cif
#   From: 2010.03.12/outbox.cif.g09.slc.cpg/sg57_4_cif.got.tgz:7665.got - 2010.04.16 15:48:40.
