data_PCOD8234690
_publ_section_title
;
Structure prediction by ZEFSAII (Michael W. Deem and Ramdas Pophale) SiO2 
 PCOD8234690
Probable space group: P B C M
;
_chemical_formula_sum "Si O2"
_cell_formula_units_Z 40
_cell_length_a 15.108629
_cell_length_b 13.562329
_cell_length_c 9.665210
_cell_angle_alpha 90.000000
_cell_angle_beta 90.000000
_cell_angle_gamma 90.000000
_cell_volume 1980.480757
_symmetry_space_group_name_H-M "P B C M"
_symmetry_group_IT_number 57
_symmetry_cell_setting 'orthorhombic'
loop_
_space_group_symop_operation_xyz
x,y,z
-x,-y,1/2+z
x,1/2-y,-z
-x,1/2+y,1/2-z
-x,-y,-z
x,y,1/2-z
-x,1/2+y,z
x,1/2-y,1/2+z
loop_
_atom_site_type_symbol
_atom_site_label
_atom_site_fract_x
_atom_site_fract_y
_atom_site_fract_z
Si Si1 0.597942 0.750000 0.500000
Si Si2 0.563589 0.034182 0.250000
Si Si3 0.470548 0.743266 0.750000
Si Si4 0.316757 0.452371 0.485956
Si Si5 0.629447 0.449116 0.250000
Si Si6 0.988423 0.154205 0.087306
Si Si7 0.118622 0.461725 0.404878
O O1 0.533800 0.721238 0.622999
O O2 0.661112 0.658217 0.464287
O O3 0.576066 0.151327 0.250000
O O4 0.606027 0.989516 0.113576
O O5 0.459693 0.013419 0.250000
O O6 0.389599 0.666874 0.750000
O O7 0.311934 0.524075 0.617255
O O8 0.223876 0.455528 0.408654
O O9 0.004408 0.178674 0.250000
O O10 0.911045 0.074104 0.067237
O O11 0.959494 0.250000 0.000000
O O12 0.078460 0.111157 0.020078
O O13 0.087658 0.430022 0.250000
#
# Coordination Sequence:
#
# PCOD8234690 Si02
#       7
#     4   4   4   8   4   8   8
#     4  12  22  38  64  90 120 162 220 270 322 366
#     4  12  22  44  64  85 130 171 216 270 324 379
#     4  12  24  40  64  86 116 176 224 258 322 382
#     4  12  24  41  63  95 131 165 214 279 319 378
#     4  12  24  42  60  91 128 173 218 268 322 381
#     4  10  22  44  72  97 129 170 209 257 325 399
#     4  10  23  44  66  97 134 168 210 265 326 386
#
# _framework density 20.197118
#
# number of rings (size 3 to 8) (size 9 to 14) (size 15 to 20)
#    0.000    0.800    5.000    2.400    2.800    0.800 
#    3.600    0.000    0.000    0.000    0.000    0.000 
#    0.000    0.000    0.000    0.000    0.000    0.000 
#
# Total GULP energy -496176.903446 kJ/mol
# GULP energy per Si atom -12404.422586 kJ/mol
# Density = 2.015115 g / cm^3
# Si number density = 20.197118 Si / 1000 Ang^3
#
#
#
# Elastic Constant Matrix: (Units=GPa)
#
#
# Indices 1 2 3 4 5 6 
#
# 1 58.2752 14.7790 7.8833 0.0000 0.0000 0.0000
# 2 14.7790 127.8928 24.3582 0.0000 0.0000 0.0000
# 3 7.8833 24.3582 125.4146 0.0000 0.0000 0.0000
# 4 0.0000 0.0000 0.0000 33.6485 0.0000 0.0000
# 5 0.0000 0.0000 0.0000 0.0000 31.9824 0.0000
# 6 0.0000 0.0000 0.0000 0.0000 0.0000 16.1167
#
#
#
# Elastic Compliance Matrix: (Units=1/GPa)
#
#
# Indices 1 2 3 4 5 6 
#
# 1 0.017745 -0.001909 -0.000745 0.000000 0.000000 0.000000
# 2 -0.001909 0.008325 -0.001497 0.000000 0.000000 0.000000
# 3 -0.000745 -0.001497 0.008311 0.000000 0.000000 0.000000
# 4 0.000000 0.000000 0.000000 0.029719 0.000000 0.000000
# 5 0.000000 0.000000 0.000000 0.000000 0.031267 0.000000
# 6 0.000000 0.000000 0.000000 0.000000 0.000000 0.062047
#
#
# Mechanical properties :
#
#
# Convention : Reuss Voigt Hill
#
# Bulk Modulus (GPa) = 38.34350 45.06928 41.70639
# Shear Modulus (GPa) = 28.66840 33.98700 31.32770
#
# Velocity S-wave (km/s) = 3.77162 4.10660 3.94267
# Velocity P-wave (km/s) = 6.16382 6.69692 6.43589
#
# Compressibility (1/GPa) = 0.02608004
#
# Stress axis : x y z
#
# Youngs Moduli (GPa) = 56.35467 120.12446 120.32123
#
# Poissons Ratio (x) = 0.22928 0.08960
# Poissons Ratio (y) = 0.10756 0.18010
# Poissons Ratio (z) = 0.04197 0.17981
#
# Static dielectric constant tensor:
#      x y z
#    x 3.353700 0.000000 0.000000 
#    y 0.000000 3.798300 0.000000 
#    z 0.000000 0.000000 3.245940 
# 
# 
# High freq. dielectric constant tensor:
#      x y z
#    x 1.767170 0.000000 0.000000 
#    y 0.000000 1.798730 0.000000 
#    z 0.000000 0.000000 1.808000 
# 
# From -- ./inp_files/4347.got.cif
#   From: 2010.03.12/outbox.cif.g09.slc.cpg/sg57_3_cif.got.tgz:4347.got - 2010.04.16 15:48:40.
