data_PCOD8234379
_publ_section_title
;
Structure prediction by ZEFSAII (Michael W. Deem and Ramdas Pophale) SiO2 
 PCOD8234379
Probable space group: P B C M
;
_chemical_formula_sum "Si O2"
_cell_formula_units_Z 64
_cell_length_a 11.438432
_cell_length_b 14.684393
_cell_length_c 18.096631
_cell_angle_alpha 90.000000
_cell_angle_beta 90.000000
_cell_angle_gamma 90.000000
_cell_volume 3039.626518
_symmetry_space_group_name_H-M "P B C M"
_symmetry_group_IT_number 57
_symmetry_cell_setting 'orthorhombic'
loop_
_space_group_symop_operation_xyz
x,y,z
-x,-y,1/2+z
x,1/2-y,-z
-x,1/2+y,1/2-z
-x,-y,-z
x,y,1/2-z
-x,1/2+y,z
x,1/2-y,1/2+z
loop_
_atom_site_type_symbol
_atom_site_label
_atom_site_fract_x
_atom_site_fract_y
_atom_site_fract_z
Si Si1 0.597303 0.393761 0.334367
Si Si2 0.219589 0.407381 0.048826
Si Si3 0.927244 0.957730 0.666380
Si Si4 0.184668 0.768001 0.334003
Si Si5 0.316709 0.082673 0.112391
Si Si6 0.152211 0.597987 0.405250
Si Si7 0.043282 0.626257 0.560372
Si Si8 0.590380 0.728611 0.584205
O O1 0.554059 0.395024 0.250000
O O2 0.725575 0.350788 0.340867
O O3 0.603279 0.496860 0.364262
O O4 0.511653 0.330838 0.380883
O O5 0.212608 0.498734 0.098839
O O6 0.290154 0.329375 0.091735
O O7 0.090093 0.368887 0.032944
O O8 0.285710 0.429398 0.973328
O O9 0.942067 0.994512 0.750000
O O10 0.801526 0.908994 0.660464
O O11 0.035207 0.893221 0.645060
O O12 0.932108 0.036887 0.606811
O O13 0.143477 0.755922 0.250000
O O14 0.237461 0.673156 0.367104
O O15 0.073512 0.788652 0.387134
O O16 0.390292 0.175326 0.126303
O O17 0.127449 0.623324 0.489970
O O18 0.556625 0.750000 0.500000
#
# Coordination Sequence:
#
# PCOD8234379 Si02
#       8
#     8   8   8   8   8   8   8   8
#     4  11  25  46  65  89 129 173 222 270 324 389
#     4  10  21  41  63  97 133 163 213 272 321 386
#     4  11  20  35  59  91 130 170 213 256 315 386
#     4  11  24  39  60  94 130 172 221 270 325 388
#     4  11  21  41  68  92 124 169 218 265 328 392
#     4  11  21  36  61  96 133 174 211 258 325 391
#     4  11  20  37  64  94 131 172 213 259 321 387
#     4  10  26  43  68  99 127 164 222 279 327 382
#
# _framework density 21.055218
#
# number of rings (size 3 to 8) (size 9 to 14) (size 15 to 20)
#    0.000    1.250    3.750    2.250    1.750    7.000 
#    0.000    5.000    0.000    0.000    0.000    0.000 
#    0.000    0.000    0.000    0.000    0.000    0.000 
#
# Total GULP energy -793503.422729 kJ/mol
# GULP energy per Si atom -12398.490980 kJ/mol
# Density = 2.100730 g / cm^3
# Si number density = 21.055218 Si / 1000 Ang^3
#
#
#
# Elastic Constant Matrix: (Units=GPa)
#
#
# Indices 1 2 3 4 5 6 
#
# 1 61.4319 43.5426 37.1467 0.0000 0.0000 0.0000
# 2 43.5426 153.4348 54.5071 0.0000 0.0000 0.0000
# 3 37.1467 54.5071 108.5821 0.0000 0.0000 0.0000
# 4 0.0000 0.0000 0.0000 88.6166 0.0000 0.0000
# 5 0.0000 0.0000 0.0000 0.0000 22.5185 0.0000
# 6 0.0000 0.0000 0.0000 0.0000 0.0000 26.5212
#
#
#
# Elastic Compliance Matrix: (Units=1/GPa)
#
#
# Indices 1 2 3 4 5 6 
#
# 1 0.022827 -0.004508 -0.005547 0.000000 0.000000 0.000000
# 2 -0.004508 0.008822 -0.002886 0.000000 0.000000 0.000000
# 3 -0.005547 -0.002886 0.012556 0.000000 0.000000 0.000000
# 4 0.000000 0.000000 0.000000 0.011285 0.000000 0.000000
# 5 0.000000 0.000000 0.000000 0.000000 0.044408 0.000000
# 6 0.000000 0.000000 0.000000 0.000000 0.000000 0.037706
#
#
# Mechanical properties :
#
#
# Convention : Reuss Voigt Hill
#
# Bulk Modulus (GPa) = 54.57338 65.98240 60.27789
# Shear Modulus (GPa) = 29.48245 40.08142 34.78194
#
# Velocity S-wave (km/s) = 3.74604 4.36780 4.06881
# Velocity P-wave (km/s) = 6.68475 7.53941 7.12491
#
# Compressibility (1/GPa) = 0.01832395
#
# Stress axis : x y z
#
# Youngs Moduli (GPa) = 43.80778 113.35257 79.64247
#
# Poissons Ratio (x) = 0.51095 0.44174
# Poissons Ratio (y) = 0.19747 0.22989
# Poissons Ratio (z) = 0.24298 0.32719
#
# Static dielectric constant tensor:
#      x y z
#    x 3.783290 0.000000 0.000000 
#    y 0.000000 4.184900 0.000000 
#    z 0.000000 0.000000 3.886070 
# 
# 
# High freq. dielectric constant tensor:
#      x y z
#    x 1.799540 0.000000 0.000000 
#    y 0.000000 1.841380 0.000000 
#    z 0.000000 0.000000 1.825150 
# 
# From -- ./inp_files/22035.got.cif
#   From: 2010.03.12/outbox.cif.g09.slc.cpg/sg57_12_cif.got.tgz:22035.got - 2010.04.16 15:48:40.
