data_PCOD8234606
_publ_section_title
;
Structure prediction by ZEFSAII (Michael W. Deem and Ramdas Pophale) SiO2 
 PCOD8234606
Probable space group: P B C M
;
_chemical_formula_sum "Si O2"
_cell_formula_units_Z 40
_cell_length_a 23.113242
_cell_length_b 8.083507
_cell_length_c 9.171191
_cell_angle_alpha 90.000000
_cell_angle_beta 90.000000
_cell_angle_gamma 90.000000
_cell_volume 1713.509132
_symmetry_space_group_name_H-M "P B C M"
_symmetry_group_IT_number 57
_symmetry_cell_setting 'orthorhombic'
loop_
_space_group_symop_operation_xyz
x,y,z
-x,-y,1/2+z
x,1/2-y,-z
-x,1/2+y,1/2-z
-x,-y,-z
x,y,1/2-z
-x,1/2+y,z
x,1/2-y,1/2+z
loop_
_atom_site_type_symbol
_atom_site_label
_atom_site_fract_x
_atom_site_fract_y
_atom_site_fract_z
Si Si1 0.553539 0.917756 0.420034
Si Si2 0.972203 0.544824 0.750000
Si Si3 0.919177 0.750000 0.000000
Si Si4 0.106623 0.476127 0.750000
Si Si5 0.324923 0.583551 0.081944
Si Si6 0.215155 0.403611 0.090085
Si Si7 0.139409 0.649229 0.250000
O O1 0.568309 0.750000 0.500000
O O2 0.538722 0.889191 0.250000
O O3 0.500000 0.000000 0.500000
O O4 0.609570 0.028807 0.442011
O O5 0.960870 0.646609 0.896451
O O6 0.929126 0.387071 0.750000
O O7 0.037575 0.490379 0.750000
O O8 0.878746 0.869438 0.896129
O O9 0.143205 0.649447 0.750000
O O10 0.310819 0.615040 0.250000
O O11 0.276640 0.457945 0.019320
O O12 0.314718 0.750000 0.000000
O O13 0.227803 0.329849 0.250000
O O14 0.169756 0.559972 0.107995
O O15 0.189195 0.250000 0.000000
#
# Coordination Sequence:
#
# PCOD8234606 Si02
#       7
#     8   4   4   4   8   8   4
#     4  11  23  39  63  95 135 179 230 285 350 419
#     4  11  23  41  69 105 136 181 221 285 343 420
#     4  10  24  42  68  94 142 178 220 276 346 416
#     4  11  23  47  69 100 138 180 229 278 351 420
#     4  10  22  41  62  95 135 177 230 289 346 416
#     4   9  21  43  70 100 134 178 230 287 356 409
#     4  10  24  42  74 101 138 175 238 285 348 430
#
# _framework density 23.343907000000002
#
# number of rings (size 3 to 8) (size 9 to 14) (size 15 to 20)
#    0.600    1.200    0.000    3.600    1.400    4.800 
#    3.600    0.000    4.400    0.000    0.000    0.000 
#    0.000    0.000    0.000    0.000    0.000    0.000 
#
# Total GULP energy -495623.435006 kJ/mol
# GULP energy per Si atom -12390.585875 kJ/mol
# Density = 2.329077 g / cm^3
# Si number density = 23.343907 Si / 1000 Ang^3
#
#
#
# Elastic Constant Matrix: (Units=GPa)
#
#
# Indices 1 2 3 4 5 6 
#
# 1 142.8744 48.8941 49.9117 0.0000 0.0000 0.0000
# 2 48.8941 162.4356 81.8020 0.0000 0.0000 0.0000
# 3 49.9117 81.8020 116.9582 0.0000 0.0000 0.0000
# 4 0.0000 0.0000 0.0000 47.7500 0.0000 0.0000
# 5 0.0000 0.0000 0.0000 0.0000 25.6322 0.0000
# 6 0.0000 0.0000 0.0000 0.0000 0.0000 44.8939
#
#
#
# Elastic Compliance Matrix: (Units=1/GPa)
#
#
# Indices 1 2 3 4 5 6 
#
# 1 0.008353 -0.001110 -0.002788 0.000000 0.000000 0.000000
# 2 -0.001110 0.009651 -0.006276 0.000000 0.000000 0.000000
# 3 -0.002788 -0.006276 0.014130 0.000000 0.000000 0.000000
# 4 0.000000 0.000000 0.000000 0.020942 0.000000 0.000000
# 5 0.000000 0.000000 0.000000 0.000000 0.039013 0.000000
# 6 0.000000 0.000000 0.000000 0.000000 0.000000 0.022275
#
#
# Mechanical properties :
#
#
# Convention : Reuss Voigt Hill
#
# Bulk Modulus (GPa) = 84.85759 87.05376 85.95568
# Shear Modulus (GPa) = 36.06400 39.76592 37.91496
#
# Velocity S-wave (km/s) = 3.93479 4.13180 4.03450
# Velocity P-wave (km/s) = 7.55469 7.75469 7.65534
#
# Compressibility (1/GPa) = 0.01178445
#
# Stress axis : x y z
#
# Youngs Moduli (GPa) = 119.71588 103.61352 70.77284
#
# Poissons Ratio (x) = 0.11503 0.19733
# Poissons Ratio (y) = 0.13291 0.44420
# Poissons Ratio (z) = 0.33379 0.65032
#
# Static dielectric constant tensor:
#      x y z
#    x 4.071450 0.000000 0.000000 
#    y 0.000000 4.183250 0.000000 
#    z 0.000000 0.000000 4.421220 
# 
# 
# High freq. dielectric constant tensor:
#      x y z
#    x 1.939010 0.000000 0.000000 
#    y 0.000000 1.924680 0.000000 
#    z 0.000000 0.000000 1.925990 
# 
# From -- ./inp_files/9017.got.cif
#   From: 2010.03.12/outbox.cif.g09.slc.cpg/sg57_5_cif.got.tgz:9017.got - 2010.04.16 15:48:40.
