data_PCOD8234644
_publ_section_title
;
Structure prediction by ZEFSAII (Michael W. Deem and Ramdas Pophale) SiO2 
 PCOD8234644
Probable space group: P B C M
;
_chemical_formula_sum "Si O2"
_cell_formula_units_Z 32
_cell_length_a 7.528215
_cell_length_b 13.333188
_cell_length_c 14.127283
_cell_angle_alpha 90.000000
_cell_angle_beta 90.000000
_cell_angle_gamma 90.000000
_cell_volume 1418.027527
_symmetry_space_group_name_H-M "P B C M"
_symmetry_group_IT_number 57
_symmetry_cell_setting 'orthorhombic'
loop_
_space_group_symop_operation_xyz
x,y,z
-x,-y,1/2+z
x,1/2-y,-z
-x,1/2+y,1/2-z
-x,-y,-z
x,y,1/2-z
-x,1/2+y,z
x,1/2-y,1/2+z
loop_
_atom_site_type_symbol
_atom_site_label
_atom_site_fract_x
_atom_site_fract_y
_atom_site_fract_z
Si Si1 0.729138 0.835527 0.141671
Si Si2 0.944269 0.214016 0.144445
Si Si3 0.192008 0.968827 0.970538
Si Si4 0.347760 0.622156 0.854413
O O1 0.788764 0.847822 0.250000
O O2 0.521239 0.805851 0.129980
O O3 0.862980 0.749516 0.100312
O O4 0.732262 0.945594 0.096250
O O5 0.969611 0.168843 0.250000
O O6 0.833818 0.136899 0.081689
O O7 0.829755 0.313931 0.146247
O O8 0.323117 0.958776 0.061458
O O9 0.000000 0.000000 0.000000
O O10 0.367098 0.569513 0.750000
#
# Coordination Sequence:
#
# PCOD8234644 Si02
#       4
#     8   8   8   8
#     4  10  22  43  67  92 128 170 210 259 314 371
#     4  10  22  43  65  91 126 165 209 260 313 372
#     4  12  23  39  66  96 128 165 209 260 317 373
#     4  10  22  42  63  90 130 169 210 260 310 370
#
# _framework density 22.566558000000001
#
# number of rings (size 3 to 8) (size 9 to 14) (size 15 to 20)
#    0.000    1.500    2.500    2.250    0.000    1.000 
#   13.500    0.000    0.000    0.000    0.000    0.000 
#    0.000    0.000    0.000    0.000    0.000    0.000 
#
# Total GULP energy -396497.180973 kJ/mol
# GULP energy per Si atom -12390.536905 kJ/mol
# Density = 2.251520 g / cm^3
# Si number density = 22.566558 Si / 1000 Ang^3
#
#
#
# Elastic Constant Matrix: (Units=GPa)
#
#
# Indices 1 2 3 4 5 6 
#
# 1 107.3503 -7.5703 15.8141 0.0000 0.0000 0.0000
# 2 -7.5703 50.8306 29.3711 0.0000 0.0000 0.0000
# 3 15.8141 29.3711 105.9985 0.0000 0.0000 0.0000
# 4 0.0000 0.0000 0.0000 25.2202 0.0000 0.0000
# 5 0.0000 0.0000 0.0000 0.0000 26.6730 0.0000
# 6 0.0000 0.0000 0.0000 0.0000 0.0000 21.8667
#
#
#
# Elastic Compliance Matrix: (Units=1/GPa)
#
#
# Indices 1 2 3 4 5 6 
#
# 1 0.009838 0.002754 -0.002231 0.000000 0.000000 0.000000
# 2 0.002754 0.024195 -0.007115 0.000000 0.000000 0.000000
# 3 -0.002231 -0.007115 0.011738 0.000000 0.000000 0.000000
# 4 0.000000 0.000000 0.000000 0.039651 0.000000 0.000000
# 5 0.000000 0.000000 0.000000 0.000000 0.037491 0.000000
# 6 0.000000 0.000000 0.000000 0.000000 0.000000 0.045732
#
#
# Mechanical properties :
#
#
# Convention : Reuss Voigt Hill
#
# Bulk Modulus (GPa) = 30.68620 37.71213 34.19916
# Shear Modulus (GPa) = 25.94832 29.85627 27.90229
#
# Velocity S-wave (km/s) = 3.39463 3.64130 3.52013
# Velocity P-wave (km/s) = 5.38445 5.86741 5.63111
#
# Compressibility (1/GPa) = 0.03258794
#
# Stress axis : x y z
#
# Youngs Moduli (GPa) = 101.64479 41.33152 85.19024
#
# Poissons Ratio (x) = -0.11384 0.19006
# Poissons Ratio (y) = -0.27996 0.60613
# Poissons Ratio (z) = 0.22677 0.29407
#
# Static dielectric constant tensor:
#      x y z
#    x 2.676930 0.000000 0.000000 
#    y 0.000000 21.395690 0.000000 
#    z 0.000000 0.000000 3.671990 
# 
# 
# High freq. dielectric constant tensor:
#      x y z
#    x 1.910760 0.000000 0.000000 
#    y 0.000000 1.847880 0.000000 
#    z 0.000000 0.000000 1.906800 
# 
# From -- ./inp_files/15500.got.cif
#   From: 2010.03.12/outbox.cif.g09.slc.cpg/sg57_8_cif.got.tgz:15500.got - 2010.04.16 15:48:40.
