data_PCOD8234184
_publ_section_title
;
Structure prediction by ZEFSAII (Michael W. Deem and Ramdas Pophale) SiO2 
 PCOD8234184
Probable space group: P B C M
;
_chemical_formula_sum "Si O2"
_cell_formula_units_Z 64
_cell_length_a 19.867946
_cell_length_b 9.293751
_cell_length_c 17.184837
_cell_angle_alpha 90.000000
_cell_angle_beta 90.000000
_cell_angle_gamma 90.000000
_cell_volume 3173.141366
_symmetry_space_group_name_H-M "P B C M"
_symmetry_group_IT_number 57
_symmetry_cell_setting 'orthorhombic'
loop_
_space_group_symop_operation_xyz
x,y,z
-x,-y,1/2+z
x,1/2-y,-z
-x,1/2+y,1/2-z
-x,-y,-z
x,y,1/2-z
-x,1/2+y,z
x,1/2-y,1/2+z
loop_
_atom_site_type_symbol
_atom_site_label
_atom_site_fract_x
_atom_site_fract_y
_atom_site_fract_z
Si Si1 0.815373 0.337275 0.659911
Si Si2 0.208420 0.157433 0.841867
Si Si3 0.289464 0.660879 0.923076
Si Si4 0.562689 0.280369 0.091271
Si Si5 0.676141 0.668028 0.080473
Si Si6 0.541584 0.577304 0.158887
Si Si7 0.068714 0.217877 0.590216
Si Si8 0.039071 0.918619 0.659495
O O1 0.803820 0.329985 0.750000
O O2 0.786478 0.491217 0.629880
O O3 0.775169 0.199639 0.628224
O O4 0.894449 0.324465 0.638559
O O5 0.195546 0.165909 0.750000
O O6 0.275371 0.241740 0.863980
O O7 0.146370 0.232926 0.885666
O O8 0.358869 0.715885 0.884081
O O9 0.293076 0.489676 0.936584
O O10 0.277455 0.750000 0.000000
O O11 0.529677 0.432488 0.110923
O O12 0.526857 0.163877 0.145107
O O13 0.553181 0.250000 0.000000
O O14 0.605442 0.662443 0.125061
O O15 0.664927 0.750000 0.000000
O O16 0.552261 0.546978 0.250000
O O17 0.059387 0.250000 0.500000
O O18 0.027719 0.331882 0.641082
O O19 0.039413 0.061161 0.607765
O O20 0.040883 0.963660 0.750000
#
# Coordination Sequence:
#
# PCOD8234184 Si02
#       8
#     8   8   8   8   8   8   8   8
#     4   9  20  37  58  82 115 153 191 235 289 349
#     4  10  21  39  60  85 117 156 197 242 298 362
#     4  10  22  38  59  85 114 150 193 239 291 350
#     4  10  22  40  60  85 118 159 200 243 298 360
#     4  11  23  39  60  86 120 156 197 248 296 354
#     4  11  23  39  60  89 120 154 199 252 301 355
#     4  11  22  37  59  88 118 153 199 250 298 353
#     4  10  21  39  59  84 119 159 198 243 298 359
#
# _framework density 20.169288000000002
#
# number of rings (size 3 to 8) (size 9 to 14) (size 15 to 20)
#    0.000    1.750    0.000    4.875    0.000    8.500 
#    0.000    2.500    0.000    0.000    0.000    0.000 
#    0.000    0.000    0.000    0.000    0.000    0.000 
#
# Total GULP energy -793664.093418 kJ/mol
# GULP energy per Si atom -12401.001460 kJ/mol
# Density = 2.012338 g / cm^3
# Si number density = 20.169288 Si / 1000 Ang^3
#
#
#
# Elastic Constant Matrix: (Units=GPa)
#
#
# Indices 1 2 3 4 5 6 
#
# 1 48.4748 35.5437 37.2992 0.0000 0.0000 0.0000
# 2 35.5437 84.1056 47.7030 0.0000 0.0000 0.0000
# 3 37.2992 47.7030 95.6877 0.0000 0.0000 0.0000
# 4 0.0000 0.0000 0.0000 33.4346 0.0000 0.0000
# 5 0.0000 0.0000 0.0000 0.0000 -103.5219 0.0000
# 6 0.0000 0.0000 0.0000 0.0000 0.0000 41.1565
#
#
#
# Elastic Compliance Matrix: (Units=1/GPa)
#
#
# Indices 1 2 3 4 5 6 
#
# 1 0.034278 -0.009631 -0.008560 0.000000 0.000000 0.000000
# 2 -0.009631 0.019283 -0.005859 0.000000 0.000000 0.000000
# 3 -0.008560 -0.005859 0.016708 0.000000 0.000000 0.000000
# 4 0.000000 0.000000 0.000000 0.029909 0.000000 0.000000
# 5 0.000000 0.000000 0.000000 0.000000 -0.009660 0.000000
# 6 0.000000 0.000000 0.000000 0.000000 0.000000 0.024297
#
#
# Mechanical properties :
#
#
# Convention : Reuss Voigt Hill
#
# Bulk Modulus (GPa) = 45.10831 52.15111 48.62971
# Shear Modulus (GPa) = 29.35895 1.39532 15.37714
#
# Velocity S-wave (km/s) = 3.81941 0.83265 2.76416
# Velocity P-wave (km/s) = 6.47023 5.18047 5.86094
#
# Compressibility (1/GPa) = 0.02216886
#
# Stress axis : x y z
#
# Youngs Moduli (GPa) = 29.17343 51.85910 59.85033
#
# Poissons Ratio (x) = 0.49945 0.51233
# Poissons Ratio (y) = 0.28097 0.35066
# Poissons Ratio (z) = 0.24973 0.30384
#
# Static dielectric constant tensor:
#      x y z
#    x 3.817670 0.000000 0.000000 
#    y 0.000000 3.883610 0.000000 
#    z 0.000000 0.000000 3.758400 
# 
# 
# High freq. dielectric constant tensor:
#      x y z
#    x 1.795710 0.000000 0.000000 
#    y 0.000000 1.789870 0.000000 
#    z 0.000000 0.000000 1.789970 
# 
# From -- ./inp_files/23005.got.cif
#   From: 2010.03.12/outbox.cif.g09.slc.cpg/sg57_12_cif.got.tgz:23005.got - 2010.04.16 15:48:40.
