data_PCOD8234254
_publ_section_title
;
Structure prediction by ZEFSAII (Michael W. Deem and Ramdas Pophale) SiO2 
 PCOD8234254
Probable space group: P B C M
;
_chemical_formula_sum "Si O2"
_cell_formula_units_Z 64
_cell_length_a 12.645077
_cell_length_b 13.963046
_cell_length_c 17.196418
_cell_angle_alpha 90.000000
_cell_angle_beta 90.000000
_cell_angle_gamma 90.000000
_cell_volume 3036.264768
_symmetry_space_group_name_H-M "P B C M"
_symmetry_group_IT_number 57
_symmetry_cell_setting 'orthorhombic'
loop_
_space_group_symop_operation_xyz
x,y,z
-x,-y,1/2+z
x,1/2-y,-z
-x,1/2+y,1/2-z
-x,-y,-z
x,y,1/2-z
-x,1/2+y,z
x,1/2-y,1/2+z
loop_
_atom_site_type_symbol
_atom_site_label
_atom_site_fract_x
_atom_site_fract_y
_atom_site_fract_z
Si Si1 0.429687 0.566466 0.160704
Si Si2 0.015411 0.951573 0.164585
Si Si3 0.253051 0.665321 0.439311
Si Si4 0.134906 0.119559 0.385533
Si Si5 0.624725 0.835241 0.602928
Si Si6 0.940078 0.240917 0.340845
Si Si7 0.372706 0.119630 0.574587
Si Si8 0.837086 0.531196 0.954318
O O1 0.391380 0.554975 0.250000
O O2 0.353788 0.640377 0.114455
O O3 0.547376 0.610031 0.161447
O O4 0.437683 0.462728 0.119104
O O5 0.964880 0.938980 0.250000
O O6 0.063717 0.852036 0.136009
O O7 0.927161 0.993400 0.107477
O O8 0.109499 0.028892 0.169003
O O9 0.282613 0.750000 0.500000
O O10 0.155602 0.692813 0.385360
O O11 0.218310 0.567643 0.483571
O O12 0.254597 0.151063 0.370413
O O13 0.113593 0.088028 0.474110
O O14 0.055428 0.205755 0.367415
O O15 0.604231 0.879589 0.517621
O O16 0.598011 0.722801 0.608809
O O17 0.923662 0.221097 0.250000
O O18 0.248524 0.098879 0.587908
#
# Coordination Sequence:
#
# PCOD8234254 Si02
#       8
#     8   8   8   8   8   8   8   8
#     4  11  25  44  68  98 135 173 220 278 335 397
#     4  11  23  37  57  89 131 173 208 259 321 385
#     4  11  24  41  66  91 124 176 223 272 325 392
#     4  11  22  39  64  95 130 162 212 266 324 384
#     4  10  22  43  70 100 130 169 221 271 331 394
#     4  11  24  39  60  94 134 172 211 263 327 391
#     4   9  21  42  69  96 126 174 218 273 322 395
#     4  10  21  39  63  94 124 166 217 267 314 387
#
# _framework density 21.078530000000001
#
# number of rings (size 3 to 8) (size 9 to 14) (size 15 to 20)
#    0.000    1.500    1.250    3.000    3.500    4.500 
#    2.250    0.000    0.000    0.000    0.000    0.000 
#    0.000    0.000    0.000    0.000    0.000    0.000 
#
# Total GULP energy -793608.873522 kJ/mol
# GULP energy per Si atom -12400.138649 kJ/mol
# Density = 2.103055 g / cm^3
# Si number density = 21.078530 Si / 1000 Ang^3
#
#
#
# Elastic Constant Matrix: (Units=GPa)
#
#
# Indices 1 2 3 4 5 6 
#
# 1 99.7271 42.3621 33.4953 0.0000 0.0000 0.0000
# 2 42.3621 127.3079 40.4780 0.0000 0.0000 0.0000
# 3 33.4953 40.4780 77.3340 0.0000 0.0000 0.0000
# 4 0.0000 0.0000 0.0000 19.8839 0.0000 0.0000
# 5 0.0000 0.0000 0.0000 0.0000 21.4499 0.0000
# 6 0.0000 0.0000 0.0000 0.0000 0.0000 31.7335
#
#
#
# Elastic Compliance Matrix: (Units=1/GPa)
#
#
# Indices 1 2 3 4 5 6 
#
# 1 0.012593 -0.002946 -0.003912 0.000000 0.000000 0.000000
# 2 -0.002946 0.010113 -0.004017 0.000000 0.000000 0.000000
# 3 -0.003912 -0.004017 0.016728 0.000000 0.000000 0.000000
# 4 0.000000 0.000000 0.000000 0.050292 0.000000 0.000000
# 5 0.000000 0.000000 0.000000 0.000000 0.046620 0.000000
# 6 0.000000 0.000000 0.000000 0.000000 0.000000 0.031512
#
#
# Mechanical properties :
#
#
# Convention : Reuss Voigt Hill
#
# Bulk Modulus (GPa) = 56.55323 59.67109 58.11216
# Shear Modulus (GPa) = 25.57503 27.14904 26.36204
#
# Velocity S-wave (km/s) = 3.48706 3.59276 3.54030
# Velocity P-wave (km/s) = 6.56512 6.75137 6.65889
#
# Compressibility (1/GPa) = 0.01768246
#
# Stress axis : x y z
#
# Youngs Moduli (GPa) = 79.40975 98.88639 59.78047
#
# Poissons Ratio (x) = 0.29137 0.23387
# Poissons Ratio (y) = 0.23398 0.24013
# Poissons Ratio (z) = 0.31066 0.39722
#
# Static dielectric constant tensor:
#      x y z
#    x 3.678700 0.000000 0.000000 
#    y 0.000000 4.027800 0.000000 
#    z 0.000000 0.000000 3.728160 
# 
# 
# High freq. dielectric constant tensor:
#      x y z
#    x 1.819070 0.000000 0.000000 
#    y 0.000000 1.843630 0.000000 
#    z 0.000000 0.000000 1.816460 
# 
# From -- ./inp_files/22083.got.cif
#   From: 2010.03.12/outbox.cif.g09.slc.cpg/sg57_12_cif.got.tgz:22083.got - 2010.04.16 15:48:40.
