data_PCOD8234026
_publ_section_title
;
Structure prediction by ZEFSAII (Michael W. Deem and Ramdas Pophale) SiO2 
 PCOD8234026
Probable space group: P B C M
;
_chemical_formula_sum "Si O2"
_cell_formula_units_Z 48
_cell_length_a 15.546193
_cell_length_b 18.054336
_cell_length_c 8.786140
_cell_angle_alpha 90.000000
_cell_angle_beta 90.000000
_cell_angle_gamma 90.000000
_cell_volume 2466.060317
_symmetry_space_group_name_H-M "P B C M"
_symmetry_group_IT_number 57
_symmetry_cell_setting 'orthorhombic'
loop_
_space_group_symop_operation_xyz
x,y,z
-x,-y,1/2+z
x,1/2-y,-z
-x,1/2+y,1/2-z
-x,-y,-z
x,y,1/2-z
-x,1/2+y,z
x,1/2-y,1/2+z
loop_
_atom_site_type_symbol
_atom_site_label
_atom_site_fract_x
_atom_site_fract_y
_atom_site_fract_z
Si Si1 0.998402 0.171474 0.071784
Si Si2 0.332878 0.831433 0.429860
Si Si3 0.154346 0.432443 0.930144
Si Si4 0.691342 0.670145 0.427113
Si Si5 0.497639 0.169797 0.428175
Si Si6 0.173080 0.909920 0.929434
O O1 0.001517 0.182275 0.250000
O O2 0.070650 0.113388 0.020557
O O3 0.905477 0.142385 0.018979
O O4 0.019319 0.250000 0.000000
O O5 0.320104 0.750000 0.500000
O O6 0.334762 0.824469 0.250000
O O7 0.421894 0.870229 0.488904
O O8 0.256548 0.884657 0.479543
O O9 0.157009 0.448911 0.750000
O O10 0.238465 0.387820 0.986351
O O11 0.149876 0.507198 0.024908
O O12 0.705366 0.750000 0.500000
O O13 0.703669 0.684065 0.250000
O O14 0.596462 0.634445 0.460440
O O15 0.493406 0.250000 0.500000
O O16 0.517804 0.174394 0.250000
O O17 0.189781 0.904682 0.750000
#
# Coordination Sequence:
#
# PCOD8234026 Si02
#       6
#     8   8   8   8   8   8
#     4  10  22  38  59  84 110 139 178 222 267 318
#     4  11  21  35  56  81 108 142 181 226 272 319
#     4  10  21  38  56  80 112 145 178 219 268 321
#     4   9  18  32  54  81 110 142 180 222 268 318
#     4   9  16  29  50  78 108 139 176 222 267 315
#     4  11  23  38  55  80 110 145 184 223 268 321
#
# _framework density 19.464243
#
# number of rings (size 3 to 8) (size 9 to 14) (size 15 to 20)
#    0.000    2.000    0.000    5.000    0.000    4.667 
#    0.000    0.833    0.000    0.000    0.000    0.000 
#    0.000    0.000    0.000    0.000    0.000    0.000 
#
# Total GULP energy -595101.570654 kJ/mol
# GULP energy per Si atom -12397.949389 kJ/mol
# Density = 1.941994 g / cm^3
# Si number density = 19.464243 Si / 1000 Ang^3
#
#
#
# Elastic Constant Matrix: (Units=GPa)
#
#
# Indices 1 2 3 4 5 6 
#
# 1 115.8494 18.3578 40.6443 0.0000 0.0000 0.0000
# 2 18.3578 68.1236 25.3227 0.0000 0.0000 0.0000
# 3 40.6443 25.3227 82.3015 0.0000 0.0000 0.0000
# 4 0.0000 0.0000 0.0000 31.7248 0.0000 0.0000
# 5 0.0000 0.0000 0.0000 0.0000 20.5281 0.0000
# 6 0.0000 0.0000 0.0000 0.0000 0.0000 23.9003
#
#
#
# Elastic Compliance Matrix: (Units=1/GPa)
#
#
# Indices 1 2 3 4 5 6 
#
# 1 0.010503 -0.001019 -0.004873 0.000000 0.000000 0.000000
# 2 -0.001019 0.016674 -0.004627 0.000000 0.000000 0.000000
# 3 -0.004873 -0.004627 0.015981 0.000000 0.000000 0.000000
# 4 0.000000 0.000000 0.000000 0.031521 0.000000 0.000000
# 5 0.000000 0.000000 0.000000 0.000000 0.048714 0.000000
# 6 0.000000 0.000000 0.000000 0.000000 0.000000 0.041841
#
#
# Mechanical properties :
#
#
# Convention : Reuss Voigt Hill
#
# Bulk Modulus (GPa) = 45.20996 48.32489 46.76742
# Shear Modulus (GPa) = 25.82047 27.36061 26.59054
#
# Velocity S-wave (km/s) = 3.64615 3.75331 3.70012
# Velocity P-wave (km/s) = 6.40340 6.60792 6.50646
#
# Compressibility (1/GPa) = 0.02211902
#
# Stress axis : x y z
#
# Youngs Moduli (GPa) = 95.20967 59.97468 62.57490
#
# Poissons Ratio (x) = 0.06110 0.30496
# Poissons Ratio (y) = 0.09700 0.28954
# Poissons Ratio (z) = 0.46400 0.27751
#
# Static dielectric constant tensor:
#      x y z
#    x 4.507680 0.000000 0.000000 
#    y 0.000000 3.158670 0.000000 
#    z 0.000000 0.000000 3.466540 
# 
# 
# High freq. dielectric constant tensor:
#      x y z
#    x 1.785890 0.000000 0.000000 
#    y 0.000000 1.731790 0.000000 
#    z 0.000000 0.000000 1.759550 
# 
# From -- ./inp_files/4658.got.cif
#   From: 2010.03.12/outbox.cif.g09.slc.cpg/sg57_3_cif.got.tgz:4658.got - 2010.04.16 15:48:40.
