data_PCOD8234784
_publ_section_title
;
Structure prediction by ZEFSAII (Michael W. Deem and Ramdas Pophale) SiO2 
 PCOD8234784
Probable space group: P B C M
;
_chemical_formula_sum "Si O2"
_cell_formula_units_Z 24
_cell_length_a 6.977172
_cell_length_b 9.525554
_cell_length_c 13.427240
_cell_angle_alpha 90.000000
_cell_angle_beta 90.000000
_cell_angle_gamma 90.000000
_cell_volume 892.393553
_symmetry_space_group_name_H-M "P B C M"
_symmetry_group_IT_number 57
_symmetry_cell_setting 'orthorhombic'
loop_
_space_group_symop_operation_xyz
x,y,z
-x,-y,1/2+z
x,1/2-y,-z
-x,1/2+y,1/2-z
-x,-y,-z
x,y,1/2-z
-x,1/2+y,z
x,1/2-y,1/2+z
loop_
_atom_site_type_symbol
_atom_site_label
_atom_site_fract_x
_atom_site_fract_y
_atom_site_fract_z
Si Si1 0.924506 0.720058 0.135727
Si Si2 0.219195 0.563617 0.943338
Si Si3 0.629625 0.958010 0.361083
O O1 0.968631 0.685535 0.250000
O O2 0.909885 0.575145 0.074535
O O3 0.726682 0.805590 0.123671
O O4 0.100052 0.800898 0.086120
O O5 0.402874 0.558779 0.871781
O O6 0.288244 0.569209 0.058745
O O7 0.675891 0.015180 0.250000
#
# Coordination Sequence:
#
# PCOD8234784 Si02
#       3
#     8   8   8
#     4  11  23  42  71 105 141 184 235 293 359 427
#     4  11  24  45  72 105 144 185 238 299 359 425
#     4  10  23  43  69 102 142 189 238 290 353 427
#
# _framework density 26.893964
#
# number of rings (size 3 to 8) (size 9 to 14) (size 15 to 20)
#    0.000    1.333    0.000    5.000    0.000    2.667 
#    0.000   15.000    0.000    0.000    0.000    0.000 
#    0.000    0.000    0.000    0.000    0.000    0.000 
#
# Total GULP energy -297794.097647 kJ/mol
# GULP energy per Si atom -12408.087402 kJ/mol
# Density = 2.683275 g / cm^3
# Si number density = 26.893964 Si / 1000 Ang^3
#
#
#
# Elastic Constant Matrix: (Units=GPa)
#
#
# Indices 1 2 3 4 5 6 
#
# 1 165.2845 66.8649 34.3674 0.0000 0.0000 0.0000
# 2 66.8649 118.5369 45.6597 0.0000 0.0000 0.0000
# 3 34.3674 45.6597 228.7987 0.0000 0.0000 0.0000
# 4 0.0000 0.0000 0.0000 34.9229 0.0000 0.0000
# 5 0.0000 0.0000 0.0000 0.0000 23.8619 0.0000
# 6 0.0000 0.0000 0.0000 0.0000 0.0000 28.4792
#
#
#
# Elastic Compliance Matrix: (Units=1/GPa)
#
#
# Indices 1 2 3 4 5 6 
#
# 1 0.007861 -0.004311 -0.000320 0.000000 0.000000 0.000000
# 2 -0.004311 0.011503 -0.001648 0.000000 0.000000 0.000000
# 3 -0.000320 -0.001648 0.004748 0.000000 0.000000 0.000000
# 4 0.000000 0.000000 0.000000 0.028635 0.000000 0.000000
# 5 0.000000 0.000000 0.000000 0.000000 0.041908 0.000000
# 6 0.000000 0.000000 0.000000 0.000000 0.000000 0.035113
#
#
# Mechanical properties :
#
#
# Convention : Reuss Voigt Hill
#
# Bulk Modulus (GPa) = 86.56017 89.60046 88.08032
# Shear Modulus (GPa) = 34.20543 41.83467 38.02005
#
# Velocity S-wave (km/s) = 3.57019 3.94831 3.76400
# Velocity P-wave (km/s) = 7.01788 7.36031 7.19113
#
# Compressibility (1/GPa) = 0.01155266
#
# Stress axis : x y z
#
# Youngs Moduli (GPa) = 127.21585 86.93722 210.62956
#
# Poissons Ratio (x) = 0.37475 0.06751
# Poissons Ratio (y) = 0.54838 0.34711
# Poissons Ratio (z) = 0.04077 0.14327
#
# Static dielectric constant tensor:
#      x y z
#    x 5.230680 0.000000 0.000000 
#    y 0.000000 4.665970 0.000000 
#    z 0.000000 0.000000 5.346460 
# 
# 
# High freq. dielectric constant tensor:
#      x y z
#    x 2.108100 0.000000 0.000000 
#    y 0.000000 2.069760 0.000000 
#    z 0.000000 0.000000 2.108890 
# 
# From -- ./inp_files/15362.got.cif
#   From: 2010.03.12/outbox.cif.g09.slc.cpg/sg57_8_cif.got.tgz:15362.got - 2010.04.16 15:48:40.
