data_PCOD8234000
_publ_section_title
;
Structure prediction by ZEFSAII (Michael W. Deem and Ramdas Pophale) SiO2 
 PCOD8234000
Probable space group: P B C M
;
_chemical_formula_sum "Si O2"
_cell_formula_units_Z 48
_cell_length_a 14.991005
_cell_length_b 19.005749
_cell_length_c 8.790161
_cell_angle_alpha 90.000000
_cell_angle_beta 90.000000
_cell_angle_gamma 90.000000
_cell_volume 2504.451168
_symmetry_space_group_name_H-M "P B C M"
_symmetry_group_IT_number 57
_symmetry_cell_setting 'orthorhombic'
loop_
_space_group_symop_operation_xyz
x,y,z
-x,-y,1/2+z
x,1/2-y,-z
-x,1/2+y,1/2-z
-x,-y,-z
x,y,1/2-z
-x,1/2+y,z
x,1/2-y,1/2+z
loop_
_atom_site_type_symbol
_atom_site_label
_atom_site_fract_x
_atom_site_fract_y
_atom_site_fract_z
Si Si1 0.231528 0.578487 0.927841
Si Si2 0.479753 0.425611 0.425398
Si Si3 0.621537 0.173529 0.429769
Si Si4 0.724493 0.566356 0.575558
Si Si5 0.124859 0.174137 0.928517
Si Si6 0.971399 0.427103 0.428612
O O1 0.248297 0.591676 0.750000
O O2 0.129237 0.592390 0.974091
O O3 0.289632 0.632071 0.025149
O O4 0.259142 0.499270 0.966301
O O5 0.500000 0.500000 0.500000
O O6 0.509486 0.428790 0.250000
O O7 0.533883 0.365206 0.509855
O O8 0.376104 0.406469 0.442292
O O9 0.626158 0.250000 0.500000
O O10 0.615505 0.178909 0.250000
O O11 0.744269 0.543770 0.750000
O O12 0.788764 0.629201 0.523051
O O13 0.120429 0.184112 0.750000
O O14 0.036073 0.134688 0.988779
O O15 0.132206 0.250000 0.000000
O O16 0.981962 0.436594 0.250000
O O17 0.000000 0.500000 0.500000
#
# Coordination Sequence:
#
# PCOD8234000 Si02
#       6
#     8   8   8   8   8   8
#     4  11  22  37  62  94 123 157 207 256 304 369
#     4  11  22  38  63  95 125 160 206 253 305 367
#     4  12  26  44  64  89 125 166 205 259 318 367
#     4  10  21  38  62  89 122 161 201 248 304 364
#     4  10  22  40  59  86 124 160 199 247 302 361
#     4  10  21  37  61  91 122 158 204 252 301 364
#
# _framework density 19.165876000000001
#
# number of rings (size 3 to 8) (size 9 to 14) (size 15 to 20)
#    0.000    1.333    3.333    2.500    0.000    4.000 
#    0.000    3.333    0.000    0.000    0.000    0.000 
#    0.000    0.000    0.000    0.000    0.000    0.000 
#
# Total GULP energy -595415.398412 kJ/mol
# GULP energy per Si atom -12404.487467 kJ/mol
# Density = 1.912225 g / cm^3
# Si number density = 19.165876 Si / 1000 Ang^3
#
#
#
# Elastic Constant Matrix: (Units=GPa)
#
#
# Indices 1 2 3 4 5 6 
#
# 1 157.6400 74.6683 55.0889 0.0000 0.0000 0.0000
# 2 74.6683 162.7764 55.7775 0.0000 0.0000 0.0000
# 3 55.0889 55.7775 100.1423 0.0000 0.0000 0.0000
# 4 0.0000 0.0000 0.0000 39.1226 0.0000 0.0000
# 5 0.0000 0.0000 0.0000 0.0000 27.6435 0.0000
# 6 0.0000 0.0000 0.0000 0.0000 0.0000 29.6453
#
#
#
# Elastic Compliance Matrix: (Units=1/GPa)
#
#
# Indices 1 2 3 4 5 6 
#
# 1 0.008877 -0.002965 -0.003232 0.000000 0.000000 0.000000
# 2 -0.002965 0.008583 -0.003149 0.000000 0.000000 0.000000
# 3 -0.003232 -0.003149 0.013518 0.000000 0.000000 0.000000
# 4 0.000000 0.000000 0.000000 0.025561 0.000000 0.000000
# 5 0.000000 0.000000 0.000000 0.000000 0.036175 0.000000
# 6 0.000000 0.000000 0.000000 0.000000 0.000000 0.033732
#
#
# Mechanical properties :
#
#
# Convention : Reuss Voigt Hill
#
# Bulk Modulus (GPa) = 81.39816 87.95866 84.67841
# Shear Modulus (GPa) = 33.50461 34.95058 34.22759
#
# Velocity S-wave (km/s) = 4.18561 4.27498 4.23053
# Velocity P-wave (km/s) = 8.11922 8.38810 8.25475
#
# Compressibility (1/GPa) = 0.01228529
#
# Stress axis : x y z
#
# Youngs Moduli (GPa) = 112.64644 116.51597 73.97511
#
# Poissons Ratio (x) = 0.34542 0.23911
# Poissons Ratio (y) = 0.33395 0.23298
# Poissons Ratio (z) = 0.36410 0.36696
#
# Static dielectric constant tensor:
#      x y z
#    x 1.920520 0.000000 0.000000 
#    y 0.000000 2.829690 0.000000 
#    z 0.000000 0.000000 3.577280 
# 
# 
# High freq. dielectric constant tensor:
#      x y z
#    x 1.766760 0.000000 0.000000 
#    y 0.000000 1.742400 0.000000 
#    z 0.000000 0.000000 1.749630 
# 
# From -- ./inp_files/4651.got.cif
#   From: 2010.03.12/outbox.cif.g09.slc.cpg/sg57_3_cif.got.tgz:4651.got - 2010.04.16 15:48:40.
