data_PCOD8234414
_publ_section_title
;
Structure prediction by ZEFSAII (Michael W. Deem and Ramdas Pophale) SiO2 
 PCOD8234414
Probable space group: P B C M
;
_chemical_formula_sum "Si O2"
_cell_formula_units_Z 32
_cell_length_a 20.557265
_cell_length_b 5.054759
_cell_length_c 14.150080
_cell_angle_alpha 90.000000
_cell_angle_beta 90.000000
_cell_angle_gamma 90.000000
_cell_volume 1470.363400
_symmetry_space_group_name_H-M "P B C M"
_symmetry_group_IT_number 57
_symmetry_cell_setting 'orthorhombic'
loop_
_space_group_symop_operation_xyz
x,y,z
-x,-y,1/2+z
x,1/2-y,-z
-x,1/2+y,1/2-z
-x,-y,-z
x,y,1/2-z
-x,1/2+y,z
x,1/2-y,1/2+z
loop_
_atom_site_type_symbol
_atom_site_label
_atom_site_fract_x
_atom_site_fract_y
_atom_site_fract_z
Si Si1 0.261589 0.149856 0.141951
Si Si2 0.045477 0.959159 0.250000
Si Si3 0.873992 0.516613 0.060316
Si Si4 0.545691 0.250000 0.000000
Si Si5 0.344733 0.866413 0.856659
O O1 0.245963 0.231451 0.250000
O O2 0.195881 0.143158 0.083034
O O3 0.310945 0.371109 0.098846
O O4 0.292121 0.862305 0.136350
O O5 0.089495 0.954991 0.342939
O O6 0.998233 0.203597 0.250000
O O7 0.910135 0.750000 0.000000
O O8 0.868724 0.250000 0.000000
O O9 0.590582 0.273312 0.908495
O O10 0.500000 0.500000 0.000000
O O11 0.366422 0.925665 0.750000
#
# Coordination Sequence:
#
# PCOD8234414 Si02
#       5
#     8   4   8   4   8
#     4  10  21  42  66  98 136 165 218 282 347 401
#     4  12  28  50  72  98 148 192 232 284 334 416
#     4  12  26  43  71 107 137 182 231 287 353 412
#     4  12  26  42  62  92 132 176 224 268 324 412
#     4  10  23  40  65  94 127 173 216 276 336 397
#
# _framework density 21.763328999999999
#
# number of rings (size 3 to 8) (size 9 to 14) (size 15 to 20)
#    0.000    1.000    1.250    4.500    5.250    4.000 
#    0.000    0.000    0.000    0.000    0.000    0.000 
#    0.000    0.000    0.000    0.000    0.000    0.000 
#
# Total GULP energy -396879.277464 kJ/mol
# GULP energy per Si atom -12402.477421 kJ/mol
# Density = 2.171379 g / cm^3
# Si number density = 21.763329 Si / 1000 Ang^3
#
#
#
# Elastic Constant Matrix: (Units=GPa)
#
#
# Indices 1 2 3 4 5 6 
#
# 1 118.7553 48.2130 71.5670 0.0000 0.0000 0.0000
# 2 48.2130 156.7912 55.3387 0.0000 0.0000 0.0000
# 3 71.5670 55.3387 129.7752 0.0000 0.0000 0.0000
# 4 0.0000 0.0000 0.0000 37.5716 0.0000 0.0000
# 5 0.0000 0.0000 0.0000 0.0000 -48.0791 0.0000
# 6 0.0000 0.0000 0.0000 0.0000 0.0000 40.9775
#
#
#
# Elastic Compliance Matrix: (Units=1/GPa)
#
#
# Indices 1 2 3 4 5 6 
#
# 1 0.012998 -0.001727 -0.006431 0.000000 0.000000 0.000000
# 2 -0.001727 0.007737 -0.002347 0.000000 0.000000 0.000000
# 3 -0.006431 -0.002347 0.012253 0.000000 0.000000 0.000000
# 4 0.000000 0.000000 0.000000 0.026616 0.000000 0.000000
# 5 0.000000 0.000000 0.000000 0.000000 -0.020799 0.000000
# 6 0.000000 0.000000 0.000000 0.000000 0.000000 0.024404
#
#
# Mechanical properties :
#
#
# Convention : Reuss Voigt Hill
#
# Bulk Modulus (GPa) = 83.48980 83.95099 83.72040
# Shear Modulus (GPa) = 56.68192 21.44086 39.06139
#
# Velocity S-wave (km/s) = 5.10894 3.14217 4.24113
# Velocity P-wave (km/s) = 8.55848 7.19879 7.90791
#
# Compressibility (1/GPa) = 0.01197751
#
# Stress axis : x y z
#
# Youngs Moduli (GPa) = 76.93740 129.24451 81.61141
#
# Poissons Ratio (x) = 0.22318 0.52488
# Poissons Ratio (y) = 0.13285 0.19155
# Poissons Ratio (z) = 0.49482 0.30334
#
# Static dielectric constant tensor:
#      x y z
#    x 3.790360 0.000000 0.000000 
#    y 0.000000 4.269390 0.000000 
#    z 0.000000 0.000000 4.202030 
# 
# 
# High freq. dielectric constant tensor:
#      x y z
#    x 1.848620 0.000000 0.000000 
#    y 0.000000 1.877980 0.000000 
#    z 0.000000 0.000000 1.874580 
# 
# From -- ./inp_files/18809.got.cif
#   From: 2010.03.12/outbox.cif.g09.slc.cpg/sg57_10_cif.got.tgz:18809.got - 2010.04.16 15:48:40.
