data_PCOD8234726
_publ_section_title
;
Structure prediction by ZEFSAII (Michael W. Deem and Ramdas Pophale) SiO2 
 PCOD8234726
Probable space group: P B C M
;
_chemical_formula_sum "Si O2"
_cell_formula_units_Z 40
_cell_length_a 5.481647
_cell_length_b 13.538679
_cell_length_c 23.225250
_cell_angle_alpha 90.000000
_cell_angle_beta 90.000000
_cell_angle_gamma 90.000000
_cell_volume 1723.644722
_symmetry_space_group_name_H-M "P B C M"
_symmetry_group_IT_number 57
_symmetry_cell_setting 'orthorhombic'
loop_
_space_group_symop_operation_xyz
x,y,z
-x,-y,1/2+z
x,1/2-y,-z
-x,1/2+y,1/2-z
-x,-y,-z
x,y,1/2-z
-x,1/2+y,z
x,1/2-y,1/2+z
loop_
_atom_site_type_symbol
_atom_site_label
_atom_site_fract_x
_atom_site_fract_y
_atom_site_fract_z
Si Si1 0.174986 0.428122 0.632345
Si Si2 0.583002 0.860042 0.517391
Si Si3 0.125721 0.219364 0.816708
Si Si4 0.184974 0.985075 0.948994
Si Si5 0.625578 0.119579 0.818750
O O1 0.239214 0.385157 0.569989
O O2 0.132054 0.337797 0.675573
O O3 0.367411 0.505836 0.658790
O O4 0.923815 0.487107 0.616184
O O5 0.630647 0.750000 0.500000
O O6 0.619005 0.926676 0.459270
O O7 0.311192 0.878334 0.541008
O O8 0.124669 0.194600 0.750000
O O9 0.376534 0.171205 0.842507
O O10 0.869985 0.176265 0.842266
O O11 0.000000 0.000000 0.000000
O O12 0.625822 0.118502 0.750000
#
# Coordination Sequence:
#
# PCOD8234726 Si02
#       5
#     8   8   8   8   8
#     4  11  24  39  69  95 129 176 225 272 334 403
#     4  10  23  41  62  90 130 174 221 284 333 402
#     4  10  24  44  68 102 137 176 220 271 337 402
#     4   9  22  42  58  91 126 169 223 274 337 391
#     4  10  24  44  67  99 140 173 218 279 330 398
#
# _framework density 23.206638000000002
#
# number of rings (size 3 to 8) (size 9 to 14) (size 15 to 20)
#    0.000    2.000    0.000    0.600    8.400    6.400 
#    0.000    6.000    0.000    0.000    0.000    0.000 
#    0.000    0.000    0.000    0.000    0.000    0.000 
#
# Total GULP energy -495557.699851 kJ/mol
# GULP energy per Si atom -12388.942496 kJ/mol
# Density = 2.315382 g / cm^3
# Si number density = 23.206638 Si / 1000 Ang^3
#
#
#
# Elastic Constant Matrix: (Units=GPa)
#
#
# Indices 1 2 3 4 5 6 
#
# 1 128.9837 33.1077 14.4903 0.0000 0.0000 0.0000
# 2 33.1077 118.8592 13.6235 0.0000 0.0000 0.0000
# 3 14.4903 13.6235 25.4383 0.0000 0.0000 0.0000
# 4 0.0000 0.0000 0.0000 40.6784 0.0000 0.0000
# 5 0.0000 0.0000 0.0000 0.0000 21.9854 0.0000
# 6 0.0000 0.0000 0.0000 0.0000 0.0000 34.2237
#
#
#
# Elastic Compliance Matrix: (Units=1/GPa)
#
#
# Indices 1 2 3 4 5 6 
#
# 1 0.008698 -0.001976 -0.003896 0.000000 0.000000 0.000000
# 2 -0.001976 0.009413 -0.003915 0.000000 0.000000 0.000000
# 3 -0.003896 -0.003915 0.043627 0.000000 0.000000 0.000000
# 4 0.000000 0.000000 0.000000 0.024583 0.000000 0.000000
# 5 0.000000 0.000000 0.000000 0.000000 0.045485 0.000000
# 6 0.000000 0.000000 0.000000 0.000000 0.000000 0.029219
#
#
# Mechanical properties :
#
#
# Convention : Reuss Voigt Hill
#
# Bulk Modulus (GPa) = 23.71789 43.96934 33.84362
# Shear Modulus (GPa) = 25.68662 33.51483 29.60073
#
# Velocity S-wave (km/s) = 3.33057 3.80437 3.57533
# Velocity P-wave (km/s) = 5.00327 6.18754 5.62665
#
# Compressibility (1/GPa) = 0.04216227
#
# Stress axis : x y z
#
# Youngs Moduli (GPa) = 114.97067 106.24144 22.92158
#
# Poissons Ratio (x) = 0.20995 0.08931
# Poissons Ratio (y) = 0.22720 0.08974
# Poissons Ratio (z) = 0.44795 0.41596
#
# Static dielectric constant tensor:
#      x y z
#    x 4.984040 0.000000 0.000000 
#    y 0.000000 4.257450 0.000000 
#    z 0.000000 0.000000 4.041370 
# 
# 
# High freq. dielectric constant tensor:
#      x y z
#    x 1.930520 0.000000 0.000000 
#    y 0.000000 1.912570 0.000000 
#    z 0.000000 0.000000 1.903540 
# 
# From -- ./inp_files/26104.got.cif
#   From: 2010.03.12/outbox.cif.g09.slc.cpg/sg57_14_cif.got.tgz:26104.got - 2010.04.16 15:48:40.
