data_PCOD8234092
_publ_section_title
;
Structure prediction by ZEFSAII (Michael W. Deem and Ramdas Pophale) SiO2 
 PCOD8234092
Probable space group: P B C M
;
_chemical_formula_sum "Si O2"
_cell_formula_units_Z 48
_cell_length_a 30.217021
_cell_length_b 9.364253
_cell_length_c 8.534985
_cell_angle_alpha 90.000000
_cell_angle_beta 90.000000
_cell_angle_gamma 90.000000
_cell_volume 2415.057901
_symmetry_space_group_name_H-M "P B C M"
_symmetry_group_IT_number 57
_symmetry_cell_setting 'orthorhombic'
loop_
_space_group_symop_operation_xyz
x,y,z
-x,-y,1/2+z
x,1/2-y,-z
-x,1/2+y,1/2-z
-x,-y,-z
x,y,1/2-z
-x,1/2+y,z
x,1/2-y,1/2+z
loop_
_atom_site_type_symbol
_atom_site_label
_atom_site_fract_x
_atom_site_fract_y
_atom_site_fract_z
Si Si1 0.806225 0.595531 0.067600
Si Si2 0.296365 0.097724 0.068137
Si Si3 0.120052 0.591178 0.065212
Si Si4 0.959547 0.590487 0.435335
Si Si5 0.369805 0.594654 0.066753
Si Si6 0.539656 0.408304 0.434532
O O1 0.818769 0.593162 0.250000
O O2 0.754872 0.562207 0.039324
O O3 0.819474 0.750000 0.000000
O O4 0.831711 0.470072 0.976867
O O5 0.308803 0.090915 0.250000
O O6 0.308631 0.250000 0.000000
O O7 0.325232 0.988208 0.970718
O O8 0.112712 0.594647 0.250000
O O9 0.114117 0.750000 0.000000
O O10 0.085484 0.484552 0.986439
O O11 0.961553 0.750000 0.500000
O O12 0.962449 0.596861 0.250000
O O13 0.000000 0.500000 0.500000
O O14 0.378154 0.601802 0.250000
O O15 0.362271 0.750000 0.000000
O O16 0.413370 0.523688 0.988100
O O17 0.535477 0.250000 0.500000
O O18 0.500000 0.500000 0.500000
O O19 0.536991 0.405283 0.250000
#
# Coordination Sequence:
#
# PCOD8234092 Si02
#       6
#     8   8   8   8   8   8
#     4  10  21  39  62  88 119 156 197 243 295 350
#     4  10  21  38  60  87 118 153 195 242 292 347
#     4  12  25  42  63  90 123 160 202 248 298 352
#     4  12  25  44  67  94 126 162 203 247 298 353
#     4  11  22  38  59  84 115 152 192 236 289 346
#     4  11  22  39  60  85 115 149 190 236 288 344
#
# _framework density 19.875299999999999
#
# number of rings (size 3 to 8) (size 9 to 14) (size 15 to 20)
#    0.000    1.000    0.000    9.000    0.000    3.333 
#    0.000    3.333    0.000    0.000    0.000    0.000 
#    0.000    0.000    0.000    0.000    0.000    0.000 
#
# Total GULP energy -595429.839247 kJ/mol
# GULP energy per Si atom -12404.788318 kJ/mol
# Density = 1.983006 g / cm^3
# Si number density = 19.875300 Si / 1000 Ang^3
#
#
#
# Elastic Constant Matrix: (Units=GPa)
#
#
# Indices 1 2 3 4 5 6 
#
# 1 110.0526 70.9242 54.0004 0.0000 0.0000 0.0000
# 2 70.9242 128.0266 63.7845 0.0000 0.0000 0.0000
# 3 54.0004 63.7845 184.1477 0.0000 0.0000 0.0000
# 4 0.0000 0.0000 0.0000 40.1879 0.0000 0.0000
# 5 0.0000 0.0000 0.0000 0.0000 39.6135 0.0000
# 6 0.0000 0.0000 0.0000 0.0000 0.0000 46.1741
#
#
#
# Elastic Compliance Matrix: (Units=1/GPa)
#
#
# Indices 1 2 3 4 5 6 
#
# 1 0.014604 -0.007199 -0.001789 0.000000 0.000000 0.000000
# 2 -0.007199 0.012989 -0.002388 0.000000 0.000000 0.000000
# 3 -0.001789 -0.002388 0.006782 0.000000 0.000000 0.000000
# 4 0.000000 0.000000 0.000000 0.024883 0.000000 0.000000
# 5 0.000000 0.000000 0.000000 0.000000 0.025244 0.000000
# 6 0.000000 0.000000 0.000000 0.000000 0.000000 0.021657
#
#
# Mechanical properties :
#
#
# Convention : Reuss Voigt Hill
#
# Bulk Modulus (GPa) = 86.03645 88.84943 87.44294
# Shear Modulus (GPa) = 37.65499 40.76297 39.20898
#
# Velocity S-wave (km/s) = 4.35738 4.53364 4.44638
# Velocity P-wave (km/s) = 8.28841 8.49739 8.39355
#
# Compressibility (1/GPa) = 0.01162298
#
# Stress axis : x y z
#
# Youngs Moduli (GPa) = 68.47555 76.99046 147.44615
#
# Poissons Ratio (x) = 0.55425 0.26377
# Poissons Ratio (y) = 0.49295 0.35209
# Poissons Ratio (z) = 0.12250 0.18385
#
# Static dielectric constant tensor:
#      x y z
#    x 4.105450 0.000000 0.000000 
#    y 0.000000 3.620850 0.000000 
#    z 0.000000 0.000000 3.861230 
# 
# 
# High freq. dielectric constant tensor:
#      x y z
#    x 1.791550 0.000000 0.000000 
#    y 0.000000 1.776390 0.000000 
#    z 0.000000 0.000000 1.800450 
# 
# From -- ./inp_files/10042.got.cif
#   From: 2010.03.12/outbox.cif.g09.slc.cpg/sg57_6_cif.got.tgz:10042.got - 2010.04.16 15:48:40.
