data_PCOD8234867
_publ_section_title
;
Structure prediction by ZEFSAII (Michael W. Deem and Ramdas Pophale) SiO2 
 PCOD8234867
Probable space group: P B C M
;
_chemical_formula_sum "Si O2"
_cell_formula_units_Z 48
_cell_length_a 14.727727
_cell_length_b 9.546491
_cell_length_c 16.878658
_cell_angle_alpha 90.000000
_cell_angle_beta 90.000000
_cell_angle_gamma 90.000000
_cell_volume 2373.107469
_symmetry_space_group_name_H-M "P B C M"
_symmetry_group_IT_number 57
_symmetry_cell_setting 'orthorhombic'
loop_
_space_group_symop_operation_xyz
x,y,z
-x,-y,1/2+z
x,1/2-y,-z
-x,1/2+y,1/2-z
-x,-y,-z
x,y,1/2-z
-x,1/2+y,z
x,1/2-y,1/2+z
loop_
_atom_site_type_symbol
_atom_site_label
_atom_site_fract_x
_atom_site_fract_y
_atom_site_fract_z
Si Si1 0.471855 0.627374 0.054740
Si Si2 0.146205 0.800242 0.658467
Si Si3 0.688076 0.488968 0.841263
Si Si4 0.973830 0.627336 0.444480
Si Si5 0.665901 0.714626 0.090667
Si Si6 0.811234 0.982494 0.658058
O O1 0.395956 0.580004 0.114920
O O2 0.559437 0.682928 0.102860
O O3 0.431377 0.750000 0.000000
O O4 0.500000 0.500000 0.000000
O O5 0.116996 0.820928 0.750000
O O6 0.218383 0.917124 0.631197
O O7 0.190989 0.648708 0.645428
O O8 0.059931 0.814544 0.602726
O O9 0.671623 0.457691 0.750000
O O10 0.695383 0.654167 0.856091
O O11 0.934267 0.750000 0.500000
O O12 0.899588 0.584902 0.380694
O O13 0.000000 0.500000 0.500000
O O14 0.721254 0.578209 0.117122
O O15 0.687436 0.750000 0.000000
O O16 0.812416 0.941888 0.750000
#
# Coordination Sequence:
#
# PCOD8234867 Si02
#       6
#     8   8   8   8   8   8
#     4  11  23  44  65  94 129 173 217 265 324 381
#     4  10  25  45  64  92 130 170 211 263 324 381
#     4  11  25  43  67  98 131 171 217 268 326 384
#     4  12  25  43  66  97 126 165 217 264 320 383
#     4  11  24  42  67  97 132 170 219 264 321 383
#     4  11  25  44  65  94 131 172 214 265 323 382
#
# _framework density 20.226642999999999
#
# number of rings (size 3 to 8) (size 9 to 14) (size 15 to 20)
#    0.000    1.000    5.000    1.500    7.000    2.000 
#    0.000    0.000    0.000    0.000    0.000    0.000 
#    0.000    0.000    0.000    0.000    0.000    0.000 
#
# Total GULP energy -595476.958366 kJ/mol
# GULP energy per Si atom -12405.769966 kJ/mol
# Density = 2.018061 g / cm^3
# Si number density = 20.226643 Si / 1000 Ang^3
#
#
#
# Elastic Constant Matrix: (Units=GPa)
#
#
# Indices 1 2 3 4 5 6 
#
# 1 69.5569 8.5052 22.4139 0.0000 0.0000 0.0000
# 2 8.5052 91.7695 7.6579 0.0000 0.0000 0.0000
# 3 22.4139 7.6579 67.4298 0.0000 0.0000 0.0000
# 4 0.0000 0.0000 0.0000 41.6394 0.0000 0.0000
# 5 0.0000 0.0000 0.0000 0.0000 29.2775 0.0000
# 6 0.0000 0.0000 0.0000 0.0000 0.0000 39.0729
#
#
#
# Elastic Compliance Matrix: (Units=1/GPa)
#
#
# Indices 1 2 3 4 5 6 
#
# 1 0.016203 -0.001062 -0.005265 0.000000 0.000000 0.000000
# 2 -0.001062 0.011071 -0.000904 0.000000 0.000000 0.000000
# 3 -0.005265 -0.000904 0.016683 0.000000 0.000000 0.000000
# 4 0.000000 0.000000 0.000000 0.024016 0.000000 0.000000
# 5 0.000000 0.000000 0.000000 0.000000 0.034156 0.000000
# 6 0.000000 0.000000 0.000000 0.000000 0.000000 0.025593
#
#
# Mechanical properties :
#
#
# Convention : Reuss Voigt Hill
#
# Bulk Modulus (GPa) = 33.90580 33.99000 33.94790
# Shear Modulus (GPa) = 32.89106 34.67658 33.78382
#
# Velocity S-wave (km/s) = 4.03690 4.14502 4.09132
# Velocity P-wave (km/s) = 6.20710 6.30471 6.25609
#
# Compressibility (1/GPa) = 0.02949347
#
# Stress axis : x y z
#
# Youngs Moduli (GPa) = 61.71570 90.32791 59.94064
#
# Poissons Ratio (x) = 0.09596 0.31561
# Poissons Ratio (y) = 0.06556 0.05420
# Poissons Ratio (z) = 0.32496 0.08167
#
# Static dielectric constant tensor:
#      x y z
#    x 4.572470 0.000000 0.000000 
#    y 0.000000 4.014860 0.000000 
#    z 0.000000 0.000000 3.221070 
# 
# 
# High freq. dielectric constant tensor:
#      x y z
#    x 1.792600 0.000000 0.000000 
#    y 0.000000 1.809860 0.000000 
#    z 0.000000 0.000000 1.797930 
# 
# From -- ./inp_files/22491.got.cif
#   From: 2010.03.12/outbox.cif.g09.slc.cpg/sg57_12_cif.got.tgz:22491.got - 2010.04.16 15:48:40.
