data_PCOD8234178
_publ_section_title
;
Structure prediction by ZEFSAII (Michael W. Deem and Ramdas Pophale) SiO2 
 PCOD8234178
Probable space group: P B C M
;
_chemical_formula_sum "Si O2"
_cell_formula_units_Z 32
_cell_length_a 9.869783
_cell_length_b 8.491503
_cell_length_c 17.713915
_cell_angle_alpha 90.000000
_cell_angle_beta 90.000000
_cell_angle_gamma 90.000000
_cell_volume 1484.590674
_symmetry_space_group_name_H-M "P B C M"
_symmetry_group_IT_number 57
_symmetry_cell_setting 'orthorhombic'
loop_
_space_group_symop_operation_xyz
x,y,z
-x,-y,1/2+z
x,1/2-y,-z
-x,1/2+y,1/2-z
-x,-y,-z
x,y,1/2-z
-x,1/2+y,z
x,1/2-y,1/2+z
loop_
_atom_site_type_symbol
_atom_site_label
_atom_site_fract_x
_atom_site_fract_y
_atom_site_fract_z
Si Si1 0.359708 0.512655 0.164895
Si Si2 0.162365 0.470716 0.570492
Si Si3 0.109456 0.386654 0.097705
Si Si4 0.580234 0.323663 0.083162
O O1 0.411737 0.485688 0.250000
O O2 0.199867 0.472636 0.160750
O O3 0.437103 0.399227 0.105955
O O4 0.380989 0.693289 0.143832
O O5 0.148244 0.469947 0.480741
O O6 0.142503 0.297065 0.602929
O O7 0.310131 0.536880 0.589198
O O8 0.050770 0.584935 0.609554
O O9 0.568330 0.250000 0.000000
#
# Coordination Sequence:
#
# PCOD8234178 Si02
#       4
#     8   8   8   8
#     4  12  26  43  63  95 137 174 214 271 337 391
#     4  10  21  38  67  98 125 164 220 268 316 375
#     4  10  21  39  65  97 132 165 211 270 320 386
#     4  12  24  42  67  98 126 176 224 274 318 392
#
# _framework density 21.554763000000001
#
# number of rings (size 3 to 8) (size 9 to 14) (size 15 to 20)
#    0.000    1.000    2.500    4.500    7.000    0.000 
#    0.000    7.500    0.000    0.000    0.000    0.000 
#    0.000    0.000    0.000    0.000    0.000    0.000 
#
# Total GULP energy -396925.698457 kJ/mol
# GULP energy per Si atom -12403.928077 kJ/mol
# Density = 2.150570 g / cm^3
# Si number density = 21.554763 Si / 1000 Ang^3
#
#
#
# Elastic Constant Matrix: (Units=GPa)
#
#
# Indices 1 2 3 4 5 6 
#
# 1 87.7807 31.7716 41.6070 0.0000 0.0000 0.0000
# 2 31.7716 113.2473 42.2312 0.0000 0.0000 0.0000
# 3 41.6070 42.2312 72.9381 0.0000 0.0000 0.0000
# 4 0.0000 0.0000 0.0000 17.3389 0.0000 0.0000
# 5 0.0000 0.0000 0.0000 0.0000 16.7488 0.0000
# 6 0.0000 0.0000 0.0000 0.0000 0.0000 44.6358
#
#
#
# Elastic Compliance Matrix: (Units=1/GPa)
#
#
# Indices 1 2 3 4 5 6 
#
# 1 0.015777 -0.001365 -0.008210 0.000000 0.000000 0.000000
# 2 -0.001365 0.011380 -0.005810 0.000000 0.000000 0.000000
# 3 -0.008210 -0.005810 0.021758 0.000000 0.000000 0.000000
# 4 0.000000 0.000000 0.000000 0.057674 0.000000 0.000000
# 5 0.000000 0.000000 0.000000 0.000000 0.059706 0.000000
# 6 0.000000 0.000000 0.000000 0.000000 0.000000 0.022404
#
#
# Mechanical properties :
#
#
# Convention : Reuss Voigt Hill
#
# Bulk Modulus (GPa) = 55.11207 56.13174 55.62191
# Shear Modulus (GPa) = 22.17132 26.30179 24.23656
#
# Velocity S-wave (km/s) = 3.21067 3.49697 3.35687
# Velocity P-wave (km/s) = 6.27442 6.51176 6.39419
#
# Compressibility (1/GPa) = 0.01814484
#
# Stress axis : x y z
#
# Youngs Moduli (GPa) = 63.38179 87.87429 45.96057
#
# Poissons Ratio (x) = 0.11993 0.37733
# Poissons Ratio (y) = 0.08650 0.26705
# Poissons Ratio (z) = 0.52036 0.51059
#
# Static dielectric constant tensor:
#      x y z
#    x 4.050490 0.000000 0.000000 
#    y 0.000000 3.919440 0.000000 
#    z 0.000000 0.000000 3.527840 
# 
# 
# High freq. dielectric constant tensor:
#      x y z
#    x 1.859170 0.000000 0.000000 
#    y 0.000000 1.861510 0.000000 
#    z 0.000000 0.000000 1.811020 
# 
# From -- ./inp_files/17265.got.cif
#   From: 2010.03.12/outbox.cif.g09.slc.cpg/sg57_9_cif.got.tgz:17265.got - 2010.04.16 15:48:40.
