data_PCOD8234562
_publ_section_title
;
Structure prediction by ZEFSAII (Michael W. Deem and Ramdas Pophale) SiO2 
 PCOD8234562
Probable space group: P B C M
;
_chemical_formula_sum "Si O2"
_cell_formula_units_Z 64
_cell_length_a 15.285826
_cell_length_b 23.680245
_cell_length_c 8.810022
_cell_angle_alpha 90.000000
_cell_angle_beta 90.000000
_cell_angle_gamma 90.000000
_cell_volume 3188.982206
_symmetry_space_group_name_H-M "P B C M"
_symmetry_group_IT_number 57
_symmetry_cell_setting 'orthorhombic'
loop_
_space_group_symop_operation_xyz
x,y,z
-x,-y,1/2+z
x,1/2-y,-z
-x,1/2+y,1/2-z
-x,-y,-z
x,y,1/2-z
-x,1/2+y,z
x,1/2-y,1/2+z
loop_
_atom_site_type_symbol
_atom_site_label
_atom_site_fract_x
_atom_site_fract_y
_atom_site_fract_z
Si Si1 0.496106 0.809888 0.571249
Si Si2 0.595092 0.496127 0.929938
Si Si3 0.349008 0.618670 0.575237
Si Si4 0.847084 0.392312 0.076087
Si Si5 0.831320 0.877842 0.428487
Si Si6 0.998700 0.189502 0.929121
Si Si7 0.905359 0.502073 0.928029
Si Si8 0.344280 0.108278 0.427714
O O1 0.520559 0.750000 0.500000
O O2 0.484162 0.803231 0.750000
O O3 0.406082 0.832333 0.500556
O O4 0.573381 0.853008 0.529750
O O5 0.588128 0.493689 0.750000
O O6 0.500000 0.500000 0.000000
O O7 0.640923 0.439919 0.987979
O O8 0.651307 0.549963 0.980010
O O9 0.377529 0.611017 0.750000
O O10 0.247680 0.637072 0.561762
O O11 0.868863 0.407657 0.250000
O O12 0.920771 0.350468 0.010149
O O13 0.846427 0.450020 0.981592
O O14 0.813317 0.873167 0.250000
O O15 0.857276 0.940847 0.477956
O O16 0.744084 0.860096 0.519640
O O17 0.908225 0.835734 0.480033
O O18 0.992677 0.194715 0.750000
O O19 0.985115 0.250000 0.000000
O O20 0.917646 0.500382 0.750000
O O21 0.000000 0.500000 0.000000
O O22 0.342137 0.095080 0.250000
#
# Coordination Sequence:
#
# PCOD8234562 Si02
#       8
#     8   8   8   8   8   8   8   8
#     4  11  25  44  65  88 122 163 209 260 308 363
#     4  12  23  38  63  93 128 165 202 248 306 368
#     4  11  23  40  66  95 125 163 204 253 311 366
#     4  10  22  41  62  90 126 160 198 249 303 362
#     4  10  22  40  62  88 123 161 198 248 306 362
#     4  10  22  42  62  85 120 159 204 254 303 355
#     4  11  21  36  61  91 123 161 200 245 304 364
#     4  11  24  41  63  93 125 160 204 253 306 366
#
# _framework density 20.069099000000001
#
# number of rings (size 3 to 8) (size 9 to 14) (size 15 to 20)
#    0.000    1.250    2.500    3.375    0.000    7.500 
#    0.000    3.750    0.000    0.000    0.000    0.000 
#    0.000    0.000    0.000    0.000    0.000    0.000 
#
# Total GULP energy -793966.437037 kJ/mol
# GULP energy per Si atom -12405.725579 kJ/mol
# Density = 2.002342 g / cm^3
# Si number density = 20.069099 Si / 1000 Ang^3
#
#
#
# Elastic Constant Matrix: (Units=GPa)
#
#
# Indices 1 2 3 4 5 6 
#
# 1 103.9983 13.6346 30.9645 0.0000 0.0000 0.0000
# 2 13.6346 92.4865 31.4562 0.0000 0.0000 0.0000
# 3 30.9645 31.4562 84.8274 0.0000 0.0000 0.0000
# 4 0.0000 0.0000 0.0000 36.3060 0.0000 0.0000
# 5 0.0000 0.0000 0.0000 0.0000 30.2919 0.0000
# 6 0.0000 0.0000 0.0000 0.0000 0.0000 15.7334
#
#
#
# Elastic Compliance Matrix: (Units=1/GPa)
#
#
# Indices 1 2 3 4 5 6 
#
# 1 0.010795 -0.000287 -0.003834 0.000000 0.000000 0.000000
# 2 -0.000287 0.012381 -0.004486 0.000000 0.000000 0.000000
# 3 -0.003834 -0.004486 0.014852 0.000000 0.000000 0.000000
# 4 0.000000 0.000000 0.000000 0.027544 0.000000 0.000000
# 5 0.000000 0.000000 0.000000 0.000000 0.033012 0.000000
# 6 0.000000 0.000000 0.000000 0.000000 0.000000 0.063559
#
#
# Mechanical properties :
#
#
# Convention : Reuss Voigt Hill
#
# Bulk Modulus (GPa) = 48.04867 48.15809 48.10338
# Shear Modulus (GPa) = 26.83933 30.15005 28.49469
#
# Velocity S-wave (km/s) = 3.66094 3.88017 3.77215
# Velocity P-wave (km/s) = 6.47021 6.64248 6.55691
#
# Compressibility (1/GPa) = 0.02081223
#
# Stress axis : x y z
#
# Youngs Moduli (GPa) = 92.63801 80.77170 67.33257
#
# Poissons Ratio (x) = 0.02322 0.25814
# Poissons Ratio (y) = 0.02663 0.30206
# Poissons Ratio (z) = 0.35515 0.36235
#
# Static dielectric constant tensor:
#      x y z
#    x 3.801760 0.000000 0.000000 
#    y 0.000000 3.668920 0.000000 
#    z 0.000000 0.000000 3.678550 
# 
# 
# High freq. dielectric constant tensor:
#      x y z
#    x 1.800500 0.000000 0.000000 
#    y 0.000000 1.777570 0.000000 
#    z 0.000000 0.000000 1.786690 
# 
# From -- ./inp_files/5689.got.cif
#   From: 2010.03.12/outbox.cif.g09.slc.cpg/sg57_3_cif.got.tgz:5689.got - 2010.04.16 15:48:40.
