data_PCOD8234852
_publ_section_title
;
Structure prediction by ZEFSAII (Michael W. Deem and Ramdas Pophale) SiO2 
 PCOD8234852
Probable space group: P B C M
;
_chemical_formula_sum "Si O2"
_cell_formula_units_Z 48
_cell_length_a 13.318953
_cell_length_b 9.842446
_cell_length_c 16.934823
_cell_angle_alpha 90.000000
_cell_angle_beta 90.000000
_cell_angle_gamma 90.000000
_cell_volume 2220.004164
_symmetry_space_group_name_H-M "P B C M"
_symmetry_group_IT_number 57
_symmetry_cell_setting 'orthorhombic'
loop_
_space_group_symop_operation_xyz
x,y,z
-x,-y,1/2+z
x,1/2-y,-z
-x,1/2+y,1/2-z
-x,-y,-z
x,y,1/2-z
-x,1/2+y,z
x,1/2-y,1/2+z
loop_
_atom_site_type_symbol
_atom_site_label
_atom_site_fract_x
_atom_site_fract_y
_atom_site_fract_z
Si Si1 0.851219 0.975626 0.339027
Si Si2 0.795259 0.821919 0.657893
Si Si3 0.782813 0.247707 0.412020
Si Si4 0.576110 0.924751 0.658328
Si Si5 0.946288 0.020045 0.915094
Si Si6 0.433624 0.794501 0.090959
O O1 0.828490 0.019805 0.250000
O O2 0.815988 0.095339 0.395096
O O3 0.969761 0.954009 0.349420
O O4 0.791992 0.838458 0.361189
O O5 0.820614 0.846125 0.750000
O O6 0.689611 0.886394 0.633773
O O7 0.882455 0.885936 0.603830
O O8 0.744125 0.250000 0.500000
O O9 0.875113 0.349936 0.402939
O O10 0.678414 0.283972 0.368588
O O11 0.570675 0.965676 0.750000
O O12 0.506320 0.795773 0.643947
O O13 0.536478 0.047880 0.603445
O O14 0.000000 0.000000 0.000000
O O15 0.445067 0.750000 0.000000
#
# Coordination Sequence:
#
# PCOD8234852 Si02
#       6
#     8   8   8   8   8   8
#     4  11  25  41  66  99 135 182 230 278 340 417
#     4  10  24  45  66  99 143 184 230 285 350 415
#     4  11  24  45  67  99 137 175 230 286 344 409
#     4  11  24  46  72 103 139 183 233 289 355 426
#     4  12  23  43  68  99 137 182 229 285 343 410
#     4  11  25  46  72 101 138 180 233 293 355 419
#
# _framework density 21.621580999999999
#
# number of rings (size 3 to 8) (size 9 to 14) (size 15 to 20)
#    0.000    1.000    3.333    2.500    2.333    4.000 
#    3.000    0.000    0.000    0.000    0.000    0.000 
#    0.000    0.000    0.000    0.000    0.000    0.000 
#
# Total GULP energy -595138.388319 kJ/mol
# GULP energy per Si atom -12398.716423 kJ/mol
# Density = 2.157237 g / cm^3
# Si number density = 21.621581 Si / 1000 Ang^3
#
#
#
# Elastic Constant Matrix: (Units=GPa)
#
#
# Indices 1 2 3 4 5 6 
#
# 1 106.5244 47.8073 35.1028 0.0000 0.0000 0.0000
# 2 47.8073 154.5926 56.2046 0.0000 0.0000 0.0000
# 3 35.1028 56.2046 84.1352 0.0000 0.0000 0.0000
# 4 0.0000 0.0000 0.0000 36.1203 0.0000 0.0000
# 5 0.0000 0.0000 0.0000 0.0000 -25.1931 0.0000
# 6 0.0000 0.0000 0.0000 0.0000 0.0000 40.5250
#
#
#
# Elastic Compliance Matrix: (Units=1/GPa)
#
#
# Indices 1 2 3 4 5 6 
#
# 1 0.011519 -0.002397 -0.003205 0.000000 0.000000 0.000000
# 2 -0.002397 0.009042 -0.005040 0.000000 0.000000 0.000000
# 3 -0.003205 -0.005040 0.016590 0.000000 0.000000 0.000000
# 4 0.000000 0.000000 0.000000 0.027685 0.000000 0.000000
# 5 0.000000 0.000000 0.000000 0.000000 -0.039693 0.000000
# 6 0.000000 0.000000 0.000000 0.000000 0.000000 0.024676
#
#
# Mechanical properties :
#
#
# Convention : Reuss Voigt Hill
#
# Bulk Modulus (GPa) = 63.02395 69.27574 66.14985
# Shear Modulus (GPa) = 65.45056 24.03294 44.74175
#
# Velocity S-wave (km/s) = 5.50787 3.33757 4.55390
# Velocity P-wave (km/s) = 8.34630 6.85289 7.63619
#
# Compressibility (1/GPa) = 0.01586698
#
# Stress axis : x y z
#
# Youngs Moduli (GPa) = 86.80997 110.58896 60.27774
#
# Poissons Ratio (x) = 0.26511 0.19317
# Poissons Ratio (y) = 0.20810 0.30383
# Poissons Ratio (z) = 0.27820 0.55742
#
# Static dielectric constant tensor:
#      x y z
#    x 4.080260 0.000000 0.000000 
#    y 0.000000 3.870250 0.000000 
#    z 0.000000 0.000000 3.678920 
# 
# 
# High freq. dielectric constant tensor:
#      x y z
#    x 1.862210 0.000000 0.000000 
#    y 0.000000 1.861330 0.000000 
#    z 0.000000 0.000000 1.841180 
# 
# From -- ./inp_files/22480.got.cif
#   From: 2010.03.12/outbox.cif.g09.slc.cpg/sg57_12_cif.got.tgz:22480.got - 2010.04.16 15:48:40.
