data_PCOD8234600
_publ_section_title
;
Structure prediction by ZEFSAII (Michael W. Deem and Ramdas Pophale) SiO2 
 PCOD8234600
Probable space group: P B C M
;
_chemical_formula_sum "Si O2"
_cell_formula_units_Z 48
_cell_length_a 5.345261
_cell_length_b 18.283621
_cell_length_c 23.468896
_cell_angle_alpha 90.000000
_cell_angle_beta 90.000000
_cell_angle_gamma 90.000000
_cell_volume 2293.632251
_symmetry_space_group_name_H-M "P B C M"
_symmetry_group_IT_number 57
_symmetry_cell_setting 'orthorhombic'
loop_
_space_group_symop_operation_xyz
x,y,z
-x,-y,1/2+z
x,1/2-y,-z
-x,1/2+y,1/2-z
-x,-y,-z
x,y,1/2-z
-x,1/2+y,z
x,1/2-y,1/2+z
loop_
_atom_site_type_symbol
_atom_site_label
_atom_site_fract_x
_atom_site_fract_y
_atom_site_fract_z
Si Si1 0.166565 0.135301 0.370802
Si Si2 0.933450 0.897069 0.750000
Si Si3 0.730570 0.130384 0.563049
Si Si4 0.533429 0.492077 0.371281
Si Si5 0.570594 0.010348 0.250000
Si Si6 0.834995 0.047724 0.042629
Si Si7 0.242058 0.220920 0.563344
O O1 0.047485 0.149952 0.308117
O O2 0.390651 0.076987 0.365602
O O3 0.258856 0.212709 0.392671
O O4 0.972308 0.101400 0.414550
O O5 0.669710 0.937951 0.750000
O O6 0.162888 0.951848 0.750000
O O7 0.681775 0.102584 0.498429
O O8 0.480950 0.173130 0.580753
O O9 0.981159 0.177775 0.569465
O O10 0.755165 0.061224 0.606776
O O11 0.439335 0.463734 0.309110
O O12 0.325744 0.489823 0.421190
O O13 0.000000 0.000000 0.000000
O O14 0.272072 0.250000 0.500000
#
# Coordination Sequence:
#
# PCOD8234600 Si02
#       7
#     8   4   8   8   4   8   8
#     4  11  24  42  69  95 132 176 226 278 328 399
#     4  10  22  42  66  98 126 168 229 277 322 378
#     4  12  26  41  62  98 135 172 211 268 338 402
#     4  11  24  42  68  95 132 169 228 272 331 390
#     4  10  22  40  68  96 126 168 219 283 320 380
#     4  12  22  39  66 101 133 170 216 278 334 396
#     4  12  26  42  61  94 136 173 212 265 336 399
#
# _framework density 20.927505
#
# number of rings (size 3 to 8) (size 9 to 14) (size 15 to 20)
#    0.000    0.667    5.000    3.000    2.333    0.000 
#    0.000    1.667    0.000    0.000    0.000    0.000 
#    0.000    0.000    0.000    0.000    0.000    0.000 
#
# Total GULP energy -594912.752930 kJ/mol
# GULP energy per Si atom -12394.015686 kJ/mol
# Density = 2.087987 g / cm^3
# Si number density = 20.927505 Si / 1000 Ang^3
#
#
#
# Elastic Constant Matrix: (Units=GPa)
#
#
# Indices 1 2 3 4 5 6 
#
# 1 117.7242 22.8879 29.8533 0.0000 0.0000 0.0000
# 2 22.8879 89.8683 54.3809 0.0000 0.0000 0.0000
# 3 29.8533 54.3809 186.5059 0.0000 0.0000 0.0000
# 4 0.0000 0.0000 0.0000 24.0461 0.0000 0.0000
# 5 0.0000 0.0000 0.0000 0.0000 18.7586 0.0000
# 6 0.0000 0.0000 0.0000 0.0000 0.0000 31.9825
#
#
#
# Elastic Compliance Matrix: (Units=1/GPa)
#
#
# Indices 1 2 3 4 5 6 
#
# 1 0.009072 -0.001739 -0.000945 0.000000 0.000000 0.000000
# 2 -0.001739 0.013844 -0.003758 0.000000 0.000000 0.000000
# 3 -0.000945 -0.003758 0.006609 0.000000 0.000000 0.000000
# 4 0.000000 0.000000 0.000000 0.041587 0.000000 0.000000
# 5 0.000000 0.000000 0.000000 0.000000 0.053309 0.000000
# 6 0.000000 0.000000 0.000000 0.000000 0.000000 0.031267
#
#
# Mechanical properties :
#
#
# Convention : Reuss Voigt Hill
#
# Bulk Modulus (GPa) = 60.09216 67.59362 63.84289
# Shear Modulus (GPa) = 28.71587 34.08919 31.40253
#
# Velocity S-wave (km/s) = 3.70829 4.04036 3.87788
# Velocity P-wave (km/s) = 6.86381 7.35766 7.11502
#
# Compressibility (1/GPa) = 0.01664111
#
# Stress axis : x y z
#
# Youngs Moduli (GPa) = 110.22762 72.23094 151.31019
#
# Poissons Ratio (x) = 0.12558 0.14302
# Poissons Ratio (y) = 0.19164 0.56869
# Poissons Ratio (z) = 0.10419 0.27148
#
# Static dielectric constant tensor:
#      x y z
#    x 3.778500 0.000000 0.000000 
#    y 0.000000 3.919770 0.000000 
#    z 0.000000 0.000000 4.534280 
# 
# 
# High freq. dielectric constant tensor:
#      x y z
#    x 1.824680 0.000000 0.000000 
#    y 0.000000 1.798090 0.000000 
#    z 0.000000 0.000000 1.837710 
# 
# From -- ./inp_files/26259.got.cif
#   From: 2010.03.12/outbox.cif.g09.slc.cpg/sg57_14_cif.got.tgz:26259.got - 2010.04.16 15:48:40.
