data_PCOD8234496
_publ_section_title
;
Structure prediction by ZEFSAII (Michael W. Deem and Ramdas Pophale) SiO2 
 PCOD8234496
Probable space group: P B C M
;
_chemical_formula_sum "Si O2"
_cell_formula_units_Z 40
_cell_length_a 22.575062
_cell_length_b 5.125460
_cell_length_c 17.061471
_cell_angle_alpha 90.000000
_cell_angle_beta 90.000000
_cell_angle_gamma 90.000000
_cell_volume 1974.141474
_symmetry_space_group_name_H-M "P B C M"
_symmetry_group_IT_number 57
_symmetry_cell_setting 'orthorhombic'
loop_
_space_group_symop_operation_xyz
x,y,z
-x,-y,1/2+z
x,1/2-y,-z
-x,1/2+y,1/2-z
-x,-y,-z
x,y,1/2-z
-x,1/2+y,z
x,1/2-y,1/2+z
loop_
_atom_site_type_symbol
_atom_site_label
_atom_site_fract_x
_atom_site_fract_y
_atom_site_fract_z
Si Si1 0.729282 0.786727 0.409963
Si Si2 0.146232 0.491774 0.050381
Si Si3 0.332690 0.718373 0.906602
Si Si4 0.037477 0.538755 0.159053
Si Si5 0.466576 0.768204 0.406812
O O1 0.711396 0.750000 0.500000
O O2 0.710416 0.509647 0.372140
O O3 0.798001 0.869579 0.402841
O O4 0.690372 0.011632 0.369243
O O5 0.097232 0.585228 0.111324
O O6 0.165037 0.750000 0.000000
O O7 0.120312 0.250000 0.000000
O O8 0.399856 0.673370 0.878586
O O9 0.328053 0.750000 0.000000
O O10 0.054429 0.554026 0.250000
O O11 0.008798 0.263512 0.136357
O O12 0.468601 0.750000 0.500000
O O13 0.491368 0.496255 0.373332
#
# Coordination Sequence:
#
# PCOD8234496 Si02
#       5
#     8   8   8   8   8
#     4   9  16  26  38  57  82 110 145 187 234 277
#     4  11  21  33  52  77 101 125 163 209 242 280
#     4   9  15  23  35  49  74 110 145 186 233 275
#     4  10  22  39  56  75 102 134 163 193 239 297
#     4   9  15  21  29  44  66  98 145 191 222 259
#
# _framework density 20.261973000000001
#
# number of rings (size 3 to 8) (size 9 to 14) (size 15 to 20)
#    0.000    2.400    0.000    5.400    0.000    7.200 
#    0.000    0.000    0.000    0.000    0.000    0.000 
#    0.000    0.000    0.000    0.000    0.000   20.000 
#
# Total GULP energy -495702.792029 kJ/mol
# GULP energy per Si atom -12392.569801 kJ/mol
# Density = 2.021586 g / cm^3
# Si number density = 20.261973 Si / 1000 Ang^3
#
#
#
# Elastic Constant Matrix: (Units=GPa)
#
#
# Indices 1 2 3 4 5 6 
#
# 1 142.8746 52.2857 28.4253 0.0000 0.0000 0.0000
# 2 52.2857 132.4521 12.2837 0.0000 0.0000 0.0000
# 3 28.4253 12.2837 13.3044 0.0000 0.0000 0.0000
# 4 0.0000 0.0000 0.0000 7.0975 0.0000 0.0000
# 5 0.0000 0.0000 0.0000 0.0000 -1.4064 0.0000
# 6 0.0000 0.0000 0.0000 0.0000 0.0000 34.7302
#
#
#
# Elastic Compliance Matrix: (Units=1/GPa)
#
#
# Indices 1 2 3 4 5 6 
#
# 1 0.013064 -0.002809 -0.025319 0.000000 0.000000 0.000000
# 2 -0.002809 0.008861 -0.002179 0.000000 0.000000 0.000000
# 3 -0.025319 -0.002179 0.131269 0.000000 0.000000 0.000000
# 4 0.000000 0.000000 0.000000 0.140896 0.000000 0.000000
# 5 0.000000 0.000000 0.000000 0.000000 -0.711047 0.000000
# 6 0.000000 0.000000 0.000000 0.000000 0.000000 0.028793
#
#
# Mechanical properties :
#
#
# Convention : Reuss Voigt Hill
#
# Bulk Modulus (GPa) = 10.80146 52.73561 31.76854
# Shear Modulus (GPa) = -16.85269 21.12669 2.13700
#
# Velocity S-wave (km/s) = -2.88712 3.23255 1.02809
# Velocity P-wave (km/s) = 2.40239 6.32581 4.13790
#
# Compressibility (1/GPa) = 0.09258007
#
# Stress axis : x y z
#
# Youngs Moduli (GPa) = 76.54391 112.85523 7.61793
#
# Poissons Ratio (x) = 0.31702 0.19288
# Poissons Ratio (y) = 0.21502 0.01660
# Poissons Ratio (z) = 1.93800 0.24595
#
# Static dielectric constant tensor:
#      x y z
#    x 3.601690 0.000000 0.000000 
#    y 0.000000 4.194200 0.000000 
#    z 0.000000 0.000000 2.885360 
# 
# 
# High freq. dielectric constant tensor:
#      x y z
#    x 1.799050 0.000000 0.000000 
#    y 0.000000 1.821480 0.000000 
#    z 0.000000 0.000000 1.700130 
# 
# From -- ./inp_files/22980.got.cif
#   From: 2010.03.12/outbox.cif.g09.slc.cpg/sg57_12_cif.got.tgz:22980.got - 2010.04.16 15:48:40.
