data_PCOD8234305
_publ_section_title
;
Structure prediction by ZEFSAII (Michael W. Deem and Ramdas Pophale) SiO2 
 PCOD8234305
Probable space group: P B C M
;
_chemical_formula_sum "Si O2"
_cell_formula_units_Z 40
_cell_length_a 10.549319
_cell_length_b 8.649710
_cell_length_c 20.158470
_cell_angle_alpha 90.000000
_cell_angle_beta 90.000000
_cell_angle_gamma 90.000000
_cell_volume 1839.431159
_symmetry_space_group_name_H-M "P B C M"
_symmetry_group_IT_number 57
_symmetry_cell_setting 'orthorhombic'
loop_
_space_group_symop_operation_xyz
x,y,z
-x,-y,1/2+z
x,1/2-y,-z
-x,1/2+y,1/2-z
-x,-y,-z
x,y,1/2-z
-x,1/2+y,z
x,1/2-y,1/2+z
loop_
_atom_site_type_symbol
_atom_site_label
_atom_site_fract_x
_atom_site_fract_y
_atom_site_fract_z
Si Si1 0.838668 0.508540 0.401620
Si Si2 0.507519 0.244352 0.910682
Si Si3 0.320109 0.998962 0.535242
Si Si4 0.095232 0.684414 0.073719
Si Si5 0.382429 0.484321 0.674573
O O1 0.738974 0.522557 0.462832
O O2 0.883593 0.335412 0.381853
O O3 0.763779 0.568732 0.336525
O O4 0.958406 0.614492 0.414736
O O5 0.572234 0.360911 0.965855
O O6 0.604612 0.124738 0.878190
O O7 0.473564 0.346269 0.846433
O O8 0.382634 0.159022 0.940083
O O9 0.205874 0.944121 0.584396
O O10 0.104660 0.750000 0.000000
O O11 0.410647 0.531477 0.750000
#
# Coordination Sequence:
#
# PCOD8234305 Si02
#       5
#     8   8   8   8   8
#     4  11  24  39  65  89 128 158 205 250 303 365
#     4  10  23  40  66  89 129 156 198 253 310 365
#     4  10  21  40  61  99 120 158 195 252 320 364
#     4  10  21  40  60  93 123 160 194 248 311 368
#     4  11  24  42  62  88 122 166 208 247 294 359
#
# _framework density 21.745851999999999
#
# number of rings (size 3 to 8) (size 9 to 14) (size 15 to 20)
#    0.000    1.600    2.000    3.000    5.600    4.800 
#    0.000    1.000    0.000    0.000    0.000    0.000 
#    0.000    0.000    0.000    0.000    0.000    0.000 
#
# Total GULP energy -495635.692707 kJ/mol
# GULP energy per Si atom -12390.892318 kJ/mol
# Density = 2.169636 g / cm^3
# Si number density = 21.745852 Si / 1000 Ang^3
#
#
#
# Elastic Constant Matrix: (Units=GPa)
#
#
# Indices 1 2 3 4 5 6 
#
# 1 126.7165 37.0970 30.8535 0.0000 0.0000 0.0000
# 2 37.0970 82.0770 28.0161 0.0000 0.0000 0.0000
# 3 30.8535 28.0161 38.6425 0.0000 0.0000 0.0000
# 4 0.0000 0.0000 0.0000 22.4560 0.0000 0.0000
# 5 0.0000 0.0000 0.0000 0.0000 20.6448 0.0000
# 6 0.0000 0.0000 0.0000 0.0000 0.0000 51.3777
#
#
#
# Elastic Compliance Matrix: (Units=1/GPa)
#
#
# Indices 1 2 3 4 5 6 
#
# 1 0.010145 -0.002419 -0.006346 0.000000 0.000000 0.000000
# 2 -0.002419 0.016767 -0.010225 0.000000 0.000000 0.000000
# 3 -0.006346 -0.010225 0.038358 0.000000 0.000000 0.000000
# 4 0.000000 0.000000 0.000000 0.044531 0.000000 0.000000
# 5 0.000000 0.000000 0.000000 0.000000 0.048438 0.000000
# 6 0.000000 0.000000 0.000000 0.000000 0.000000 0.019464
#
#
# Mechanical properties :
#
#
# Convention : Reuss Voigt Hill
#
# Bulk Modulus (GPa) = 36.64318 48.81879 42.73098
# Shear Modulus (GPa) = 22.24382 28.99366 25.61874
#
# Velocity S-wave (km/s) = 3.20175 3.65539 3.43607
# Velocity P-wave (km/s) = 5.52770 6.34936 5.95272
#
# Compressibility (1/GPa) = 0.02729021
#
# Stress axis : x y z
#
# Youngs Moduli (GPa) = 98.57009 59.64029 26.06988
#
# Poissons Ratio (x) = 0.14428 0.16545
# Poissons Ratio (y) = 0.23845 0.26656
# Poissons Ratio (z) = 0.62556 0.60981
#
# Static dielectric constant tensor:
#      x y z
#    x 4.162750 0.000000 0.000000 
#    y 0.000000 4.426490 0.000000 
#    z 0.000000 0.000000 3.422490 
# 
# 
# High freq. dielectric constant tensor:
#      x y z
#    x 1.873980 0.000000 0.000000 
#    y 0.000000 1.873260 0.000000 
#    z 0.000000 0.000000 1.796460 
# 
# From -- ./inp_files/24864.got.cif
#   From: 2010.03.12/outbox.cif.g09.slc.cpg/sg57_13_cif.got.tgz:24864.got - 2010.04.16 15:48:40.
