data_PCOD8234728
_publ_section_title
;
Structure prediction by ZEFSAII (Michael W. Deem and Ramdas Pophale) SiO2 
 PCOD8234728
Probable space group: P B C M
;
_chemical_formula_sum "Si O2"
_cell_formula_units_Z 48
_cell_length_a 15.016092
_cell_length_b 17.482121
_cell_length_c 8.755260
_cell_angle_alpha 90.000000
_cell_angle_beta 90.000000
_cell_angle_gamma 90.000000
_cell_volume 2298.370770
_symmetry_space_group_name_H-M "P B C M"
_symmetry_group_IT_number 57
_symmetry_cell_setting 'orthorhombic'
loop_
_space_group_symop_operation_xyz
x,y,z
-x,-y,1/2+z
x,1/2-y,-z
-x,1/2+y,1/2-z
-x,-y,-z
x,y,1/2-z
-x,1/2+y,z
x,1/2-y,1/2+z
loop_
_atom_site_type_symbol
_atom_site_label
_atom_site_fract_x
_atom_site_fract_y
_atom_site_fract_z
Si Si1 0.689817 0.587517 0.569237
Si Si2 0.146870 0.331657 0.568643
Si Si3 0.473880 0.170591 0.071296
Si Si4 0.986730 0.417335 0.070818
Si Si5 0.189838 0.829952 0.073359
Si Si6 0.650967 0.416060 0.573253
O O1 0.701343 0.594591 0.750000
O O2 0.782629 0.605628 0.487506
O O3 0.615775 0.646540 0.513530
O O4 0.662098 0.502751 0.516713
O O5 0.173622 0.250000 0.500000
O O6 0.146710 0.326981 0.750000
O O7 0.050135 0.355913 0.509754
O O8 0.454294 0.180248 0.250000
O O9 0.549713 0.107849 0.039783
O O10 0.507149 0.250000 0.000000
O O11 0.008284 0.419592 0.250000
O O12 0.885819 0.392346 0.037248
O O13 0.000000 0.500000 0.000000
O O14 0.199292 0.813999 0.250000
O O15 0.162558 0.750000 0.000000
O O16 0.284044 0.859859 0.015446
O O17 0.675056 0.408281 0.750000
#
# Coordination Sequence:
#
# PCOD8234728 Si02
#       6
#     8   8   8   8   8   8
#     4  11  23  41  64  91 122 159 201 250 305 364
#     4  12  25  42  64  91 123 162 205 254 307 364
#     4  11  23  40  61  89 122 159 202 249 300 358
#     4  11  24  42  64  93 125 162 205 252 305 363
#     4  11  24  40  62  90 122 159 201 247 299 355
#     4  10  23  41  63  90 122 159 201 248 301 358
#
# _framework density 20.884360000000001
#
# number of rings (size 3 to 8) (size 9 to 14) (size 15 to 20)
#    0.000    1.000    0.000    6.500    0.000   10.667 
#    0.000    0.000    0.000    0.000    0.000    0.000 
#    0.000    0.000    0.000    0.000    0.000    0.000 
#
# Total GULP energy -595617.727297 kJ/mol
# GULP energy per Si atom -12408.702652 kJ/mol
# Density = 2.083683 g / cm^3
# Si number density = 20.884360 Si / 1000 Ang^3
#
#
#
# Elastic Constant Matrix: (Units=GPa)
#
#
# Indices 1 2 3 4 5 6 
#
# 1 79.3378 7.0792 38.0482 0.0000 0.0000 0.0000
# 2 7.0792 98.8167 34.6585 0.0000 0.0000 0.0000
# 3 38.0482 34.6585 114.4359 0.0000 0.0000 0.0000
# 4 0.0000 0.0000 0.0000 36.8323 0.0000 0.0000
# 5 0.0000 0.0000 0.0000 0.0000 36.7493 0.0000
# 6 0.0000 0.0000 0.0000 0.0000 0.0000 34.8445
#
#
#
# Elastic Compliance Matrix: (Units=1/GPa)
#
#
# Indices 1 2 3 4 5 6 
#
# 1 0.015046 0.000757 -0.005232 0.000000 0.000000 0.000000
# 2 0.000757 0.011361 -0.003692 0.000000 0.000000 0.000000
# 3 -0.005232 -0.003692 0.011596 0.000000 0.000000 0.000000
# 4 0.000000 0.000000 0.000000 0.027150 0.000000 0.000000
# 5 0.000000 0.000000 0.000000 0.000000 0.027211 0.000000
# 6 0.000000 0.000000 0.000000 0.000000 0.000000 0.028699
#
#
# Mechanical properties :
#
#
# Convention : Reuss Voigt Hill
#
# Bulk Modulus (GPa) = 46.15008 50.24025 48.19516
# Shear Modulus (GPa) = 34.57330 35.87217 35.22274
#
# Velocity S-wave (km/s) = 4.07315 4.14896 4.11123
# Velocity P-wave (km/s) = 6.65332 6.86006 6.75748
#
# Compressibility (1/GPa) = 0.02166843
#
# Stress axis : x y z
#
# Youngs Moduli (GPa) = 66.46366 88.02368 86.23427
#
# Poissons Ratio (x) = -0.06664 0.45116
# Poissons Ratio (y) = -0.05032 0.31841
# Poissons Ratio (z) = 0.34773 0.32502
#
# Static dielectric constant tensor:
#      x y z
#    x 3.774290 0.000000 0.000000 
#    y 0.000000 4.607850 0.000000 
#    z 0.000000 0.000000 3.873420 
# 
# 
# High freq. dielectric constant tensor:
#      x y z
#    x 1.829470 0.000000 0.000000 
#    y 0.000000 1.832510 0.000000 
#    z 0.000000 0.000000 1.828890 
# 
# From -- ./inp_files/4715.got.cif
#   From: 2010.03.12/outbox.cif.g09.slc.cpg/sg57_3_cif.got.tgz:4715.got - 2010.04.16 15:48:40.
