data_PCOD8234951
_publ_section_title
;
Structure prediction by ZEFSAII (Michael W. Deem and Ramdas Pophale) SiO2 
 PCOD8234951
Probable space group: P B C M
;
_chemical_formula_sum "Si O2"
_cell_formula_units_Z 48
_cell_length_a 14.825229
_cell_length_b 16.762580
_cell_length_c 9.426425
_cell_angle_alpha 90.000000
_cell_angle_beta 90.000000
_cell_angle_gamma 90.000000
_cell_volume 2342.552272
_symmetry_space_group_name_H-M "P B C M"
_symmetry_group_IT_number 57
_symmetry_cell_setting 'orthorhombic'
loop_
_space_group_symop_operation_xyz
x,y,z
-x,-y,1/2+z
x,1/2-y,-z
-x,1/2+y,1/2-z
-x,-y,-z
x,y,1/2-z
-x,1/2+y,z
x,1/2-y,1/2+z
loop_
_atom_site_type_symbol
_atom_site_label
_atom_site_fract_x
_atom_site_fract_y
_atom_site_fract_z
Si Si1 0.553708 0.817395 0.250000
Si Si2 0.477449 0.367388 0.750000
Si Si3 0.088804 0.030223 0.576958
Si Si4 0.654426 0.139900 0.750000
Si Si5 0.732479 0.061626 0.022616
Si Si6 0.361409 0.406496 0.502058
Si Si7 0.317822 0.824278 0.750000
Si Si8 0.821287 0.668236 0.084709
O O1 0.558431 0.722750 0.250000
O O2 0.454036 0.856072 0.250000
O O3 0.608899 0.843510 0.385949
O O4 0.443844 0.415783 0.612366
O O5 0.583640 0.362062 0.750000
O O6 0.081212 0.035020 0.750000
O O7 0.108758 0.116218 0.508031
O O8 0.165649 0.968854 0.527160
O O9 0.000000 0.000000 0.500000
O O10 0.695862 0.088572 0.873467
O O11 0.690244 0.229861 0.750000
O O12 0.665059 0.990370 0.072705
O O13 0.731804 0.141508 0.114114
O O14 0.275633 0.374130 0.587935
O O15 0.852276 0.678909 0.250000
O O16 0.814722 0.750000 0.000000
#
# Coordination Sequence:
#
# PCOD8234951 Si02
#       8
#     4   4   8   4   8   8   4   8
#     4  11  23  37  55  89 128 182 225 274 321 382
#     4  11  21  37  57  87 130 174 223 268 323 378
#     4  11  25  46  75 101 131 169 209 267 339 410
#     4  11  25  41  64  87 127 178 228 274 329 379
#     4  11  24  42  65  94 125 164 221 269 337 399
#     4  11  23  35  59  91 129 171 221 272 330 384
#     4  11  23  43  62  87 127 174 222 278 319 385
#     4  11  23  40  67 101 139 175 216 268 331 398
#
# _framework density 20.490469999999998
#
# number of rings (size 3 to 8) (size 9 to 14) (size 15 to 20)
#    0.000    1.000    1.667    5.000    9.333    6.667 
#    0.000    1.667    0.000    0.000    0.000    0.000 
#    0.000    0.000    0.000    0.000    0.000    0.000 
#
# Total GULP energy -594976.117668 kJ/mol
# GULP energy per Si atom -12395.335785 kJ/mol
# Density = 2.044383 g / cm^3
# Si number density = 20.490470 Si / 1000 Ang^3
#
#
#
# Elastic Constant Matrix: (Units=GPa)
#
#
# Indices 1 2 3 4 5 6 
#
# 1 71.1005 30.7825 22.0155 0.0000 0.0000 0.0000
# 2 30.7825 91.7208 18.4565 0.0000 0.0000 0.0000
# 3 22.0155 18.4565 120.4666 0.0000 0.0000 0.0000
# 4 0.0000 0.0000 0.0000 48.4015 0.0000 0.0000
# 5 0.0000 0.0000 0.0000 0.0000 35.2405 0.0000
# 6 0.0000 0.0000 0.0000 0.0000 0.0000 28.1306
#
#
#
# Elastic Compliance Matrix: (Units=1/GPa)
#
#
# Indices 1 2 3 4 5 6 
#
# 1 0.017057 -0.005260 -0.002311 0.000000 0.000000 0.000000
# 2 -0.005260 0.012871 -0.001011 0.000000 0.000000 0.000000
# 3 -0.002311 -0.001011 0.008878 0.000000 0.000000 0.000000
# 4 0.000000 0.000000 0.000000 0.020661 0.000000 0.000000
# 5 0.000000 0.000000 0.000000 0.000000 0.028376 0.000000
# 6 0.000000 0.000000 0.000000 0.000000 0.000000 0.035549
#
#
# Mechanical properties :
#
#
# Convention : Reuss Voigt Hill
#
# Bulk Modulus (GPa) = 46.20351 47.31077 46.75714
# Shear Modulus (GPa) = 33.83627 36.49007 35.16317
#
# Velocity S-wave (km/s) = 4.06805 4.22457 4.14705
# Velocity P-wave (km/s) = 6.68305 6.85093 6.76751
#
# Compressibility (1/GPa) = 0.02164338
#
# Stress axis : x y z
#
# Youngs Moduli (GPa) = 58.62567 77.69287 112.63360
#
# Poissons Ratio (x) = 0.40863 0.26035
# Poissons Ratio (y) = 0.30834 0.11385
# Poissons Ratio (z) = 0.13551 0.07853
#
# Static dielectric constant tensor:
#      x y z
#    x 3.660570 0.000000 0.000000 
#    y 0.000000 3.955990 0.000000 
#    z 0.000000 0.000000 3.907850 
# 
# 
# High freq. dielectric constant tensor:
#      x y z
#    x 1.786840 0.000000 0.000000 
#    y 0.000000 1.813080 0.000000 
#    z 0.000000 0.000000 1.817470 
# 
# From -- ./inp_files/4776.got.cif
#   From: 2010.03.12/outbox.cif.g09.slc.cpg/sg57_3_cif.got.tgz:4776.got - 2010.04.16 15:48:40.
