data_PCOD8234257
_publ_section_title
;
Structure prediction by ZEFSAII (Michael W. Deem and Ramdas Pophale) SiO2 
 PCOD8234257
Probable space group: P B C M
;
_chemical_formula_sum "Si O2"
_cell_formula_units_Z 40
_cell_length_a 13.263007
_cell_length_b 9.464225
_cell_length_c 15.652940
_cell_angle_alpha 90.000000
_cell_angle_beta 90.000000
_cell_angle_gamma 90.000000
_cell_volume 1964.820931
_symmetry_space_group_name_H-M "P B C M"
_symmetry_group_IT_number 57
_symmetry_cell_setting 'orthorhombic'
loop_
_space_group_symop_operation_xyz
x,y,z
-x,-y,1/2+z
x,1/2-y,-z
-x,1/2+y,1/2-z
-x,-y,-z
x,y,1/2-z
-x,1/2+y,z
x,1/2-y,1/2+z
loop_
_atom_site_type_symbol
_atom_site_label
_atom_site_fract_x
_atom_site_fract_y
_atom_site_fract_z
Si Si1 0.676454 0.668249 0.419934
Si Si2 0.263983 0.852490 0.424491
Si Si3 0.370824 0.807686 0.250000
Si Si4 0.042559 0.949044 0.410955
Si Si5 0.560224 0.624401 0.250000
Si Si6 0.882010 0.767129 0.654597
O O1 0.625004 0.750000 0.500000
O O2 0.687096 0.504188 0.443333
O O3 0.611376 0.688888 0.334677
O O4 0.786314 0.738610 0.407731
O O5 0.301089 0.750000 0.500000
O O6 0.300158 0.795457 0.332863
O O7 0.143083 0.857320 0.423546
O O8 0.444798 0.673604 0.250000
O O9 0.433186 0.954530 0.250000
O O10 0.958378 0.856372 0.366169
O O11 0.063121 0.082298 0.351058
O O12 0.000000 0.000000 0.500000
O O13 0.840985 0.749364 0.750000
#
# Coordination Sequence:
#
# PCOD8234257 Si02
#       6
#     8   8   4   8   4   8
#     4  10  21  39  64  86 120 157 199 253 305 362
#     4  10  22  40  62  89 124 163 201 248 313 363
#     4  10  24  42  67  86 124 160 203 262 311 374
#     4  11  22  37  58  87 124 163 203 244 296 364
#     4  10  22  44  61  90 114 158 201 250 311 364
#     4  11  21  35  57  87 120 159 201 243 300 360
#
# _framework density 20.358090000000001
#
# number of rings (size 3 to 8) (size 9 to 14) (size 15 to 20)
#    0.000    1.600    1.000    4.800    5.600    2.400 
#    0.000    4.000    0.000    0.000    0.000    0.000 
#    0.000    0.000    0.000    0.000    0.000    0.000 
#
# Total GULP energy -496130.691378 kJ/mol
# GULP energy per Si atom -12403.267284 kJ/mol
# Density = 2.031175 g / cm^3
# Si number density = 20.358090 Si / 1000 Ang^3
#
#
#
# Elastic Constant Matrix: (Units=GPa)
#
#
# Indices 1 2 3 4 5 6 
#
# 1 85.5046 26.5225 42.5391 0.0000 0.0000 0.0000
# 2 26.5225 50.7542 50.9839 0.0000 0.0000 0.0000
# 3 42.5391 50.9839 171.6644 0.0000 0.0000 0.0000
# 4 0.0000 0.0000 0.0000 25.7165 0.0000 0.0000
# 5 0.0000 0.0000 0.0000 0.0000 20.9889 0.0000
# 6 0.0000 0.0000 0.0000 0.0000 0.0000 33.2558
#
#
#
# Elastic Compliance Matrix: (Units=1/GPa)
#
#
# Indices 1 2 3 4 5 6 
#
# 1 0.014379 -0.005608 -0.001898 0.000000 0.000000 0.000000
# 2 -0.005608 0.030267 -0.007600 0.000000 0.000000 0.000000
# 3 -0.001898 -0.007600 0.008553 0.000000 0.000000 0.000000
# 4 0.000000 0.000000 0.000000 0.038885 0.000000 0.000000
# 5 0.000000 0.000000 0.000000 0.000000 0.047644 0.000000
# 6 0.000000 0.000000 0.000000 0.000000 0.000000 0.030070
#
#
# Mechanical properties :
#
#
# Convention : Reuss Voigt Hill
#
# Bulk Modulus (GPa) = 43.49963 60.89048 52.19506
# Shear Modulus (GPa) = 24.07649 28.51742 26.29695
#
# Velocity S-wave (km/s) = 3.44270 3.74677 3.59795
# Velocity P-wave (km/s) = 6.10054 6.97799 6.55397
#
# Compressibility (1/GPa) = 0.02298870
#
# Stress axis : x y z
#
# Youngs Moduli (GPa) = 69.54678 33.03895 116.92261
#
# Poissons Ratio (x) = 0.18527 0.22188
# Poissons Ratio (y) = 0.38999 0.88858
# Poissons Ratio (z) = 0.13198 0.25109
#
# Static dielectric constant tensor:
#      x y z
#    x 3.582430 0.000000 0.000000 
#    y 0.000000 3.475490 0.000000 
#    z 0.000000 0.000000 4.173100 
# 
# 
# High freq. dielectric constant tensor:
#      x y z
#    x 1.785010 0.000000 0.000000 
#    y 0.000000 1.792550 0.000000 
#    z 0.000000 0.000000 1.812250 
# 
# From -- ./inp_files/18282.got.cif
#   From: 2010.03.12/outbox.cif.g09.slc.cpg/sg57_10_cif.got.tgz:18282.got - 2010.04.16 15:48:40.
