data_PCOD8234652
_publ_section_title
;
Structure prediction by ZEFSAII (Michael W. Deem and Ramdas Pophale) SiO2 
 PCOD8234652
Probable space group: P B C M
;
_chemical_formula_sum "Si O2"
_cell_formula_units_Z 44
_cell_length_a 11.103447
_cell_length_b 11.068210
_cell_length_c 17.770905
_cell_angle_alpha 90.000000
_cell_angle_beta 90.000000
_cell_angle_gamma 90.000000
_cell_volume 2183.960401
_symmetry_space_group_name_H-M "P B C M"
_symmetry_group_IT_number 57
_symmetry_cell_setting 'orthorhombic'
loop_
_space_group_symop_operation_xyz
x,y,z
-x,-y,1/2+z
x,1/2-y,-z
-x,1/2+y,1/2-z
-x,-y,-z
x,y,1/2-z
-x,1/2+y,z
x,1/2-y,1/2+z
loop_
_atom_site_type_symbol
_atom_site_label
_atom_site_fract_x
_atom_site_fract_y
_atom_site_fract_z
Si Si1 0.831464 0.863095 0.833973
Si Si2 0.293396 0.323163 0.429083
Si Si3 0.734016 0.393194 0.566098
Si Si4 0.900782 0.444813 0.443785
Si Si5 0.912921 0.242151 0.166267
Si Si6 0.476146 0.750000 0.500000
O O1 0.790015 0.903649 0.750000
O O2 0.754127 0.743779 0.854129
O O3 0.975404 0.848013 0.833491
O O4 0.813073 0.962796 0.898801
O O5 0.233013 0.250000 0.500000
O O6 0.256887 0.462551 0.422653
O O7 0.438860 0.317515 0.438610
O O8 0.811663 0.361985 0.492355
O O9 0.793087 0.325796 0.637202
O O10 0.600154 0.346012 0.548803
O O11 0.959284 0.355422 0.383051
O O12 0.000000 0.500000 0.500000
O O13 0.883280 0.288869 0.250000
#
# Coordination Sequence:
#
# PCOD8234652 Si02
#       6
#     8   8   8   8   8   4
#     4  11  24  40  60  93 134 173 205 263 333 391
#     4  10  23  39  65  92 126 163 225 267 320 379
#     4  12  21  40  70  93 123 168 217 271 328 389
#     4  12  21  37  65  93 127 168 217 257 319 392
#     4  11  25  39  59  97 136 166 208 268 335 398
#     4  10  22  42  66  96 122 162 230 284 314 382
#
# _framework density 20.146885000000001
#
# number of rings (size 3 to 8) (size 9 to 14) (size 15 to 20)
#    0.545    0.364    5.455    2.182    0.000    0.727 
#    0.000    0.909    0.000    0.000    0.000    0.000 
#    0.000    0.000    0.000    0.000    0.000    0.000 
#
# Total GULP energy -545307.886297 kJ/mol
# GULP energy per Si atom -12393.361052 kJ/mol
# Density = 2.010103 g / cm^3
# Si number density = 20.146885 Si / 1000 Ang^3
#
#
#
# Elastic Constant Matrix: (Units=GPa)
#
#
# Indices 1 2 3 4 5 6 
#
# 1 85.4241 11.9778 35.7613 0.0000 0.0000 0.0000
# 2 11.9778 96.4216 45.6243 0.0000 0.0000 0.0000
# 3 35.7613 45.6243 139.0984 0.0000 0.0000 0.0000
# 4 0.0000 0.0000 0.0000 32.0787 0.0000 0.0000
# 5 0.0000 0.0000 0.0000 0.0000 19.9966 0.0000
# 6 0.0000 0.0000 0.0000 0.0000 0.0000 35.4420
#
#
#
# Elastic Compliance Matrix: (Units=1/GPa)
#
#
# Indices 1 2 3 4 5 6 
#
# 1 0.013118 -0.000040 -0.003360 0.000000 0.000000 0.000000
# 2 -0.000040 0.012277 -0.004016 0.000000 0.000000 0.000000
# 3 -0.003360 -0.004016 0.009370 0.000000 0.000000 0.000000
# 4 0.000000 0.000000 0.000000 0.031173 0.000000 0.000000
# 5 0.000000 0.000000 0.000000 0.000000 0.050008 0.000000
# 6 0.000000 0.000000 0.000000 0.000000 0.000000 0.028215
#
#
# Mechanical properties :
#
#
# Convention : Reuss Voigt Hill
#
# Bulk Modulus (GPa) = 50.16735 56.40788 53.28762
# Shear Modulus (GPa) = 30.18625 32.67550 31.43087
#
# Velocity S-wave (km/s) = 3.87500 4.03161 3.95408
# Velocity P-wave (km/s) = 6.70639 7.05201 6.88137
#
# Compressibility (1/GPa) = 0.01993328
#
# Stress axis : x y z
#
# Youngs Moduli (GPa) = 76.22934 81.45598 106.72058
#
# Poissons Ratio (x) = 0.00325 0.35853
# Poissons Ratio (y) = 0.00305 0.42864
# Poissons Ratio (z) = 0.25609 0.32716
#
# Static dielectric constant tensor:
#      x y z
#    x 3.507880 0.000000 0.000000 
#    y 0.000000 3.559130 0.000000 
#    z 0.000000 0.000000 3.790690 
# 
# 
# High freq. dielectric constant tensor:
#      x y z
#    x 1.765260 0.000000 0.000000 
#    y 0.000000 1.796550 0.000000 
#    z 0.000000 0.000000 1.780580 
# 
# From -- ./inp_files/21750.got.cif
#   From: 2010.03.12/outbox.cif.g09.slc.cpg/sg57_11_cif.got.tgz:21750.got - 2010.04.16 15:48:40.
