data_PCOD8234215
_publ_section_title
;
Structure prediction by ZEFSAII (Michael W. Deem and Ramdas Pophale) SiO2 
 PCOD8234215
Probable space group: P B C M
;
_chemical_formula_sum "Si O2"
_cell_formula_units_Z 64
_cell_length_a 14.491398
_cell_length_b 25.025318
_cell_length_c 8.767773
_cell_angle_alpha 90.000000
_cell_angle_beta 90.000000
_cell_angle_gamma 90.000000
_cell_volume 3179.649039
_symmetry_space_group_name_H-M "P B C M"
_symmetry_group_IT_number 57
_symmetry_cell_setting 'orthorhombic'
loop_
_space_group_symop_operation_xyz
x,y,z
-x,-y,1/2+z
x,1/2-y,-z
-x,1/2+y,1/2-z
-x,-y,-z
x,y,1/2-z
-x,1/2+y,z
x,1/2-y,1/2+z
loop_
_atom_site_type_symbol
_atom_site_label
_atom_site_fract_x
_atom_site_fract_y
_atom_site_fract_z
Si Si1 0.180356 0.303928 0.426592
Si Si2 0.982864 0.343918 0.073140
Si Si3 0.952116 0.050454 0.071398
Si Si4 0.225586 0.983859 0.429723
Si Si5 0.339114 0.900087 0.924830
Si Si6 0.719821 0.910411 0.068694
Si Si7 0.780243 0.193459 0.930925
Si Si8 0.469587 0.444359 0.925376
O O1 0.219984 0.250000 0.500000
O O2 0.201150 0.300478 0.250000
O O3 0.070240 0.306076 0.458900
O O4 0.236248 0.354953 0.491697
O O5 0.977595 0.360421 0.250000
O O6 0.886481 0.317496 0.019631
O O7 0.005472 0.395970 0.972843
O O8 0.946563 0.043011 0.250000
O O9 0.851518 0.055622 0.997124
O O10 0.000000 0.000000 0.000000
O O11 0.217285 0.987241 0.250000
O O12 0.318788 0.955312 0.484457
O O13 0.216449 0.042780 0.499475
O O14 0.304439 0.903323 0.750000
O O15 0.450244 0.899068 0.932192
O O16 0.291733 0.849678 0.004933
O O17 0.723547 0.914472 0.250000
O O18 0.615802 0.917399 0.011679
O O19 0.770735 0.194607 0.750000
O O20 0.750298 0.250000 0.000000
O O21 0.441535 0.456053 0.750000
O O22 0.500000 0.500000 0.000000
#
# Coordination Sequence:
#
# PCOD8234215 Si02
#       8
#     8   8   8   8   8   8   8   8
#     4  10  23  42  64  89 122 163 208 259 308 361
#     4  10  21  39  61  89 123 162 209 257 307 366
#     4  12  24  37  56  84 123 167 209 256 310 372
#     4  12  23  37  60  90 125 163 203 252 312 373
#     4  11  23  40  62  90 125 162 204 255 312 371
#     4  11  23  40  63  93 127 165 208 257 312 374
#     4  11  23  39  63  91 125 166 211 259 309 370
#     4  11  23  39  64  94 126 162 203 256 314 377
#
# _framework density 20.128007
#
# number of rings (size 3 to 8) (size 9 to 14) (size 15 to 20)
#    0.000    1.000    2.500    4.875    0.000    4.500 
#    0.000    0.625    0.000    1.500    0.000    0.000 
#    0.000    0.000    0.000    0.000    0.000    0.000 
#
# Total GULP energy -793646.221543 kJ/mol
# GULP energy per Si atom -12400.722212 kJ/mol
# Density = 2.008219 g / cm^3
# Si number density = 20.128007 Si / 1000 Ang^3
#
#
#
# Elastic Constant Matrix: (Units=GPa)
#
#
# Indices 1 2 3 4 5 6 
#
# 1 68.8502 32.9241 28.6946 0.0000 0.0000 0.0000
# 2 32.9241 141.2966 51.9636 0.0000 0.0000 0.0000
# 3 28.6946 51.9636 121.2019 0.0000 0.0000 0.0000
# 4 0.0000 0.0000 0.0000 37.7499 0.0000 0.0000
# 5 0.0000 0.0000 0.0000 0.0000 31.3244 0.0000
# 6 0.0000 0.0000 0.0000 0.0000 0.0000 21.2691
#
#
#
# Elastic Compliance Matrix: (Units=1/GPa)
#
#
# Indices 1 2 3 4 5 6 
#
# 1 0.017099 -0.002963 -0.002778 0.000000 0.000000 0.000000
# 2 -0.002963 0.008915 -0.003121 0.000000 0.000000 0.000000
# 3 -0.002778 -0.003121 0.010246 0.000000 0.000000 0.000000
# 4 0.000000 0.000000 0.000000 0.026490 0.000000 0.000000
# 5 0.000000 0.000000 0.000000 0.000000 0.031924 0.000000
# 6 0.000000 0.000000 0.000000 0.000000 0.000000 0.047017
#
#
# Mechanical properties :
#
#
# Convention : Reuss Voigt Hill
#
# Bulk Modulus (GPa) = 53.94454 62.05704 58.00079
# Shear Modulus (GPa) = 30.19439 32.58642 31.39040
#
# Velocity S-wave (km/s) = 3.87734 4.02799 3.95338
# Velocity P-wave (km/s) = 6.84864 7.24783 7.05106
#
# Compressibility (1/GPa) = 0.01853756
#
# Stress axis : x y z
#
# Youngs Moduli (GPa) = 58.48366 112.16524 97.59477
#
# Poissons Ratio (x) = 0.33230 0.27111
# Poissons Ratio (y) = 0.17327 0.30459
# Poissons Ratio (z) = 0.16247 0.35006
#
# Static dielectric constant tensor:
#      x y z
#    x 3.901100 0.000000 0.000000 
#    y 0.000000 3.880740 0.000000 
#    z 0.000000 0.000000 3.677290 
# 
# 
# High freq. dielectric constant tensor:
#      x y z
#    x 1.787230 0.000000 0.000000 
#    y 0.000000 1.783020 0.000000 
#    z 0.000000 0.000000 1.794500 
# 
# From -- ./inp_files/5765.got.cif
#   From: 2010.03.12/outbox.cif.g09.slc.cpg/sg57_3_cif.got.tgz:5765.got - 2010.04.16 15:48:40.
