data_PCOD8234986
_publ_section_title
;
Structure prediction by ZEFSAII (Michael W. Deem and Ramdas Pophale) SiO2 
 PCOD8234986
Probable space group: P B C M
;
_chemical_formula_sum "Si O2"
_cell_formula_units_Z 32
_cell_length_a 11.769492
_cell_length_b 15.419514
_cell_length_c 8.604688
_cell_angle_alpha 90.000000
_cell_angle_beta 90.000000
_cell_angle_gamma 90.000000
_cell_volume 1561.577459
_symmetry_space_group_name_H-M "P B C M"
_symmetry_group_IT_number 57
_symmetry_cell_setting 'orthorhombic'
loop_
_space_group_symop_operation_xyz
x,y,z
-x,-y,1/2+z
x,1/2-y,-z
-x,1/2+y,1/2-z
-x,-y,-z
x,y,1/2-z
-x,1/2+y,z
x,1/2-y,1/2+z
loop_
_atom_site_type_symbol
_atom_site_label
_atom_site_fract_x
_atom_site_fract_y
_atom_site_fract_z
Si Si1 0.766063 0.340296 0.066850
Si Si2 0.007936 0.594906 0.069948
Si Si3 0.756991 0.841960 0.569601
Si Si4 0.374991 0.501492 0.067130
O O1 0.755631 0.339576 0.250000
O O2 0.718507 0.250000 0.000000
O O3 0.897065 0.350731 0.019294
O O4 0.691794 0.417839 0.001943
O O5 0.041487 0.587499 0.250000
O O6 0.890642 0.644822 0.045305
O O7 0.000000 0.500000 0.000000
O O8 0.720551 0.750000 0.500000
O O9 0.723342 0.847397 0.750000
O O10 0.688878 0.913764 0.475814
O O11 0.380417 0.511603 0.250000
O O12 0.500000 0.500000 0.000000
#
# Coordination Sequence:
#
# PCOD8234986 Si02
#       4
#     8   8   8   8
#     4  12  25  43  67  98 134 172 219 268 324 388
#     4  11  22  38  65  98 135 174 215 263 322 387
#     4  11  24  42  66  98 133 172 217 265 321 384
#     4  12  26  46  70  95 128 169 218 271 327 385
#
# _framework density 20.492099
#
# number of rings (size 3 to 8) (size 9 to 14) (size 15 to 20)
#    0.000    0.500    2.500    6.750    0.000    6.000 
#    0.000    5.000    0.000    0.000    0.000    0.000 
#    0.000    0.000    0.000    0.000    0.000    0.000 
#
# Total GULP energy -397046.733765 kJ/mol
# GULP energy per Si atom -12407.710430 kJ/mol
# Density = 2.044546 g / cm^3
# Si number density = 20.492099 Si / 1000 Ang^3
#
#
#
# Elastic Constant Matrix: (Units=GPa)
#
#
# Indices 1 2 3 4 5 6 
#
# 1 111.0547 50.0393 63.3787 0.0000 0.0000 0.0000
# 2 50.0393 173.0026 69.5982 0.0000 0.0000 0.0000
# 3 63.3787 69.5982 196.5771 0.0000 0.0000 0.0000
# 4 0.0000 0.0000 0.0000 40.4551 0.0000 0.0000
# 5 0.0000 0.0000 0.0000 0.0000 27.1344 0.0000
# 6 0.0000 0.0000 0.0000 0.0000 0.0000 -38.9884
#
#
#
# Elastic Compliance Matrix: (Units=1/GPa)
#
#
# Indices 1 2 3 4 5 6 
#
# 1 0.011698 -0.002176 -0.003001 0.000000 0.000000 0.000000
# 2 -0.002176 0.007145 -0.001828 0.000000 0.000000 0.000000
# 3 -0.003001 -0.001828 0.006702 0.000000 0.000000 0.000000
# 4 0.000000 0.000000 0.000000 0.024719 0.000000 0.000000
# 5 0.000000 0.000000 0.000000 0.000000 0.036854 0.000000
# 6 0.000000 0.000000 0.000000 0.000000 0.000000 -0.025649
#
#
# Mechanical properties :
#
#
# Convention : Reuss Voigt Hill
#
# Bulk Modulus (GPa) = 86.69887 94.07410 90.38649
# Shear Modulus (GPa) = 63.03275 25.56144 44.29710
#
# Velocity S-wave (km/s) = 5.55214 3.53566 4.65442
# Velocity P-wave (km/s) = 9.13794 7.91675 8.54918
#
# Compressibility (1/GPa) = 0.01153418
#
# Stress axis : x y z
#
# Youngs Moduli (GPa) = 85.48616 139.95527 149.21203
#
# Poissons Ratio (x) = 0.30457 0.44779
# Poissons Ratio (y) = 0.18603 0.27278
# Poissons Ratio (z) = 0.25655 0.25585
#
# Static dielectric constant tensor:
#      x y z
#    x 3.749200 0.000000 0.000000 
#    y 0.000000 3.863190 0.000000 
#    z 0.000000 0.000000 3.951020 
# 
# 
# High freq. dielectric constant tensor:
#      x y z
#    x 1.802200 0.000000 0.000000 
#    y 0.000000 1.821100 0.000000 
#    z 0.000000 0.000000 1.823810 
# 
# From -- ./inp_files/2359.got.cif
#   From: 2010.03.12/outbox.cif.g09.slc.cpg/sg57_2_cif.got.tgz:2359.got - 2010.04.16 15:48:40.
