data_PCOD8234546
_publ_section_title
;
Structure prediction by ZEFSAII (Michael W. Deem and Ramdas Pophale) SiO2 
 PCOD8234546
Probable space group: P B C M
;
_chemical_formula_sum "Si O2"
_cell_formula_units_Z 64
_cell_length_a 11.309270
_cell_length_b 14.051970
_cell_length_c 19.533860
_cell_angle_alpha 90.000000
_cell_angle_beta 90.000000
_cell_angle_gamma 90.000000
_cell_volume 3104.272641
_symmetry_space_group_name_H-M "P B C M"
_symmetry_group_IT_number 57
_symmetry_cell_setting 'orthorhombic'
loop_
_space_group_symop_operation_xyz
x,y,z
-x,-y,1/2+z
x,1/2-y,-z
-x,1/2+y,1/2-z
-x,-y,-z
x,y,1/2-z
-x,1/2+y,z
x,1/2-y,1/2+z
loop_
_atom_site_type_symbol
_atom_site_label
_atom_site_fract_x
_atom_site_fract_y
_atom_site_fract_z
Si Si1 0.746177 0.351758 0.012695
Si Si2 0.072654 0.821295 0.377282
Si Si3 0.435205 0.507706 0.928990
Si Si4 0.067343 0.473836 0.827668
Si Si5 0.351984 0.022196 0.826687
Si Si6 0.173076 0.883793 0.635074
Si Si7 0.806238 0.842287 0.083534
Si Si8 0.761268 0.632857 0.430514
O O1 0.871618 0.336609 0.048692
O O2 0.661195 0.408976 0.063642
O O3 0.683494 0.250000 0.000000
O O4 0.780458 0.401608 0.942001
O O5 0.130361 0.723681 0.346101
O O6 0.934114 0.811054 0.389187
O O7 0.098080 0.913499 0.330356
O O8 0.524465 0.524477 0.866906
O O9 0.367025 0.410259 0.915557
O O10 0.500000 0.500000 0.000000
O O11 0.087248 0.438897 0.750000
O O12 0.146660 0.411365 0.877527
O O13 0.932094 0.458154 0.850481
O O14 0.379625 0.057448 0.750000
O O15 0.288569 0.917850 0.822086
O O16 0.258432 0.091371 0.862519
O O17 0.736327 0.743520 0.080023
O O18 0.808050 0.889727 0.007732
#
# Coordination Sequence:
#
# PCOD8234546 Si02
#       8
#     8   8   8   8   8   8   8   8
#     4  10  22  39  70 101 130 168 224 282 335 392
#     4  11  23  39  67 105 138 170 217 277 342 408
#     4  12  23  45  68  95 129 179 227 282 326 386
#     4  12  25  39  63  98 141 184 216 267 339 409
#     4  12  27  46  69  98 135 182 231 284 339 397
#     4  11  22  42  67 100 137 174 219 274 339 410
#     4  11  23  42  72 106 133 169 223 282 340 409
#     4  11  24  43  69 100 132 177 227 277 338 397
#
# _framework density 20.616747
#
# number of rings (size 3 to 8) (size 9 to 14) (size 15 to 20)
#    0.000    0.750    6.250    1.125    3.500    4.000 
#    0.000    0.000    0.000    0.000    0.000    0.000 
#    0.000    0.000    0.000    0.000    0.000    0.000 
#
# Total GULP energy -793370.376878 kJ/mol
# GULP energy per Si atom -12396.412139 kJ/mol
# Density = 2.056982 g / cm^3
# Si number density = 20.616747 Si / 1000 Ang^3
#
#
#
# Elastic Constant Matrix: (Units=GPa)
#
#
# Indices 1 2 3 4 5 6 
#
# 1 114.0137 44.2940 57.8691 0.0000 0.0000 0.0000
# 2 44.2940 113.5572 48.0769 0.0000 0.0000 0.0000
# 3 57.8691 48.0769 149.2325 0.0000 0.0000 0.0000
# 4 0.0000 0.0000 0.0000 17.2844 0.0000 0.0000
# 5 0.0000 0.0000 0.0000 0.0000 16.5579 0.0000
# 6 0.0000 0.0000 0.0000 0.0000 0.0000 18.0116
#
#
#
# Elastic Compliance Matrix: (Units=1/GPa)
#
#
# Indices 1 2 3 4 5 6 
#
# 1 0.011784 -0.003082 -0.003576 0.000000 0.000000 0.000000
# 2 -0.003082 0.011003 -0.002350 0.000000 0.000000 0.000000
# 3 -0.003576 -0.002350 0.008845 0.000000 0.000000 0.000000
# 4 0.000000 0.000000 0.000000 0.057856 0.000000 0.000000
# 5 0.000000 0.000000 0.000000 0.000000 0.060394 0.000000
# 6 0.000000 0.000000 0.000000 0.000000 0.000000 0.055520
#
#
# Mechanical properties :
#
#
# Convention : Reuss Voigt Hill
#
# Bulk Modulus (GPa) = 73.44796 75.25371 74.35083
# Shear Modulus (GPa) = 21.93409 25.47500 23.70454
#
# Velocity S-wave (km/s) = 3.26528 3.51899 3.39451
# Velocity P-wave (km/s) = 7.06532 7.28639 7.17671
#
# Compressibility (1/GPa) = 0.01361508
#
# Stress axis : x y z
#
# Youngs Moduli (GPa) = 84.86406 90.88360 113.06096
#
# Poissons Ratio (x) = 0.28011 0.40436
# Poissons Ratio (y) = 0.26156 0.26565
# Poissons Ratio (z) = 0.30351 0.21354
#
# Static dielectric constant tensor:
#      x y z
#    x 3.998190 0.000000 0.000000 
#    y 0.000000 4.179930 0.000000 
#    z 0.000000 0.000000 3.685460 
# 
# 
# High freq. dielectric constant tensor:
#      x y z
#    x 1.803240 0.000000 0.000000 
#    y 0.000000 1.819480 0.000000 
#    z 0.000000 0.000000 1.797210 
# 
# From -- ./inp_files/22076.got.cif
#   From: 2010.03.12/outbox.cif.g09.slc.cpg/sg57_12_cif.got.tgz:22076.got - 2010.04.16 15:48:40.
