data_PCOD8234392
_publ_section_title
;
Structure prediction by ZEFSAII (Michael W. Deem and Ramdas Pophale) SiO2 
 PCOD8234392
Probable space group: P B C M
;
_chemical_formula_sum "Si O2"
_cell_formula_units_Z 40
_cell_length_a 4.998616
_cell_length_b 30.012557
_cell_length_c 13.291864
_cell_angle_alpha 90.000000
_cell_angle_beta 90.000000
_cell_angle_gamma 90.000000
_cell_volume 1994.062020
_symmetry_space_group_name_H-M "P B C M"
_symmetry_group_IT_number 57
_symmetry_cell_setting 'orthorhombic'
loop_
_space_group_symop_operation_xyz
x,y,z
-x,-y,1/2+z
x,1/2-y,-z
-x,1/2+y,1/2-z
-x,-y,-z
x,y,1/2-z
-x,1/2+y,z
x,1/2-y,1/2+z
loop_
_atom_site_type_symbol
_atom_site_label
_atom_site_fract_x
_atom_site_fract_y
_atom_site_fract_z
Si Si1 0.223628 0.657504 0.543052
Si Si2 0.223354 0.554582 0.958229
Si Si3 0.270180 0.011477 0.632749
Si Si4 0.098333 0.800014 0.250000
Si Si5 0.265056 0.202528 0.042042
Si Si6 0.400502 0.238776 0.250000
O O1 0.295532 0.606036 0.530995
O O2 0.125972 0.668034 0.654869
O O3 0.489663 0.685736 0.524770
O O4 0.988765 0.669750 0.464585
O O5 0.434434 0.529877 0.886741
O O6 0.936664 0.549058 0.905060
O O7 0.221444 0.533867 0.070298
O O8 0.232771 0.000597 0.750000
O O9 0.301386 0.758536 0.250000
O O10 0.801553 0.780152 0.250000
O O11 0.360078 0.206154 0.156190
O O12 0.167303 0.250000 0.000000
#
# Coordination Sequence:
#
# PCOD8234392 Si02
#       6
#     8   8   8   4   8   4
#     4  12  24  40  63  91 123 155 201 259 292 353
#     4  10  23  41  62  95 122 154 202 246 299 360
#     4  10  21  41  66  89 124 161 192 241 306 366
#     4  12  22  36  62  92 115 154 211 250 298 344
#     4  12  23  43  60  86 124 163 199 249 304 348
#     4  12  24  40  62  84 115 170 207 238 306 356
#
# _framework density 20.059556000000001
#
# number of rings (size 3 to 8) (size 9 to 14) (size 15 to 20)
#    0.000    0.800    4.000    3.600    2.800    0.000 
#    3.600    0.000    0.000    0.000    0.000    0.000 
#    0.000    0.000    0.000    0.000    0.000    0.000 
#
# Total GULP energy -496321.548454 kJ/mol
# GULP energy per Si atom -12408.038711 kJ/mol
# Density = 2.001390 g / cm^3
# Si number density = 20.059556 Si / 1000 Ang^3
#
#
#
# Elastic Constant Matrix: (Units=GPa)
#
#
# Indices 1 2 3 4 5 6 
#
# 1 76.1160 8.2683 5.0111 0.0000 0.0000 0.0000
# 2 8.2683 86.3510 42.5348 0.0000 0.0000 0.0000
# 3 5.0111 42.5348 118.5767 0.0000 0.0000 0.0000
# 4 0.0000 0.0000 0.0000 17.1191 0.0000 0.0000
# 5 0.0000 0.0000 0.0000 0.0000 24.3849 0.0000
# 6 0.0000 0.0000 0.0000 0.0000 0.0000 21.6971
#
#
#
# Elastic Compliance Matrix: (Units=1/GPa)
#
#
# Indices 1 2 3 4 5 6 
#
# 1 0.013278 -0.001208 -0.000128 0.000000 0.000000 0.000000
# 2 -0.001208 0.014176 -0.005034 0.000000 0.000000 0.000000
# 3 -0.000128 -0.005034 0.010245 0.000000 0.000000 0.000000
# 4 0.000000 0.000000 0.000000 0.058414 0.000000 0.000000
# 5 0.000000 0.000000 0.000000 0.000000 0.041009 0.000000
# 6 0.000000 0.000000 0.000000 0.000000 0.000000 0.046089
#
#
# Mechanical properties :
#
#
# Convention : Reuss Voigt Hill
#
# Bulk Modulus (GPa) = 40.06765 43.63023 41.84894
# Shear Modulus (GPa) = 24.47742 27.65552 26.06647
#
# Velocity S-wave (km/s) = 3.49698 3.71707 3.60870
# Velocity P-wave (km/s) = 6.02684 6.34190 6.18638
#
# Compressibility (1/GPa) = 0.02495779
#
# Stress axis : x y z
#
# Youngs Moduli (GPa) = 75.31526 70.54161 97.61316
#
# Poissons Ratio (x) = 0.08525 0.01246
# Poissons Ratio (y) = 0.09102 0.49139
# Poissons Ratio (z) = 0.00961 0.35511
#
# Static dielectric constant tensor:
#      x y z
#    x 3.786420 0.000000 0.000000 
#    y 0.000000 3.446570 0.000000 
#    z 0.000000 0.000000 3.813530 
# 
# 
# High freq. dielectric constant tensor:
#      x y z
#    x 1.803090 0.000000 0.000000 
#    y 0.000000 1.766350 0.000000 
#    z 0.000000 0.000000 1.789020 
# 
# From -- ./inp_files/10986.got.cif
#   From: 2010.03.12/outbox.cif.g09.slc.cpg/sg57_6_cif.got.tgz:10986.got - 2010.04.16 15:48:40.
