data_PCOD8234190
_publ_section_title
;
Structure prediction by ZEFSAII (Michael W. Deem and Ramdas Pophale) SiO2 
 PCOD8234190
Probable space group: P B C M
;
_chemical_formula_sum "Si O2"
_cell_formula_units_Z 48
_cell_length_a 15.308104
_cell_length_b 17.639271
_cell_length_c 8.730690
_cell_angle_alpha 90.000000
_cell_angle_beta 90.000000
_cell_angle_gamma 90.000000
_cell_volume 2357.494046
_symmetry_space_group_name_H-M "P B C M"
_symmetry_group_IT_number 57
_symmetry_cell_setting 'orthorhombic'
loop_
_space_group_symop_operation_xyz
x,y,z
-x,-y,1/2+z
x,1/2-y,-z
-x,1/2+y,1/2-z
-x,-y,-z
x,y,1/2-z
-x,1/2+y,z
x,1/2-y,1/2+z
loop_
_atom_site_type_symbol
_atom_site_label
_atom_site_fract_x
_atom_site_fract_y
_atom_site_fract_z
Si Si1 0.152277 0.426404 0.069288
Si Si2 0.347674 0.831458 0.931328
Si Si3 0.508540 0.917175 0.431152
Si Si4 0.681629 0.831433 0.071307
Si Si5 0.013331 0.830548 0.429526
Si Si6 0.813052 0.086592 0.569650
O O1 0.157619 0.445036 0.250000
O O2 0.227741 0.368399 0.017964
O O3 0.060170 0.390454 0.020291
O O4 0.162592 0.501271 0.970121
O O5 0.354573 0.825577 0.750000
O O6 0.323853 0.750000 0.000000
O O7 0.438808 0.859970 0.997805
O O8 0.272536 0.890415 0.976315
O O9 0.495006 0.920855 0.250000
O O10 0.603462 0.886796 0.478543
O O11 0.500000 0.000000 0.500000
O O12 0.680858 0.818735 0.250000
O O13 0.668128 0.750000 0.000000
O O14 0.991315 0.750000 0.500000
O O15 0.011409 0.820280 0.250000
O O16 0.107465 0.859947 0.484902
O O17 0.795315 0.094351 0.750000
#
# Coordination Sequence:
#
# PCOD8234190 Si02
#       6
#     8   8   8   8   8   8
#     4  10  21  39  60  87 121 156 194 241 293 352
#     4  12  25  42  63  88 119 158 201 252 307 360
#     4  11  23  40  62  91 123 159 201 245 296 358
#     4  10  22  38  59  86 117 152 193 237 288 346
#     4  10  22  38  59  87 120 156 198 244 295 353
#     4  11  23  39  60  89 119 155 201 247 298 359
#
# _framework density 20.360603000000001
#
# number of rings (size 3 to 8) (size 9 to 14) (size 15 to 20)
#    0.000    1.333    0.000    5.500    0.000    8.000 
#    0.000    0.000    0.000    0.000    0.000    0.000 
#    0.000    0.000    0.000    0.000    0.000    0.000 
#
# Total GULP energy -595507.278826 kJ/mol
# GULP energy per Si atom -12406.401642 kJ/mol
# Density = 2.031426 g / cm^3
# Si number density = 20.360603 Si / 1000 Ang^3
#
#
#
# Elastic Constant Matrix: (Units=GPa)
#
#
# Indices 1 2 3 4 5 6 
#
# 1 93.6668 6.9614 40.1552 0.0000 0.0000 0.0000
# 2 6.9614 99.6299 30.6206 0.0000 0.0000 0.0000
# 3 40.1552 30.6206 63.9157 0.0000 0.0000 0.0000
# 4 0.0000 0.0000 0.0000 43.0803 0.0000 0.0000
# 5 0.0000 0.0000 0.0000 0.0000 21.4995 0.0000
# 6 0.0000 0.0000 0.0000 0.0000 0.0000 162.1985
#
#
#
# Elastic Compliance Matrix: (Units=1/GPa)
#
#
# Indices 1 2 3 4 5 6 
#
# 1 0.015000 0.002167 -0.010462 0.000000 0.000000 0.000000
# 2 0.002167 0.012083 -0.007151 0.000000 0.000000 0.000000
# 3 -0.010462 -0.007151 0.025644 0.000000 0.000000 0.000000
# 4 0.000000 0.000000 0.000000 0.023212 0.000000 0.000000
# 5 0.000000 0.000000 0.000000 0.000000 0.046513 0.000000
# 6 0.000000 0.000000 0.000000 0.000000 0.000000 0.006165
#
#
# Mechanical properties :
#
#
# Convention : Reuss Voigt Hill
#
# Bulk Modulus (GPa) = 45.79387 45.85409 45.82398
# Shear Modulus (GPa) = 29.97814 57.32069 43.64942
#
# Velocity S-wave (km/s) = 3.84130 5.31167 4.63516
# Velocity P-wave (km/s) = 6.49726 7.75812 7.15551
#
# Compressibility (1/GPa) = 0.02183699
#
# Stress axis : x y z
#
# Youngs Moduli (GPa) = 66.66544 82.75832 38.99509
#
# Poissons Ratio (x) = -0.17937 0.40798
# Poissons Ratio (y) = -0.14449 0.27884
# Poissons Ratio (z) = 0.69748 0.59177
#
# Static dielectric constant tensor:
#      x y z
#    x 5.056080 0.000000 0.000000 
#    y 0.000000 3.672900 0.000000 
#    z 0.000000 0.000000 3.695220 
# 
# 
# High freq. dielectric constant tensor:
#      x y z
#    x 1.815650 0.000000 0.000000 
#    y 0.000000 1.810170 0.000000 
#    z 0.000000 0.000000 1.794610 
# 
# From -- ./inp_files/4575.got.cif
#   From: 2010.03.12/outbox.cif.g09.slc.cpg/sg57_3_cif.got.tgz:4575.got - 2010.04.16 15:48:40.
