data_PCOD8234746
_publ_section_title
;
Structure prediction by ZEFSAII (Michael W. Deem and Ramdas Pophale) SiO2 
 PCOD8234746
Probable space group: P B C M
;
_chemical_formula_sum "Si O2"
_cell_formula_units_Z 48
_cell_length_a 14.732379
_cell_length_b 9.523113
_cell_length_c 16.899630
_cell_angle_alpha 90.000000
_cell_angle_beta 90.000000
_cell_angle_gamma 90.000000
_cell_volume 2370.986148
_symmetry_space_group_name_H-M "P B C M"
_symmetry_group_IT_number 57
_symmetry_cell_setting 'orthorhombic'
loop_
_space_group_symop_operation_xyz
x,y,z
-x,-y,1/2+z
x,1/2-y,-z
-x,1/2+y,1/2-z
-x,-y,-z
x,y,1/2-z
-x,1/2+y,z
x,1/2-y,1/2+z
loop_
_atom_site_type_symbol
_atom_site_label
_atom_site_fract_x
_atom_site_fract_y
_atom_site_fract_z
Si Si1 0.722668 0.873660 0.441959
Si Si2 0.067575 0.996424 0.340480
Si Si3 0.101176 0.184376 0.659188
Si Si4 0.776810 0.126058 0.948554
Si Si5 0.586423 0.278400 0.409130
Si Si6 0.558659 0.977720 0.342317
O O1 0.691673 0.750000 0.500000
O O2 0.813517 0.829295 0.397175
O O3 0.644614 0.897947 0.378542
O O4 0.736078 0.013798 0.491318
O O5 0.086611 0.953598 0.250000
O O6 0.150994 0.940430 0.390563
O O7 0.973606 0.927892 0.369302
O O8 0.057387 0.162443 0.351019
O O9 0.130344 0.157203 0.750000
O O10 0.693342 0.189529 0.898184
O O11 0.823180 0.250000 0.000000
O O12 0.561820 0.250000 0.500000
O O13 0.532605 0.414486 0.379530
O O14 0.559952 0.143763 0.357363
O O15 0.559772 0.947791 0.250000
#
# Coordination Sequence:
#
# PCOD8234746 Si02
#       6
#     8   8   8   8   8   8
#     4  12  24  43  66  94 129 170 213 263 318 375
#     4  10  23  42  64  92 128 169 210 262 319 376
#     4  10  23  42  64  94 129 168 213 261 319 378
#     4  11  24  44  64  94 125 167 215 256 317 378
#     4  11  24  45  67  94 130 170 212 264 320 381
#     4  12  26  43  67  98 129 168 215 264 320 382
#
# _framework density 20.24474
#
# number of rings (size 3 to 8) (size 9 to 14) (size 15 to 20)
#    0.000    1.000    5.000    2.000    4.667    2.667 
#    0.000    0.000    0.000    0.000    0.000    0.000 
#    0.000    0.000    0.000    0.000    0.000    0.000 
#
# Total GULP energy -595493.964907 kJ/mol
# GULP energy per Si atom -12406.124269 kJ/mol
# Density = 2.019866 g / cm^3
# Si number density = 20.244740 Si / 1000 Ang^3
#
#
#
# Elastic Constant Matrix: (Units=GPa)
#
#
# Indices 1 2 3 4 5 6 
#
# 1 68.1430 8.4925 18.9629 0.0000 0.0000 0.0000
# 2 8.4925 84.9415 5.0781 0.0000 0.0000 0.0000
# 3 18.9629 5.0781 70.6488 0.0000 0.0000 0.0000
# 4 0.0000 0.0000 0.0000 31.9754 0.0000 0.0000
# 5 0.0000 0.0000 0.0000 0.0000 22.5219 0.0000
# 6 0.0000 0.0000 0.0000 0.0000 0.0000 52.9017
#
#
#
# Elastic Compliance Matrix: (Units=1/GPa)
#
#
# Indices 1 2 3 4 5 6 
#
# 1 0.016012 -0.001350 -0.004201 0.000000 0.000000 0.000000
# 2 -0.001350 0.011937 -0.000496 0.000000 0.000000 0.000000
# 3 -0.004201 -0.000496 0.015318 0.000000 0.000000 0.000000
# 4 0.000000 0.000000 0.000000 0.031274 0.000000 0.000000
# 5 0.000000 0.000000 0.000000 0.000000 0.044401 0.000000
# 6 0.000000 0.000000 0.000000 0.000000 0.000000 0.018903
#
#
# Mechanical properties :
#
#
# Convention : Reuss Voigt Hill
#
# Bulk Modulus (GPa) = 32.07735 32.08892 32.08314
# Shear Modulus (GPa) = 31.18570 34.22645 32.70607
#
# Velocity S-wave (km/s) = 3.92909 4.11619 4.02373
# Velocity P-wave (km/s) = 6.03845 6.20287 6.12121
#
# Compressibility (1/GPa) = 0.03117464
#
# Stress axis : x y z
#
# Youngs Moduli (GPa) = 62.45221 83.77039 65.28398
#
# Poissons Ratio (x) = 0.11307 0.27425
# Poissons Ratio (y) = 0.08430 0.03236
# Poissons Ratio (z) = 0.26235 0.04153
#
# Static dielectric constant tensor:
#      x y z
#    x 3.653840 0.000000 0.000000 
#    y 0.000000 3.924680 0.000000 
#    z 0.000000 0.000000 3.343950 
# 
# 
# High freq. dielectric constant tensor:
#      x y z
#    x 1.792640 0.000000 0.000000 
#    y 0.000000 1.810310 0.000000 
#    z 0.000000 0.000000 1.793320 
# 
# From -- ./inp_files/22413.got.cif
#   From: 2010.03.12/outbox.cif.g09.slc.cpg/sg57_12_cif.got.tgz:22413.got - 2010.04.16 15:48:40.
