data_PCOD8234968
_publ_section_title
;
Structure prediction by ZEFSAII (Michael W. Deem and Ramdas Pophale) SiO2 
 PCOD8234968
Probable space group: P B C M
;
_chemical_formula_sum "Si O2"
_cell_formula_units_Z 40
_cell_length_a 9.344871
_cell_length_b 25.890028
_cell_length_c 9.332204
_cell_angle_alpha 90.000000
_cell_angle_beta 90.000000
_cell_angle_gamma 90.000000
_cell_volume 2257.823841
_symmetry_space_group_name_H-M "P B C M"
_symmetry_group_IT_number 57
_symmetry_cell_setting 'orthorhombic'
loop_
_space_group_symop_operation_xyz
x,y,z
-x,-y,1/2+z
x,1/2-y,-z
-x,1/2+y,1/2-z
-x,-y,-z
x,y,1/2-z
-x,1/2+y,z
x,1/2-y,1/2+z
loop_
_atom_site_type_symbol
_atom_site_label
_atom_site_fract_x
_atom_site_fract_y
_atom_site_fract_z
Si Si1 0.846964 0.409160 0.080730
Si Si2 0.830266 0.588151 0.579682
Si Si3 0.831525 0.796085 0.093258
Si Si4 0.171376 0.796923 0.408773
Si Si5 0.649786 0.503871 0.078423
O O1 0.854083 0.402419 0.250000
O O2 0.794317 0.353222 0.020405
O O3 0.738605 0.453307 0.031839
O O4 0.007022 0.423463 0.029654
O O5 0.809009 0.577756 0.750000
O O6 0.789100 0.646951 0.538315
O O7 0.728882 0.553615 0.482549
O O8 0.765980 0.788281 0.250000
O O9 0.001545 0.791426 0.098899
O O10 0.763785 0.750000 0.000000
O O11 0.238807 0.750000 0.500000
O O12 0.237947 0.792669 0.250000
O O13 0.632442 0.507779 0.250000
O O14 0.500000 0.500000 0.000000
#
# Coordination Sequence:
#
# PCOD8234968 Si02
#       5
#     8   8   8   8   8
#     4   8  16  31  51  72  97 127 158 192 237 287
#     4   9  17  32  52  74  98 125 157 197 240 283
#     4   8  14  24  42  68  98 125 149 182 229 279
#     4   8  13  24  42  67  96 123 149 183 228 279
#     4  11  22  35  50  69  94 128 165 202 243 290
#
# _framework density 17.716173999999999
#
# number of rings (size 3 to 8) (size 9 to 14) (size 15 to 20)
#    0.000    3.200    0.000    3.600    0.000    0.800 
#    0.000    6.000    0.000    1.200    0.000    2.800 
#    0.000    0.000    0.000    0.000    0.000    0.000 
#
# Total GULP energy -495647.951069 kJ/mol
# GULP energy per Si atom -12391.198777 kJ/mol
# Density = 1.767585 g / cm^3
# Si number density = 17.716174 Si / 1000 Ang^3
#
#
#
# Elastic Constant Matrix: (Units=GPa)
#
#
# Indices 1 2 3 4 5 6 
#
# 1 76.7439 66.0104 40.1743 0.0000 0.0000 0.0000
# 2 66.0104 173.4233 70.8252 0.0000 0.0000 0.0000
# 3 40.1743 70.8252 74.4196 0.0000 0.0000 0.0000
# 4 0.0000 0.0000 0.0000 33.7884 0.0000 0.0000
# 5 0.0000 0.0000 0.0000 0.0000 19.9686 0.0000
# 6 0.0000 0.0000 0.0000 0.0000 0.0000 -0.5468
#
#
#
# Elastic Compliance Matrix: (Units=1/GPa)
#
#
# Indices 1 2 3 4 5 6 
#
# 1 0.020930 -0.005483 -0.006080 0.000000 0.000000 0.000000
# 2 -0.005483 0.010869 -0.007384 0.000000 0.000000 0.000000
# 3 -0.006080 -0.007384 0.023747 0.000000 0.000000 0.000000
# 4 0.000000 0.000000 0.000000 0.029596 0.000000 0.000000
# 5 0.000000 0.000000 0.000000 0.000000 0.050079 0.000000
# 6 0.000000 0.000000 0.000000 0.000000 0.000000 -1.828701
#
#
# Mechanical properties :
#
#
# Convention : Reuss Voigt Hill
#
# Bulk Modulus (GPa) = 56.65461 75.40076 66.02768
# Shear Modulus (GPa) = -3.03085 20.48050 8.72482
#
# Velocity S-wave (km/s) = -1.30939 3.40374 2.22159
# Velocity P-wave (km/s) = 5.45550 7.62234 6.62807
#
# Compressibility (1/GPa) = 0.01765081
#
# Stress axis : x y z
#
# Youngs Moduli (GPa) = 47.77912 92.00540 42.11121
#
# Poissons Ratio (x) = 0.50451 0.25603
# Poissons Ratio (y) = 0.26200 0.31094
# Poissons Ratio (z) = 0.29049 0.67935
#
# Static dielectric constant tensor:
#      x y z
#    x 2.913440 0.000000 0.000000 
#    y 0.000000 3.723700 0.000000 
#    z 0.000000 0.000000 3.299040 
# 
# 
# High freq. dielectric constant tensor:
#      x y z
#    x 1.637480 0.000000 0.000000 
#    y 0.000000 1.706460 0.000000 
#    z 0.000000 0.000000 1.665620 
# 
# From -- ./inp_files/1547.got.cif
#   From: 2010.03.12/outbox.cif.g09.slc.cpg/sg57_1_cif.got.tgz:1547.got - 2010.04.16 15:48:40.
