data_PCOD8234855
_publ_section_title
;
Structure prediction by ZEFSAII (Michael W. Deem and Ramdas Pophale) SiO2 
 PCOD8234855
Probable space group: P B C M
;
_chemical_formula_sum "Si O2"
_cell_formula_units_Z 32
_cell_length_a 7.795928
_cell_length_b 11.792641
_cell_length_c 14.372949
_cell_angle_alpha 90.000000
_cell_angle_beta 90.000000
_cell_angle_gamma 90.000000
_cell_volume 1321.371032
_symmetry_space_group_name_H-M "P B C M"
_symmetry_group_IT_number 57
_symmetry_cell_setting 'orthorhombic'
loop_
_space_group_symop_operation_xyz
x,y,z
-x,-y,1/2+z
x,1/2-y,-z
-x,1/2+y,1/2-z
-x,-y,-z
x,y,1/2-z
-x,1/2+y,z
x,1/2-y,1/2+z
loop_
_atom_site_type_symbol
_atom_site_label
_atom_site_fract_x
_atom_site_fract_y
_atom_site_fract_z
Si Si1 0.342958 0.939823 0.358309
Si Si2 0.270869 0.023837 0.853149
Si Si3 0.172605 0.365127 0.526945
Si Si4 0.149996 0.715627 0.355750
O O1 0.308838 0.958390 0.250000
O O2 0.243461 0.828288 0.394684
O O3 0.544266 0.924143 0.378466
O O4 0.281259 0.052911 0.408672
O O5 0.210317 0.062793 0.750000
O O6 0.285679 0.887697 0.857158
O O7 0.132231 0.070095 0.928498
O O8 0.277079 0.250000 0.500000
O O9 0.003344 0.320641 0.577578
O O10 0.083972 0.734892 0.250000
#
# Coordination Sequence:
#
# PCOD8234855 Si02
#       4
#     8   8   8   8
#     4  10  24  47  74 104 142 185 238 299 355 417
#     4  10  24  46  72 102 139 186 237 293 357 419
#     4  12  27  42  68 106 144 186 233 285 354 428
#     4  10  24  45  72 103 140 182 234 295 353 421
#
# _framework density 24.217272000000001
#
# number of rings (size 3 to 8) (size 9 to 14) (size 15 to 20)
#    0.000    1.500    0.000    2.250   10.500    2.000 
#    0.000    0.000    0.000    0.000    0.000    0.000 
#    0.000    0.000    0.000    0.000    0.000    0.000 
#
# Total GULP energy -396676.185810 kJ/mol
# GULP energy per Si atom -12396.130807 kJ/mol
# Density = 2.416215 g / cm^3
# Si number density = 24.217272 Si / 1000 Ang^3
#
#
#
# Elastic Constant Matrix: (Units=GPa)
#
#
# Indices 1 2 3 4 5 6 
#
# 1 89.3096 50.7974 68.0450 0.0000 0.0000 0.0000
# 2 50.7974 167.0658 68.9326 0.0000 0.0000 0.0000
# 3 68.0450 68.9326 136.9225 0.0000 0.0000 0.0000
# 4 0.0000 0.0000 0.0000 47.5012 0.0000 0.0000
# 5 0.0000 0.0000 0.0000 0.0000 18.7853 0.0000
# 6 0.0000 0.0000 0.0000 0.0000 0.0000 32.7930
#
#
#
# Elastic Compliance Matrix: (Units=1/GPa)
#
#
# Indices 1 2 3 4 5 6 
#
# 1 0.018717 -0.002339 -0.008124 0.000000 0.000000 0.000000
# 2 -0.002339 0.007847 -0.002788 0.000000 0.000000 0.000000
# 3 -0.008124 -0.002788 0.012744 0.000000 0.000000 0.000000
# 4 0.000000 0.000000 0.000000 0.021052 0.000000 0.000000
# 5 0.000000 0.000000 0.000000 0.000000 0.053233 0.000000
# 6 0.000000 0.000000 0.000000 0.000000 0.000000 0.030494
#
#
# Mechanical properties :
#
#
# Convention : Reuss Voigt Hill
#
# Bulk Modulus (GPa) = 78.08740 85.42755 81.75748
# Shear Modulus (GPa) = 28.59433 33.51745 31.05589
#
# Velocity S-wave (km/s) = 3.43992 3.72429 3.58493
# Velocity P-wave (km/s) = 6.93483 7.33797 7.13925
#
# Compressibility (1/GPa) = 0.01280616
#
# Stress axis : x y z
#
# Youngs Moduli (GPa) = 53.42704 127.43205 78.46526
#
# Poissons Ratio (x) = 0.29806 0.63746
# Poissons Ratio (y) = 0.12497 0.21878
# Poissons Ratio (z) = 0.43405 0.35532
#
# Static dielectric constant tensor:
#      x y z
#    x 3.966970 0.000000 0.000000 
#    y 0.000000 4.920980 0.000000 
#    z 0.000000 0.000000 4.746260 
# 
# 
# High freq. dielectric constant tensor:
#      x y z
#    x 1.932190 0.000000 0.000000 
#    y 0.000000 1.982540 0.000000 
#    z 0.000000 0.000000 1.985500 
# 
# From -- ./inp_files/15524.got.cif
#   From: 2010.03.12/outbox.cif.g09.slc.cpg/sg57_8_cif.got.tgz:15524.got - 2010.04.16 15:48:40.
