data_PCOD8234961
_publ_section_title
;
Structure prediction by ZEFSAII (Michael W. Deem and Ramdas Pophale) SiO2 
 PCOD8234961
Probable space group: P B C M
;
_chemical_formula_sum "Si O2"
_cell_formula_units_Z 64
_cell_length_a 8.481596
_cell_length_b 13.981494
_cell_length_c 25.645332
_cell_angle_alpha 90.000000
_cell_angle_beta 90.000000
_cell_angle_gamma 90.000000
_cell_volume 3041.161532
_symmetry_space_group_name_H-M "P B C M"
_symmetry_group_IT_number 57
_symmetry_cell_setting 'orthorhombic'
loop_
_space_group_symop_operation_xyz
x,y,z
-x,-y,1/2+z
x,1/2-y,-z
-x,1/2+y,1/2-z
-x,-y,-z
x,y,1/2-z
-x,1/2+y,z
x,1/2-y,1/2+z
loop_
_atom_site_type_symbol
_atom_site_label
_atom_site_fract_x
_atom_site_fract_y
_atom_site_fract_z
Si Si1 0.655527 0.131508 0.367674
Si Si2 0.018317 0.145937 0.389596
Si Si3 0.103438 0.096008 0.495519
Si Si4 0.695869 0.949033 0.191103
Si Si5 0.080511 0.145979 0.890666
Si Si6 0.569201 0.955147 0.551311
Si Si7 0.217994 0.961503 0.371994
Si Si8 0.603402 0.176582 0.807630
O O1 0.559365 0.115017 0.421749
O O2 0.611013 0.236141 0.347749
O O3 0.842323 0.122255 0.372941
O O4 0.611505 0.048187 0.326275
O O5 0.007852 0.157965 0.452924
O O6 0.078777 0.247286 0.367258
O O7 0.136569 0.065901 0.365332
O O8 0.150991 0.141909 0.550791
O O9 0.268191 0.092972 0.464807
O O10 0.000000 0.000000 0.500000
O O11 0.763744 0.960756 0.250000
O O12 0.832947 0.923093 0.150053
O O13 0.572395 0.863306 0.189941
O O14 0.904394 0.108137 0.900525
O O15 0.500000 0.000000 0.500000
O O16 0.621414 0.035023 0.593627
O O17 0.270871 0.908754 0.318951
O O18 0.643530 0.214707 0.750000
#
# Coordination Sequence:
#
# PCOD8234961 Si02
#       8
#     8   8   8   8   8   8   8   8
#     4  12  23  45  69  99 139 175 232 281 337 409
#     4  11  24  41  66 100 132 183 219 280 336 401
#     4  11  21  40  65  95 136 180 219 269 335 401
#     4  11  25  44  70  97 132 175 221 285 344 399
#     4  12  23  43  69  95 141 175 228 276 341 408
#     4  11  23  39  69  99 137 181 224 274 335 414
#     4  11  23  44  67  97 135 175 222 282 338 400
#     4  11  26  47  70  98 134 179 227 286 352 410
#
# _framework density 21.044592000000002
#
# number of rings (size 3 to 8) (size 9 to 14) (size 15 to 20)
#    0.000    0.750    6.250    2.250    3.500    0.500 
#    0.000    1.250    0.000    0.000    0.000    0.000 
#    0.000    0.000    0.000    0.000    0.000    0.000 
#
# Total GULP energy -792979.066663 kJ/mol
# GULP energy per Si atom -12390.297917 kJ/mol
# Density = 2.099669 g / cm^3
# Si number density = 21.044592 Si / 1000 Ang^3
#
#
#
# Elastic Constant Matrix: (Units=GPa)
#
#
# Indices 1 2 3 4 5 6 
#
# 1 73.4899 34.5685 32.3119 0.0000 0.0000 0.0000
# 2 34.5685 132.0762 37.5841 0.0000 0.0000 0.0000
# 3 32.3119 37.5841 112.8223 0.0000 0.0000 0.0000
# 4 0.0000 0.0000 0.0000 31.7830 0.0000 0.0000
# 5 0.0000 0.0000 0.0000 0.0000 31.3558 0.0000
# 6 0.0000 0.0000 0.0000 0.0000 0.0000 30.6282
#
#
#
# Elastic Compliance Matrix: (Units=1/GPa)
#
#
# Indices 1 2 3 4 5 6 
#
# 1 0.016808 -0.003347 -0.003699 0.000000 0.000000 0.000000
# 2 -0.003347 0.009031 -0.002050 0.000000 0.000000 0.000000
# 3 -0.003699 -0.002050 0.010606 0.000000 0.000000 0.000000
# 4 0.000000 0.000000 0.000000 0.031463 0.000000 0.000000
# 5 0.000000 0.000000 0.000000 0.000000 0.031892 0.000000
# 6 0.000000 0.000000 0.000000 0.000000 0.000000 0.032650
#
#
# Mechanical properties :
#
#
# Convention : Reuss Voigt Hill
#
# Bulk Modulus (GPa) = 54.78408 58.59082 56.68745
# Shear Modulus (GPa) = 31.90315 33.01498 32.45907
#
# Velocity S-wave (km/s) = 3.89778 3.96512 3.93159
# Velocity P-wave (km/s) = 6.80778 6.99032 6.89965
#
# Compressibility (1/GPa) = 0.01825348
#
# Stress axis : x y z
#
# Youngs Moduli (GPa) = 59.49621 110.73438 94.28883
#
# Poissons Ratio (x) = 0.37058 0.34876
# Poissons Ratio (y) = 0.19911 0.19328
# Poissons Ratio (z) = 0.22007 0.22699
#
# Static dielectric constant tensor:
#      x y z
#    x 5.792870 0.000000 0.000000 
#    y 0.000000 3.852200 0.000000 
#    z 0.000000 0.000000 6.224230 
# 
# 
# High freq. dielectric constant tensor:
#      x y z
#    x 1.829260 0.000000 0.000000 
#    y 0.000000 1.822350 0.000000 
#    z 0.000000 0.000000 1.821180 
# 
# From -- ./inp_files/26889.got.cif
#   From: 2010.03.12/outbox.cif.g09.slc.cpg/sg57_14_cif.got.tgz:26889.got - 2010.04.16 15:48:40.
