data_PCOD8234416
_publ_section_title
;
Structure prediction by ZEFSAII (Michael W. Deem and Ramdas Pophale) SiO2 
 PCOD8234416
Probable space group: P B C M
;
_chemical_formula_sum "Si O2"
_cell_formula_units_Z 56
_cell_length_a 19.244110
_cell_length_b 8.719007
_cell_length_c 15.204187
_cell_angle_alpha 90.000000
_cell_angle_beta 90.000000
_cell_angle_gamma 90.000000
_cell_volume 2551.103388
_symmetry_space_group_name_H-M "P B C M"
_symmetry_group_IT_number 57
_symmetry_cell_setting 'orthorhombic'
loop_
_space_group_symop_operation_xyz
x,y,z
-x,-y,1/2+z
x,1/2-y,-z
-x,1/2+y,1/2-z
-x,-y,-z
x,y,1/2-z
-x,1/2+y,z
x,1/2-y,1/2+z
loop_
_atom_site_type_symbol
_atom_site_label
_atom_site_fract_x
_atom_site_fract_y
_atom_site_fract_z
Si Si1 0.458780 0.120399 0.057349
Si Si2 0.289952 0.685474 0.404984
Si Si3 0.092780 0.417546 0.349013
Si Si4 0.573253 0.172429 0.847964
Si Si5 0.177076 0.906918 0.348563
Si Si6 0.041652 0.747550 0.104004
Si Si7 0.779847 0.912258 0.478728
O O1 0.514154 0.226858 0.107121
O O2 0.412427 0.003003 0.115759
O O3 0.415899 0.250000 0.000000
O O4 0.500000 0.000000 0.000000
O O5 0.306657 0.750000 0.500000
O O6 0.356302 0.727094 0.346509
O O7 0.219936 0.748972 0.360423
O O8 0.276666 0.505073 0.420994
O O9 0.122695 0.399867 0.250000
O O10 0.057013 0.580924 0.359141
O O11 0.151359 0.390739 0.421274
O O12 0.035347 0.287669 0.365167
O O13 0.547396 0.146555 0.750000
O O14 0.191040 0.974660 0.250000
O O15 0.095915 0.869564 0.356521
O O16 0.201898 0.017305 0.426130
O O17 0.049201 0.750000 0.000000
O O18 0.745233 0.750000 0.500000
#
# Coordination Sequence:
#
# PCOD8234416 Si02
#       7
#     8   8   8   8   8   8   8
#     4   9  19  37  61  95 138 179 217 260 324 391
#     4  10  21  42  67  90 122 171 220 262 323 394
#     4  12  25  40  62  93 125 164 211 266 333 398
#     4  11  21  37  65 101 136 176 225 278 323 381
#     4  11  22  42  66  90 124 167 216 268 325 390
#     4  12  23  42  61  89 125 164 210 269 329 393
#     4  11  25  44  63  92 129 167 216 277 331 396
#
# _framework density 21.951286
#
# number of rings (size 3 to 8) (size 9 to 14) (size 15 to 20)
#    0.000    1.143    2.857    4.714    2.000    1.143 
#    0.000   10.714    0.000    0.000    0.000    0.000 
#    0.000    0.000    0.000    0.000    0.000    0.000 
#
# Total GULP energy -693924.123045 kJ/mol
# GULP energy per Si atom -12391.502197 kJ/mol
# Density = 2.190132 g / cm^3
# Si number density = 21.951286 Si / 1000 Ang^3
#
#
#
# Elastic Constant Matrix: (Units=GPa)
#
#
# Indices 1 2 3 4 5 6 
#
# 1 66.0538 39.9625 16.3739 0.0000 0.0000 0.0000
# 2 39.9625 156.3650 41.2473 0.0000 0.0000 0.0000
# 3 16.3739 41.2473 149.0569 0.0000 0.0000 0.0000
# 4 0.0000 0.0000 0.0000 1.2920 0.0000 0.0000
# 5 0.0000 0.0000 0.0000 0.0000 27.3832 0.0000
# 6 0.0000 0.0000 0.0000 0.0000 0.0000 20.0541
#
#
#
# Elastic Compliance Matrix: (Units=1/GPa)
#
#
# Indices 1 2 3 4 5 6 
#
# 1 0.017987 -0.004397 -0.000759 0.000000 0.000000 0.000000
# 2 -0.004397 0.007974 -0.001723 0.000000 0.000000 0.000000
# 3 -0.000759 -0.001723 0.007269 0.000000 0.000000 0.000000
# 4 0.000000 0.000000 0.000000 0.774003 0.000000 0.000000
# 5 0.000000 0.000000 0.000000 0.000000 0.036519 0.000000
# 6 0.000000 0.000000 0.000000 0.000000 0.000000 0.049865
#
#
# Mechanical properties :
#
#
# Convention : Reuss Voigt Hill
#
# Bulk Modulus (GPa) = 51.35790 62.96034 57.15912
# Shear Modulus (GPa) = 5.47126 28.00532 16.73829
#
# Velocity S-wave (km/s) = 1.58046 3.57570 2.76437
# Velocity P-wave (km/s) = 5.17471 6.76695 6.02367
#
# Compressibility (1/GPa) = 0.01947120
#
# Stress axis : x y z
#
# Youngs Moduli (GPa) = 55.59430 125.41343 137.56713
#
# Poissons Ratio (x) = 0.55142 0.10445
# Poissons Ratio (y) = 0.24444 0.23710
# Poissons Ratio (z) = 0.04221 0.21615
#
# Static dielectric constant tensor:
#      x y z
#    x 3.725590 0.000000 0.000000 
#    y 0.000000 4.225730 0.000000 
#    z 0.000000 0.000000 4.175930 
# 
# 
# High freq. dielectric constant tensor:
#      x y z
#    x 1.840270 0.000000 0.000000 
#    y 0.000000 1.867330 0.000000 
#    z 0.000000 0.000000 1.876000 
# 
# From -- ./inp_files/19341.got.cif
#   From: 2010.03.12/outbox.cif.g09.slc.cpg/sg57_10_cif.got.tgz:19341.got - 2010.04.16 15:48:40.
