data_PCOD8234210
_publ_section_title
;
Structure prediction by ZEFSAII (Michael W. Deem and Ramdas Pophale) SiO2 
 PCOD8234210
Probable space group: P B C M
;
_chemical_formula_sum "Si O2"
_cell_formula_units_Z 48
_cell_length_a 14.857971
_cell_length_b 19.106259
_cell_length_c 8.730154
_cell_angle_alpha 90.000000
_cell_angle_beta 90.000000
_cell_angle_gamma 90.000000
_cell_volume 2478.318231
_symmetry_space_group_name_H-M "P B C M"
_symmetry_group_IT_number 57
_symmetry_cell_setting 'orthorhombic'
loop_
_space_group_symop_operation_xyz
x,y,z
-x,-y,1/2+z
x,1/2-y,-z
-x,1/2+y,1/2-z
-x,-y,-z
x,y,1/2-z
-x,1/2+y,z
x,1/2-y,1/2+z
loop_
_atom_site_type_symbol
_atom_site_label
_atom_site_fract_x
_atom_site_fract_y
_atom_site_fract_z
Si Si1 0.624917 0.323651 0.929723
Si Si2 0.281011 0.090570 0.073025
Si Si3 0.034738 0.571572 0.570611
Si Si4 0.242943 0.569981 0.573885
Si Si5 0.435284 0.323981 0.069793
Si Si6 0.896960 0.825983 0.930461
O O1 0.611933 0.314619 0.750000
O O2 0.656258 0.250000 0.000000
O O3 0.700104 0.380905 0.963420
O O4 0.530610 0.348253 0.001897
O O5 0.302922 0.105930 0.250000
O O6 0.189242 0.128254 0.023563
O O7 0.270726 0.009122 0.039645
O O8 0.362059 0.117691 0.969187
O O9 0.016627 0.568150 0.750000
O O10 0.139205 0.581097 0.532786
O O11 0.000000 0.500000 0.500000
O O12 0.985161 0.638197 0.499609
O O13 0.262314 0.589567 0.750000
O O14 0.444755 0.315633 0.250000
O O15 0.404102 0.250000 0.000000
O O16 0.909099 0.820472 0.750000
O O17 0.883939 0.750000 0.000000
#
# Coordination Sequence:
#
# PCOD8234210 Si02
#       6
#     8   8   8   8   8   8
#     4  11  23  41  64  89 118 157 201 250 301 358
#     4  10  21  39  61  88 123 159 199 247 300 358
#     4  11  22  40  64  89 120 161 202 249 303 361
#     4  10  22  41  63  89 121 158 198 248 302 356
#     4  11  22  38  61  88 120 160 201 247 301 358
#     4  11  23  40  61  91 124 162 204 253 304 357
#
# _framework density 19.367972000000002
#
# number of rings (size 3 to 8) (size 9 to 14) (size 15 to 20)
#    0.000    1.333    1.667    5.500    0.000    6.000 
#    0.000    0.000    0.000    0.000    0.000    0.000 
#    0.000    0.000    0.000    0.000    0.000    0.000 
#
# Total GULP energy -595512.318304 kJ/mol
# GULP energy per Si atom -12406.506631 kJ/mol
# Density = 1.932389 g / cm^3
# Si number density = 19.367972 Si / 1000 Ang^3
#
#
#
# Elastic Constant Matrix: (Units=GPa)
#
#
# Indices 1 2 3 4 5 6 
#
# 1 123.2145 69.6526 71.6073 0.0000 0.0000 0.0000
# 2 69.6526 97.5181 54.9206 0.0000 0.0000 0.0000
# 3 71.6073 54.9206 135.3706 0.0000 0.0000 0.0000
# 4 0.0000 0.0000 0.0000 37.0403 0.0000 0.0000
# 5 0.0000 0.0000 0.0000 0.0000 34.1221 0.0000
# 6 0.0000 0.0000 0.0000 0.0000 0.0000 44.0574
#
#
#
# Elastic Compliance Matrix: (Units=1/GPa)
#
#
# Indices 1 2 3 4 5 6 
#
# 1 0.015766 -0.008508 -0.004888 0.000000 0.000000 0.000000
# 2 -0.008508 0.017883 -0.002755 0.000000 0.000000 0.000000
# 3 -0.004888 -0.002755 0.011090 0.000000 0.000000 0.000000
# 4 0.000000 0.000000 0.000000 0.026998 0.000000 0.000000
# 5 0.000000 0.000000 0.000000 0.000000 0.029306 0.000000
# 6 0.000000 0.000000 0.000000 0.000000 0.000000 0.022698
#
#
# Mechanical properties :
#
#
# Convention : Reuss Voigt Hill
#
# Bulk Modulus (GPa) = 80.40057 83.16269 81.78163
# Shear Modulus (GPa) = 31.21309 33.70548 32.45928
#
# Velocity S-wave (km/s) = 4.01881 4.17618 4.09825
# Velocity P-wave (km/s) = 7.94586 8.14159 8.04432
#
# Compressibility (1/GPa) = 0.01243772
#
# Stress axis : x y z
#
# Youngs Moduli (GPa) = 63.42601 55.91942 90.16846
#
# Poissons Ratio (x) = 0.47578 0.44076
# Poissons Ratio (y) = 0.53965 0.24837
# Poissons Ratio (z) = 0.31004 0.15403
#
# Static dielectric constant tensor:
#      x y z
#    x 3.650300 0.000000 0.000000 
#    y 0.000000 3.511980 0.000000 
#    z 0.000000 0.000000 3.630380 
# 
# 
# High freq. dielectric constant tensor:
#      x y z
#    x 1.763730 0.000000 0.000000 
#    y 0.000000 1.759050 0.000000 
#    z 0.000000 0.000000 1.763850 
# 
# From -- ./inp_files/4596.got.cif
#   From: 2010.03.12/outbox.cif.g09.slc.cpg/sg57_3_cif.got.tgz:4596.got - 2010.04.16 15:48:40.
