data_PCOD8234864
_publ_section_title
;
Structure prediction by ZEFSAII (Michael W. Deem and Ramdas Pophale) SiO2 
 PCOD8234864
Probable space group: P B C M
;
_chemical_formula_sum "Si O2"
_cell_formula_units_Z 64
_cell_length_a 15.230968
_cell_length_b 11.801523
_cell_length_c 18.287167
_cell_angle_alpha 90.000000
_cell_angle_beta 90.000000
_cell_angle_gamma 90.000000
_cell_volume 3287.093017
_symmetry_space_group_name_H-M "P B C M"
_symmetry_group_IT_number 57
_symmetry_cell_setting 'orthorhombic'
loop_
_space_group_symop_operation_xyz
x,y,z
-x,-y,1/2+z
x,1/2-y,-z
-x,1/2+y,1/2-z
-x,-y,-z
x,y,1/2-z
-x,1/2+y,z
x,1/2-y,1/2+z
loop_
_atom_site_type_symbol
_atom_site_label
_atom_site_fract_x
_atom_site_fract_y
_atom_site_fract_z
Si Si1 0.742324 0.066900 0.083589
Si Si2 0.319275 0.971807 0.079737
Si Si3 0.898288 0.262322 0.584777
Si Si4 0.402720 0.741728 0.086607
Si Si5 0.075817 0.308096 0.666990
Si Si6 0.750849 0.827198 0.337018
Si Si7 0.597538 0.797239 0.580877
Si Si8 0.159103 0.542038 0.667372
O O1 0.831199 0.135767 0.100655
O O2 0.658770 0.138366 0.113365
O O3 0.749658 0.950303 0.126708
O O4 0.730478 0.048200 0.997108
O O5 0.364019 0.860339 0.114075
O O6 0.249824 0.013321 0.140166
O O7 0.392720 0.067777 0.072850
O O8 0.913790 0.250000 0.500000
O O9 0.860146 0.146068 0.614935
O O10 0.992577 0.281122 0.618966
O O11 0.501597 0.725204 0.115307
O O12 0.404259 0.750000 0.000000
O O13 0.056001 0.271618 0.750000
O O14 0.160391 0.237959 0.638756
O O15 0.087617 0.443140 0.661502
O O16 0.745016 0.838736 0.250000
O O17 0.667759 0.756980 0.364941
O O18 0.609890 0.750000 0.500000
O O19 0.167149 0.586156 0.750000
#
# Coordination Sequence:
#
# PCOD8234864 Si02
#       8
#     8   8   8   8   8   8   8   8
#     4  11  22  41  64  90 130 161 207 265 315 370
#     4  11  20  40  66  92 126 162 213 262 305 367
#     4  12  24  41  67  96 124 159 207 267 315 365
#     4   9  21  37  62  96 125 161 208 259 313 375
#     4  10  25  44  61  88 126 168 211 252 314 388
#     4  11  25  43  61  89 130 169 206 260 319 375
#     4  11  22  37  68  95 122 169 212 255 313 376
#     4  11  23  42  65  88 124 171 210 252 313 379
#
# _framework density 19.470089999999999
#
# number of rings (size 3 to 8) (size 9 to 14) (size 15 to 20)
#    0.000    1.250    5.000    0.750    3.500    4.500 
#    0.000    1.250    0.000    0.000    0.000    0.000 
#    0.000    0.000    0.000    0.000    0.000    0.000 
#
# Total GULP energy -793632.470368 kJ/mol
# GULP energy per Si atom -12400.507349 kJ/mol
# Density = 1.942578 g / cm^3
# Si number density = 19.470090 Si / 1000 Ang^3
#
#
#
# Elastic Constant Matrix: (Units=GPa)
#
#
# Indices 1 2 3 4 5 6 
#
# 1 148.0459 50.1971 50.3167 0.0000 0.0000 0.0000
# 2 50.1971 126.4584 41.4967 0.0000 0.0000 0.0000
# 3 50.3167 41.4967 72.0817 0.0000 0.0000 0.0000
# 4 0.0000 0.0000 0.0000 -14.3415 0.0000 0.0000
# 5 0.0000 0.0000 0.0000 0.0000 64.6837 0.0000
# 6 0.0000 0.0000 0.0000 0.0000 0.0000 23.5361
#
#
#
# Elastic Compliance Matrix: (Units=1/GPa)
#
#
# Indices 1 2 3 4 5 6 
#
# 1 0.009214 -0.001907 -0.005334 0.000000 0.000000 0.000000
# 2 -0.001907 0.010144 -0.004509 0.000000 0.000000 0.000000
# 3 -0.005334 -0.004509 0.020192 0.000000 0.000000 0.000000
# 4 0.000000 0.000000 0.000000 -0.069728 0.000000 0.000000
# 5 0.000000 0.000000 0.000000 0.000000 0.015460 0.000000
# 6 0.000000 0.000000 0.000000 0.000000 0.000000 0.042488
#
#
# Mechanical properties :
#
#
# Convention : Reuss Voigt Hill
#
# Bulk Modulus (GPa) = 62.30181 70.06745 66.18463
# Shear Modulus (GPa) = 88.30719 28.41404 58.36062
#
# Velocity S-wave (km/s) = 6.74194 3.82431 5.48084
# Velocity P-wave (km/s) = 9.62669 7.45425 8.60927
#
# Compressibility (1/GPa) = 0.01605090
#
# Stress axis : x y z
#
# Youngs Moduli (GPa) = 108.52797 98.57770 49.52421
#
# Poissons Ratio (x) = 0.18801 0.26416
# Poissons Ratio (y) = 0.20698 0.22329
# Poissons Ratio (z) = 0.57889 0.44445
#
# Static dielectric constant tensor:
#      x y z
#    x 3.742560 0.000000 0.000000 
#    y 0.000000 3.768370 0.000000 
#    z 0.000000 0.000000 3.386640 
# 
# 
# High freq. dielectric constant tensor:
#      x y z
#    x 1.768220 0.000000 0.000000 
#    y 0.000000 1.775230 0.000000 
#    z 0.000000 0.000000 1.742210 
# 
# From -- ./inp_files/22635.got.cif
#   From: 2010.03.12/outbox.cif.g09.slc.cpg/sg57_12_cif.got.tgz:22635.got - 2010.04.16 15:48:40.
