data_PCOD8234473
_publ_section_title
;
Structure prediction by ZEFSAII (Michael W. Deem and Ramdas Pophale) SiO2 
 PCOD8234473
Probable space group: P B C M
;
_chemical_formula_sum "Si O2"
_cell_formula_units_Z 56
_cell_length_a 14.179201
_cell_length_b 10.926298
_cell_length_c 17.190586
_cell_angle_alpha 90.000000
_cell_angle_beta 90.000000
_cell_angle_gamma 90.000000
_cell_volume 2663.271744
_symmetry_space_group_name_H-M "P B C M"
_symmetry_group_IT_number 57
_symmetry_cell_setting 'orthorhombic'
loop_
_space_group_symop_operation_xyz
x,y,z
-x,-y,1/2+z
x,1/2-y,-z
-x,1/2+y,1/2-z
-x,-y,-z
x,y,1/2-z
-x,1/2+y,z
x,1/2-y,1/2+z
loop_
_atom_site_type_symbol
_atom_site_label
_atom_site_fract_x
_atom_site_fract_y
_atom_site_fract_z
Si Si1 0.288849 0.601226 0.897504
Si Si2 0.960708 0.623073 0.341158
Si Si3 0.917239 0.147674 0.657059
Si Si4 0.413937 0.930037 0.540182
Si Si5 0.249053 0.346045 0.658507
Si Si6 0.636555 0.609945 0.836851
Si Si7 0.552441 0.243438 0.833649
O O1 0.179824 0.640596 0.891355
O O2 0.302335 0.457418 0.882578
O O3 0.345592 0.679414 0.834036
O O4 0.338924 0.628052 0.980359
O O5 0.965937 0.639866 0.250000
O O6 0.978111 0.478001 0.362193
O O7 0.857928 0.661598 0.371947
O O8 0.032936 0.726942 0.373892
O O9 0.897044 0.149348 0.750000
O O10 0.464730 0.827835 0.592114
O O11 0.500000 0.000000 0.500000
O O12 0.347666 0.005995 0.599464
O O13 0.251740 0.370781 0.750000
O O14 0.302085 0.223921 0.634518
O O15 0.669042 0.568589 0.750000
O O16 0.526126 0.639018 0.837322
O O17 0.543527 0.313917 0.750000
#
# Coordination Sequence:
#
# PCOD8234473 Si02
#       7
#     8   8   8   8   8   8   8
#     4  11  21  35  60  87 122 157 198 244 301 368
#     4   8  15  30  55  84 120 152 198 253 302 358
#     4   9  17  33  57  91 122 160 205 255 311 369
#     4  12  24  39  57  84 122 160 201 242 306 365
#     4   9  18  35  58  86 116 156 202 246 293 354
#     4  10  22  38  59  84 115 154 202 250 293 348
#     4  11  23  39  59  85 118 156 202 253 298 354
#
# _framework density 21.026769999999999
#
# number of rings (size 3 to 8) (size 9 to 14) (size 15 to 20)
#    0.000    2.000    1.429    3.857    0.000    1.714 
#    2.571    0.000    0.000    0.857    3.714    0.000 
#    0.000    0.000    0.000    0.571    0.000    0.000 
#
# Total GULP energy -693872.127190 kJ/mol
# GULP energy per Si atom -12390.573700 kJ/mol
# Density = 2.097891 g / cm^3
# Si number density = 21.026770 Si / 1000 Ang^3
#
#
#
# Elastic Constant Matrix: (Units=GPa)
#
#
# Indices 1 2 3 4 5 6 
#
# 1 83.8757 35.6416 24.0887 0.0000 0.0000 0.0000
# 2 35.6416 69.4848 21.7331 0.0000 0.0000 0.0000
# 3 24.0887 21.7331 91.2370 0.0000 0.0000 0.0000
# 4 0.0000 0.0000 0.0000 33.3461 0.0000 0.0000
# 5 0.0000 0.0000 0.0000 0.0000 21.6822 0.0000
# 6 0.0000 0.0000 0.0000 0.0000 0.0000 40.9614
#
#
#
# Elastic Compliance Matrix: (Units=1/GPa)
#
#
# Indices 1 2 3 4 5 6 
#
# 1 0.015721 -0.007310 -0.002409 0.000000 0.000000 0.000000
# 2 -0.007310 0.018949 -0.002584 0.000000 0.000000 0.000000
# 3 -0.002409 -0.002584 0.012212 0.000000 0.000000 0.000000
# 4 0.000000 0.000000 0.000000 0.029989 0.000000 0.000000
# 5 0.000000 0.000000 0.000000 0.000000 0.046121 0.000000
# 6 0.000000 0.000000 0.000000 0.000000 0.000000 0.024413
#
#
# Mechanical properties :
#
#
# Convention : Reuss Voigt Hill
#
# Bulk Modulus (GPa) = 44.89212 45.28046 45.08629
# Shear Modulus (GPa) = 27.86501 30.07357 28.96929
#
# Velocity S-wave (km/s) = 3.64430 3.78597 3.71581
# Velocity P-wave (km/s) = 6.25334 6.37909 6.31653
#
# Compressibility (1/GPa) = 0.02227562
#
# Stress axis : x y z
#
# Youngs Moduli (GPa) = 63.61037 52.77189 81.88637
#
# Poissons Ratio (x) = 0.38577 0.19729
# Poissons Ratio (y) = 0.46501 0.21158
# Poissons Ratio (z) = 0.15326 0.13635
#
# Static dielectric constant tensor:
#      x y z
#    x 3.732420 0.000000 0.000000 
#    y 0.000000 3.992300 0.000000 
#    z 0.000000 0.000000 3.737420 
# 
# 
# High freq. dielectric constant tensor:
#      x y z
#    x 1.808510 0.000000 0.000000 
#    y 0.000000 1.830170 0.000000 
#    z 0.000000 0.000000 1.804280 
# 
# From -- ./inp_files/18554.got.cif
#   From: 2010.03.12/outbox.cif.g09.slc.cpg/sg57_10_cif.got.tgz:18554.got - 2010.04.16 15:48:40.
