data_PCOD8234884
_publ_section_title
;
Structure prediction by ZEFSAII (Michael W. Deem and Ramdas Pophale) SiO2 
 PCOD8234884
Probable space group: P B C M
;
_chemical_formula_sum "Si O2"
_cell_formula_units_Z 64
_cell_length_a 19.782667
_cell_length_b 9.449597
_cell_length_c 17.254263
_cell_angle_alpha 90.000000
_cell_angle_beta 90.000000
_cell_angle_gamma 90.000000
_cell_volume 3225.481398
_symmetry_space_group_name_H-M "P B C M"
_symmetry_group_IT_number 57
_symmetry_cell_setting 'orthorhombic'
loop_
_space_group_symop_operation_xyz
x,y,z
-x,-y,1/2+z
x,1/2-y,-z
-x,1/2+y,1/2-z
-x,-y,-z
x,y,1/2-z
-x,1/2+y,z
x,1/2-y,1/2+z
loop_
_atom_site_type_symbol
_atom_site_label
_atom_site_fract_x
_atom_site_fract_y
_atom_site_fract_z
Si Si1 0.339857 0.610799 0.551404
Si Si2 0.802923 0.143299 0.598181
Si Si3 0.476272 0.501697 0.588500
Si Si4 0.059392 0.671986 0.664130
Si Si5 0.822963 0.466199 0.562714
Si Si6 0.970854 0.458937 0.584063
Si Si7 0.425863 0.285915 0.159265
Si Si8 0.696875 0.632294 0.940429
O O1 0.334773 0.750000 0.500000
O O2 0.276172 0.601069 0.612195
O O3 0.408995 0.598398 0.599513
O O4 0.343087 0.484757 0.489236
O O5 0.860869 0.126755 0.663278
O O6 0.801244 0.308932 0.582866
O O7 0.827653 0.038031 0.530353
O O8 0.500000 0.500000 0.500000
O O9 0.532870 0.570530 0.643235
O O10 0.462973 0.342217 0.615714
O O11 0.043676 0.729346 0.750000
O O12 0.036482 0.789499 0.600115
O O13 0.016742 0.530365 0.649118
O O14 0.894843 0.518872 0.594501
O O15 0.765664 0.569947 0.596637
O O16 0.000000 0.500000 0.500000
O O17 0.421269 0.254705 0.250000
O O18 0.350012 0.304433 0.126980
O O19 0.720817 0.750000 0.000000
#
# Coordination Sequence:
#
# PCOD8234884 Si02
#       8
#     8   8   8   8   8   8   8   8
#     4  11  19  35  67  95 114 149 214 257 292 351
#     4   9  17  35  58  86 115 153 199 256 296 358
#     4  12  23  42  67  93 118 164 213 254 300 376
#     4  11  23  39  58  87 129 163 198 257 325 373
#     4   9  18  34  61  88 115 149 212 258 295 344
#     4  11  21  38  64  90 117 163 212 260 303 371
#     4  12  26  43  59  90 131 164 196 258 323 367
#     4  11  20  38  62  91 121 158 204 253 302 363
#
# _framework density 19.841999000000001
#
# number of rings (size 3 to 8) (size 9 to 14) (size 15 to 20)
#    0.000    1.250    6.250    2.250    0.000    1.000 
#    0.000    4.375    0.000    0.000    0.000    0.000 
#    0.000    0.000    0.000    0.000    0.000    0.000 
#
# Total GULP energy -793004.325304 kJ/mol
# GULP energy per Si atom -12390.692583 kJ/mol
# Density = 1.979684 g / cm^3
# Si number density = 19.841999 Si / 1000 Ang^3
#
#
#
# Elastic Constant Matrix: (Units=GPa)
#
#
# Indices 1 2 3 4 5 6 
#
# 1 125.6331 40.4625 33.3676 0.0000 0.0000 0.0000
# 2 40.4625 76.6445 22.5425 0.0000 0.0000 0.0000
# 3 33.3676 22.5425 87.7068 0.0000 0.0000 0.0000
# 4 0.0000 0.0000 0.0000 22.3170 0.0000 0.0000
# 5 0.0000 0.0000 0.0000 0.0000 37.0015 0.0000
# 6 0.0000 0.0000 0.0000 0.0000 0.0000 41.5920
#
#
#
# Elastic Compliance Matrix: (Units=1/GPa)
#
#
# Indices 1 2 3 4 5 6 
#
# 1 0.010143 -0.004565 -0.002686 0.000000 0.000000 0.000000
# 2 -0.004565 0.016169 -0.002419 0.000000 0.000000 0.000000
# 3 -0.002686 -0.002419 0.013045 0.000000 0.000000 0.000000
# 4 0.000000 0.000000 0.000000 0.044809 0.000000 0.000000
# 5 0.000000 0.000000 0.000000 0.000000 0.027026 0.000000
# 6 0.000000 0.000000 0.000000 0.000000 0.000000 0.024043
#
#
# Mechanical properties :
#
#
# Convention : Reuss Voigt Hill
#
# Bulk Modulus (GPa) = 49.95546 53.63661 51.79604
# Shear Modulus (GPa) = 31.00839 33.08954 32.04897
#
# Velocity S-wave (km/s) = 3.95747 4.08812 4.02333
# Velocity P-wave (km/s) = 6.79068 7.02668 6.90969
#
# Compressibility (1/GPa) = 0.02001783
#
# Stress axis : x y z
#
# Youngs Moduli (GPa) = 98.58813 61.84806 76.65720
#
# Poissons Ratio (x) = 0.28233 0.20587
# Poissons Ratio (y) = 0.45005 0.18543
# Poissons Ratio (z) = 0.26477 0.14961
#
# Static dielectric constant tensor:
#      x y z
#    x 4.210010 0.000000 0.000000 
#    y 0.000000 3.368110 0.000000 
#    z 0.000000 0.000000 3.223310 
# 
# 
# High freq. dielectric constant tensor:
#      x y z
#    x 1.795410 0.000000 0.000000 
#    y 0.000000 1.772750 0.000000 
#    z 0.000000 0.000000 1.729210 
# 
# From -- ./inp_files/23062.got.cif
#   From: 2010.03.12/outbox.cif.g09.slc.cpg/sg57_12_cif.got.tgz:23062.got - 2010.04.16 15:48:40.
