data_PCOD8234283
_publ_section_title
;
Structure prediction by ZEFSAII (Michael W. Deem and Ramdas Pophale) SiO2 
 PCOD8234283
Probable space group: P B C M
;
_chemical_formula_sum "Si O2"
_cell_formula_units_Z 48
_cell_length_a 5.200211
_cell_length_b 18.272551
_cell_length_c 23.784678
_cell_angle_alpha 90.000000
_cell_angle_beta 90.000000
_cell_angle_gamma 90.000000
_cell_volume 2260.046759
_symmetry_space_group_name_H-M "P B C M"
_symmetry_group_IT_number 57
_symmetry_cell_setting 'orthorhombic'
loop_
_space_group_symop_operation_xyz
x,y,z
-x,-y,1/2+z
x,1/2-y,-z
-x,1/2+y,1/2-z
-x,-y,-z
x,y,1/2-z
-x,1/2+y,z
x,1/2-y,1/2+z
loop_
_atom_site_type_symbol
_atom_site_label
_atom_site_fract_x
_atom_site_fract_y
_atom_site_fract_z
Si Si1 0.639396 0.190441 0.596360
Si Si2 0.843257 0.770100 0.563975
Si Si3 0.702135 0.447840 0.027594
Si Si4 0.768135 0.012751 0.313950
Si Si5 0.722620 0.421337 0.312733
Si Si6 0.982925 0.572028 0.081574
O O1 0.371604 0.232684 0.603012
O O2 0.581190 0.124955 0.552802
O O3 0.717156 0.155328 0.655232
O O4 0.868249 0.243377 0.576610
O O5 0.772145 0.750000 0.500000
O O6 0.808743 0.855373 0.580911
O O7 0.835882 0.493435 0.078714
O O8 0.500000 0.500000 0.000000
O O9 0.884436 0.420409 0.978628
O O10 0.751919 0.046472 0.250000
O O11 0.495051 0.979292 0.333470
O O12 0.990657 0.952484 0.315396
O O13 0.838515 0.072679 0.362290
O O14 0.643460 0.400720 0.250000
#
# Coordination Sequence:
#
# PCOD8234283 Si02
#       6
#     8   8   8   8   8   8
#     4  12  24  42  63  92 127 171 212 256 319 389
#     4  12  26  42  60  92 137 173 204 255 337 385
#     4  11  23  38  66  91 122 162 222 263 305 377
#     4  10  21  39  65  94 124 160 211 271 323 365
#     4  10  21  40  66  94 123 162 217 270 313 369
#     4  11  24  40  61  97 125 168 211 270 314 382
#
# _framework density 21.238498
#
# number of rings (size 3 to 8) (size 9 to 14) (size 15 to 20)
#    0.000    1.000    3.333    3.500    4.667    0.000 
#    0.000    1.667    0.000    0.000    0.000    0.000 
#    0.000    0.000    0.000    0.000    0.000    0.000 
#
# Total GULP energy -594982.265950 kJ/mol
# GULP energy per Si atom -12395.463874 kJ/mol
# Density = 2.119016 g / cm^3
# Si number density = 21.238498 Si / 1000 Ang^3
#
#
#
# Elastic Constant Matrix: (Units=GPa)
#
#
# Indices 1 2 3 4 5 6 
#
# 1 81.4251 15.2107 -4.8861 0.0000 0.0000 0.0000
# 2 15.2107 99.9987 21.2465 0.0000 0.0000 0.0000
# 3 -4.8861 21.2465 74.4680 0.0000 0.0000 0.0000
# 4 0.0000 0.0000 0.0000 26.9751 0.0000 0.0000
# 5 0.0000 0.0000 0.0000 0.0000 25.3409 0.0000
# 6 0.0000 0.0000 0.0000 0.0000 0.0000 31.3461
#
#
#
# Elastic Compliance Matrix: (Units=1/GPa)
#
#
# Indices 1 2 3 4 5 6 
#
# 1 0.012793 -0.002261 0.001485 0.000000 0.000000 0.000000
# 2 -0.002261 0.011045 -0.003300 0.000000 0.000000 0.000000
# 3 0.001485 -0.003300 0.014467 0.000000 0.000000 0.000000
# 4 0.000000 0.000000 0.000000 0.037071 0.000000 0.000000
# 5 0.000000 0.000000 0.000000 0.000000 0.039462 0.000000
# 6 0.000000 0.000000 0.000000 0.000000 0.000000 0.031902
#
#
# Mechanical properties :
#
#
# Convention : Reuss Voigt Hill
#
# Bulk Modulus (GPa) = 33.16481 35.44825 34.30653
# Shear Modulus (GPa) = 30.31328 31.68710 31.00019
#
# Velocity S-wave (km/s) = 3.78203 3.86679 3.82465
# Velocity P-wave (km/s) = 5.89246 6.05499 5.97427
#
# Compressibility (1/GPa) = 0.03015245
#
# Stress axis : x y z
#
# Youngs Moduli (GPa) = 78.16934 90.53733 69.12078
#
# Poissons Ratio (x) = 0.20473 -0.10261
# Poissons Ratio (y) = 0.17677 0.22808
# Poissons Ratio (z) = -0.11605 0.29874
#
# Static dielectric constant tensor:
#      x y z
#    x 3.737020 0.000000 0.000000 
#    y 0.000000 3.748490 0.000000 
#    z 0.000000 0.000000 4.217080 
# 
# 
# High freq. dielectric constant tensor:
#      x y z
#    x 1.840120 0.000000 0.000000 
#    y 0.000000 1.814960 0.000000 
#    z 0.000000 0.000000 1.841760 
# 
# From -- ./inp_files/26231.got.cif
#   From: 2010.03.12/outbox.cif.g09.slc.cpg/sg57_14_cif.got.tgz:26231.got - 2010.04.16 15:48:40.
