data_PCOD8234334
_publ_section_title
;
Structure prediction by ZEFSAII (Michael W. Deem and Ramdas Pophale) SiO2 
 PCOD8234334
Probable space group: P B C M
;
_chemical_formula_sum "Si O2"
_cell_formula_units_Z 40
_cell_length_a 12.123472
_cell_length_b 10.273701
_cell_length_c 16.359956
_cell_angle_alpha 90.000000
_cell_angle_beta 90.000000
_cell_angle_gamma 90.000000
_cell_volume 2037.680396
_symmetry_space_group_name_H-M "P B C M"
_symmetry_group_IT_number 57
_symmetry_cell_setting 'orthorhombic'
loop_
_space_group_symop_operation_xyz
x,y,z
-x,-y,1/2+z
x,1/2-y,-z
-x,1/2+y,1/2-z
-x,-y,-z
x,y,1/2-z
-x,1/2+y,z
x,1/2-y,1/2+z
loop_
_atom_site_type_symbol
_atom_site_label
_atom_site_fract_x
_atom_site_fract_y
_atom_site_fract_z
Si Si1 0.787278 0.488915 0.344003
Si Si2 0.547696 0.976737 0.589559
Si Si3 0.024609 0.874883 0.053823
Si Si4 0.582159 0.793612 0.343434
Si Si5 0.174040 0.216988 0.842011
O O1 0.760883 0.447355 0.250000
O O2 0.676943 0.492511 0.399135
O O3 0.872233 0.389168 0.384936
O O4 0.846061 0.628737 0.345044
O O5 0.522499 0.825968 0.610220
O O6 0.500000 0.000000 0.500000
O O7 0.484787 0.073434 0.650583
O O8 0.913448 0.856512 0.103880
O O9 0.052793 0.750000 0.000000
O O10 0.000000 0.000000 0.000000
O O11 0.594229 0.748135 0.250000
O O12 0.705037 0.815956 0.378643
O O13 0.162776 0.163744 0.750000
#
# Coordination Sequence:
#
# PCOD8234334 Si02
#       5
#     8   8   8   8   8
#     4  10  22  43  64  87 127 171 208 251 312 376
#     4  11  23  38  64  93 124 160 206 260 314 360
#     4  12  24  39  63  93 126 157 207 259 313 363
#     4  10  21  40  64  88 121 165 210 251 309 379
#     4   9  20  40  64  86 119 168 208 246 309 377
#
# _framework density 19.630164000000001
#
# number of rings (size 3 to 8) (size 9 to 14) (size 15 to 20)
#    0.000    1.600    2.000    4.200    2.800    1.600 
#    0.000    0.000    0.000    0.000    0.000    0.000 
#    0.000    0.000    0.000    0.000    0.000    0.000 
#
# Total GULP energy -496036.748843 kJ/mol
# GULP energy per Si atom -12400.918721 kJ/mol
# Density = 1.958548 g / cm^3
# Si number density = 19.630164 Si / 1000 Ang^3
#
#
#
# Elastic Constant Matrix: (Units=GPa)
#
#
# Indices 1 2 3 4 5 6 
#
# 1 119.2778 61.0180 59.8626 0.0000 0.0000 0.0000
# 2 61.0180 103.2637 45.8163 0.0000 0.0000 0.0000
# 3 59.8626 45.8163 114.7498 0.0000 0.0000 0.0000
# 4 0.0000 0.0000 0.0000 36.1642 0.0000 0.0000
# 5 0.0000 0.0000 0.0000 0.0000 42.1635 0.0000
# 6 0.0000 0.0000 0.0000 0.0000 0.0000 36.7204
#
#
#
# Elastic Compliance Matrix: (Units=1/GPa)
#
#
# Indices 1 2 3 4 5 6 
#
# 1 0.013921 -0.006081 -0.004834 0.000000 0.000000 0.000000
# 2 -0.006081 0.014425 -0.002587 0.000000 0.000000 0.000000
# 3 -0.004834 -0.002587 0.012270 0.000000 0.000000 0.000000
# 4 0.000000 0.000000 0.000000 0.027652 0.000000 0.000000
# 5 0.000000 0.000000 0.000000 0.000000 0.023717 0.000000
# 6 0.000000 0.000000 0.000000 0.000000 0.000000 0.027233
#
#
# Mechanical properties :
#
#
# Convention : Reuss Voigt Hill
#
# Bulk Modulus (GPa) = 73.47201 74.52056 73.99629
# Shear Modulus (GPa) = 33.16566 34.38257 33.77412
#
# Velocity S-wave (km/s) = 4.11484 4.18965 4.15242
# Velocity P-wave (km/s) = 7.75147 7.83894 7.79533
#
# Compressibility (1/GPa) = 0.01361063
#
# Stress axis : x y z
#
# Youngs Moduli (GPa) = 71.83560 69.32424 81.50247
#
# Poissons Ratio (x) = 0.42155 0.39400
# Poissons Ratio (y) = 0.43682 0.21087
# Poissons Ratio (z) = 0.34727 0.17936
#
# Static dielectric constant tensor:
#      x y z
#    x 3.595790 0.000000 0.000000 
#    y 0.000000 3.547740 0.000000 
#    z 0.000000 0.000000 3.663340 
# 
# 
# High freq. dielectric constant tensor:
#      x y z
#    x 1.768000 0.000000 0.000000 
#    y 0.000000 1.758520 0.000000 
#    z 0.000000 0.000000 1.775800 
# 
# From -- ./inp_files/17427.got.cif
#   From: 2010.03.12/outbox.cif.g09.slc.cpg/sg57_9_cif.got.tgz:17427.got - 2010.04.16 15:48:40.
