data_PCOD8234812
_publ_section_title
;
Structure prediction by ZEFSAII (Michael W. Deem and Ramdas Pophale) SiO2 
 PCOD8234812
Probable space group: P B C M
;
_chemical_formula_sum "Si O2"
_cell_formula_units_Z 28
_cell_length_a 16.315806
_cell_length_b 9.135136
_cell_length_c 8.895398
_cell_angle_alpha 90.000000
_cell_angle_beta 90.000000
_cell_angle_gamma 90.000000
_cell_volume 1325.833335
_symmetry_space_group_name_H-M "P B C M"
_symmetry_group_IT_number 57
_symmetry_cell_setting 'orthorhombic'
loop_
_space_group_symop_operation_xyz
x,y,z
-x,-y,1/2+z
x,1/2-y,-z
-x,1/2+y,1/2-z
-x,-y,-z
x,y,1/2-z
-x,1/2+y,z
x,1/2-y,1/2+z
loop_
_atom_site_type_symbol
_atom_site_label
_atom_site_fract_x
_atom_site_fract_y
_atom_site_fract_z
Si Si1 0.999179 0.250000 0.500000
Si Si2 0.885902 0.000196 0.091804
Si Si3 0.737690 0.907062 0.572966
Si Si4 0.426315 0.410396 0.069298
O O1 0.940880 0.354495 0.597252
O O2 0.056609 0.143179 0.595971
O O3 0.837118 0.996124 0.250000
O O4 0.819419 0.003065 0.957002
O O5 0.755037 0.750000 0.500000
O O6 0.721088 0.894485 0.750000
O O7 0.659109 0.980167 0.490451
O O8 0.429985 0.408365 0.250000
O O9 0.431947 0.250000 0.000000
O O10 0.500000 0.500000 0.000000
#
# Coordination Sequence:
#
# PCOD8234812 Si02
#       4
#     4   8   8   8
#     4  10  24  38  62  90 122 158 208 254 314 364
#     4  11  22  40  62  89 122 161 206 256 309 366
#     4  11  22  38  62  91 123 163 207 252 306 367
#     4  11  22  41  67  96 128 164 206 253 308 369
#
# _framework density 21.118791999999999
#
# number of rings (size 3 to 8) (size 9 to 14) (size 15 to 20)
#    0.000    1.143    1.429    7.714    0.000    5.714 
#    2.571    0.000    0.000    0.000    0.000    0.000 
#    0.000    0.000    0.000    0.000    0.000    0.000 
#
# Total GULP energy -346971.608145 kJ/mol
# GULP energy per Si atom -12391.843148 kJ/mol
# Density = 2.107072 g / cm^3
# Si number density = 21.118792 Si / 1000 Ang^3
#
#
#
# Elastic Constant Matrix: (Units=GPa)
#
#
# Indices 1 2 3 4 5 6 
#
# 1 163.3050 51.1496 63.0464 0.0000 0.0000 0.0000
# 2 51.1496 88.2145 32.3232 0.0000 0.0000 0.0000
# 3 63.0464 32.3232 198.4187 0.0000 0.0000 0.0000
# 4 0.0000 0.0000 0.0000 14.4968 0.0000 0.0000
# 5 0.0000 0.0000 0.0000 0.0000 32.0730 0.0000
# 6 0.0000 0.0000 0.0000 0.0000 0.0000 20.8550
#
#
#
# Elastic Compliance Matrix: (Units=1/GPa)
#
#
# Indices 1 2 3 4 5 6 
#
# 1 0.008122 -0.004003 -0.001929 0.000000 0.000000 0.000000
# 2 -0.004003 0.014028 -0.001013 0.000000 0.000000 0.000000
# 3 -0.001929 -0.001013 0.005818 0.000000 0.000000 0.000000
# 4 0.000000 0.000000 0.000000 0.068981 0.000000 0.000000
# 5 0.000000 0.000000 0.000000 0.000000 0.031179 0.000000
# 6 0.000000 0.000000 0.000000 0.000000 0.000000 0.047950
#
#
# Mechanical properties :
#
#
# Convention : Reuss Voigt Hill
#
# Bulk Modulus (GPa) = 71.03077 82.55295 76.79186
# Shear Modulus (GPa) = 25.68585 33.71288 29.69937
#
# Velocity S-wave (km/s) = 3.49127 3.99976 3.75414
# Velocity P-wave (km/s) = 7.06816 7.77853 7.43184
#
# Compressibility (1/GPa) = 0.01407841
#
# Stress axis : x y z
#
# Youngs Moduli (GPa) = 123.12625 71.28512 171.88785
#
# Poissons Ratio (x) = 0.28532 0.33150
# Poissons Ratio (y) = 0.49282 0.17420
# Poissons Ratio (z) = 0.23746 0.07224
#
# Static dielectric constant tensor:
#      x y z
#    x 4.426830 0.000000 0.000000 
#    y 0.000000 3.713640 0.000000 
#    z 0.000000 0.000000 3.957830 
# 
# 
# High freq. dielectric constant tensor:
#      x y z
#    x 1.842400 0.000000 0.000000 
#    y 0.000000 1.804420 0.000000 
#    z 0.000000 0.000000 1.840120 
# 
# From -- ./inp_files/6152.got.cif
#   From: 2010.03.12/outbox.cif.g09.slc.cpg/sg57_4_cif.got.tgz:6152.got - 2010.04.16 15:48:40.
