data_PCOD8234858
_publ_section_title
;
Structure prediction by ZEFSAII (Michael W. Deem and Ramdas Pophale) SiO2 
 PCOD8234858
Probable space group: P B C M
;
_chemical_formula_sum "Si O2"
_cell_formula_units_Z 40
_cell_length_a 12.203942
_cell_length_b 9.477738
_cell_length_c 15.071986
_cell_angle_alpha 90.000000
_cell_angle_beta 90.000000
_cell_angle_gamma 90.000000
_cell_volume 1743.312788
_symmetry_space_group_name_H-M "P B C M"
_symmetry_group_IT_number 57
_symmetry_cell_setting 'orthorhombic'
loop_
_space_group_symop_operation_xyz
x,y,z
-x,-y,1/2+z
x,1/2-y,-z
-x,1/2+y,1/2-z
-x,-y,-z
x,y,1/2-z
-x,1/2+y,z
x,1/2-y,1/2+z
loop_
_atom_site_type_symbol
_atom_site_label
_atom_site_fract_x
_atom_site_fract_y
_atom_site_fract_z
Si Si1 0.512092 0.875725 0.065744
Si Si2 0.920072 0.008224 0.583817
Si Si3 0.095695 0.194927 0.651088
Si Si4 0.279257 0.499852 0.353313
Si Si5 0.279506 0.680011 0.855736
O O1 0.608295 0.916563 0.133159
O O2 0.405066 0.858583 0.125866
O O3 0.543109 0.750000 0.000000
O O4 0.500000 0.000000 0.000000
O O5 0.798608 0.079610 0.582812
O O6 0.980817 0.111327 0.653650
O O7 0.911303 0.845673 0.606991
O O8 0.000000 0.000000 0.500000
O O9 0.136451 0.223749 0.750000
O O10 0.184206 0.094914 0.600780
O O11 0.255993 0.514754 0.250000
O O12 0.269410 0.658718 0.391191
O O13 0.256052 0.661336 0.750000
#
# Coordination Sequence:
#
# PCOD8234858 Si02
#       5
#     8   8   8   8   8
#     4  12  26  44  69 106 147 183 234 293 355 411
#     4  12  27  44  69 103 138 179 232 296 360 414
#     4  11  24  44  70  99 136 182 235 287 351 431
#     4  10  24  46  72 101 140 189 240 287 347 424
#     4  11  25  48  73  99 141 192 238 286 352 430
#
# _framework density 22.944821999999998
#
# number of rings (size 3 to 8) (size 9 to 14) (size 15 to 20)
#    0.000    0.800    2.000    4.200    5.600    3.200 
#    0.000    0.000    0.000    0.000    0.000    0.000 
#    0.000    0.000    0.000    0.000    0.000    0.000 
#
# Total GULP energy -495619.905373 kJ/mol
# GULP energy per Si atom -12390.497634 kJ/mol
# Density = 2.289260 g / cm^3
# Si number density = 22.944822 Si / 1000 Ang^3
#
#
#
# Elastic Constant Matrix: (Units=GPa)
#
#
# Indices 1 2 3 4 5 6 
#
# 1 118.4330 68.1370 4.8782 0.0000 0.0000 0.0000
# 2 68.1370 210.0225 28.9459 0.0000 0.0000 0.0000
# 3 4.8782 28.9459 49.6911 0.0000 0.0000 0.0000
# 4 0.0000 0.0000 0.0000 26.2051 0.0000 0.0000
# 5 0.0000 0.0000 0.0000 0.0000 43.6574 0.0000
# 6 0.0000 0.0000 0.0000 0.0000 0.0000 49.5498
#
#
#
# Elastic Compliance Matrix: (Units=1/GPa)
#
#
# Indices 1 2 3 4 5 6 
#
# 1 0.010429 -0.003526 0.001030 0.000000 0.000000 0.000000
# 2 -0.003526 0.006369 -0.003364 0.000000 0.000000 0.000000
# 3 0.001030 -0.003364 0.021983 0.000000 0.000000 0.000000
# 4 0.000000 0.000000 0.000000 0.038161 0.000000 0.000000
# 5 0.000000 0.000000 0.000000 0.000000 0.022906 0.000000
# 6 0.000000 0.000000 0.000000 0.000000 0.000000 0.020182
#
#
# Mechanical properties :
#
#
# Convention : Reuss Voigt Hill
#
# Bulk Modulus (GPa) = 36.95230 64.67432 50.81331
# Shear Modulus (GPa) = 35.51929 42.29483 38.90706
#
# Velocity S-wave (km/s) = 3.93877 4.29806 4.12233
# Velocity P-wave (km/s) = 6.06836 7.27180 6.69717
#
# Compressibility (1/GPa) = 0.02706191
#
# Stress axis : x y z
#
# Youngs Moduli (GPa) = 95.88192 157.01571 45.49029
#
# Poissons Ratio (x) = 0.55357 -0.04685
# Poissons Ratio (y) = 0.33804 0.15302
# Poissons Ratio (z) = -0.09874 0.52817
#
# Static dielectric constant tensor:
#      x y z
#    x 3.793160 0.000000 0.000000 
#    y 0.000000 4.588710 0.000000 
#    z 0.000000 0.000000 4.427190 
# 
# 
# High freq. dielectric constant tensor:
#      x y z
#    x 1.918470 0.000000 0.000000 
#    y 0.000000 1.928390 0.000000 
#    z 0.000000 0.000000 1.904920 
# 
# From -- ./inp_files/21618.got.cif
#   From: 2010.03.12/outbox.cif.g09.slc.cpg/sg57_11_cif.got.tgz:21618.got - 2010.04.16 15:48:40.
