data_PCOD8234472
_publ_section_title
;
Structure prediction by ZEFSAII (Michael W. Deem and Ramdas Pophale) SiO2 
 PCOD8234472
Probable space group: P B C M
;
_chemical_formula_sum "Si O2"
_cell_formula_units_Z 48
_cell_length_a 11.638061
_cell_length_b 11.202884
_cell_length_c 18.758168
_cell_angle_alpha 90.000000
_cell_angle_beta 90.000000
_cell_angle_gamma 90.000000
_cell_volume 2445.687081
_symmetry_space_group_name_H-M "P B C M"
_symmetry_group_IT_number 57
_symmetry_cell_setting 'orthorhombic'
loop_
_space_group_symop_operation_xyz
x,y,z
-x,-y,1/2+z
x,1/2-y,-z
-x,1/2+y,1/2-z
-x,-y,-z
x,y,1/2-z
-x,1/2+y,z
x,1/2-y,1/2+z
loop_
_atom_site_type_symbol
_atom_site_label
_atom_site_fract_x
_atom_site_fract_y
_atom_site_fract_z
Si Si1 0.726423 0.424314 0.440262
Si Si2 0.748672 0.734708 0.831450
Si Si3 0.682714 0.165365 0.412101
Si Si4 0.101532 0.462555 0.832781
Si Si5 0.425264 0.157408 0.065025
Si Si6 0.156665 0.509300 0.332581
O O1 0.666548 0.308002 0.405619
O O2 0.758927 0.381689 0.520313
O O3 0.833332 0.452550 0.388897
O O4 0.641272 0.534959 0.449738
O O5 0.713569 0.714813 0.750000
O O6 0.850816 0.829426 0.839692
O O7 0.632260 0.776624 0.868541
O O8 0.795317 0.612915 0.867800
O O9 0.553618 0.115043 0.415975
O O10 0.753198 0.116313 0.344853
O O11 0.115086 0.507247 0.750000
O O12 0.970549 0.459307 0.860125
O O13 0.422902 0.250000 0.000000
O O14 0.145475 0.484955 0.250000
#
# Coordination Sequence:
#
# PCOD8234472 Si02
#       6
#     8   8   8   8   8   8
#     4  10  22  38  58  90 117 153 194 242 289 343
#     4   9  20  38  58  85 114 148 196 241 287 345
#     4  11  23  36  58  87 121 150 193 240 286 346
#     4   9  20  39  62  85 114 153 193 239 293 344
#     4  11  21  38  64  82 116 158 194 235 291 346
#     4  10  22  38  61  87 116 154 195 238 289 347
#
# _framework density 19.626386
#
# number of rings (size 3 to 8) (size 9 to 14) (size 15 to 20)
#    0.000    2.000    1.667    1.500    4.667    2.000 
#    0.000    0.000    0.000    0.000    0.000    0.000 
#    0.000    0.000    0.000    0.000    0.000    0.000 
#
# Total GULP energy -594915.785967 kJ/mol
# GULP energy per Si atom -12394.078874 kJ/mol
# Density = 1.958172 g / cm^3
# Si number density = 19.626386 Si / 1000 Ang^3
#
#
#
# Elastic Constant Matrix: (Units=GPa)
#
#
# Indices 1 2 3 4 5 6 
#
# 1 128.6748 53.5022 55.4043 0.0000 0.0000 0.0000
# 2 53.5022 102.6010 27.7371 0.0000 0.0000 0.0000
# 3 55.4043 27.7371 44.8087 0.0000 0.0000 0.0000
# 4 0.0000 0.0000 0.0000 32.7684 0.0000 0.0000
# 5 0.0000 0.0000 0.0000 0.0000 27.5222 0.0000
# 6 0.0000 0.0000 0.0000 0.0000 0.0000 21.8828
#
#
#
# Elastic Compliance Matrix: (Units=1/GPa)
#
#
# Indices 1 2 3 4 5 6 
#
# 1 0.017905 -0.004025 -0.019647 0.000000 0.000000 0.000000
# 2 -0.004025 0.012610 -0.002829 0.000000 0.000000 0.000000
# 3 -0.019647 -0.002829 0.048361 0.000000 0.000000 0.000000
# 4 0.000000 0.000000 0.000000 0.030517 0.000000 0.000000
# 5 0.000000 0.000000 0.000000 0.000000 0.036334 0.000000
# 6 0.000000 0.000000 0.000000 0.000000 0.000000 0.045698
#
#
# Mechanical properties :
#
#
# Convention : Reuss Voigt Hill
#
# Bulk Modulus (GPa) = 38.64898 61.04131 49.84514
# Shear Modulus (GPa) = 19.75884 25.73074 22.74479
#
# Velocity S-wave (km/s) = 3.17637 3.62474 3.40794
# Velocity P-wave (km/s) = 5.76086 6.97764 6.39824
#
# Compressibility (1/GPa) = 0.02587391
#
# Stress axis : x y z
#
# Youngs Moduli (GPa) = 55.85149 79.30068 20.67795
#
# Poissons Ratio (x) = 0.31920 0.40625
# Poissons Ratio (y) = 0.22482 0.05849
# Poissons Ratio (z) = 1.09730 0.22433
#
# Static dielectric constant tensor:
#      x y z
#    x 3.600240 0.000000 0.000000 
#    y 0.000000 3.744700 0.000000 
#    z 0.000000 0.000000 3.547510 
# 
# 
# High freq. dielectric constant tensor:
#      x y z
#    x 1.760050 0.000000 0.000000 
#    y 0.000000 1.778920 0.000000 
#    z 0.000000 0.000000 1.753440 
# 
# From -- ./inp_files/21798.got.cif
#   From: 2010.03.12/outbox.cif.g09.slc.cpg/sg57_11_cif.got.tgz:21798.got - 2010.04.16 15:48:40.
