data_PCOD8234915
_publ_section_title
;
Structure prediction by ZEFSAII (Michael W. Deem and Ramdas Pophale) SiO2 
 PCOD8234915
Probable space group: P B C M
;
_chemical_formula_sum "Si O2"
_cell_formula_units_Z 64
_cell_length_a 23.286574
_cell_length_b 17.399377
_cell_length_c 9.083400
_cell_angle_alpha 90.000000
_cell_angle_beta 90.000000
_cell_angle_gamma 90.000000
_cell_volume 3680.338255
_symmetry_space_group_name_H-M "P B C M"
_symmetry_group_IT_number 57
_symmetry_cell_setting 'orthorhombic'
loop_
_space_group_symop_operation_xyz
x,y,z
-x,-y,1/2+z
x,1/2-y,-z
-x,1/2+y,1/2-z
-x,-y,-z
x,y,1/2-z
-x,1/2+y,z
x,1/2-y,1/2+z
loop_
_atom_site_type_symbol
_atom_site_label
_atom_site_fract_x
_atom_site_fract_y
_atom_site_fract_z
Si Si1 0.567093 0.407755 0.576393
Si Si2 0.628275 0.939999 0.424501
Si Si3 0.678577 0.326258 0.923761
Si Si4 0.451404 0.169332 0.074875
Si Si5 0.869175 0.016589 0.075201
Si Si6 0.963109 0.564202 0.077793
Si Si7 0.063086 0.669917 0.420296
Si Si8 0.740330 0.476471 0.576070
O O1 0.569157 0.412136 0.750000
O O2 0.587305 0.490818 0.518042
O O3 0.613089 0.343468 0.525889
O O4 0.503750 0.385527 0.521530
O O5 0.622469 0.926364 0.250000
O O6 0.608107 0.864860 0.512839
O O7 0.694535 0.957424 0.469110
O O8 0.683566 0.316709 0.750000
O O9 0.718751 0.394622 0.983581
O O10 0.701381 0.250000 0.000000
O O11 0.448531 0.178369 0.250000
O O12 0.462737 0.250000 0.000000
O O13 0.874756 0.007016 0.250000
O O14 0.895383 0.099721 0.026956
O O15 0.804104 0.008323 0.016159
O O16 0.900797 0.943580 0.998252
O O17 0.958095 0.546382 0.250000
O O18 0.996178 0.645354 0.052082
O O19 0.000000 0.500000 0.000000
O O20 0.077230 0.750000 0.500000
O O21 0.074539 0.685342 0.250000
O O22 0.741936 0.471477 0.750000
#
# Coordination Sequence:
#
# PCOD8234915 Si02
#       8
#     8   8   8   8   8   8   8   8
#     4   8  16  30  48  68  92 122 156 191 235 288
#     4   9  17  33  53  70  90 122 159 195 235 283
#     4   9  16  28  44  64  92 126 158 190 227 276
#     4  11  21  32  47  70  96 121 151 194 244 293
#     4   9  17  31  49  70  93 123 160 194 226 270
#     4   9  17  30  47  69  94 123 156 191 226 264
#     4   9  18  29  44  68  99 126 150 180 220 266
#     4   8  16  31  50  67  90 125 160 189 228 278
#
# _framework density 17.389704999999999
#
# number of rings (size 3 to 8) (size 9 to 14) (size 15 to 20)
#    0.000    3.000    0.000    3.750    0.000    3.000 
#    0.000    5.000    0.000    0.750    0.000    1.750 
#    0.000    0.000    0.000    0.000    0.000    0.000 
#
# Total GULP energy -793013.746708 kJ/mol
# GULP energy per Si atom -12390.839792 kJ/mol
# Density = 1.735013 g / cm^3
# Si number density = 17.389705 Si / 1000 Ang^3
#
#
#
# Elastic Constant Matrix: (Units=GPa)
#
#
# Indices 1 2 3 4 5 6 
#
# 1 129.5613 33.9218 31.5066 0.0000 0.0000 0.0000
# 2 33.9218 43.1742 22.1633 0.0000 0.0000 0.0000
# 3 31.5066 22.1633 47.6720 0.0000 0.0000 0.0000
# 4 0.0000 0.0000 0.0000 28.1968 0.0000 0.0000
# 5 0.0000 0.0000 0.0000 0.0000 20.2929 0.0000
# 6 0.0000 0.0000 0.0000 0.0000 0.0000 18.0070
#
#
#
# Elastic Compliance Matrix: (Units=1/GPa)
#
#
# Indices 1 2 3 4 5 6 
#
# 1 0.010263 -0.006018 -0.003985 0.000000 0.000000 0.000000
# 2 -0.006018 0.033951 -0.011807 0.000000 0.000000 0.000000
# 3 -0.003985 -0.011807 0.029100 0.000000 0.000000 0.000000
# 4 0.000000 0.000000 0.000000 0.035465 0.000000 0.000000
# 5 0.000000 0.000000 0.000000 0.000000 0.049278 0.000000
# 6 0.000000 0.000000 0.000000 0.000000 0.000000 0.055534
#
#
# Mechanical properties :
#
#
# Convention : Reuss Voigt Hill
#
# Bulk Modulus (GPa) = 33.67702 43.95457 38.81579
# Shear Modulus (GPa) = 18.71890 22.15372 20.43631
#
# Velocity S-wave (km/s) = 3.28447 3.57312 3.43183
# Velocity P-wave (km/s) = 5.81307 6.50800 6.17032
#
# Compressibility (1/GPa) = 0.02969384
#
# Stress axis : x y z
#
# Youngs Moduli (GPa) = 97.43679 29.45384 34.36458
#
# Poissons Ratio (x) = 0.17725 0.13695
# Poissons Ratio (y) = 0.58637 0.40575
# Poissons Ratio (z) = 0.38829 0.34777
#
# Static dielectric constant tensor:
#      x y z
#    x 3.657580 0.000000 0.000000 
#    y 0.000000 3.163030 0.000000 
#    z 0.000000 0.000000 3.033520 
# 
# 
# High freq. dielectric constant tensor:
#      x y z
#    x 1.669970 0.000000 0.000000 
#    y 0.000000 1.652550 0.000000 
#    z 0.000000 0.000000 1.649440 
# 
# From -- ./inp_files/9547.got.cif
#   From: 2010.03.12/outbox.cif.g09.slc.cpg/sg57_5_cif.got.tgz:9547.got - 2010.04.16 15:48:40.
