data_PCOD8234327
_publ_section_title
;
Structure prediction by ZEFSAII (Michael W. Deem and Ramdas Pophale) SiO2 
 PCOD8234327
Probable space group: P B C M
;
_chemical_formula_sum "Si O2"
_cell_formula_units_Z 32
_cell_length_a 7.144228
_cell_length_b 14.312413
_cell_length_c 15.279723
_cell_angle_alpha 90.000000
_cell_angle_beta 90.000000
_cell_angle_gamma 90.000000
_cell_volume 1562.369122
_symmetry_space_group_name_H-M "P B C M"
_symmetry_group_IT_number 57
_symmetry_cell_setting 'orthorhombic'
loop_
_space_group_symop_operation_xyz
x,y,z
-x,-y,1/2+z
x,1/2-y,-z
-x,1/2+y,1/2-z
-x,-y,-z
x,y,1/2-z
-x,1/2+y,z
x,1/2-y,1/2+z
loop_
_atom_site_type_symbol
_atom_site_label
_atom_site_fract_x
_atom_site_fract_y
_atom_site_fract_z
Si Si1 0.524331 0.392112 0.512983
Si Si2 0.892605 0.452316 0.921355
Si Si3 0.310878 0.368770 0.152196
Si Si4 0.781387 0.667494 0.347589
O O1 0.500000 0.500000 0.500000
O O2 0.738480 0.377648 0.543052
O O3 0.477551 0.347745 0.417991
O O4 0.382078 0.357041 0.585726
O O5 0.801159 0.535808 0.865239
O O6 0.032117 0.391578 0.863459
O O7 0.000000 0.500000 0.000000
O O8 0.397906 0.375132 0.250000
O O9 0.173572 0.278614 0.145212
O O10 0.709693 0.643324 0.250000
#
# Coordination Sequence:
#
# PCOD8234327 Si02
#       4
#     8   8   8   8
#     4  10  21  40  63  89 122 165 210 258 317 369
#     4  11  22  42  66  94 124 171 212 258 320 373
#     4  10  22  42  64  94 133 169 210 262 313 375
#     4  11  23  42  66  94 132 170 211 265 317 373
#
# _framework density 20.481714
#
# number of rings (size 3 to 8) (size 9 to 14) (size 15 to 20)
#    0.000    1.500    5.000    1.500    0.000    5.000 
#    9.000    0.000    0.000    0.000    0.000    0.000 
#    0.000    0.000    0.000    0.000    0.000    0.000 
#
# Total GULP energy -396501.500454 kJ/mol
# GULP energy per Si atom -12390.671889 kJ/mol
# Density = 2.043510 g / cm^3
# Si number density = 20.481714 Si / 1000 Ang^3
#
#
#
# Elastic Constant Matrix: (Units=GPa)
#
#
# Indices 1 2 3 4 5 6 
#
# 1 120.3671 41.9557 70.9473 0.0000 0.0000 0.0000
# 2 41.9557 106.3284 50.2652 0.0000 0.0000 0.0000
# 3 70.9473 50.2652 191.2229 0.0000 0.0000 0.0000
# 4 0.0000 0.0000 0.0000 29.5448 0.0000 0.0000
# 5 0.0000 0.0000 0.0000 0.0000 14.5397 0.0000
# 6 0.0000 0.0000 0.0000 0.0000 0.0000 30.4574
#
#
#
# Elastic Compliance Matrix: (Units=1/GPa)
#
#
# Indices 1 2 3 4 5 6 
#
# 1 0.011336 -0.002837 -0.003460 0.000000 0.000000 0.000000
# 2 -0.002837 0.011450 -0.001957 0.000000 0.000000 0.000000
# 3 -0.003460 -0.001957 0.007028 0.000000 0.000000 0.000000
# 4 0.000000 0.000000 0.000000 0.033847 0.000000 0.000000
# 5 0.000000 0.000000 0.000000 0.000000 0.068777 0.000000
# 6 0.000000 0.000000 0.000000 0.000000 0.000000 0.032833
#
#
# Mechanical properties :
#
#
# Convention : Reuss Voigt Hill
#
# Bulk Modulus (GPa) = 75.16188 82.69497 78.92842
# Shear Modulus (GPa) = 26.85077 31.89173 29.37125
#
# Velocity S-wave (km/s) = 3.62465 3.95027 3.79096
# Velocity P-wave (km/s) = 7.36846 7.82744 7.60142
#
# Compressibility (1/GPa) = 0.01330462
#
# Stress axis : x y z
#
# Youngs Moduli (GPa) = 88.21085 87.33978 142.29434
#
# Poissons Ratio (x) = 0.24782 0.49237
# Poissons Ratio (y) = 0.25029 0.27845
# Poissons Ratio (z) = 0.30523 0.17091
#
# Static dielectric constant tensor:
#      x y z
#    x 4.806980 0.000000 0.000000 
#    y 0.000000 4.085410 0.000000 
#    z 0.000000 0.000000 4.956910 
# 
# 
# High freq. dielectric constant tensor:
#      x y z
#    x 1.775940 0.000000 0.000000 
#    y 0.000000 1.813950 0.000000 
#    z 0.000000 0.000000 1.818560 
# 
# From -- ./inp_files/14776.got.cif
#   From: 2010.03.12/outbox.cif.g09.slc.cpg/sg57_8_cif.got.tgz:14776.got - 2010.04.16 15:48:40.
