data_PCOD8234256
_publ_section_title
;
Structure prediction by ZEFSAII (Michael W. Deem and Ramdas Pophale) SiO2 
 PCOD8234256
Probable space group: P B C M
;
_chemical_formula_sum "Si O2"
_cell_formula_units_Z 40
_cell_length_a 5.282246
_cell_length_b 26.619916
_cell_length_c 13.543140
_cell_angle_alpha 90.000000
_cell_angle_beta 90.000000
_cell_angle_gamma 90.000000
_cell_volume 1904.340797
_symmetry_space_group_name_H-M "P B C M"
_symmetry_group_IT_number 57
_symmetry_cell_setting 'orthorhombic'
loop_
_space_group_symop_operation_xyz
x,y,z
-x,-y,1/2+z
x,1/2-y,-z
-x,1/2+y,1/2-z
-x,-y,-z
x,y,1/2-z
-x,1/2+y,z
x,1/2-y,1/2+z
loop_
_atom_site_type_symbol
_atom_site_label
_atom_site_fract_x
_atom_site_fract_y
_atom_site_fract_z
Si Si1 0.359343 0.784910 0.750000
Si Si2 0.800550 0.649682 0.564288
Si Si3 0.302421 0.539863 0.034622
Si Si4 0.317817 0.648843 0.057391
Si Si5 0.137029 0.220145 0.750000
Si Si6 0.052886 0.451813 0.135821
O O1 0.323976 0.818949 0.845059
O O2 0.637397 0.760478 0.750000
O O3 0.139920 0.743996 0.750000
O O4 0.540893 0.668347 0.514108
O O5 0.851283 0.686179 0.654020
O O6 0.751532 0.592587 0.605197
O O7 0.037822 0.653412 0.489354
O O8 0.390653 0.590964 0.087858
O O9 0.129512 0.509198 0.111667
O O10 0.500000 0.500000 0.000000
O O11 0.185640 0.559964 0.932394
O O12 0.977894 0.448162 0.250000
#
# Coordination Sequence:
#
# PCOD8234256 Si02
#       6
#     4   8   8   8   4   8
#     4  12  28  46  65  99 132 174 226 266 342 402
#     4  11  23  44  71  97 132 169 225 281 326 378
#     4  10  21  40  61  96 134 168 213 257 325 399
#     4  11  25  44  67  98 138 175 212 275 330 399
#     4  12  26  46  71  99 126 170 232 280 328 398
#     4  10  21  39  63  97 130 172 214 266 323 388
#
# _framework density 21.004643999999999
#
# number of rings (size 3 to 8) (size 9 to 14) (size 15 to 20)
#    0.000    1.200    3.000    2.400    1.400    5.600 
#    1.800    0.000    0.000    0.000    0.000    0.000 
#    0.000    0.000    0.000    0.000    0.000    0.000 
#
# Total GULP energy -495684.325557 kJ/mol
# GULP energy per Si atom -12392.108139 kJ/mol
# Density = 2.095684 g / cm^3
# Si number density = 21.004644 Si / 1000 Ang^3
#
#
#
# Elastic Constant Matrix: (Units=GPa)
#
#
# Indices 1 2 3 4 5 6 
#
# 1 77.5314 9.4317 12.1175 0.0000 0.0000 0.0000
# 2 9.4317 98.0588 52.3421 0.0000 0.0000 0.0000
# 3 12.1175 52.3421 127.2058 0.0000 0.0000 0.0000
# 4 0.0000 0.0000 0.0000 40.2104 0.0000 0.0000
# 5 0.0000 0.0000 0.0000 0.0000 20.9800 0.0000
# 6 0.0000 0.0000 0.0000 0.0000 0.0000 36.3545
#
#
#
# Elastic Compliance Matrix: (Units=1/GPa)
#
#
# Indices 1 2 3 4 5 6 
#
# 1 0.013137 -0.000763 -0.000937 0.000000 0.000000 0.000000
# 2 -0.000763 0.013113 -0.005323 0.000000 0.000000 0.000000
# 3 -0.000937 -0.005323 0.010141 0.000000 0.000000 0.000000
# 4 0.000000 0.000000 0.000000 0.024869 0.000000 0.000000
# 5 0.000000 0.000000 0.000000 0.000000 0.047665 0.000000
# 6 0.000000 0.000000 0.000000 0.000000 0.000000 0.027507
#
#
# Mechanical properties :
#
#
# Convention : Reuss Voigt Hill
#
# Bulk Modulus (GPa) = 44.75505 50.06428 47.40967
# Shear Modulus (GPa) = 31.66035 34.76928 33.21481
#
# Velocity S-wave (km/s) = 3.88661 4.07297 3.98088
# Velocity P-wave (km/s) = 6.44162 6.78273 6.61437
#
# Compressibility (1/GPa) = 0.02234385
#
# Stress axis : x y z
#
# Youngs Moduli (GPa) = 76.11884 76.26246 98.61167
#
# Poissons Ratio (x) = 0.05821 0.09244
# Poissons Ratio (y) = 0.05810 0.52489
# Poissons Ratio (z) = 0.07135 0.40593
#
# Static dielectric constant tensor:
#      x y z
#    x 4.063450 0.000000 0.000000 
#    y 0.000000 3.775920 0.000000 
#    z 0.000000 0.000000 3.741930 
# 
# 
# High freq. dielectric constant tensor:
#      x y z
#    x 1.821300 0.000000 0.000000 
#    y 0.000000 1.843450 0.000000 
#    z 0.000000 0.000000 1.821180 
# 
# From -- ./inp_files/10953.got.cif
#   From: 2010.03.12/outbox.cif.g09.slc.cpg/sg57_6_cif.got.tgz:10953.got - 2010.04.16 15:48:40.
