data_PCOD8234068
_publ_section_title
;
Structure prediction by ZEFSAII (Michael W. Deem and Ramdas Pophale) SiO2 
 PCOD8234068
Probable space group: P B C M
;
_chemical_formula_sum "Si O2"
_cell_formula_units_Z 64
_cell_length_a 23.858613
_cell_length_b 15.471349
_cell_length_c 8.640582
_cell_angle_alpha 90.000000
_cell_angle_beta 90.000000
_cell_angle_gamma 90.000000
_cell_volume 3189.454212
_symmetry_space_group_name_H-M "P B C M"
_symmetry_group_IT_number 57
_symmetry_cell_setting 'orthorhombic'
loop_
_space_group_symop_operation_xyz
x,y,z
-x,-y,1/2+z
x,1/2-y,-z
-x,1/2+y,1/2-z
-x,-y,-z
x,y,1/2-z
-x,1/2+y,z
x,1/2-y,1/2+z
loop_
_atom_site_type_symbol
_atom_site_label
_atom_site_fract_x
_atom_site_fract_y
_atom_site_fract_z
Si Si1 0.618899 0.159872 0.067577
Si Si2 0.311609 0.001313 0.566156
Si Si3 0.886732 0.839149 0.567417
Si Si4 0.498234 0.095167 0.066929
Si Si5 0.815737 0.992550 0.068361
Si Si6 0.999738 0.095463 0.932965
Si Si7 0.385007 0.339273 0.433530
Si Si8 0.113991 0.838781 0.931925
O O1 0.624608 0.162668 0.250000
O O2 0.658289 0.084095 0.999263
O O3 0.555042 0.143215 0.016921
O O4 0.640482 0.250000 0.000000
O O5 0.313929 0.999706 0.750000
O O6 0.247897 0.004466 0.508143
O O7 0.344913 0.084781 0.503774
O O8 0.861275 0.750000 0.500000
O O9 0.892269 0.832774 0.750000
O O10 0.846483 0.917846 0.524887
O O11 0.947634 0.851689 0.494445
O O12 0.491657 0.090202 0.250000
O O13 0.447720 0.148588 0.994436
O O14 0.500000 0.000000 0.000000
O O15 0.819972 0.971773 0.250000
O O16 0.843218 0.084501 0.028927
O O17 0.003192 0.088948 0.750000
O O18 0.944503 0.145473 0.983373
O O19 0.000000 0.000000 0.000000
O O20 0.360542 0.250000 0.500000
O O21 0.386103 0.336558 0.250000
O O22 0.103592 0.830807 0.750000
O O23 0.139760 0.750000 0.000000
#
# Coordination Sequence:
#
# PCOD8234068 Si02
#       8
#     8   8   8   8   8   8   8   8
#     4  10  21  38  59  87 120 157 197 243 299 359
#     4   9  20  41  63  84 118 161 203 252 306 357
#     4  12  25  42  65  93 127 162 203 252 304 364
#     4  11  21  36  60  89 122 158 198 244 305 366
#     4  10  22  42  66  88 118 162 209 256 307 360
#     4  12  23  39  64  94 128 162 201 246 304 366
#     4  11  22  39  61  88 122 159 202 249 304 365
#     4  11  23  39  62  92 126 163 205 250 305 362
#
# _framework density 20.066130000000001
#
# number of rings (size 3 to 8) (size 9 to 14) (size 15 to 20)
#    0.000    1.250    2.500    4.125    0.000    3.500 
#    0.000    3.125    0.000    0.000    0.000    0.000 
#    0.000    0.000    0.000    0.000    0.000    0.000 
#
# Total GULP energy -793916.672983 kJ/mol
# GULP energy per Si atom -12404.948015 kJ/mol
# Density = 2.002046 g / cm^3
# Si number density = 20.066130 Si / 1000 Ang^3
#
#
#
# Elastic Constant Matrix: (Units=GPa)
#
#
# Indices 1 2 3 4 5 6 
#
# 1 139.8364 61.9482 45.2512 0.0000 0.0000 0.0000
# 2 61.9482 170.6840 54.1119 0.0000 0.0000 0.0000
# 3 45.2512 54.1119 102.4187 0.0000 0.0000 0.0000
# 4 0.0000 0.0000 0.0000 38.1556 0.0000 0.0000
# 5 0.0000 0.0000 0.0000 0.0000 20.7387 0.0000
# 6 0.0000 0.0000 0.0000 0.0000 0.0000 11.3600
#
#
#
# Elastic Compliance Matrix: (Units=1/GPa)
#
#
# Indices 1 2 3 4 5 6 
#
# 1 0.009119 -0.002441 -0.002739 0.000000 0.000000 0.000000
# 2 -0.002441 0.007691 -0.002985 0.000000 0.000000 0.000000
# 3 -0.002739 -0.002985 0.012551 0.000000 0.000000 0.000000
# 4 0.000000 0.000000 0.000000 0.026208 0.000000 0.000000
# 5 0.000000 0.000000 0.000000 0.000000 0.048219 0.000000
# 6 0.000000 0.000000 0.000000 0.000000 0.000000 0.088028
#
#
# Mechanical properties :
#
#
# Convention : Reuss Voigt Hill
#
# Bulk Modulus (GPa) = 76.74271 81.72907 79.23589
# Shear Modulus (GPa) = 23.53032 30.82604 27.17818
#
# Velocity S-wave (km/s) = 3.42810 3.92372 3.68425
# Velocity P-wave (km/s) = 7.34827 7.83235 7.59417
#
# Compressibility (1/GPa) = 0.01303055
#
# Stress axis : x y z
#
# Youngs Moduli (GPa) = 109.65957 130.01998 79.67396
#
# Poissons Ratio (x) = 0.31742 0.21825
# Poissons Ratio (y) = 0.26771 0.23782
# Poissons Ratio (z) = 0.30038 0.38810
#
# Static dielectric constant tensor:
#      x y z
#    x 3.814630 0.000000 0.000000 
#    y 0.000000 4.022010 0.000000 
#    z 0.000000 0.000000 3.564980 
# 
# 
# High freq. dielectric constant tensor:
#      x y z
#    x 1.780290 0.000000 0.000000 
#    y 0.000000 1.804230 0.000000 
#    z 0.000000 0.000000 1.777280 
# 
# From -- ./inp_files/9359.got.cif
#   From: 2010.03.12/outbox.cif.g09.slc.cpg/sg57_5_cif.got.tgz:9359.got - 2010.04.16 15:48:40.
