data_PCOD8234570
_publ_section_title
;
Structure prediction by ZEFSAII (Michael W. Deem and Ramdas Pophale) SiO2 
 PCOD8234570
Probable space group: P B C M
;
_chemical_formula_sum "Si O2"
_cell_formula_units_Z 48
_cell_length_a 9.658709
_cell_length_b 29.183072
_cell_length_c 8.966626
_cell_angle_alpha 90.000000
_cell_angle_beta 90.000000
_cell_angle_gamma 90.000000
_cell_volume 2527.430045
_symmetry_space_group_name_H-M "P B C M"
_symmetry_group_IT_number 57
_symmetry_cell_setting 'orthorhombic'
loop_
_space_group_symop_operation_xyz
x,y,z
-x,-y,1/2+z
x,1/2-y,-z
-x,1/2+y,1/2-z
-x,-y,-z
x,y,1/2-z
-x,1/2+y,z
x,1/2-y,1/2+z
loop_
_atom_site_type_symbol
_atom_site_label
_atom_site_fract_x
_atom_site_fract_y
_atom_site_fract_z
Si Si1 0.958706 0.625374 0.925969
Si Si2 0.459656 0.798292 0.575634
Si Si3 0.280941 0.877026 0.073750
Si Si4 0.896412 0.533420 0.080592
Si Si5 0.622906 0.475659 0.417277
Si Si6 0.222619 0.202088 0.424622
O O1 0.935667 0.626084 0.750000
O O2 0.119997 0.627137 0.968165
O O3 0.887674 0.580358 0.991283
O O4 0.882191 0.667486 0.000207
O O5 0.423154 0.750000 0.500000
O O6 0.429492 0.793248 0.750000
O O7 0.363317 0.837345 0.508717
O O8 0.618622 0.812412 0.544961
O O9 0.302497 0.872169 0.250000
O O10 0.334885 0.926315 0.013824
O O11 0.945700 0.542153 0.250000
O O12 0.747820 0.510740 0.077420
O O13 0.000000 0.500000 0.000000
O O14 0.500000 0.500000 0.500000
O O15 0.573451 0.466721 0.250000
O O16 0.190138 0.250000 0.500000
O O17 0.191597 0.205259 0.250000
#
# Coordination Sequence:
#
# PCOD8234570 Si02
#       6
#     8   8   8   8   8   8
#     4  11  23  40  62  89 120 159 200 244 297 352
#     4  10  22  40  63  89 118 154 195 242 296 353
#     4  10  22  41  60  85 121 157 197 244 292 349
#     4  11  22  40  62  87 121 158 199 245 294 351
#     4  10  23  41  59  86 121 157 199 246 292 347
#     4  10  22  41  63  91 121 153 196 245 295 355
#
# _framework density 18.991624000000002
#
# number of rings (size 3 to 8) (size 9 to 14) (size 15 to 20)
#    0.000    1.667    1.667    2.000    2.333    6.000 
#    0.000    0.000    0.000    0.000    0.000    0.000 
#    0.000    0.000    0.000    0.000    0.000    0.000 
#
# Total GULP energy -595318.395800 kJ/mol
# GULP energy per Si atom -12402.466579 kJ/mol
# Density = 1.894840 g / cm^3
# Si number density = 18.991624 Si / 1000 Ang^3
#
#
#
# Elastic Constant Matrix: (Units=GPa)
#
#
# Indices 1 2 3 4 5 6 
#
# 1 94.8033 79.2712 62.5378 0.0000 0.0000 0.0000
# 2 79.2712 161.5383 77.1686 0.0000 0.0000 0.0000
# 3 62.5378 77.1686 107.7512 0.0000 0.0000 0.0000
# 4 0.0000 0.0000 0.0000 42.8621 0.0000 0.0000
# 5 0.0000 0.0000 0.0000 0.0000 34.3773 0.0000
# 6 0.0000 0.0000 0.0000 0.0000 0.0000 42.0907
#
#
#
# Elastic Compliance Matrix: (Units=1/GPa)
#
#
# Indices 1 2 3 4 5 6 
#
# 1 0.021134 -0.006857 -0.007355 0.000000 0.000000 0.000000
# 2 -0.006857 0.011635 -0.004353 0.000000 0.000000 0.000000
# 3 -0.007355 -0.004353 0.016666 0.000000 0.000000 0.000000
# 4 0.000000 0.000000 0.000000 0.023331 0.000000 0.000000
# 5 0.000000 0.000000 0.000000 0.000000 0.029089 0.000000
# 6 0.000000 0.000000 0.000000 0.000000 0.000000 0.023758
#
#
# Mechanical properties :
#
#
# Convention : Reuss Voigt Hill
#
# Bulk Modulus (GPa) = 81.26400 89.11644 85.19022
# Shear Modulus (GPa) = 29.96807 33.54035 31.75421
#
# Velocity S-wave (km/s) = 3.97667 4.20701 4.09346
# Velocity P-wave (km/s) = 7.99797 8.40384 8.20341
#
# Compressibility (1/GPa) = 0.01230557
#
# Stress axis : x y z
#
# Youngs Moduli (GPa) = 47.31781 85.94823 60.00082
#
# Poissons Ratio (x) = 0.58939 0.44129
# Poissons Ratio (y) = 0.32448 0.26116
# Poissons Ratio (z) = 0.34801 0.37410
#
# Static dielectric constant tensor:
#      x y z
#    x 3.425790 0.000000 0.000000 
#    y 0.000000 3.581010 0.000000 
#    z 0.000000 0.000000 3.649850 
# 
# 
# High freq. dielectric constant tensor:
#      x y z
#    x 1.742990 0.000000 0.000000 
#    y 0.000000 1.753080 0.000000 
#    z 0.000000 0.000000 1.748600 
# 
# From -- ./inp_files/1998.got.cif
#   From: 2010.03.12/outbox.cif.g09.slc.cpg/sg57_1_cif.got.tgz:1998.got - 2010.04.16 15:48:40.
