data_PCOD8234378
_publ_section_title
;
Structure prediction by ZEFSAII (Michael W. Deem and Ramdas Pophale) SiO2 
 PCOD8234378
Probable space group: P B C M
;
_chemical_formula_sum "Si O2"
_cell_formula_units_Z 36
_cell_length_a 10.902116
_cell_length_b 11.088467
_cell_length_c 14.248438
_cell_angle_alpha 90.000000
_cell_angle_beta 90.000000
_cell_angle_gamma 90.000000
_cell_volume 1722.461661
_symmetry_space_group_name_H-M "P B C M"
_symmetry_group_IT_number 57
_symmetry_cell_setting 'orthorhombic'
loop_
_space_group_symop_operation_xyz
x,y,z
-x,-y,1/2+z
x,1/2-y,-z
-x,1/2+y,1/2-z
-x,-y,-z
x,y,1/2-z
-x,1/2+y,z
x,1/2-y,1/2+z
loop_
_atom_site_type_symbol
_atom_site_label
_atom_site_fract_x
_atom_site_fract_y
_atom_site_fract_z
Si Si1 0.446951 0.375377 0.953591
Si Si2 0.482106 0.929695 0.750000
Si Si3 0.707947 0.085048 0.750000
Si Si4 0.071762 0.638825 0.433194
Si Si5 0.229626 0.850482 0.750000
Si Si6 0.817498 0.546451 0.427721
O O1 0.485023 0.358909 0.845382
O O2 0.299919 0.378985 0.962353
O O3 0.494828 0.250000 0.000000
O O4 0.500000 0.500000 0.000000
O O5 0.335012 0.954973 0.750000
O O6 0.564743 0.049366 0.750000
O O7 0.695401 0.226917 0.750000
O O8 0.780933 0.038644 0.658940
O O9 0.097339 0.750000 0.500000
O O10 0.146413 0.646639 0.339288
O O11 0.125006 0.522904 0.484673
O O12 0.929250 0.635163 0.400484
#
# Coordination Sequence:
#
# PCOD8234378 Si02
#       6
#     8   4   4   8   4   8
#     4  11  25  43  68  98 135 179 225 277 337 403
#     4  10  26  40  64  94 132 172 218 278 330 391
#     4  10  21  41  63  90 127 168 212 272 323 400
#     4  11  22  39  65  91 124 169 211 271 326 397
#     4  12  23  39  65  92 125 164 222 262 335 403
#     4  10  22  41  63  93 128 164 218 270 333 387
#
# _framework density 20.900321000000002
#
# number of rings (size 3 to 8) (size 9 to 14) (size 15 to 20)
#    0.000    1.333    2.222    2.667    6.222    1.778 
#    0.000    0.000    0.000    0.000    0.000    0.000 
#    0.000    0.000    0.000    0.000    0.000    0.000 
#
# Total GULP energy -446130.179263 kJ/mol
# GULP energy per Si atom -12392.504980 kJ/mol
# Density = 2.085275 g / cm^3
# Si number density = 20.900321 Si / 1000 Ang^3
#
#
#
# Elastic Constant Matrix: (Units=GPa)
#
#
# Indices 1 2 3 4 5 6 
#
# 1 186.4734 41.6127 70.0356 0.0000 0.0000 0.0000
# 2 41.6127 83.9709 50.0631 0.0000 0.0000 0.0000
# 3 70.0356 50.0631 139.8387 0.0000 0.0000 0.0000
# 4 0.0000 0.0000 0.0000 32.6787 0.0000 0.0000
# 5 0.0000 0.0000 0.0000 0.0000 34.6622 0.0000
# 6 0.0000 0.0000 0.0000 0.0000 0.0000 25.0919
#
#
#
# Elastic Compliance Matrix: (Units=1/GPa)
#
#
# Indices 1 2 3 4 5 6 
#
# 1 0.006791 -0.001701 -0.002792 0.000000 0.000000 0.000000
# 2 -0.001701 0.015566 -0.004721 0.000000 0.000000 0.000000
# 3 -0.002792 -0.004721 0.010240 0.000000 0.000000 0.000000
# 4 0.000000 0.000000 0.000000 0.030601 0.000000 0.000000
# 5 0.000000 0.000000 0.000000 0.000000 0.028850 0.000000
# 6 0.000000 0.000000 0.000000 0.000000 0.000000 0.039854
#
#
# Mechanical properties :
#
#
# Convention : Reuss Voigt Hill
#
# Bulk Modulus (GPa) = 70.57651 81.52286 76.04969
# Shear Modulus (GPa) = 32.24715 35.05799 33.65257
#
# Velocity S-wave (km/s) = 3.93224 4.10004 4.01702
# Velocity P-wave (km/s) = 7.37958 7.84245 7.61453
#
# Compressibility (1/GPa) = 0.01416902
#
# Stress axis : x y z
#
# Youngs Moduli (GPa) = 147.25556 64.24108 97.65844
#
# Poissons Ratio (x) = 0.10925 0.27269
# Poissons Ratio (y) = 0.25042 0.46106
# Poissons Ratio (z) = 0.41118 0.30329
#
# Static dielectric constant tensor:
#      x y z
#    x 4.201000 0.000000 0.000000 
#    y 0.000000 3.672520 0.000000 
#    z 0.000000 0.000000 3.924260 
# 
# 
# High freq. dielectric constant tensor:
#      x y z
#    x 1.839150 0.000000 0.000000 
#    y 0.000000 1.799100 0.000000 
#    z 0.000000 0.000000 1.835040 
# 
# From -- ./inp_files/12570.got.cif
#   From: 2010.03.12/outbox.cif.g09.slc.cpg/sg57_7_cif.got.tgz:12570.got - 2010.04.16 15:48:40.
