data_PCOD8234988
_publ_section_title
;
Structure prediction by ZEFSAII (Michael W. Deem and Ramdas Pophale) SiO2 
 PCOD8234988
Probable space group: P B C M
;
_chemical_formula_sum "Si O2"
_cell_formula_units_Z 48
_cell_length_a 30.600689
_cell_length_b 9.337323
_cell_length_c 8.448025
_cell_angle_alpha 90.000000
_cell_angle_beta 90.000000
_cell_angle_gamma 90.000000
_cell_volume 2413.841657
_symmetry_space_group_name_H-M "P B C M"
_symmetry_group_IT_number 57
_symmetry_cell_setting 'orthorhombic'
loop_
_space_group_symop_operation_xyz
x,y,z
-x,-y,1/2+z
x,1/2-y,-z
-x,1/2+y,1/2-z
-x,-y,-z
x,y,1/2-z
-x,1/2+y,z
x,1/2-y,1/2+z
loop_
_atom_site_type_symbol
_atom_site_label
_atom_site_fract_x
_atom_site_fract_y
_atom_site_fract_z
Si Si1 0.459937 0.909320 0.561597
Si Si2 0.122729 0.908463 0.936475
Si Si3 0.369152 0.590293 0.562620
Si Si4 0.959618 0.910399 0.062837
Si Si5 0.198751 0.405960 0.564334
Si Si6 0.292939 0.401400 0.064585
O O1 0.466947 0.750000 0.500000
O O2 0.456873 0.911267 0.750000
O O3 0.415652 0.977986 0.487989
O O4 0.500000 0.000000 0.500000
O O5 0.122701 0.900710 0.750000
O O6 0.084292 0.012145 0.998737
O O7 0.114901 0.750000 0.000000
O O8 0.168707 0.970310 0.993725
O O9 0.369275 0.750000 0.500000
O O10 0.362502 0.581167 0.750000
O O11 0.329863 0.515025 0.472763
O O12 0.961467 0.906326 0.250000
O O13 0.961059 0.750000 0.000000
O O14 0.000000 0.000000 0.000000
O O15 0.185341 0.250000 0.500000
O O16 0.192850 0.403284 0.750000
O O17 0.248189 0.446475 0.520325
O O18 0.283783 0.391059 0.250000
O O19 0.309781 0.250000 0.000000
#
# Coordination Sequence:
#
# PCOD8234988 Si02
#       6
#     8   8   8   8   8   8
#     4  11  22  39  60  86 116 152 193 239 291 347
#     4  11  24  41  61  89 121 157 198 245 294 349
#     4  11  22  39  60  86 117 153 193 238 290 348
#     4  11  24  41  64  91 123 159 200 245 296 351
#     4  11  22  39  62  88 118 155 195 241 292 348
#     4  11  22  39  61  88 119 154 195 242 291 347
#
# _framework density 19.885313
#
# number of rings (size 3 to 8) (size 9 to 14) (size 15 to 20)
#    0.000    1.000    0.000   10.000    0.000    6.667 
#    0.000    6.667    0.000    0.000    0.000    0.000 
#    0.000    0.000    0.000    0.000    0.000    0.000 
#
# Total GULP energy -595418.377062 kJ/mol
# GULP energy per Si atom -12404.549522 kJ/mol
# Density = 1.984005 g / cm^3
# Si number density = 19.885313 Si / 1000 Ang^3
#
#
#
# Elastic Constant Matrix: (Units=GPa)
#
#
# Indices 1 2 3 4 5 6 
#
# 1 117.9993 69.2407 12.1953 0.0000 0.0000 0.0000
# 2 69.2407 117.2505 28.5840 0.0000 0.0000 0.0000
# 3 12.1953 28.5840 69.6374 0.0000 0.0000 0.0000
# 4 0.0000 0.0000 0.0000 38.6939 0.0000 0.0000
# 5 0.0000 0.0000 0.0000 0.0000 33.2670 0.0000
# 6 0.0000 0.0000 0.0000 0.0000 0.0000 47.4283
#
#
#
# Elastic Compliance Matrix: (Units=1/GPa)
#
#
# Indices 1 2 3 4 5 6 
#
# 1 0.013028 -0.007931 0.000974 0.000000 0.000000 0.000000
# 2 -0.007931 0.014305 -0.004483 0.000000 0.000000 0.000000
# 3 0.000974 -0.004483 0.016030 0.000000 0.000000 0.000000
# 4 0.000000 0.000000 0.000000 0.025844 0.000000 0.000000
# 5 0.000000 0.000000 0.000000 0.000000 0.030060 0.000000
# 6 0.000000 0.000000 0.000000 0.000000 0.000000 0.021084
#
#
# Mechanical properties :
#
#
# Convention : Reuss Voigt Hill
#
# Bulk Modulus (GPa) = 48.82157 58.32526 53.57341
# Shear Modulus (GPa) = 33.32057 36.86900 35.09479
#
# Velocity S-wave (km/s) = 4.09790 4.31058 4.20558
# Velocity P-wave (km/s) = 6.85530 7.35998 7.11212
#
# Compressibility (1/GPa) = 0.02048275
#
# Stress axis : x y z
#
# Youngs Moduli (GPa) = 76.75993 69.90571 62.38446
#
# Poissons Ratio (x) = 0.55440 -0.06075
# Poissons Ratio (y) = 0.60876 0.27966
# Poissons Ratio (z) = -0.07475 0.31338
#
# Static dielectric constant tensor:
#      x y z
#    x 3.934670 0.000000 0.000000 
#    y 0.000000 3.573350 0.000000 
#    z 0.000000 0.000000 3.733260 
# 
# 
# High freq. dielectric constant tensor:
#      x y z
#    x 1.793670 0.000000 0.000000 
#    y 0.000000 1.776030 0.000000 
#    z 0.000000 0.000000 1.798900 
# 
# From -- ./inp_files/10003.got.cif
#   From: 2010.03.12/outbox.cif.g09.slc.cpg/sg57_6_cif.got.tgz:10003.got - 2010.04.16 15:48:40.
