data_PCOD8234289
_publ_section_title
;
Structure prediction by ZEFSAII (Michael W. Deem and Ramdas Pophale) SiO2 
 PCOD8234289
Probable space group: P B C M
;
_chemical_formula_sum "Si O2"
_cell_formula_units_Z 40
_cell_length_a 7.780147
_cell_length_b 11.844661
_cell_length_c 18.456194
_cell_angle_alpha 90.000000
_cell_angle_beta 90.000000
_cell_angle_gamma 90.000000
_cell_volume 1700.797406
_symmetry_space_group_name_H-M "P B C M"
_symmetry_group_IT_number 57
_symmetry_cell_setting 'orthorhombic'
loop_
_space_group_symop_operation_xyz
x,y,z
-x,-y,1/2+z
x,1/2-y,-z
-x,1/2+y,1/2-z
-x,-y,-z
x,y,1/2-z
-x,1/2+y,z
x,1/2-y,1/2+z
loop_
_atom_site_type_symbol
_atom_site_label
_atom_site_fract_x
_atom_site_fract_y
_atom_site_fract_z
Si Si1 0.153660 0.852491 0.538760
Si Si2 0.854456 0.996881 0.832687
Si Si3 0.280940 0.763385 0.168759
Si Si4 0.674370 0.735952 0.166003
Si Si5 0.140513 0.413573 0.435782
O O1 0.262336 0.750000 0.500000
O O2 0.142016 0.807248 0.621725
O O3 0.965803 0.852334 0.499135
O O4 0.244103 0.976721 0.531109
O O5 0.917327 0.992840 0.750000
O O6 0.727545 0.102747 0.845641
O O7 0.016763 0.012942 0.883815
O O8 0.755431 0.883518 0.854429
O O9 0.224971 0.734508 0.250000
O O10 0.472744 0.722307 0.152123
O O11 0.710936 0.770729 0.250000
O O12 0.744861 0.829904 0.110846
#
# Coordination Sequence:
#
# PCOD8234289 Si02
#       5
#     8   8   8   8   8
#     4  11  23  43  66  93 135 180 225 277 335 408
#     4  10  21  39  65  96 133 172 222 283 337 405
#     4  10  23  43  69  96 134 178 223 281 346 407
#     4  10  23  43  69 105 136 175 232 285 345 406
#     4  11  23  41  68  95 135 178 228 283 337 406
#
# _framework density 23.518380000000001
#
# number of rings (size 3 to 8) (size 9 to 14) (size 15 to 20)
#    0.000    1.600    2.000    1.800    2.800    1.600 
#    0.000    7.000    0.000    0.000    0.000    0.000 
#    0.000    0.000    0.000    0.000    0.000    0.000 
#
# Total GULP energy -495574.633769 kJ/mol
# GULP energy per Si atom -12389.365844 kJ/mol
# Density = 2.346485 g / cm^3
# Si number density = 23.518380 Si / 1000 Ang^3
#
#
#
# Elastic Constant Matrix: (Units=GPa)
#
#
# Indices 1 2 3 4 5 6 
#
# 1 54.0470 36.5167 44.7487 0.0000 0.0000 0.0000
# 2 36.5167 180.3045 75.6698 0.0000 0.0000 0.0000
# 3 44.7487 75.6698 119.4908 0.0000 0.0000 0.0000
# 4 0.0000 0.0000 0.0000 53.0809 0.0000 0.0000
# 5 0.0000 0.0000 0.0000 0.0000 27.6322 0.0000
# 6 0.0000 0.0000 0.0000 0.0000 0.0000 29.3151
#
#
#
# Elastic Compliance Matrix: (Units=1/GPa)
#
#
# Indices 1 2 3 4 5 6 
#
# 1 0.027186 -0.001680 -0.009117 0.000000 0.000000 0.000000
# 2 -0.001680 0.007657 -0.004220 0.000000 0.000000 0.000000
# 3 -0.009117 -0.004220 0.014456 0.000000 0.000000 0.000000
# 4 0.000000 0.000000 0.000000 0.018839 0.000000 0.000000
# 5 0.000000 0.000000 0.000000 0.000000 0.036190 0.000000
# 6 0.000000 0.000000 0.000000 0.000000 0.000000 0.034112
#
#
# Mechanical properties :
#
#
# Convention : Reuss Voigt Hill
#
# Bulk Modulus (GPa) = 51.90792 74.19031 63.04912
# Shear Modulus (GPa) = 28.58834 35.13277 31.86056
#
# Velocity S-wave (km/s) = 3.49029 3.86922 3.68463
# Velocity P-wave (km/s) = 6.19370 7.18159 6.70587
#
# Compressibility (1/GPa) = 0.01926488
#
# Stress axis : x y z
#
# Youngs Moduli (GPa) = 36.78355 130.59129 69.17625
#
# Poissons Ratio (x) = 0.21934 0.63071
# Poissons Ratio (y) = 0.06178 0.29194
# Poissons Ratio (z) = 0.33537 0.55113
#
# Static dielectric constant tensor:
#      x y z
#    x 3.685240 0.000000 0.000000 
#    y 0.000000 4.781700 0.000000 
#    z 0.000000 0.000000 4.692690 
# 
# 
# High freq. dielectric constant tensor:
#      x y z
#    x 1.872850 0.000000 0.000000 
#    y 0.000000 1.968390 0.000000 
#    z 0.000000 0.000000 1.953410 
# 
# From -- ./inp_files/20541.got.cif
#   From: 2010.03.12/outbox.cif.g09.slc.cpg/sg57_11_cif.got.tgz:20541.got - 2010.04.16 15:48:40.
