data_PCOD8234333
_publ_section_title
;
Structure prediction by ZEFSAII (Michael W. Deem and Ramdas Pophale) SiO2 
 PCOD8234333
Probable space group: P B C M
;
_chemical_formula_sum "Si O2"
_cell_formula_units_Z 56
_cell_length_a 15.154450
_cell_length_b 10.758552
_cell_length_c 16.197001
_cell_angle_alpha 90.000000
_cell_angle_beta 90.000000
_cell_angle_gamma 90.000000
_cell_volume 2640.758045
_symmetry_space_group_name_H-M "P B C M"
_symmetry_group_IT_number 57
_symmetry_cell_setting 'orthorhombic'
loop_
_space_group_symop_operation_xyz
x,y,z
-x,-y,1/2+z
x,1/2-y,-z
-x,1/2+y,1/2-z
-x,-y,-z
x,y,1/2-z
-x,1/2+y,z
x,1/2-y,1/2+z
loop_
_atom_site_type_symbol
_atom_site_label
_atom_site_fract_x
_atom_site_fract_y
_atom_site_fract_z
Si Si1 0.887626 0.386227 0.847262
Si Si2 0.056710 0.431777 0.934685
Si Si3 0.328336 0.999966 0.099022
Si Si4 0.505274 0.125629 0.553874
Si Si5 0.654108 0.726051 0.847828
Si Si6 0.210004 0.410583 0.044402
Si Si7 0.835258 0.374157 0.159388
O O1 0.885265 0.415216 0.750000
O O2 0.842128 0.499481 0.894311
O O3 0.830046 0.266618 0.874582
O O4 0.989674 0.356120 0.875365
O O5 0.094273 0.548291 0.887989
O O6 0.137375 0.354622 0.978320
O O7 0.000000 0.500000 0.000000
O O8 0.366683 0.129736 0.134125
O O9 0.403106 0.893467 0.101211
O O10 0.257810 0.943469 0.161337
O O11 0.286363 0.018315 0.007551
O O12 0.507165 0.250000 0.500000
O O13 0.425471 0.138924 0.619533
O O14 0.500000 0.000000 0.500000
O O15 0.667777 0.702475 0.750000
O O16 0.743287 0.695166 0.899853
O O17 0.874216 0.362790 0.250000
#
# Coordination Sequence:
#
# PCOD8234333 Si02
#       7
#     8   8   8   8   8   8   8
#     4  10  21  40  63  95 133 169 223 289 349 408
#     4   9  20  38  60  87 123 169 220 271 330 408
#     4  11  24  43  69  95 138 177 229 272 341 416
#     4  12  24  46  74 104 137 181 229 282 338 414
#     4  12  25  44  68 101 141 179 227 287 350 413
#     4  10  21  40  65  96 124 177 229 278 333 410
#     4  10  22  40  62  91 131 172 215 279 351 407
#
# _framework density 21.206032
#
# number of rings (size 3 to 8) (size 9 to 14) (size 15 to 20)
#    0.000    1.429    2.857    1.714    2.000    5.714 
#   18.000    0.000    0.000    0.000    0.000    0.000 
#    0.000    0.000    0.000    0.000    0.000    0.000 
#
# Total GULP energy -693772.267341 kJ/mol
# GULP energy per Si atom -12388.790488 kJ/mol
# Density = 2.115777 g / cm^3
# Si number density = 21.206032 Si / 1000 Ang^3
#
#
#
# Elastic Constant Matrix: (Units=GPa)
#
#
# Indices 1 2 3 4 5 6 
#
# 1 107.0067 32.6555 37.0998 0.0000 0.0000 0.0000
# 2 32.6555 97.3881 36.3999 0.0000 0.0000 0.0000
# 3 37.0998 36.3999 88.0340 0.0000 0.0000 0.0000
# 4 0.0000 0.0000 0.0000 22.5131 0.0000 0.0000
# 5 0.0000 0.0000 0.0000 0.0000 58.7105 0.0000
# 6 0.0000 0.0000 0.0000 0.0000 0.0000 35.4088
#
#
#
# Elastic Compliance Matrix: (Units=1/GPa)
#
#
# Indices 1 2 3 4 5 6 
#
# 1 0.011399 -0.002397 -0.003812 0.000000 0.000000 0.000000
# 2 -0.002397 0.012649 -0.004220 0.000000 0.000000 0.000000
# 3 -0.003812 -0.004220 0.014711 0.000000 0.000000 0.000000
# 4 0.000000 0.000000 0.000000 0.044419 0.000000 0.000000
# 5 0.000000 0.000000 0.000000 0.000000 0.017033 0.000000
# 6 0.000000 0.000000 0.000000 0.000000 0.000000 0.028242
#
#
# Mechanical properties :
#
#
# Convention : Reuss Voigt Hill
#
# Bulk Modulus (GPa) = 55.86764 56.08214 55.97489
# Shear Modulus (GPa) = 32.20053 35.74473 33.97263
#
# Velocity S-wave (km/s) = 3.90097 4.11005 4.00687
# Velocity P-wave (km/s) = 6.83319 7.00193 6.91808
#
# Compressibility (1/GPa) = 0.01789945
#
# Stress axis : x y z
#
# Youngs Moduli (GPa) = 87.73044 79.05621 67.97741
#
# Poissons Ratio (x) = 0.18951 0.25916
# Poissons Ratio (y) = 0.21030 0.28686
# Poissons Ratio (z) = 0.33447 0.33361
#
# Static dielectric constant tensor:
#      x y z
#    x 5.106440 0.000000 0.000000 
#    y 0.000000 3.734610 0.000000 
#    z 0.000000 0.000000 3.959050 
# 
# 
# High freq. dielectric constant tensor:
#      x y z
#    x 1.842220 0.000000 0.000000 
#    y 0.000000 1.828730 0.000000 
#    z 0.000000 0.000000 1.834650 
# 
# From -- ./inp_files/18552.got.cif
#   From: 2010.03.12/outbox.cif.g09.slc.cpg/sg57_10_cif.got.tgz:18552.got - 2010.04.16 15:48:40.
