data_PCOD8234725
_publ_section_title
;
Structure prediction by ZEFSAII (Michael W. Deem and Ramdas Pophale) SiO2 
 PCOD8234725
Probable space group: P B C M
;
_chemical_formula_sum "Si O2"
_cell_formula_units_Z 48
_cell_length_a 15.376440
_cell_length_b 8.668578
_cell_length_c 16.777407
_cell_angle_alpha 90.000000
_cell_angle_beta 90.000000
_cell_angle_gamma 90.000000
_cell_volume 2236.291944
_symmetry_space_group_name_H-M "P B C M"
_symmetry_group_IT_number 57
_symmetry_cell_setting 'orthorhombic'
loop_
_space_group_symop_operation_xyz
x,y,z
-x,-y,1/2+z
x,1/2-y,-z
-x,1/2+y,1/2-z
-x,-y,-z
x,y,1/2-z
-x,1/2+y,z
x,1/2-y,1/2+z
loop_
_atom_site_type_symbol
_atom_site_label
_atom_site_fract_x
_atom_site_fract_y
_atom_site_fract_z
Si Si1 0.577834 0.129225 0.657385
Si Si2 0.906237 0.321385 0.414366
Si Si3 0.912658 0.813639 0.587201
Si Si4 0.578249 0.799751 0.589011
Si Si5 0.748651 0.835508 0.157352
Si Si6 0.258102 0.680864 0.342386
O O1 0.592839 0.082249 0.750000
O O2 0.487882 0.221300 0.650893
O O3 0.656652 0.234181 0.622956
O O4 0.572005 0.982350 0.600164
O O5 0.884219 0.250000 0.500000
O O6 0.916734 0.503456 0.418157
O O7 0.827281 0.282247 0.356282
O O8 0.994961 0.247927 0.380438
O O9 0.892272 0.750000 0.500000
O O10 0.839418 0.753436 0.647083
O O11 0.552381 0.750000 0.500000
O O12 0.676308 0.751695 0.607049
O O13 0.723856 0.833104 0.250000
O O14 0.753928 0.009250 0.121822
O O15 0.273853 0.661292 0.250000
#
# Coordination Sequence:
#
# PCOD8234725 Si02
#       6
#     8   8   8   8   8   8
#     4  11  23  42  65  90 124 167 210 257 312 376
#     4  11  22  38  62  88 121 160 201 252 310 370
#     4  11  22  39  61  89 122 159 204 253 308 369
#     4  12  25  41  63  94 126 161 206 260 315 372
#     4  11  23  41  63  89 122 163 207 256 310 369
#     4  10  23  41  62  88 120 158 204 252 304 366
#
# _framework density 21.464102
#
# number of rings (size 3 to 8) (size 9 to 14) (size 15 to 20)
#    0.000    1.000    0.000    8.500    0.000    6.000 
#    0.000    0.000    0.000    0.000    0.000    0.000 
#    0.000    0.000    0.000    0.000    0.000    0.000 
#
# Total GULP energy -595473.814052 kJ/mol
# GULP energy per Si atom -12405.704459 kJ/mol
# Density = 2.141525 g / cm^3
# Si number density = 21.464102 Si / 1000 Ang^3
#
#
#
# Elastic Constant Matrix: (Units=GPa)
#
#
# Indices 1 2 3 4 5 6 
#
# 1 123.0302 34.6518 20.8368 0.0000 0.0000 0.0000
# 2 34.6518 164.6115 27.7168 0.0000 0.0000 0.0000
# 3 20.8368 27.7168 50.4415 0.0000 0.0000 0.0000
# 4 0.0000 0.0000 0.0000 30.7354 0.0000 0.0000
# 5 0.0000 0.0000 0.0000 0.0000 23.0102 0.0000
# 6 0.0000 0.0000 0.0000 0.0000 0.0000 38.9708
#
#
#
# Elastic Compliance Matrix: (Units=1/GPa)
#
#
# Indices 1 2 3 4 5 6 
#
# 1 0.009024 -0.001402 -0.002957 0.000000 0.000000 0.000000
# 2 -0.001402 0.006912 -0.003219 0.000000 0.000000 0.000000
# 3 -0.002957 -0.003219 0.022815 0.000000 0.000000 0.000000
# 4 0.000000 0.000000 0.000000 0.032536 0.000000 0.000000
# 5 0.000000 0.000000 0.000000 0.000000 0.043459 0.000000
# 6 0.000000 0.000000 0.000000 0.000000 0.000000 0.025660
#
#
# Mechanical properties :
#
#
# Convention : Reuss Voigt Hill
#
# Bulk Modulus (GPa) = 42.38189 56.05491 49.21840
# Shear Modulus (GPa) = 30.59464 35.53513 33.06489
#
# Velocity S-wave (km/s) = 3.77952 4.07327 3.92914
# Velocity P-wave (km/s) = 6.23175 6.94942 6.60035
#
# Compressibility (1/GPa) = 0.02359498
#
# Stress axis : x y z
#
# Youngs Moduli (GPa) = 110.81887 144.67667 43.82996
#
# Poissons Ratio (x) = 0.20278 0.12963
# Poissons Ratio (y) = 0.15532 0.14109
# Poissons Ratio (z) = 0.32774 0.46572
#
# Static dielectric constant tensor:
#      x y z
#    x 3.989540 0.000000 0.000000 
#    y 0.000000 4.171820 0.000000 
#    z 0.000000 0.000000 3.626940 
# 
# 
# High freq. dielectric constant tensor:
#      x y z
#    x 1.858750 0.000000 0.000000 
#    y 0.000000 1.862390 0.000000 
#    z 0.000000 0.000000 1.824870 
# 
# From -- ./inp_files/22441.got.cif
#   From: 2010.03.12/outbox.cif.g09.slc.cpg/sg57_12_cif.got.tgz:22441.got - 2010.04.16 15:48:40.
