data_PCOD8234371
_publ_section_title
;
Structure prediction by ZEFSAII (Michael W. Deem and Ramdas Pophale) SiO2 
 PCOD8234371
Probable space group: P B C M
;
_chemical_formula_sum "Si O2"
_cell_formula_units_Z 64
_cell_length_a 12.141629
_cell_length_b 14.467706
_cell_length_c 16.335976
_cell_angle_alpha 90.000000
_cell_angle_beta 90.000000
_cell_angle_gamma 90.000000
_cell_volume 2869.602354
_symmetry_space_group_name_H-M "P B C M"
_symmetry_group_IT_number 57
_symmetry_cell_setting 'orthorhombic'
loop_
_space_group_symop_operation_xyz
x,y,z
-x,-y,1/2+z
x,1/2-y,-z
-x,1/2+y,1/2-z
-x,-y,-z
x,y,1/2-z
-x,1/2+y,z
x,1/2-y,1/2+z
loop_
_atom_site_type_symbol
_atom_site_label
_atom_site_fract_x
_atom_site_fract_y
_atom_site_fract_z
Si Si1 0.294422 0.005746 0.014755
Si Si2 0.506744 0.292163 0.846098
Si Si3 0.103547 0.148015 0.010441
Si Si4 0.064569 0.628757 0.159027
Si Si5 0.565634 0.504740 0.161895
Si Si6 0.625912 0.618423 0.879796
Si Si7 0.120136 0.084759 0.660545
Si Si8 0.734328 0.314348 0.573302
O O1 0.186694 0.066385 0.034510
O O2 0.346024 0.965291 0.097877
O O3 0.380887 0.075086 0.970823
O O4 0.269563 0.920575 0.955762
O O5 0.524570 0.277090 0.750000
O O6 0.470659 0.394866 0.868004
O O7 0.411184 0.225008 0.879943
O O8 0.620802 0.273265 0.892372
O O9 0.016014 0.150995 0.083445
O O10 0.158597 0.250000 0.000000
O O11 0.055426 0.127299 0.918152
O O12 0.016271 0.653900 0.250000
O O13 0.099482 0.523076 0.158447
O O14 0.174140 0.689764 0.144573
O O15 0.624851 0.511322 0.250000
O O16 0.460927 0.438552 0.174177
O O17 0.749699 0.607162 0.846871
O O18 0.080969 0.124105 0.750000
O O19 0.774976 0.250000 0.500000
#
# Coordination Sequence:
#
# PCOD8234371 Si02
#       8
#     8   8   8   8   8   8   8   8
#     4  11  25  42  65  94 134 175 230 283 340 411
#     4  11  24  38  62  96 133 175 228 277 327 403
#     4  11  25  44  69 100 136 175 224 291 350 417
#     4  11  23  46  74  97 134 176 225 290 352 417
#     4  11  23  38  57  87 132 175 219 275 332 397
#     4  11  21  40  65  93 135 179 224 272 326 404
#     4  10  21  40  71 101 132 178 227 279 340 410
#     4  12  24  42  68  98 132 178 228 285 341 407
#
# _framework density 22.302741000000001
#
# number of rings (size 3 to 8) (size 9 to 14) (size 15 to 20)
#    0.000    1.000    3.750    3.375    5.250    3.000 
#    0.000    0.625    0.000    0.000    0.000    0.000 
#    0.000    0.000    0.000    0.000    0.000    0.000 
#
# Total GULP energy -793121.482639 kJ/mol
# GULP energy per Si atom -12392.523166 kJ/mol
# Density = 2.225198 g / cm^3
# Si number density = 22.302741 Si / 1000 Ang^3
#
#
#
# Elastic Constant Matrix: (Units=GPa)
#
#
# Indices 1 2 3 4 5 6 
#
# 1 74.5585 19.5499 40.4081 0.0000 0.0000 0.0000
# 2 19.5499 64.8640 0.7430 0.0000 0.0000 0.0000
# 3 40.4081 0.7430 170.4084 0.0000 0.0000 0.0000
# 4 0.0000 0.0000 0.0000 26.2416 0.0000 0.0000
# 5 0.0000 0.0000 0.0000 0.0000 94.0616 0.0000
# 6 0.0000 0.0000 0.0000 0.0000 0.0000 31.1339
#
#
#
# Elastic Compliance Matrix: (Units=1/GPa)
#
#
# Indices 1 2 3 4 5 6 
#
# 1 0.016895 -0.005046 -0.003984 0.000000 0.000000 0.000000
# 2 -0.005046 0.016925 0.001123 0.000000 0.000000 0.000000
# 3 -0.003984 0.001123 0.006808 0.000000 0.000000 0.000000
# 4 0.000000 0.000000 0.000000 0.038107 0.000000 0.000000
# 5 0.000000 0.000000 0.000000 0.000000 0.010631 0.000000
# 6 0.000000 0.000000 0.000000 0.000000 0.000000 0.032119
#
#
# Mechanical properties :
#
#
# Convention : Reuss Voigt Hill
#
# Bulk Modulus (GPa) = 40.30247 47.91476 44.10861
# Shear Modulus (GPa) = 34.34719 46.89608 40.62164
#
# Velocity S-wave (km/s) = 3.92860 4.59050 4.27239
# Velocity P-wave (km/s) = 6.22000 7.04467 6.64514
#
# Compressibility (1/GPa) = 0.02481238
#
# Stress axis : x y z
#
# Youngs Moduli (GPa) = 59.18979 59.08416 146.88362
#
# Poissons Ratio (x) = 0.29816 0.58521
# Poissons Ratio (y) = 0.29870 -0.16493
# Poissons Ratio (z) = 0.23582 -0.06634
#
# Static dielectric constant tensor:
#      x y z
#    x 3.699250 0.000000 0.000000 
#    y 0.000000 4.038990 0.000000 
#    z 0.000000 0.000000 4.480200 
# 
# 
# High freq. dielectric constant tensor:
#      x y z
#    x 1.849280 0.000000 0.000000 
#    y 0.000000 1.882800 0.000000 
#    z 0.000000 0.000000 1.898320 
# 
# From -- ./inp_files/22060.got.cif
#   From: 2010.03.12/outbox.cif.g09.slc.cpg/sg57_12_cif.got.tgz:22060.got - 2010.04.16 15:48:40.
