data_PCOD8234949
_publ_section_title
;
Structure prediction by ZEFSAII (Michael W. Deem and Ramdas Pophale) SiO2 
 PCOD8234949
Probable space group: P B C M
;
_chemical_formula_sum "Si O2"
_cell_formula_units_Z 48
_cell_length_a 9.883012
_cell_length_b 27.792725
_cell_length_c 8.706321
_cell_angle_alpha 90.000000
_cell_angle_beta 90.000000
_cell_angle_gamma 90.000000
_cell_volume 2391.415988
_symmetry_space_group_name_H-M "P B C M"
_symmetry_group_IT_number 57
_symmetry_cell_setting 'orthorhombic'
loop_
_space_group_symop_operation_xyz
x,y,z
-x,-y,1/2+z
x,1/2-y,-z
-x,1/2+y,1/2-z
-x,-y,-z
x,y,1/2-z
-x,1/2+y,z
x,1/2-y,1/2+z
loop_
_atom_site_type_symbol
_atom_site_label
_atom_site_fract_x
_atom_site_fract_y
_atom_site_fract_z
Si Si1 0.279176 0.607405 0.074732
Si Si2 0.778469 0.891354 0.427388
Si Si3 0.367494 0.799674 0.068452
Si Si4 0.043493 0.950026 0.072233
Si Si5 0.452240 0.451018 0.574043
Si Si6 0.337821 0.200439 0.068371
O O1 0.238921 0.617452 0.250000
O O2 0.431603 0.588668 0.061198
O O3 0.267841 0.657134 0.980208
O O4 0.180646 0.567416 0.006389
O O5 0.748701 0.880115 0.250000
O O6 0.930039 0.909625 0.453854
O O7 0.677973 0.932953 0.482744
O O8 0.762333 0.842798 0.525380
O O9 0.375715 0.795657 0.250000
O O10 0.308995 0.750000 0.000000
O O11 0.515578 0.810127 0.001680
O O12 0.072263 0.958853 0.250000
O O13 0.000000 0.000000 0.000000
O O14 0.500000 0.500000 0.500000
O O15 0.411419 0.460083 0.750000
O O16 0.351594 0.204701 0.250000
O O17 0.278014 0.250000 0.000000
#
# Coordination Sequence:
#
# PCOD8234949 Si02
#       6
#     8   8   8   8   8   8
#     4  11  23  40  61  89 122 159 205 252 302 362
#     4  11  23  40  61  88 121 158 203 252 302 362
#     4  11  21  36  61  91 125 161 199 248 303 360
#     4  11  25  43  63  88 121 164 209 251 307 368
#     4  11  23  37  58  87 119 153 199 253 305 362
#     4  11  21  36  60  91 124 159 199 246 303 362
#
# _framework density 20.071791000000001
#
# number of rings (size 3 to 8) (size 9 to 14) (size 15 to 20)
#    0.000    1.000    1.667    7.000    0.000    8.667 
#    0.000    0.833    0.000    4.000    0.000    0.000 
#    0.000    0.000    0.000    0.000    0.000    0.000 
#
# Total GULP energy -595510.995589 kJ/mol
# GULP energy per Si atom -12406.479075 kJ/mol
# Density = 2.002611 g / cm^3
# Si number density = 20.071791 Si / 1000 Ang^3
#
#
#
# Elastic Constant Matrix: (Units=GPa)
#
#
# Indices 1 2 3 4 5 6 
#
# 1 33.6873 -5.2934 27.2628 0.0000 0.0000 0.0000
# 2 -5.2934 114.0672 48.1720 0.0000 0.0000 0.0000
# 3 27.2628 48.1720 169.4009 0.0000 0.0000 0.0000
# 4 0.0000 0.0000 0.0000 42.5495 0.0000 0.0000
# 5 0.0000 0.0000 0.0000 0.0000 29.2932 0.0000
# 6 0.0000 0.0000 0.0000 0.0000 0.0000 31.6279
#
#
#
# Elastic Compliance Matrix: (Units=1/GPa)
#
#
# Indices 1 2 3 4 5 6 
#
# 1 0.036227 0.004709 -0.007169 0.000000 0.000000 0.000000
# 2 0.004709 0.010575 -0.003765 0.000000 0.000000 0.000000
# 3 -0.007169 -0.003765 0.008128 0.000000 0.000000 0.000000
# 4 0.000000 0.000000 0.000000 0.023502 0.000000 0.000000
# 5 0.000000 0.000000 0.000000 0.000000 0.034138 0.000000
# 6 0.000000 0.000000 0.000000 0.000000 0.000000 0.031618
#
#
# Mechanical properties :
#
#
# Convention : Reuss Voigt Hill
#
# Bulk Modulus (GPa) = 23.54133 50.82647 37.18390
# Shear Modulus (GPa) = 29.27446 37.16172 33.21809
#
# Velocity S-wave (km/s) = 3.82316 4.30750 4.07254
# Velocity P-wave (km/s) = 5.58952 7.07932 6.37807
#
# Compressibility (1/GPa) = 0.04247848
#
# Stress axis : x y z
#
# Youngs Moduli (GPa) = 27.60403 94.55981 123.03745
#
# Poissons Ratio (x) = -0.44526 0.88208
# Poissons Ratio (y) = -0.12998 0.46325
# Poissons Ratio (z) = 0.19790 0.35603
#
# Static dielectric constant tensor:
#      x y z
#    x 3.460450 0.000000 0.000000 
#    y 0.000000 3.876570 0.000000 
#    z 0.000000 0.000000 3.159450 
# 
# 
# High freq. dielectric constant tensor:
#      x y z
#    x 1.759340 0.000000 0.000000 
#    y 0.000000 1.802100 0.000000 
#    z 0.000000 0.000000 1.804500 
# 
# From -- ./inp_files/2136.got.cif
#   From: 2010.03.12/outbox.cif.g09.slc.cpg/sg57_2_cif.got.tgz:2136.got - 2010.04.16 15:48:40.
