data_PCOD8234513
_publ_section_title
;
Structure prediction by ZEFSAII (Michael W. Deem and Ramdas Pophale) SiO2 
 PCOD8234513
Probable space group: P B C M
;
_chemical_formula_sum "Si O2"
_cell_formula_units_Z 56
_cell_length_a 31.767507
_cell_length_b 5.122785
_cell_length_c 16.910178
_cell_angle_alpha 90.000000
_cell_angle_beta 90.000000
_cell_angle_gamma 90.000000
_cell_volume 2751.930380
_symmetry_space_group_name_H-M "P B C M"
_symmetry_group_IT_number 57
_symmetry_cell_setting 'orthorhombic'
loop_
_space_group_symop_operation_xyz
x,y,z
-x,-y,1/2+z
x,1/2-y,-z
-x,1/2+y,1/2-z
-x,-y,-z
x,y,1/2-z
-x,1/2+y,z
x,1/2-y,1/2+z
loop_
_atom_site_type_symbol
_atom_site_label
_atom_site_fract_x
_atom_site_fract_y
_atom_site_fract_z
Si Si1 0.168557 0.071049 0.343999
Si Si2 0.394438 0.505290 0.051545
Si Si3 0.024733 0.586726 0.155662
Si Si4 0.696423 0.161687 0.411583
Si Si5 0.736802 0.653486 0.341957
Si Si6 0.119703 0.571769 0.155520
Si Si7 0.473689 0.027139 0.842406
O O1 0.166996 0.069368 0.250000
O O2 0.145986 0.815139 0.378224
O O3 0.216746 0.078041 0.372405
O O4 0.142838 0.316391 0.377590
O O5 0.352672 0.592078 0.098284
O O6 0.429923 0.429021 0.113860
O O7 0.383766 0.250000 0.000000
O O8 0.410521 0.750000 0.000000
O O9 0.025532 0.585608 0.250000
O O10 0.072210 0.581419 0.122537
O O11 0.000943 0.840196 0.122970
O O12 0.707372 0.250000 0.500000
O O13 0.706476 0.405279 0.354641
O O14 0.723082 0.906826 0.390647
O O15 0.736460 0.729851 0.250000
O O16 0.119208 0.573835 0.250000
O O17 0.463739 0.039948 0.750000
O O18 0.494277 0.754416 0.867672
#
# Coordination Sequence:
#
# PCOD8234513 Si02
#       7
#     8   8   8   8   8   8   8
#     4   9  17  28  43  65  91 121 165 219 267 315
#     4  11  23  40  61  85 113 150 194 233 273 334
#     4   9  15  21  30  47  73 111 162 208 245 302
#     4  11  23  41  59  83 118 152 186 232 291 343
#     4  11  22  37  59  85 110 143 193 240 278 336
#     4   9  15  24  37  54  83 121 160 211 267 309
#     4  10  22  39  59  87 121 152 185 231 284 331
#
# _framework density 20.349350999999999
#
# number of rings (size 3 to 8) (size 9 to 14) (size 15 to 20)
#    0.000    2.000    0.000    5.143    0.000    8.571 
#    0.000    1.429    0.000    0.000    0.000    0.000 
#    0.000    0.000    0.000    0.000    0.000  180.000 
#
# Total GULP energy -694531.178620 kJ/mol
# GULP energy per Si atom -12402.342475 kJ/mol
# Density = 2.030303 g / cm^3
# Si number density = 20.349351 Si / 1000 Ang^3
#
#
#
# Elastic Constant Matrix: (Units=GPa)
#
#
# Indices 1 2 3 4 5 6 
#
# 1 151.2111 53.5693 42.9071 0.0000 0.0000 0.0000
# 2 53.5693 149.1253 20.6523 0.0000 0.0000 0.0000
# 3 42.9071 20.6523 26.8627 0.0000 0.0000 0.0000
# 4 0.0000 0.0000 0.0000 24.1360 0.0000 0.0000
# 5 0.0000 0.0000 0.0000 0.0000 1.4760 0.0000
# 6 0.0000 0.0000 0.0000 0.0000 0.0000 38.0268
#
#
#
# Elastic Compliance Matrix: (Units=1/GPa)
#
#
# Indices 1 2 3 4 5 6 
#
# 1 0.012579 -0.001943 -0.018598 0.000000 0.000000 0.000000
# 2 -0.001943 0.007805 -0.002897 0.000000 0.000000 0.000000
# 3 -0.018598 -0.002897 0.069160 0.000000 0.000000 0.000000
# 4 0.000000 0.000000 0.000000 0.041432 0.000000 0.000000
# 5 0.000000 0.000000 0.000000 0.000000 0.677489 0.000000
# 6 0.000000 0.000000 0.000000 0.000000 0.000000 0.026297
#
#
# Mechanical properties :
#
#
# Convention : Reuss Voigt Hill
#
# Bulk Modulus (GPa) = 23.43699 62.38406 42.91052
# Shear Modulus (GPa) = 5.58122 26.73246 16.15684
#
# Velocity S-wave (km/s) = 1.65791 3.62840 2.82081
# Velocity P-wave (km/s) = 3.89964 6.94815 5.63400
#
# Compressibility (1/GPa) = 0.04266760
#
# Stress axis : x y z
#
# Youngs Moduli (GPa) = 79.49742 128.12388 14.45913
#
# Poissons Ratio (x) = 0.24894 0.26892
# Poissons Ratio (y) = 0.15446 0.04189
# Poissons Ratio (z) = 1.47852 0.37118
#
# Static dielectric constant tensor:
#      x y z
#    x 3.798300 0.000000 0.000000 
#    y 0.000000 3.948320 0.000000 
#    z 0.000000 0.000000 3.186310 
# 
# 
# High freq. dielectric constant tensor:
#      x y z
#    x 1.808840 0.000000 0.000000 
#    y 0.000000 1.817720 0.000000 
#    z 0.000000 0.000000 1.743290 
# 
# From -- ./inp_files/19637.got.cif
#   From: 2010.03.12/outbox.cif.g09.slc.cpg/sg57_10_cif.got.tgz:19637.got - 2010.04.16 15:48:40.
