data_PCOD8234656
_publ_section_title
;
Structure prediction by ZEFSAII (Michael W. Deem and Ramdas Pophale) SiO2 
 PCOD8234656
Probable space group: P B C M
;
_chemical_formula_sum "Si O2"
_cell_formula_units_Z 64
_cell_length_a 11.920334
_cell_length_b 19.063103
_cell_length_c 13.851521
_cell_angle_alpha 90.000000
_cell_angle_beta 90.000000
_cell_angle_gamma 90.000000
_cell_volume 3147.599614
_symmetry_space_group_name_H-M "P B C M"
_symmetry_group_IT_number 57
_symmetry_cell_setting 'orthorhombic'
loop_
_space_group_symop_operation_xyz
x,y,z
-x,-y,1/2+z
x,1/2-y,-z
-x,1/2+y,1/2-z
-x,-y,-z
x,y,1/2-z
-x,1/2+y,z
x,1/2-y,1/2+z
loop_
_atom_site_type_symbol
_atom_site_label
_atom_site_fract_x
_atom_site_fract_y
_atom_site_fract_z
Si Si1 0.231856 0.749986 0.613952
Si Si2 0.008998 0.918697 0.973782
Si Si3 0.761362 0.405503 0.858335
Si Si4 0.848411 0.680239 0.135412
Si Si5 0.997421 0.690131 0.856178
Si Si6 0.544833 0.074360 0.472722
Si Si7 0.407200 0.314157 0.636097
Si Si8 0.544479 0.319990 0.143102
O O1 0.222861 0.750000 0.500000
O O2 0.271088 0.824665 0.653407
O O3 0.113677 0.730181 0.658774
O O4 0.324658 0.697007 0.651338
O O5 0.119175 0.909943 0.909894
O O6 0.903989 0.888571 0.913288
O O7 0.013709 0.875347 0.073250
O O8 0.000000 0.000000 0.000000
O O9 0.764091 0.439418 0.750000
O O10 0.667687 0.439586 0.927287
O O11 0.857493 0.670297 0.250000
O O12 0.720696 0.686052 0.098804
O O13 0.909159 0.752619 0.103126
O O14 0.958735 0.662769 0.750000
O O15 0.466993 0.114635 0.396766
O O16 0.538673 0.114867 0.573093
O O17 0.500000 0.000000 0.500000
O O18 0.410510 0.313682 0.750000
O O19 0.472586 0.244754 0.598567
O O20 0.499728 0.340619 0.250000
#
# Coordination Sequence:
#
# PCOD8234656 Si02
#       8
#     8   8   8   8   8   8   8   8
#     4  12  18  37  69  96 121 151 202 266 319 360
#     4  12  26  41  64  92 133 169 209 256 322 384
#     4  12  24  43  68  95 125 164 213 264 322 383
#     4  10  22  42  67  91 120 166 219 266 315 374
#     4  11  22  39  64  94 124 161 210 264 312 369
#     4  12  26  41  64  92 133 169 209 256 322 384
#     4  10  22  42  67  91 120 166 219 266 315 374
#     4  11  22  39  64  94 124 161 210 264 312 369
#
# _framework density 20.332953
#
# number of rings (size 3 to 8) (size 9 to 14) (size 15 to 20)
#    0.000    0.750    5.000    2.625    1.750    4.000 
#    0.000    0.000    0.000    0.000    0.000    0.000 
#    0.000    0.000    0.000    0.000    0.000    0.000 
#
# Total GULP energy -793556.758160 kJ/mol
# GULP energy per Si atom -12399.324346 kJ/mol
# Density = 2.028667 g / cm^3
# Si number density = 20.332953 Si / 1000 Ang^3
#
#
#
# Elastic Constant Matrix: (Units=GPa)
#
#
# Indices 1 2 3 4 5 6 
#
# 1 116.6020 17.5344 26.4036 0.0000 0.0000 0.0000
# 2 17.5344 94.1054 38.5523 0.0000 0.0000 0.0000
# 3 26.4036 38.5523 108.7645 0.0000 0.0000 0.0000
# 4 0.0000 0.0000 0.0000 5.7934 0.0000 0.0000
# 5 0.0000 0.0000 0.0000 0.0000 26.0083 0.0000
# 6 0.0000 0.0000 0.0000 0.0000 0.0000 21.6227
#
#
#
# Elastic Compliance Matrix: (Units=1/GPa)
#
#
# Indices 1 2 3 4 5 6 
#
# 1 0.009144 -0.000929 -0.001890 0.000000 0.000000 0.000000
# 2 -0.000929 0.012526 -0.004214 0.000000 0.000000 0.000000
# 3 -0.001890 -0.004214 0.011147 0.000000 0.000000 0.000000
# 4 0.000000 0.000000 0.000000 0.172610 0.000000 0.000000
# 5 0.000000 0.000000 0.000000 0.000000 0.038449 0.000000
# 6 0.000000 0.000000 0.000000 0.000000 0.000000 0.046248
#
#
# Mechanical properties :
#
#
# Convention : Reuss Voigt Hill
#
# Bulk Modulus (GPa) = 53.33670 53.82804 53.58237
# Shear Modulus (GPa) = 16.10611 26.48365 21.29488
#
# Velocity S-wave (km/s) = 2.81751 3.61293 3.23973
# Velocity P-wave (km/s) = 6.07232 6.62836 6.35642
#
# Compressibility (1/GPa) = 0.01874882
#
# Stress axis : x y z
#
# Youngs Moduli (GPa) = 109.36136 79.83372 89.71115
#
# Poissons Ratio (x) = 0.07419 0.16959
# Poissons Ratio (y) = 0.10163 0.37807
# Poissons Ratio (z) = 0.20673 0.33645
#
# Static dielectric constant tensor:
#      x y z
#    x 3.948460 0.000000 0.000000 
#    y 0.000000 3.656930 0.000000 
#    z 0.000000 0.000000 3.777840 
# 
# 
# High freq. dielectric constant tensor:
#      x y z
#    x 1.803340 0.000000 0.000000 
#    y 0.000000 1.767450 0.000000 
#    z 0.000000 0.000000 1.818660 
# 
# From -- ./inp_files/17978.got.cif
#   From: 2010.03.12/outbox.cif.g09.slc.cpg/sg57_9_cif.got.tgz:17978.got - 2010.04.16 15:48:40.
