data_PCOD8234402
_publ_section_title
;
Structure prediction by ZEFSAII (Michael W. Deem and Ramdas Pophale) SiO2 
 PCOD8234402
Probable space group: P B C M
;
_chemical_formula_sum "Si O2"
_cell_formula_units_Z 40
_cell_length_a 7.662570
_cell_length_b 17.973936
_cell_length_c 13.470961
_cell_angle_alpha 90.000000
_cell_angle_beta 90.000000
_cell_angle_gamma 90.000000
_cell_volume 1855.308886
_symmetry_space_group_name_H-M "P B C M"
_symmetry_group_IT_number 57
_symmetry_cell_setting 'orthorhombic'
loop_
_space_group_symop_operation_xyz
x,y,z
-x,-y,1/2+z
x,1/2-y,-z
-x,1/2+y,1/2-z
-x,-y,-z
x,y,1/2-z
-x,1/2+y,z
x,1/2-y,1/2+z
loop_
_atom_site_type_symbol
_atom_site_label
_atom_site_fract_x
_atom_site_fract_y
_atom_site_fract_z
Si Si1 0.981738 0.197404 0.864243
Si Si2 0.288661 0.102562 0.554562
Si Si3 0.761426 0.442163 0.862169
Si Si4 0.640103 0.333912 0.481097
Si Si5 0.892348 0.858496 0.861533
O O1 0.928217 0.199109 0.750000
O O2 0.821697 0.160342 0.922415
O O3 0.017472 0.281955 0.900617
O O4 0.152241 0.147284 0.878308
O O5 0.484399 0.128184 0.582036
O O6 0.259703 0.118960 0.437338
O O7 0.270200 0.015750 0.574498
O O8 0.691441 0.451585 0.750000
O O9 0.966756 0.424304 0.861493
O O10 0.657169 0.375164 0.913468
O O11 0.582395 0.250000 0.500000
O O12 0.815823 0.847226 0.750000
#
# Coordination Sequence:
#
# PCOD8234402 Si02
#       5
#     8   8   8   8   8
#     4  11  23  42  67  97 134 173 219 271 321 384
#     4  12  24  43  67 100 132 168 219 275 325 386
#     4  11  24  44  66  95 136 173 212 270 332 387
#     4  12  24  42  70  95 128 175 220 266 323 388
#     4  10  21  41  68  94 129 175 216 262 325 387
#
# _framework density 21.559753000000001
#
# number of rings (size 3 to 8) (size 9 to 14) (size 15 to 20)
#    0.000    0.800    4.000    3.600    0.000    2.400 
#    0.000    0.000    0.000    0.000    0.000    0.000 
#    0.000    0.000    0.000    0.000    0.000    0.000 
#
# Total GULP energy -496216.282638 kJ/mol
# GULP energy per Si atom -12405.407066 kJ/mol
# Density = 2.151068 g / cm^3
# Si number density = 21.559753 Si / 1000 Ang^3
#
#
#
# Elastic Constant Matrix: (Units=GPa)
#
#
# Indices 1 2 3 4 5 6 
#
# 1 100.5091 34.7200 41.0045 0.0000 0.0000 0.0000
# 2 34.7200 135.4707 60.3170 0.0000 0.0000 0.0000
# 3 41.0045 60.3170 112.0580 0.0000 0.0000 0.0000
# 4 0.0000 0.0000 0.0000 37.9204 0.0000 0.0000
# 5 0.0000 0.0000 0.0000 0.0000 11.7825 0.0000
# 6 0.0000 0.0000 0.0000 0.0000 0.0000 9.5058
#
#
#
# Elastic Compliance Matrix: (Units=1/GPa)
#
#
# Indices 1 2 3 4 5 6 
#
# 1 0.011912 -0.001463 -0.003571 0.000000 0.000000 0.000000
# 2 -0.001463 0.009888 -0.004787 0.000000 0.000000 0.000000
# 3 -0.003571 -0.004787 0.012808 0.000000 0.000000 0.000000
# 4 0.000000 0.000000 0.000000 0.026371 0.000000 0.000000
# 5 0.000000 0.000000 0.000000 0.000000 0.084872 0.000000
# 6 0.000000 0.000000 0.000000 0.000000 0.000000 0.105199
#
#
# Mechanical properties :
#
#
# Convention : Reuss Voigt Hill
#
# Bulk Modulus (GPa) = 66.82399 68.90231 67.86315
# Shear Modulus (GPa) = 18.13700 25.97483 22.05592
#
# Velocity S-wave (km/s) = 2.90357 3.47476 3.20193
# Velocity P-wave (km/s) = 6.50408 6.93735 6.72420
#
# Compressibility (1/GPa) = 0.01496469
#
# Stress axis : x y z
#
# Youngs Moduli (GPa) = 83.95140 101.13301 78.07892
#
# Poissons Ratio (x) = 0.14793 0.27885
# Poissons Ratio (y) = 0.12280 0.37377
# Poissons Ratio (z) = 0.29982 0.48414
#
# Static dielectric constant tensor:
#      x y z
#    x 3.719940 0.000000 0.000000 
#    y 0.000000 3.907890 0.000000 
#    z 0.000000 0.000000 3.961620 
# 
# 
# High freq. dielectric constant tensor:
#      x y z
#    x 1.836340 0.000000 0.000000 
#    y 0.000000 1.853850 0.000000 
#    z 0.000000 0.000000 1.851690 
# 
# From -- ./inp_files/16110.got.cif
#   From: 2010.03.12/outbox.cif.g09.slc.cpg/sg57_9_cif.got.tgz:16110.got - 2010.04.16 15:48:40.
