data_PCOD8234774
_publ_section_title
;
Structure prediction by ZEFSAII (Michael W. Deem and Ramdas Pophale) SiO2 
 PCOD8234774
Probable space group: P B C M
;
_chemical_formula_sum "Si O2"
_cell_formula_units_Z 32
_cell_length_a 19.899193
_cell_length_b 5.037029
_cell_length_c 14.042328
_cell_angle_alpha 90.000000
_cell_angle_beta 90.000000
_cell_angle_gamma 90.000000
_cell_volume 1407.502026
_symmetry_space_group_name_H-M "P B C M"
_symmetry_group_IT_number 57
_symmetry_cell_setting 'orthorhombic'
loop_
_space_group_symop_operation_xyz
x,y,z
-x,-y,1/2+z
x,1/2-y,-z
-x,1/2+y,1/2-z
-x,-y,-z
x,y,1/2-z
-x,1/2+y,z
x,1/2-y,1/2+z
loop_
_atom_site_type_symbol
_atom_site_label
_atom_site_fract_x
_atom_site_fract_y
_atom_site_fract_z
Si Si1 0.044426 0.357260 0.250000
Si Si2 0.243324 0.645140 0.643703
Si Si3 0.454767 0.929589 0.641737
Si Si4 0.351528 0.750000 0.000000
Si Si5 0.157841 0.347781 0.103272
O O1 0.089242 0.411282 0.157499
O O2 0.981854 0.556613 0.250000
O O3 0.267862 0.724027 0.750000
O O4 0.306382 0.582349 0.574764
O O5 0.198951 0.382896 0.655364
O O6 0.202065 0.886974 0.597329
O O7 0.426630 0.952617 0.750000
O O8 0.488815 0.646790 0.623139
O O9 0.395112 0.954322 0.564474
O O10 0.136780 0.250000 0.000000
#
# Coordination Sequence:
#
# PCOD8234774 Si02
#       5
#     4   8   8   4   8
#     4  12  26  44  74 100 136 178 226 274 332 398
#     4  12  24  42  67  98 137 178 216 277 339 405
#     4  10  23  43  64  92 133 176 222 284 335 389
#     4  12  24  40  68 102 128 174 240 262 348 400
#     4  12  24  46  69  99 135 177 220 274 334 395
#
# _framework density 22.735313999999999
#
# number of rings (size 3 to 8) (size 9 to 14) (size 15 to 20)
#    0.000    0.500    5.000    3.000    0.000    5.000 
#    0.000    5.000    0.000    0.000    0.000    0.000 
#    0.000    0.000    0.000    0.000    0.000    0.000 
#
# Total GULP energy -396931.689125 kJ/mol
# GULP energy per Si atom -12404.115285 kJ/mol
# Density = 2.268357 g / cm^3
# Si number density = 22.735314 Si / 1000 Ang^3
#
#
#
# Elastic Constant Matrix: (Units=GPa)
#
#
# Indices 1 2 3 4 5 6 
#
# 1 107.2816 23.4820 70.4591 0.0000 0.0000 0.0000
# 2 23.4820 94.1017 14.0880 0.0000 0.0000 0.0000
# 3 70.4591 14.0880 165.9305 0.0000 0.0000 0.0000
# 4 0.0000 0.0000 0.0000 25.6851 0.0000 0.0000
# 5 0.0000 0.0000 0.0000 0.0000 31.0998 0.0000
# 6 0.0000 0.0000 0.0000 0.0000 0.0000 10.6165
#
#
#
# Elastic Compliance Matrix: (Units=1/GPa)
#
#
# Indices 1 2 3 4 5 6 
#
# 1 0.013501 -0.002543 -0.005517 0.000000 0.000000 0.000000
# 2 -0.002543 0.011243 0.000125 0.000000 0.000000 0.000000
# 3 -0.005517 0.000125 0.008359 0.000000 0.000000 0.000000
# 4 0.000000 0.000000 0.000000 0.038933 0.000000 0.000000
# 5 0.000000 0.000000 0.000000 0.000000 0.032155 0.000000
# 6 0.000000 0.000000 0.000000 0.000000 0.000000 0.094193
#
#
# Mechanical properties :
#
#
# Convention : Reuss Voigt Hill
#
# Bulk Modulus (GPa) = 58.02866 64.81911 61.42389
# Shear Modulus (GPa) = 22.72746 30.76591 26.74669
#
# Velocity S-wave (km/s) = 3.16516 3.68261 3.43365
# Velocity P-wave (km/s) = 6.23992 6.83040 6.54183
#
# Compressibility (1/GPa) = 0.01723286
#
# Stress axis : x y z
#
# Youngs Moduli (GPa) = 74.06619 88.94703 119.63517
#
# Poissons Ratio (x) = 0.22621 0.66005
# Poissons Ratio (y) = 0.18836 -0.01500
# Poissons Ratio (z) = 0.40864 -0.01115
#
# Static dielectric constant tensor:
#      x y z
#    x 3.944460 0.000000 0.000000 
#    y 0.000000 3.916630 0.000000 
#    z 0.000000 0.000000 4.402160 
# 
# 
# High freq. dielectric constant tensor:
#      x y z
#    x 1.886090 0.000000 0.000000 
#    y 0.000000 1.889840 0.000000 
#    z 0.000000 0.000000 1.927170 
# 
# From -- ./inp_files/18831.got.cif
#   From: 2010.03.12/outbox.cif.g09.slc.cpg/sg57_10_cif.got.tgz:18831.got - 2010.04.16 15:48:40.
