data_PCOD8234515
_publ_section_title
;
Structure prediction by ZEFSAII (Michael W. Deem and Ramdas Pophale) SiO2 
 PCOD8234515
Probable space group: P B C M
;
_chemical_formula_sum "Si O2"
_cell_formula_units_Z 64
_cell_length_a 5.175540
_cell_length_b 27.798996
_cell_length_c 19.928068
_cell_angle_alpha 90.000000
_cell_angle_beta 90.000000
_cell_angle_gamma 90.000000
_cell_volume 2867.147112
_symmetry_space_group_name_H-M "P B C M"
_symmetry_group_IT_number 57
_symmetry_cell_setting 'orthorhombic'
loop_
_space_group_symop_operation_xyz
x,y,z
-x,-y,1/2+z
x,1/2-y,-z
-x,1/2+y,1/2-z
-x,-y,-z
x,y,1/2-z
-x,1/2+y,z
x,1/2-y,1/2+z
loop_
_atom_site_type_symbol
_atom_site_label
_atom_site_fract_x
_atom_site_fract_y
_atom_site_fract_z
Si Si1 0.188041 0.999368 0.592791
Si Si2 0.377071 0.208474 0.562062
Si Si3 0.291313 0.626522 0.610310
Si Si4 0.679776 0.286891 0.881755
Si Si5 0.674107 0.474628 0.329166
Si Si6 0.012865 0.787744 0.176875
Si Si7 0.040506 0.079347 0.003375
Si Si8 0.196765 0.330904 0.572668
O O1 0.150983 0.950530 0.551419
O O2 0.947701 0.008701 0.641970
O O3 0.219638 0.043203 0.539687
O O4 0.447821 0.994263 0.636196
O O5 0.456338 0.154325 0.583489
O O6 0.621679 0.244969 0.562285
O O7 0.184218 0.229453 0.619085
O O8 0.249763 0.206317 0.488641
O O9 0.379973 0.581059 0.653992
O O10 0.128267 0.660380 0.659562
O O11 0.126089 0.612886 0.545357
O O12 0.769393 0.254746 0.817977
O O13 0.906744 0.323208 0.902303
O O14 0.421808 0.320025 0.871912
O O15 0.668664 0.483353 0.250000
O O16 0.879640 0.791882 0.250000
O O17 0.220670 0.113811 0.048602
#
# Coordination Sequence:
#
# PCOD8234515 Si02
#       8
#     8   8   8   8   8   8   8   8
#     4  10  24  42  66  97 132 173 207 268 347 389
#     4  11  23  37  63  93 132 168 204 264 320 379
#     4  10  22  39  60 102 129 171 209 260 326 394
#     4  11  26  39  61  92 126 169 213 259 313 367
#     4  11  23  41  65  94 131 172 219 258 312 403
#     4  11  24  43  61  91 135 178 213 256 319 392
#     4  10  22  42  66  98 136 162 214 277 337 395
#     4  12  23  38  64  93 126 160 217 269 316 369
#
# _framework density 22.321840999999999
#
# number of rings (size 3 to 8) (size 9 to 14) (size 15 to 20)
#    0.000    1.250    2.500    2.625    5.250   10.000 
#    0.000    0.000    0.000    4.500    0.000    0.000 
#    0.000    0.000    0.000    0.000    0.000    0.000 
#
# Total GULP energy -793369.892187 kJ/mol
# GULP energy per Si atom -12396.404565 kJ/mol
# Density = 2.227104 g / cm^3
# Si number density = 22.321841 Si / 1000 Ang^3
#
#
#
# Elastic Constant Matrix: (Units=GPa)
#
#
# Indices 1 2 3 4 5 6 
#
# 1 85.9931 12.7668 14.7999 0.0000 0.0000 0.0000
# 2 12.7668 75.6663 18.0966 0.0000 0.0000 0.0000
# 3 14.7999 18.0966 92.4608 0.0000 0.0000 0.0000
# 4 0.0000 0.0000 0.0000 18.3153 0.0000 0.0000
# 5 0.0000 0.0000 0.0000 0.0000 21.9965 0.0000
# 6 0.0000 0.0000 0.0000 0.0000 0.0000 24.7906
#
#
#
# Elastic Compliance Matrix: (Units=1/GPa)
#
#
# Indices 1 2 3 4 5 6 
#
# 1 0.012155 -0.001663 -0.001620 0.000000 0.000000 0.000000
# 2 -0.001663 0.014093 -0.002492 0.000000 0.000000 0.000000
# 3 -0.001620 -0.002492 0.011562 0.000000 0.000000 0.000000
# 4 0.000000 0.000000 0.000000 0.054599 0.000000 0.000000
# 5 0.000000 0.000000 0.000000 0.000000 0.045462 0.000000
# 6 0.000000 0.000000 0.000000 0.000000 0.000000 0.040338
#
#
# Mechanical properties :
#
#
# Convention : Reuss Voigt Hill
#
# Bulk Modulus (GPa) = 38.08224 38.38299 38.23262
# Shear Modulus (GPa) = 25.18741 26.91762 26.05252
#
# Velocity S-wave (km/s) = 3.36277 3.47636 3.42004
# Velocity P-wave (km/s) = 5.67232 5.77460 5.72369
#
# Compressibility (1/GPa) = 0.02625896
#
# Stress axis : x y z
#
# Youngs Moduli (GPa) = 82.27344 70.95948 86.48701
#
# Poissons Ratio (x) = 0.11803 0.14011
# Poissons Ratio (y) = 0.13685 0.21552
# Poissons Ratio (z) = 0.13328 0.17683
#
# Static dielectric constant tensor:
#      x y z
#    x 4.051170 0.000000 0.000000 
#    y 0.000000 4.130450 0.000000 
#    z 0.000000 0.000000 3.789830 
# 
# 
# High freq. dielectric constant tensor:
#      x y z
#    x 1.881290 0.000000 0.000000 
#    y 0.000000 1.884300 0.000000 
#    z 0.000000 0.000000 1.851240 
# 
# From -- ./inp_files/23865.got.cif
#   From: 2010.03.12/outbox.cif.g09.slc.cpg/sg57_12_cif.got.tgz:23865.got - 2010.04.16 15:48:40.
