data_PCOD8234967
_publ_section_title
;
Structure prediction by ZEFSAII (Michael W. Deem and Ramdas Pophale) SiO2 
 PCOD8234967
Probable space group: P B C M
;
_chemical_formula_sum "Si O2"
_cell_formula_units_Z 64
_cell_length_a 19.978301
_cell_length_b 22.695887
_cell_length_c 9.455239
_cell_angle_alpha 90.000000
_cell_angle_beta 90.000000
_cell_angle_gamma 90.000000
_cell_volume 4287.244220
_symmetry_space_group_name_H-M "P B C M"
_symmetry_group_IT_number 57
_symmetry_cell_setting 'orthorhombic'
loop_
_space_group_symop_operation_xyz
x,y,z
-x,-y,1/2+z
x,1/2-y,-z
-x,1/2+y,1/2-z
-x,-y,-z
x,y,1/2-z
-x,1/2+y,z
x,1/2-y,1/2+z
loop_
_atom_site_type_symbol
_atom_site_label
_atom_site_fract_x
_atom_site_fract_y
_atom_site_fract_z
Si Si1 0.012900 0.059068 0.085765
Si Si2 0.784020 0.309736 0.083654
Si Si3 0.315193 0.889328 0.916347
Si Si4 0.719171 0.977672 0.084085
Si Si5 0.844140 0.972731 0.910394
Si Si6 0.460998 0.580541 0.405815
Si Si7 0.576590 0.944291 0.406774
Si Si8 0.099215 0.900568 0.412532
O O1 0.992553 0.051679 0.250000
O O2 0.092604 0.071912 0.073165
O O3 0.966607 0.108990 0.011874
O O4 0.000000 0.000000 0.000000
O O5 0.770218 0.298907 0.250000
O O6 0.850924 0.347166 0.060059
O O7 0.796170 0.250000 0.000000
O O8 0.720558 0.341983 0.015127
O O9 0.304504 0.875414 0.750000
O O10 0.393878 0.886278 0.957156
O O11 0.286272 0.953452 0.953738
O O12 0.727766 0.968897 0.250000
O O13 0.652372 0.943173 0.031903
O O14 0.783422 0.949965 0.006941
O O15 0.818242 0.973638 0.750000
O O16 0.864795 0.038693 0.956640
O O17 0.479864 0.602809 0.250000
O O18 0.525189 0.595048 0.502553
O O19 0.446901 0.511410 0.402455
O O20 0.575706 0.917355 0.250000
O O21 0.075638 0.903739 0.250000
#
# Coordination Sequence:
#
# PCOD8234967 Si02
#       8
#     8   8   8   8   8   8   8   8
#     4   9  17  27  40  58  79 102 131 165 201 242
#     4  11  22  34  46  61  80 103 136 176 215 252
#     4   9  17  29  42  57  76 101 135 171 206 243
#     4   9  16  24  37  56  79 107 136 165 197 235
#     4   9  16  26  38  57  81 103 132 167 199 237
#     4   8  14  24  37  52  72  98 130 164 196 232
#     4   8  14  23  33  51  76 100 130 163 191 226
#     4   9  18  31  43  57  77 100 132 171 206 245
#
# _framework density 14.928004
#
# number of rings (size 3 to 8) (size 9 to 14) (size 15 to 20)
#    0.000    3.000    1.250    3.000    0.000    4.500 
#    0.000    2.500    0.000    0.000    0.000    0.000 
#    0.000    0.000    0.000    1.125    0.000   18.000 
#
# Total GULP energy -793093.579298 kJ/mol
# GULP energy per Si atom -12392.087177 kJ/mol
# Density = 1.489403 g / cm^3
# Si number density = 14.928004 Si / 1000 Ang^3
#
#
#
# Elastic Constant Matrix: (Units=GPa)
#
#
# Indices 1 2 3 4 5 6 
#
# 1 130.3258 30.5611 71.7221 0.0000 0.0000 0.0000
# 2 30.5611 31.4418 27.2462 0.0000 0.0000 0.0000
# 3 71.7221 27.2462 84.5534 0.0000 0.0000 0.0000
# 4 0.0000 0.0000 0.0000 15.4719 0.0000 0.0000
# 5 0.0000 0.0000 0.0000 0.0000 33.9165 0.0000
# 6 0.0000 0.0000 0.0000 0.0000 0.0000 12.4669
#
#
#
# Elastic Compliance Matrix: (Units=1/GPa)
#
#
# Indices 1 2 3 4 5 6 
#
# 1 0.014917 -0.004903 -0.011073 0.000000 0.000000 0.000000
# 2 -0.004903 0.045738 -0.010579 0.000000 0.000000 0.000000
# 3 -0.011073 -0.010579 0.024628 0.000000 0.000000 0.000000
# 4 0.000000 0.000000 0.000000 0.064633 0.000000 0.000000
# 5 0.000000 0.000000 0.000000 0.000000 0.029484 0.000000
# 6 0.000000 0.000000 0.000000 0.000000 0.000000 0.080212
#
#
# Mechanical properties :
#
#
# Convention : Reuss Voigt Hill
#
# Bulk Modulus (GPa) = 31.08271 56.15331 43.61801
# Shear Modulus (GPa) = 15.45841 20.15719 17.80780
#
# Velocity S-wave (km/s) = 3.22146 3.67862 3.45760
# Velocity P-wave (km/s) = 5.89101 7.46597 6.72476
#
# Compressibility (1/GPa) = 0.03217223
#
# Stress axis : x y z
#
# Youngs Moduli (GPa) = 67.03886 21.86347 40.60338
#
# Poissons Ratio (x) = 0.10721 0.44960
# Poissons Ratio (y) = 0.32872 0.42955
# Poissons Ratio (z) = 0.74232 0.23130
#
# Static dielectric constant tensor:
#      x y z
#    x 3.214360 0.000000 0.000000 
#    y 0.000000 2.382830 0.000000 
#    z 0.000000 0.000000 3.068150 
# 
# 
# High freq. dielectric constant tensor:
#      x y z
#    x 1.583300 0.000000 0.000000 
#    y 0.000000 1.493820 0.000000 
#    z 0.000000 0.000000 1.580420 
# 
# From -- ./inp_files/8807.got.cif
#   From: 2010.03.12/outbox.cif.g09.slc.cpg/sg57_5_cif.got.tgz:8807.got - 2010.04.16 15:48:40.
