data_PCOD8234435
_publ_section_title
;
Structure prediction by ZEFSAII (Michael W. Deem and Ramdas Pophale) SiO2 
 PCOD8234435
Probable space group: P B C M
;
_chemical_formula_sum "Si O2"
_cell_formula_units_Z 40
_cell_length_a 10.848368
_cell_length_b 8.067941
_cell_length_c 18.973541
_cell_angle_alpha 90.000000
_cell_angle_beta 90.000000
_cell_angle_gamma 90.000000
_cell_volume 1660.640069
_symmetry_space_group_name_H-M "P B C M"
_symmetry_group_IT_number 57
_symmetry_cell_setting 'orthorhombic'
loop_
_space_group_symop_operation_xyz
x,y,z
-x,-y,1/2+z
x,1/2-y,-z
-x,1/2+y,1/2-z
-x,-y,-z
x,y,1/2-z
-x,1/2+y,z
x,1/2-y,1/2+z
loop_
_atom_site_type_symbol
_atom_site_label
_atom_site_fract_x
_atom_site_fract_y
_atom_site_fract_z
Si Si1 0.142244 0.991702 0.015666
Si Si2 0.684812 0.842959 0.606818
Si Si3 0.176695 0.179029 0.250000
Si Si4 0.780399 0.186071 0.112154
Si Si5 0.454964 0.826629 0.077182
Si Si6 0.907234 0.441472 0.750000
O O1 0.163058 0.843959 0.071346
O O2 0.198819 0.157172 0.052675
O O3 0.209643 0.969956 0.940635
O O4 0.000000 0.000000 0.000000
O O5 0.737398 0.866361 0.684458
O O6 0.598111 0.680196 0.602145
O O7 0.587948 0.983358 0.580490
O O8 0.137240 0.370007 0.250000
O O9 0.055680 0.063431 0.250000
O O10 0.637012 0.223637 0.129393
O O11 0.856889 0.153940 0.182243
O O12 0.434404 0.750000 0.000000
#
# Coordination Sequence:
#
# PCOD8234435 Si02
#       6
#     8   8   4   8   8   4
#     4  10  21  43  73 108 148 193 261 316 379 451
#     4  11  26  46  75 108 156 197 260 312 395 454
#     4  12  32  51  71 110 146 209 260 316 394 475
#     4  10  23  44  71 105 146 204 243 321 383 449
#     4  11  23  46  75 108 151 190 252 319 382 464
#     4  12  30  49  75 102 156 197 266 314 398 467
#
# _framework density 24.087098999999998
#
# number of rings (size 3 to 8) (size 9 to 14) (size 15 to 20)
#    0.000    1.200    4.000    1.800   11.200    1.600 
#    3.600    0.000    0.000    0.000    0.000    0.000 
#    0.000    0.000    0.000    0.000    0.000    0.000 
#
# Total GULP energy -495811.546011 kJ/mol
# GULP energy per Si atom -12395.288650 kJ/mol
# Density = 2.403228 g / cm^3
# Si number density = 24.087099 Si / 1000 Ang^3
#
#
#
# Elastic Constant Matrix: (Units=GPa)
#
#
# Indices 1 2 3 4 5 6 
#
# 1 186.9423 23.5029 52.8529 0.0000 0.0000 0.0000
# 2 23.5029 34.9947 22.1555 0.0000 0.0000 0.0000
# 3 52.8529 22.1555 155.2927 0.0000 0.0000 0.0000
# 4 0.0000 0.0000 0.0000 20.5882 0.0000 0.0000
# 5 0.0000 0.0000 0.0000 0.0000 42.5539 0.0000
# 6 0.0000 0.0000 0.0000 0.0000 0.0000 37.0105
#
#
#
# Elastic Compliance Matrix: (Units=1/GPa)
#
#
# Indices 1 2 3 4 5 6 
#
# 1 0.006213 -0.003115 -0.001670 0.000000 0.000000 0.000000
# 2 -0.003115 0.032975 -0.003644 0.000000 0.000000 0.000000
# 3 -0.001670 -0.003644 0.007528 0.000000 0.000000 0.000000
# 4 0.000000 0.000000 0.000000 0.048571 0.000000 0.000000
# 5 0.000000 0.000000 0.000000 0.000000 0.023500 0.000000
# 6 0.000000 0.000000 0.000000 0.000000 0.000000 0.027019
#
#
# Mechanical properties :
#
#
# Convention : Reuss Voigt Hill
#
# Bulk Modulus (GPa) = 33.49339 63.80582 48.64961
# Shear Modulus (GPa) = 28.96562 38.61176 33.78869
#
# Velocity S-wave (km/s) = 3.47152 4.00810 3.74942
# Velocity P-wave (km/s) = 5.47758 6.92582 6.24383
#
# Compressibility (1/GPa) = 0.02985663
#
# Stress axis : x y z
#
# Youngs Moduli (GPa) = 160.95011 30.32570 132.84119
#
# Poissons Ratio (x) = 0.09448 0.22186
# Poissons Ratio (y) = 0.50143 0.48411
# Poissons Ratio (z) = 0.26881 0.11051
#
# Static dielectric constant tensor:
#      x y z
#    x 4.835290 0.000000 0.000000 
#    y 0.000000 4.589290 0.000000 
#    z 0.000000 0.000000 4.416460 
# 
# 
# High freq. dielectric constant tensor:
#      x y z
#    x 1.976630 0.000000 0.000000 
#    y 0.000000 1.960970 0.000000 
#    z 0.000000 0.000000 1.943100 
# 
# From -- ./inp_files/21635.got.cif
#   From: 2010.03.12/outbox.cif.g09.slc.cpg/sg57_11_cif.got.tgz:21635.got - 2010.04.16 15:48:40.
