data_PCOD8234171
_publ_section_title
;
Structure prediction by ZEFSAII (Michael W. Deem and Ramdas Pophale) SiO2 
 PCOD8234171
Probable space group: P B C M
;
_chemical_formula_sum "Si O2"
_cell_formula_units_Z 56
_cell_length_a 14.594327
_cell_length_b 22.189872
_cell_length_c 8.550162
_cell_angle_alpha 90.000000
_cell_angle_beta 90.000000
_cell_angle_gamma 90.000000
_cell_volume 2768.937884
_symmetry_space_group_name_H-M "P B C M"
_symmetry_group_IT_number 57
_symmetry_cell_setting 'orthorhombic'
loop_
_space_group_symop_operation_xyz
x,y,z
-x,-y,1/2+z
x,1/2-y,-z
-x,1/2+y,1/2-z
-x,-y,-z
x,y,1/2-z
-x,1/2+y,z
x,1/2-y,1/2+z
loop_
_atom_site_type_symbol
_atom_site_label
_atom_site_fract_x
_atom_site_fract_y
_atom_site_fract_z
Si Si1 0.393255 0.555082 0.568501
Si Si2 0.697285 0.811206 0.066202
Si Si3 0.077357 0.687215 0.932878
Si Si4 0.418146 0.081669 0.431320
Si Si5 0.790217 0.411091 0.926958
Si Si6 0.908729 0.973516 0.072023
Si Si7 0.887011 0.652385 0.067825
O O1 0.417905 0.561421 0.750000
O O2 0.381527 0.484773 0.522343
O O3 0.474152 0.585317 0.468958
O O4 0.301215 0.591795 0.530470
O O5 0.712931 0.806954 0.250000
O O6 0.649834 0.750000 0.000000
O O7 0.634974 0.868937 0.031801
O O8 0.794497 0.814541 0.979615
O O9 0.093662 0.685650 0.750000
O O10 0.114949 0.750000 0.000000
O O11 0.133069 0.633280 0.009486
O O12 0.970410 0.680311 0.970700
O O13 0.401274 0.095691 0.250000
O O14 0.765857 0.393098 0.750000
O O15 0.828215 0.478395 0.934739
O O16 0.928195 0.952762 0.250000
O O17 0.875125 0.917975 0.968799
O O18 0.000000 0.000000 0.000000
O O19 0.907473 0.661881 0.250000
#
# Coordination Sequence:
#
# PCOD8234171 Si02
#       7
#     8   8   8   8   8   8   8
#     4  10  21  38  64  95 125 160 200 246 304 363
#     4  12  25  42  63  90 124 163 208 254 308 368
#     4  12  25  42  62  83 115 157 204 250 300 356
#     4  10  21  40  65  94 126 159 199 248 304 364
#     4  11  23  39  60  89 123 159 201 248 299 356
#     4  11  22  36  58  88 123 160 201 249 303 356
#     4  12  24  40  61  88 123 161 206 251 302 362
#
# _framework density 20.224363
#
# number of rings (size 3 to 8) (size 9 to 14) (size 15 to 20)
#    0.000    0.857    1.429    6.857    0.000    5.714 
#    0.000    0.714    0.000    0.000    0.000    0.000 
#    0.000    0.000    0.000    0.000    0.000    0.000 
#
# Total GULP energy -694779.053834 kJ/mol
# GULP energy per Si atom -12406.768818 kJ/mol
# Density = 2.017833 g / cm^3
# Si number density = 20.224363 Si / 1000 Ang^3
#
#
#
# Elastic Constant Matrix: (Units=GPa)
#
#
# Indices 1 2 3 4 5 6 
#
# 1 82.2099 17.5653 8.6936 0.0000 0.0000 0.0000
# 2 17.5653 86.1044 24.2755 0.0000 0.0000 0.0000
# 3 8.6936 24.2755 89.6825 0.0000 0.0000 0.0000
# 4 0.0000 0.0000 0.0000 34.7573 0.0000 0.0000
# 5 0.0000 0.0000 0.0000 0.0000 34.8269 0.0000
# 6 0.0000 0.0000 0.0000 0.0000 0.0000 17.9013
#
#
#
# Elastic Compliance Matrix: (Units=1/GPa)
#
#
# Indices 1 2 3 4 5 6 
#
# 1 0.012746 -0.002438 -0.000576 0.000000 0.000000 0.000000
# 2 -0.002438 0.013040 -0.003293 0.000000 0.000000 0.000000
# 3 -0.000576 -0.003293 0.012098 0.000000 0.000000 0.000000
# 4 0.000000 0.000000 0.000000 0.028771 0.000000 0.000000
# 5 0.000000 0.000000 0.000000 0.000000 0.028713 0.000000
# 6 0.000000 0.000000 0.000000 0.000000 0.000000 0.055862
#
#
# Mechanical properties :
#
#
# Convention : Reuss Voigt Hill
#
# Bulk Modulus (GPa) = 39.57342 39.89617 39.73479
# Shear Modulus (GPa) = 29.02487 31.32792 30.17639
#
# Velocity S-wave (km/s) = 3.79244 3.94003 3.86694
# Velocity P-wave (km/s) = 6.22788 6.36145 6.29502
#
# Compressibility (1/GPa) = 0.02526949
#
# Stress axis : x y z
#
# Youngs Moduli (GPa) = 78.45755 76.68939 82.66041
#
# Poissons Ratio (x) = 0.18696 0.04758
# Poissons Ratio (y) = 0.19127 0.27222
# Poissons Ratio (z) = 0.04517 0.25256
#
# Static dielectric constant tensor:
#      x y z
#    x 3.509060 0.000000 0.000000 
#    y 0.000000 3.212380 0.000000 
#    z 0.000000 0.000000 3.801540 
# 
# 
# High freq. dielectric constant tensor:
#      x y z
#    x 1.784390 0.000000 0.000000 
#    y 0.000000 1.791380 0.000000 
#    z 0.000000 0.000000 1.807330 
# 
# From -- ./inp_files/5126.got.cif
#   From: 2010.03.12/outbox.cif.g09.slc.cpg/sg57_3_cif.got.tgz:5126.got - 2010.04.16 15:48:40.
