data_PCOD8234318
_publ_section_title
;
Structure prediction by ZEFSAII (Michael W. Deem and Ramdas Pophale) SiO2 
 PCOD8234318
Probable space group: P B C M
;
_chemical_formula_sum "Si O2"
_cell_formula_units_Z 48
_cell_length_a 8.016242
_cell_length_b 11.085753
_cell_length_c 24.867340
_cell_angle_alpha 90.000000
_cell_angle_beta 90.000000
_cell_angle_gamma 90.000000
_cell_volume 2209.862996
_symmetry_space_group_name_H-M "P B C M"
_symmetry_group_IT_number 57
_symmetry_cell_setting 'orthorhombic'
loop_
_space_group_symop_operation_xyz
x,y,z
-x,-y,1/2+z
x,1/2-y,-z
-x,1/2+y,1/2-z
-x,-y,-z
x,y,1/2-z
-x,1/2+y,z
x,1/2-y,1/2+z
loop_
_atom_site_type_symbol
_atom_site_label
_atom_site_fract_x
_atom_site_fract_y
_atom_site_fract_z
Si Si1 0.083490 0.133421 0.687395
Si Si2 0.732835 0.631828 0.970229
Si Si3 0.281040 0.466554 0.922390
Si Si4 0.240515 0.783326 0.368333
Si Si5 0.080405 0.552211 0.402040
Si Si6 0.602330 0.748758 0.866842
O O1 0.088787 0.106507 0.750000
O O2 0.245838 0.212570 0.671894
O O3 0.911487 0.203933 0.673597
O O4 0.084413 0.004838 0.657835
O O5 0.879296 0.553844 0.944107
O O6 0.605269 0.670746 0.922773
O O7 0.806636 0.750000 0.000000
O O8 0.647092 0.549695 0.016964
O O9 0.252191 0.604849 0.908699
O O10 0.394318 0.392271 0.880094
O O11 0.101288 0.398773 0.917981
O O12 0.209393 0.663376 0.403856
O O13 0.421895 0.774279 0.339110
#
# Coordination Sequence:
#
# PCOD8234318 Si02
#       6
#     8   8   8   8   8   8
#     4  10  23  45  69  91 123 167 214 272 332 386
#     4   9  20  38  63  90 134 175 216 265 307 377
#     4  10  21  40  62  93 134 174 213 258 315 380
#     4  11  24  40  67  95 129 171 215 266 323 388
#     4  10  21  41  64  95 131 169 219 269 321 377
#     4  10  22  42  64  92 134 165 214 270 319 375
#
# _framework density 21.720804000000001
#
# number of rings (size 3 to 8) (size 9 to 14) (size 15 to 20)
#    0.000    2.000    1.667    0.500    7.000    2.667 
#    6.000    0.000    0.000    0.000    0.000    0.000 
#    0.000    0.000    0.000    0.000    0.000    0.000 
#
# Total GULP energy -594814.187996 kJ/mol
# GULP energy per Si atom -12391.962250 kJ/mol
# Density = 2.167137 g / cm^3
# Si number density = 21.720804 Si / 1000 Ang^3
#
#
#
# Elastic Constant Matrix: (Units=GPa)
#
#
# Indices 1 2 3 4 5 6 
#
# 1 149.2202 33.7182 25.6100 0.0000 0.0000 0.0000
# 2 33.7182 107.4407 39.1296 0.0000 0.0000 0.0000
# 3 25.6100 39.1296 108.2600 0.0000 0.0000 0.0000
# 4 0.0000 0.0000 0.0000 17.5653 0.0000 0.0000
# 5 0.0000 0.0000 0.0000 0.0000 10.0100 0.0000
# 6 0.0000 0.0000 0.0000 0.0000 0.0000 14.4018
#
#
#
# Elastic Compliance Matrix: (Units=1/GPa)
#
#
# Indices 1 2 3 4 5 6 
#
# 1 0.007313 -0.001917 -0.001037 0.000000 0.000000 0.000000
# 2 -0.001917 0.011221 -0.003602 0.000000 0.000000 0.000000
# 3 -0.001037 -0.003602 0.010784 0.000000 0.000000 0.000000
# 4 0.000000 0.000000 0.000000 0.056931 0.000000 0.000000
# 5 0.000000 0.000000 0.000000 0.000000 0.099900 0.000000
# 6 0.000000 0.000000 0.000000 0.000000 0.000000 0.069436
#
#
# Mechanical properties :
#
#
# Convention : Reuss Voigt Hill
#
# Bulk Modulus (GPa) = 61.70837 62.42627 62.06732
# Shear Modulus (GPa) = 18.24159 26.15963 22.20061
#
# Velocity S-wave (km/s) = 2.90111 3.47415 3.20048
# Velocity P-wave (km/s) = 6.30027 6.70042 6.50343
#
# Compressibility (1/GPa) = 0.01620526
#
# Stress axis : x y z
#
# Youngs Moduli (GPa) = 136.74827 89.11802 92.72753
#
# Poissons Ratio (x) = 0.17087 0.09615
# Poissons Ratio (y) = 0.26219 0.33402
# Poissons Ratio (z) = 0.14179 0.32102
#
# Static dielectric constant tensor:
#      x y z
#    x 3.992190 0.000000 0.000000 
#    y 0.000000 3.956880 0.000000 
#    z 0.000000 0.000000 3.612540 
# 
# 
# High freq. dielectric constant tensor:
#      x y z
#    x 1.853560 0.000000 0.000000 
#    y 0.000000 1.865530 0.000000 
#    z 0.000000 0.000000 1.817130 
# 
# From -- ./inp_files/26710.got.cif
#   From: 2010.03.12/outbox.cif.g09.slc.cpg/sg57_14_cif.got.tgz:26710.got - 2010.04.16 15:48:40.
