data_PCOD8234229
_publ_section_title
;
Structure prediction by ZEFSAII (Michael W. Deem and Ramdas Pophale) SiO2 
 PCOD8234229
Probable space group: P B C M
;
_chemical_formula_sum "Si O2"
_cell_formula_units_Z 48
_cell_length_a 9.899911
_cell_length_b 28.703101
_cell_length_c 8.700651
_cell_angle_alpha 90.000000
_cell_angle_beta 90.000000
_cell_angle_gamma 90.000000
_cell_volume 2472.360851
_symmetry_space_group_name_H-M "P B C M"
_symmetry_group_IT_number 57
_symmetry_cell_setting 'orthorhombic'
loop_
_space_group_symop_operation_xyz
x,y,z
-x,-y,1/2+z
x,1/2-y,-z
-x,1/2+y,1/2-z
-x,-y,-z
x,y,1/2-z
-x,1/2+y,z
x,1/2-y,1/2+z
loop_
_atom_site_type_symbol
_atom_site_label
_atom_site_fract_x
_atom_site_fract_y
_atom_site_fract_z
Si Si1 0.767360 0.799875 0.432286
Si Si2 0.483578 0.699615 0.068038
Si Si3 0.120456 0.027629 0.925973
Si Si4 0.281026 0.881635 0.570150
Si Si5 0.993931 0.628543 0.574742
Si Si6 0.365784 0.979413 0.430646
O O1 0.802715 0.750000 0.500000
O O2 0.750713 0.797953 0.250000
O O3 0.626890 0.818427 0.503046
O O4 0.892296 0.831787 0.482990
O O5 0.494118 0.704426 0.250000
O O6 0.370046 0.662562 0.017649
O O7 0.444633 0.750000 0.000000
O O8 0.140061 0.011809 0.750000
O O9 0.091725 0.081808 0.939772
O O10 0.252126 0.016029 0.022493
O O11 0.000000 0.000000 0.000000
O O12 0.294777 0.890293 0.750000
O O13 0.333886 0.927574 0.486868
O O14 0.125639 0.871569 0.530776
O O15 0.041042 0.636535 0.750000
O O16 0.379065 0.977351 0.250000
O O17 0.500000 0.000000 0.500000
#
# Coordination Sequence:
#
# PCOD8234229 Si02
#       6
#     8   8   8   8   8   8
#     4  10  21  39  62  90 120 156 200 246 300 361
#     4  10  22  40  62  90 120 156 200 247 303 362
#     4  11  22  40  63  91 123 161 204 247 300 359
#     4  11  24  41  62  91 123 158 205 252 301 362
#     4  10  23  40  61  89 121 160 202 243 301 363
#     4  12  26  43  63  90 124 163 205 254 306 360
#
# _framework density 19.414642000000001
#
# number of rings (size 3 to 8) (size 9 to 14) (size 15 to 20)
#    0.000    1.333    1.667    4.500    2.333    5.333 
#    0.000    3.333    0.000    0.000    0.000    0.000 
#    0.000    0.000    0.000    0.000    0.000    0.000 
#
# Total GULP energy -595361.428748 kJ/mol
# GULP energy per Si atom -12403.363099 kJ/mol
# Density = 1.937045 g / cm^3
# Si number density = 19.414642 Si / 1000 Ang^3
#
#
#
# Elastic Constant Matrix: (Units=GPa)
#
#
# Indices 1 2 3 4 5 6 
#
# 1 160.6911 79.2136 62.4673 0.0000 0.0000 0.0000
# 2 79.2136 105.0468 55.1146 0.0000 0.0000 0.0000
# 3 62.4673 55.1146 119.4493 0.0000 0.0000 0.0000
# 4 0.0000 0.0000 0.0000 29.6468 0.0000 0.0000
# 5 0.0000 0.0000 0.0000 0.0000 38.4878 0.0000
# 6 0.0000 0.0000 0.0000 0.0000 0.0000 41.1871
#
#
#
# Elastic Compliance Matrix: (Units=1/GPa)
#
#
# Indices 1 2 3 4 5 6 
#
# 1 0.010403 -0.006584 -0.002402 0.000000 0.000000 0.000000
# 2 -0.006584 0.016727 -0.004275 0.000000 0.000000 0.000000
# 3 -0.002402 -0.004275 0.011601 0.000000 0.000000 0.000000
# 4 0.000000 0.000000 0.000000 0.033730 0.000000 0.000000
# 5 0.000000 0.000000 0.000000 0.000000 0.025982 0.000000
# 6 0.000000 0.000000 0.000000 0.000000 0.000000 0.024279
#
#
# Mechanical properties :
#
#
# Convention : Reuss Voigt Hill
#
# Bulk Modulus (GPa) = 81.91283 86.53091 84.22187
# Shear Modulus (GPa) = 32.61276 34.42379 33.51827
#
# Velocity S-wave (km/s) = 4.10299 4.21537 4.15956
# Velocity P-wave (km/s) = 8.04542 8.26796 8.15745
#
# Compressibility (1/GPa) = 0.01220810
#
# Stress axis : x y z
#
# Youngs Moduli (GPa) = 96.12990 59.78248 86.20316
#
# Poissons Ratio (x) = 0.39361 0.20708
# Poissons Ratio (y) = 0.63292 0.36851
# Poissons Ratio (z) = 0.23093 0.25556
#
# Static dielectric constant tensor:
#      x y z
#    x 3.636580 0.000000 0.000000 
#    y 0.000000 3.632230 0.000000 
#    z 0.000000 0.000000 3.682920 
# 
# 
# High freq. dielectric constant tensor:
#      x y z
#    x 1.767410 0.000000 0.000000 
#    y 0.000000 1.765250 0.000000 
#    z 0.000000 0.000000 1.770050 
# 
# From -- ./inp_files/2126.got.cif
#   From: 2010.03.12/outbox.cif.g09.slc.cpg/sg57_2_cif.got.tgz:2126.got - 2010.04.16 15:48:40.
