data_PCOD8234479
_publ_section_title
;
Structure prediction by ZEFSAII (Michael W. Deem and Ramdas Pophale) SiO2 
 PCOD8234479
Probable space group: P B C M
;
_chemical_formula_sum "Si O2"
_cell_formula_units_Z 48
_cell_length_a 10.086579
_cell_length_b 12.161434
_cell_length_c 19.974799
_cell_angle_alpha 90.000000
_cell_angle_beta 90.000000
_cell_angle_gamma 90.000000
_cell_volume 2450.253958
_symmetry_space_group_name_H-M "P B C M"
_symmetry_group_IT_number 57
_symmetry_cell_setting 'orthorhombic'
loop_
_space_group_symop_operation_xyz
x,y,z
-x,-y,1/2+z
x,1/2-y,-z
-x,1/2+y,1/2-z
-x,-y,-z
x,y,1/2-z
-x,1/2+y,z
x,1/2-y,1/2+z
loop_
_atom_site_type_symbol
_atom_site_label
_atom_site_fract_x
_atom_site_fract_y
_atom_site_fract_z
Si Si1 0.648539 0.457625 0.122790
Si Si2 0.085456 0.844108 0.951425
Si Si3 0.572505 0.679798 0.559963
Si Si4 0.188296 0.065773 0.009825
Si Si5 0.523081 0.664025 0.324206
Si Si6 0.235308 0.765336 0.826442
O O1 0.531516 0.415411 0.074940
O O2 0.580822 0.541076 0.174911
O O3 0.726050 0.361946 0.161481
O O4 0.750100 0.525213 0.078583
O O5 0.117819 0.806638 0.875303
O O6 0.147359 0.962721 0.964707
O O7 0.146510 0.750000 0.000000
O O8 0.929855 0.854263 0.966918
O O9 0.507473 0.750000 0.500000
O O10 0.713261 0.634606 0.536398
O O11 0.598925 0.756394 0.624376
O O12 0.543511 0.713426 0.250000
O O13 0.365893 0.661411 0.340892
O O14 0.185292 0.778518 0.750000
#
# Coordination Sequence:
#
# PCOD8234479 Si02
#       6
#     8   8   8   8   8   8
#     4  11  21  36  63  93 122 158 197 250 308 368
#     4  11  23  40  64  83 120 161 206 251 299 348
#     4  11  22  35  62  93 126 153 201 251 307 365
#     4  11  23  38  61  93 119 154 205 254 297 362
#     4  10  22  38  59  91 127 161 195 247 312 370
#     4  10  22  40  62  88 122 162 204 247 300 371
#
# _framework density 19.589805999999999
#
# number of rings (size 3 to 8) (size 9 to 14) (size 15 to 20)
#    0.000    1.333    3.333    2.500    4.667    0.667 
#    0.000    2.500    0.000    0.000    0.000    0.000 
#    0.000    0.000    0.000    0.000    0.000    0.000 
#
# Total GULP energy -595198.802713 kJ/mol
# GULP energy per Si atom -12399.975057 kJ/mol
# Density = 1.954522 g / cm^3
# Si number density = 19.589806 Si / 1000 Ang^3
#
#
#
# Elastic Constant Matrix: (Units=GPa)
#
#
# Indices 1 2 3 4 5 6 
#
# 1 69.1455 24.3185 45.2355 0.0000 0.0000 0.0000
# 2 24.3185 74.6161 41.2943 0.0000 0.0000 0.0000
# 3 45.2355 41.2943 141.5585 0.0000 0.0000 0.0000
# 4 0.0000 0.0000 0.0000 31.0382 0.0000 0.0000
# 5 0.0000 0.0000 0.0000 0.0000 22.6822 0.0000
# 6 0.0000 0.0000 0.0000 0.0000 0.0000 24.6636
#
#
#
# Elastic Compliance Matrix: (Units=1/GPa)
#
#
# Indices 1 2 3 4 5 6 
#
# 1 0.018971 -0.003372 -0.005078 0.000000 0.000000 0.000000
# 2 -0.003372 0.016582 -0.003759 0.000000 0.000000 0.000000
# 3 -0.005078 -0.003759 0.009784 0.000000 0.000000 0.000000
# 4 0.000000 0.000000 0.000000 0.032218 0.000000 0.000000
# 5 0.000000 0.000000 0.000000 0.000000 0.044087 0.000000
# 6 0.000000 0.000000 0.000000 0.000000 0.000000 0.040546
#
#
# Mechanical properties :
#
#
# Convention : Reuss Voigt Hill
#
# Bulk Modulus (GPa) = 47.81104 56.33518 52.07311
# Shear Modulus (GPa) = 25.82922 27.30827 26.56874
#
# Velocity S-wave (km/s) = 3.63506 3.73769 3.68673
# Velocity P-wave (km/s) = 6.48670 6.88817 6.69045
#
# Compressibility (1/GPa) = 0.02091567
#
# Stress axis : x y z
#
# Youngs Moduli (GPa) = 52.71313 60.30797 102.21093
#
# Poissons Ratio (x) = 0.20338 0.51907
# Poissons Ratio (y) = 0.17777 0.38425
# Poissons Ratio (z) = 0.26770 0.22672
#
# Static dielectric constant tensor:
#      x y z
#    x 3.497980 0.000000 0.000000 
#    y 0.000000 3.794220 0.000000 
#    z 0.000000 0.000000 3.589360 
# 
# 
# High freq. dielectric constant tensor:
#      x y z
#    x 1.748500 0.000000 0.000000 
#    y 0.000000 1.778280 0.000000 
#    z 0.000000 0.000000 1.762660 
# 
# From -- ./inp_files/21816.got.cif
#   From: 2010.03.12/outbox.cif.g09.slc.cpg/sg57_11_cif.got.tgz:21816.got - 2010.04.16 15:48:40.
