data_PCOD8234197
_publ_section_title
;
Structure prediction by ZEFSAII (Michael W. Deem and Ramdas Pophale) SiO2 
 PCOD8234197
Probable space group: P B C M
;
_chemical_formula_sum "Si O2"
_cell_formula_units_Z 40
_cell_length_a 13.638941
_cell_length_b 18.005181
_cell_length_c 8.833042
_cell_angle_alpha 90.000000
_cell_angle_beta 90.000000
_cell_angle_gamma 90.000000
_cell_volume 2169.144269
_symmetry_space_group_name_H-M "P B C M"
_symmetry_group_IT_number 57
_symmetry_cell_setting 'orthorhombic'
loop_
_space_group_symop_operation_xyz
x,y,z
-x,-y,1/2+z
x,1/2-y,-z
-x,1/2+y,1/2-z
-x,-y,-z
x,y,1/2-z
-x,1/2+y,z
x,1/2-y,1/2+z
loop_
_atom_site_type_symbol
_atom_site_label
_atom_site_fract_x
_atom_site_fract_y
_atom_site_fract_z
Si Si1 0.201867 0.043846 0.576824
Si Si2 0.403655 0.532744 0.073151
Si Si3 0.688941 0.326333 0.070723
Si Si4 0.910090 0.671128 0.072621
Si Si5 0.121277 0.613670 0.072250
O O1 0.184392 0.066730 0.750000
O O2 0.173958 0.113193 0.472944
O O3 0.315117 0.024736 0.546146
O O4 0.134197 0.973268 0.534081
O O5 0.419100 0.547987 0.250000
O O6 0.500000 0.500000 0.000000
O O7 0.381186 0.609832 0.991708
O O8 0.682074 0.323472 0.250000
O O9 0.649818 0.250000 0.000000
O O10 0.801222 0.338333 0.021240
O O11 0.909075 0.681663 0.250000
O O12 0.014679 0.639578 0.017475
O O13 0.886970 0.750000 0.000000
O O14 0.140367 0.627597 0.250000
#
# Coordination Sequence:
#
# PCOD8234197 Si02
#       5
#     8   8   8   8   8
#     4   9  19  36  56  78 107 138 174 220 266 316
#     4  10  21  39  61  84 109 139 177 222 272 328
#     4  11  21  34  55  83 113 144 178 222 272 320
#     4  11  22  34  51  76 109 147 185 221 262 312
#     4   9  19  35  54  79 109 142 179 221 267 318
#
# _framework density 18.440452000000001
#
# number of rings (size 3 to 8) (size 9 to 14) (size 15 to 20)
#    0.000    2.000    0.000    5.400    0.000    7.200 
#    0.000    1.000    0.000    4.800    0.000    0.000 
#    0.000    0.000    0.000    0.000    0.000    0.000 
#
# Total GULP energy -496170.262079 kJ/mol
# GULP energy per Si atom -12404.256552 kJ/mol
# Density = 1.839848 g / cm^3
# Si number density = 18.440452 Si / 1000 Ang^3
#
#
#
# Elastic Constant Matrix: (Units=GPa)
#
#
# Indices 1 2 3 4 5 6 
#
# 1 91.2067 63.0379 50.9354 0.0000 0.0000 0.0000
# 2 63.0379 137.5140 64.7520 0.0000 0.0000 0.0000
# 3 50.9354 64.7520 111.0797 0.0000 0.0000 0.0000
# 4 0.0000 0.0000 0.0000 34.1543 0.0000 0.0000
# 5 0.0000 0.0000 0.0000 0.0000 31.9099 0.0000
# 6 0.0000 0.0000 0.0000 0.0000 0.0000 15.3872
#
#
#
# Elastic Compliance Matrix: (Units=1/GPa)
#
#
# Indices 1 2 3 4 5 6 
#
# 1 0.017635 -0.005894 -0.004651 0.000000 0.000000 0.000000
# 2 -0.005894 0.011993 -0.004289 0.000000 0.000000 0.000000
# 3 -0.004651 -0.004289 0.013635 0.000000 0.000000 0.000000
# 4 0.000000 0.000000 0.000000 0.029279 0.000000 0.000000
# 5 0.000000 0.000000 0.000000 0.000000 0.031338 0.000000
# 6 0.000000 0.000000 0.000000 0.000000 0.000000 0.064989
#
#
# Mechanical properties :
#
#
# Convention : Reuss Voigt Hill
#
# Bulk Modulus (GPa) = 73.54725 77.47234 75.50979
# Shear Modulus (GPa) = 24.62221 27.02861 25.82541
#
# Velocity S-wave (km/s) = 3.65804 3.83263 3.74635
# Velocity P-wave (km/s) = 7.60342 7.85422 7.72984
#
# Compressibility (1/GPa) = 0.01359670
#
# Stress axis : x y z
#
# Youngs Moduli (GPa) = 56.70496 83.37960 73.34076
#
# Poissons Ratio (x) = 0.49146 0.34108
# Poissons Ratio (y) = 0.33423 0.31452
# Poissons Ratio (z) = 0.26371 0.35757
#
# Static dielectric constant tensor:
#      x y z
#    x 3.290310 0.000000 0.000000 
#    y 0.000000 3.418470 0.000000 
#    z 0.000000 0.000000 3.393010 
# 
# 
# High freq. dielectric constant tensor:
#      x y z
#    x 1.701410 0.000000 0.000000 
#    y 0.000000 1.720810 0.000000 
#    z 0.000000 0.000000 1.723360 
# 
# From -- ./inp_files/2636.got.cif
#   From: 2010.03.12/outbox.cif.g09.slc.cpg/sg57_2_cif.got.tgz:2636.got - 2010.04.16 15:48:40.
