data_PCOD8234363
_publ_section_title
;
Structure prediction by ZEFSAII (Michael W. Deem and Ramdas Pophale) SiO2 
 PCOD8234363
Probable space group: P B C M
;
_chemical_formula_sum "Si O2"
_cell_formula_units_Z 48
_cell_length_a 16.077900
_cell_length_b 9.117546
_cell_length_c 15.234750
_cell_angle_alpha 90.000000
_cell_angle_beta 90.000000
_cell_angle_gamma 90.000000
_cell_volume 2233.277128
_symmetry_space_group_name_H-M "P B C M"
_symmetry_group_IT_number 57
_symmetry_cell_setting 'orthorhombic'
loop_
_space_group_symop_operation_xyz
x,y,z
-x,-y,1/2+z
x,1/2-y,-z
-x,1/2+y,1/2-z
-x,-y,-z
x,y,1/2-z
-x,1/2+y,z
x,1/2-y,1/2+z
loop_
_atom_site_type_symbol
_atom_site_label
_atom_site_fract_x
_atom_site_fract_y
_atom_site_fract_z
Si Si1 0.845909 0.626750 0.430250
Si Si2 0.101191 0.942357 0.582152
Si Si3 0.413034 0.579373 0.002842
Si Si4 0.279789 0.891682 0.850579
Si Si5 0.703098 0.446478 0.150406
Si Si6 0.007744 0.208733 0.650718
O O1 0.815057 0.750000 0.500000
O O2 0.890213 0.491908 0.481307
O O3 0.773239 0.564498 0.370530
O O4 0.909380 0.697141 0.362521
O O5 0.191413 0.965338 0.627286
O O6 0.066746 0.775734 0.590261
O O7 0.030181 0.041543 0.628287
O O8 0.352713 0.544384 0.086288
O O9 0.431668 0.750000 0.000000
O O10 0.500000 0.500000 0.000000
O O11 0.372430 0.520463 0.913824
O O12 0.304915 0.926215 0.750000
O O13 0.265888 0.718912 0.866834
O O14 0.672796 0.467589 0.250000
O O15 0.975789 0.218734 0.750000
#
# Coordination Sequence:
#
# PCOD8234363 Si02
#       6
#     8   8   8   8   8   8
#     4  10  22  39  59  87 125 166 215 269 323 380
#     4  11  23  41  61  88 129 172 219 265 326 377
#     4  10  22  42  67  96 131 165 206 264 323 394
#     4  10  21  40  67  95 128 174 220 266 323 387
#     4  10  21  40  68  96 122 167 219 263 321 393
#     4  11  23  38  57  87 125 168 216 268 319 375
#
# _framework density 21.493079999999999
#
# number of rings (size 3 to 8) (size 9 to 14) (size 15 to 20)
#    0.000    1.667    1.667    2.500    2.333    1.333 
#    0.000    0.000    0.000    0.000    0.000    0.000 
#    0.000    0.000    0.000    0.000    0.000    0.000 
#
# Total GULP energy -595090.589741 kJ/mol
# GULP energy per Si atom -12397.720620 kJ/mol
# Density = 2.144416 g / cm^3
# Si number density = 21.493080 Si / 1000 Ang^3
#
#
#
# Elastic Constant Matrix: (Units=GPa)
#
#
# Indices 1 2 3 4 5 6 
#
# 1 104.4516 39.0214 30.1084 0.0000 0.0000 0.0000
# 2 39.0214 52.6280 22.8382 0.0000 0.0000 0.0000
# 3 30.1084 22.8382 102.6724 0.0000 0.0000 0.0000
# 4 0.0000 0.0000 0.0000 23.1971 0.0000 0.0000
# 5 0.0000 0.0000 0.0000 0.0000 20.3004 0.0000
# 6 0.0000 0.0000 0.0000 0.0000 0.0000 41.7506
#
#
#
# Elastic Compliance Matrix: (Units=1/GPa)
#
#
# Indices 1 2 3 4 5 6 
#
# 1 0.013578 -0.009231 -0.001929 0.000000 0.000000 0.000000
# 2 -0.009231 0.027307 -0.003367 0.000000 0.000000 0.000000
# 3 -0.001929 -0.003367 0.011054 0.000000 0.000000 0.000000
# 4 0.000000 0.000000 0.000000 0.043109 0.000000 0.000000
# 5 0.000000 0.000000 0.000000 0.000000 0.049260 0.000000
# 6 0.000000 0.000000 0.000000 0.000000 0.000000 0.023952
#
#
# Mechanical properties :
#
#
# Convention : Reuss Voigt Hill
#
# Bulk Modulus (GPa) = 43.69427 49.29868 46.49648
# Shear Modulus (GPa) = 24.39724 28.23521 26.31623
#
# Velocity S-wave (km/s) = 3.37281 3.62842 3.50295
# Velocity P-wave (km/s) = 5.96166 6.36716 6.16774
#
# Compressibility (1/GPa) = 0.02288630
#
# Stress axis : x y z
#
# Youngs Moduli (GPa) = 73.64774 36.62112 90.46315
#
# Poissons Ratio (x) = 0.33804 0.17446
# Poissons Ratio (y) = 0.67982 0.30460
# Poissons Ratio (z) = 0.14203 0.12331
#
# Static dielectric constant tensor:
#      x y z
#    x 3.668740 0.000000 0.000000 
#    y 0.000000 3.968000 0.000000 
#    z 0.000000 0.000000 3.975130 
# 
# 
# High freq. dielectric constant tensor:
#      x y z
#    x 1.827120 0.000000 0.000000 
#    y 0.000000 1.843990 0.000000 
#    z 0.000000 0.000000 1.851410 
# 
# From -- ./inp_files/18923.got.cif
#   From: 2010.03.12/outbox.cif.g09.slc.cpg/sg57_10_cif.got.tgz:18923.got - 2010.04.16 15:48:40.
