data_PCOD8234532
_publ_section_title
;
Structure prediction by ZEFSAII (Michael W. Deem and Ramdas Pophale) SiO2 
 PCOD8234532
Probable space group: P B C M
;
_chemical_formula_sum "Si O2"
_cell_formula_units_Z 40
_cell_length_a 5.984475
_cell_length_b 13.979543
_cell_length_c 21.687594
_cell_angle_alpha 90.000000
_cell_angle_beta 90.000000
_cell_angle_gamma 90.000000
_cell_volume 1814.389007
_symmetry_space_group_name_H-M "P B C M"
_symmetry_group_IT_number 57
_symmetry_cell_setting 'orthorhombic'
loop_
_space_group_symop_operation_xyz
x,y,z
-x,-y,1/2+z
x,1/2-y,-z
-x,1/2+y,1/2-z
-x,-y,-z
x,y,1/2-z
-x,1/2+y,z
x,1/2-y,1/2+z
loop_
_atom_site_type_symbol
_atom_site_label
_atom_site_fract_x
_atom_site_fract_y
_atom_site_fract_z
Si Si1 0.280613 0.804310 0.917575
Si Si2 0.055922 0.144464 0.608533
Si Si3 0.340934 0.216977 0.180372
Si Si4 0.672540 0.644777 0.003175
Si Si5 0.090154 0.060239 0.117570
O O1 0.461841 0.768622 0.868141
O O2 0.408334 0.839509 0.980738
O O3 0.155974 0.895367 0.888998
O O4 0.113561 0.715082 0.928314
O O5 0.157831 0.200853 0.666646
O O6 0.258486 0.104742 0.564132
O O7 0.924033 0.051743 0.633352
O O8 0.429001 0.226914 0.250000
O O9 0.226031 0.113047 0.171883
O O10 0.780931 0.575679 0.053285
O O11 0.785412 0.750000 0.000000
#
# Coordination Sequence:
#
# PCOD8234532 Si02
#       5
#     8   8   8   8   8
#     4  10  22  39  62  83 126 159 199 246 309 351
#     4  11  23  40  64  92 122 161 203 245 306 360
#     4  10  23  42  61  87 119 158 209 252 303 359
#     4  11  20  38  59  92 123 161 194 240 294 369
#     4  10  23  40  62  91 123 158 200 252 300 361
#
# _framework density 22.045988000000001
#
# number of rings (size 3 to 8) (size 9 to 14) (size 15 to 20)
#    0.000    1.600    6.000    0.600    2.800    8.000 
#    0.000    2.000    0.000    0.000    0.000    0.000 
#    0.000    0.000    0.000    0.000    0.000    0.000 
#
# Total GULP energy -495570.388115 kJ/mol
# GULP energy per Si atom -12389.259703 kJ/mol
# Density = 2.199581 g / cm^3
# Si number density = 22.045988 Si / 1000 Ang^3
#
#
#
# Elastic Constant Matrix: (Units=GPa)
#
#
# Indices 1 2 3 4 5 6 
#
# 1 98.1653 18.9099 14.1528 0.0000 0.0000 0.0000
# 2 18.9099 103.2671 -7.0778 0.0000 0.0000 0.0000
# 3 14.1528 -7.0778 67.3507 0.0000 0.0000 0.0000
# 4 0.0000 0.0000 0.0000 17.7781 0.0000 0.0000
# 5 0.0000 0.0000 0.0000 0.0000 17.1615 0.0000
# 6 0.0000 0.0000 0.0000 0.0000 0.0000 16.5323
#
#
#
# Elastic Compliance Matrix: (Units=1/GPa)
#
#
# Indices 1 2 3 4 5 6 
#
# 1 0.010973 -0.002183 -0.002535 0.000000 0.000000 0.000000
# 2 -0.002183 0.010188 0.001529 0.000000 0.000000 0.000000
# 3 -0.002535 0.001529 0.015541 0.000000 0.000000 0.000000
# 4 0.000000 0.000000 0.000000 0.056249 0.000000 0.000000
# 5 0.000000 0.000000 0.000000 0.000000 0.058270 0.000000
# 6 0.000000 0.000000 0.000000 0.000000 0.000000 0.060488
#
#
# Mechanical properties :
#
#
# Convention : Reuss Voigt Hill
#
# Bulk Modulus (GPa) = 32.97663 35.63918 34.30791
# Shear Modulus (GPa) = 21.91109 26.48092 24.19601
#
# Velocity S-wave (km/s) = 3.15601 3.46955 3.31648
# Velocity P-wave (km/s) = 5.31706 5.67902 5.50102
#
# Compressibility (1/GPa) = 0.03032450
#
# Stress axis : x y z
#
# Youngs Moduli (GPa) = 91.13322 98.15263 64.34538
#
# Poissons Ratio (x) = 0.21428 0.16313
# Poissons Ratio (y) = 0.19895 -0.09841
# Poissons Ratio (z) = 0.23104 -0.15012
#
# Static dielectric constant tensor:
#      x y z
#    x 4.152640 0.000000 0.000000 
#    y 0.000000 3.823330 0.000000 
#    z 0.000000 0.000000 3.640700 
# 
# 
# High freq. dielectric constant tensor:
#      x y z
#    x 1.875110 0.000000 0.000000 
#    y 0.000000 1.859350 0.000000 
#    z 0.000000 0.000000 1.830000 
# 
# From -- ./inp_files/26120.got.cif
#   From: 2010.03.12/outbox.cif.g09.slc.cpg/sg57_14_cif.got.tgz:26120.got - 2010.04.16 15:48:40.
