data_PCOD8234277
_publ_section_title
;
Structure prediction by ZEFSAII (Michael W. Deem and Ramdas Pophale) SiO2 
 PCOD8234277
Probable space group: P B C M
;
_chemical_formula_sum "Si O2"
_cell_formula_units_Z 64
_cell_length_a 8.137600
_cell_length_b 24.669977
_cell_length_c 14.767916
_cell_angle_alpha 90.000000
_cell_angle_beta 90.000000
_cell_angle_gamma 90.000000
_cell_volume 2964.724187
_symmetry_space_group_name_H-M "P B C M"
_symmetry_group_IT_number 57
_symmetry_cell_setting 'orthorhombic'
loop_
_space_group_symop_operation_xyz
x,y,z
-x,-y,1/2+z
x,1/2-y,-z
-x,1/2+y,1/2-z
-x,-y,-z
x,y,1/2-z
-x,1/2+y,z
x,1/2-y,1/2+z
loop_
_atom_site_type_symbol
_atom_site_label
_atom_site_fract_x
_atom_site_fract_y
_atom_site_fract_z
Si Si1 0.362374 0.899395 0.642949
Si Si2 0.998514 0.887596 0.852824
Si Si3 0.961487 0.238153 0.352686
Si Si4 0.681623 0.586148 0.851304
Si Si5 0.401625 0.779140 0.641522
Si Si6 0.582177 0.999699 0.647567
Si Si7 0.708818 0.709740 0.857175
Si Si8 0.842709 0.533895 0.018002
O O1 0.359697 0.897329 0.750000
O O2 0.175361 0.907583 0.610383
O O3 0.428929 0.841175 0.607442
O O4 0.468033 0.950482 0.609816
O O5 0.967547 0.907045 0.750000
O O6 0.980593 0.823500 0.858755
O O7 0.863273 0.913936 0.917396
O O8 0.947381 0.258038 0.250000
O O9 0.776502 0.244089 0.395391
O O10 0.111063 0.273075 0.398594
O O11 0.758584 0.582538 0.750000
O O12 0.503790 0.558196 0.851407
O O13 0.668676 0.648105 0.882897
O O14 0.792205 0.552484 0.918910
O O15 0.393298 0.777817 0.750000
O O16 0.555768 0.744793 0.603149
O O17 0.644471 0.986606 0.750000
O O18 0.721241 0.005764 0.572250
O O19 0.713815 0.719385 0.750000
O O20 0.000000 0.500000 0.000000
#
# Coordination Sequence:
#
# PCOD8234277 Si02
#       8
#     8   8   8   8   8   8   8   8
#     4   8  15  30  57  90 121 151 189 250 312 359
#     4   9  18  34  58  91 125 153 194 255 317 366
#     4   8  15  29  53  87 121 153 194 252 309 362
#     4  10  23  43  60  83 120 166 209 249 301 366
#     4   8  14  26  50  86 118 150 195 243 304 365
#     4  10  21  39  65  90 115 153 204 255 306 370
#     4   9  17  32  56  83 118 160 202 245 299 369
#     4  12  25  39  59  89 120 160 200 253 311 363
#
# _framework density 21.587167000000001
#
# number of rings (size 3 to 8) (size 9 to 14) (size 15 to 20)
#    0.000    2.750    0.000    3.000    1.750    2.000 
#    2.250    0.625    0.000    0.000    0.000    0.000 
#    0.000    0.000    0.000    0.000    0.000    0.000 
#
# Total GULP energy -793051.006832 kJ/mol
# GULP energy per Si atom -12391.421982 kJ/mol
# Density = 2.153803 g / cm^3
# Si number density = 21.587167 Si / 1000 Ang^3
#
#
#
# Elastic Constant Matrix: (Units=GPa)
#
#
# Indices 1 2 3 4 5 6 
#
# 1 120.1889 50.8075 17.3019 0.0000 0.0000 0.0000
# 2 50.8075 90.1286 13.1865 0.0000 0.0000 0.0000
# 3 17.3019 13.1865 60.9819 0.0000 0.0000 0.0000
# 4 0.0000 0.0000 0.0000 7.3306 0.0000 0.0000
# 5 0.0000 0.0000 0.0000 0.0000 20.6757 0.0000
# 6 0.0000 0.0000 0.0000 0.0000 0.0000 19.3867
#
#
#
# Elastic Compliance Matrix: (Units=1/GPa)
#
#
# Indices 1 2 3 4 5 6 
#
# 1 0.011124 -0.005999 -0.001859 0.000000 0.000000 0.000000
# 2 -0.005999 0.014693 -0.001475 0.000000 0.000000 0.000000
# 3 -0.001859 -0.001475 0.017245 0.000000 0.000000 0.000000
# 4 0.000000 0.000000 0.000000 0.136414 0.000000 0.000000
# 5 0.000000 0.000000 0.000000 0.000000 0.048366 0.000000
# 6 0.000000 0.000000 0.000000 0.000000 0.000000 0.051582
#
#
# Mechanical properties :
#
#
# Convention : Reuss Voigt Hill
#
# Bulk Modulus (GPa) = 40.99099 48.21015 44.60057
# Shear Modulus (GPa) = 16.32811 22.14550 19.23681
#
# Velocity S-wave (km/s) = 2.75322 3.20639 2.98841
# Velocity P-wave (km/s) = 5.39785 6.00742 5.71078
#
# Compressibility (1/GPa) = 0.02439560
#
# Stress axis : x y z
#
# Youngs Moduli (GPa) = 89.89844 68.06112 57.98884
#
# Poissons Ratio (x) = 0.40828 0.10779
# Poissons Ratio (y) = 0.53927 0.08554
# Poissons Ratio (z) = 0.16711 0.10040
#
# Static dielectric constant tensor:
#      x y z
#    x 4.164920 0.000000 0.000000 
#    y 0.000000 4.056100 0.000000 
#    z 0.000000 0.000000 3.789590 
# 
# 
# High freq. dielectric constant tensor:
#      x y z
#    x 1.845510 0.000000 0.000000 
#    y 0.000000 1.842680 0.000000 
#    z 0.000000 0.000000 1.821380 
# 
# From -- ./inp_files/16956.got.cif
#   From: 2010.03.12/outbox.cif.g09.slc.cpg/sg57_9_cif.got.tgz:16956.got - 2010.04.16 15:48:40.
