data_PCOD8234102
_publ_section_title
;
Structure prediction by ZEFSAII (Michael W. Deem and Ramdas Pophale) SiO2 
 PCOD8234102
Probable space group: P B C M
;
_chemical_formula_sum "Si O2"
_cell_formula_units_Z 48
_cell_length_a 14.897469
_cell_length_b 19.347784
_cell_length_c 8.333535
_cell_angle_alpha 90.000000
_cell_angle_beta 90.000000
_cell_angle_gamma 90.000000
_cell_volume 2401.999897
_symmetry_space_group_name_H-M "P B C M"
_symmetry_group_IT_number 57
_symmetry_cell_setting 'orthorhombic'
loop_
_space_group_symop_operation_xyz
x,y,z
-x,-y,1/2+z
x,1/2-y,-z
-x,1/2+y,1/2-z
-x,-y,-z
x,y,1/2-z
-x,1/2+y,z
x,1/2-y,1/2+z
loop_
_atom_site_type_symbol
_atom_site_label
_atom_site_fract_x
_atom_site_fract_y
_atom_site_fract_z
Si Si1 0.063754 0.675784 0.060504
Si Si2 0.139643 0.325280 0.559768
Si Si3 0.224088 0.586294 0.437772
Si Si4 0.724675 0.936615 0.438121
Si Si5 0.386842 0.826655 0.063414
Si Si6 0.468870 0.073792 0.062982
O O1 0.068583 0.677087 0.250000
O O2 0.131929 0.618203 0.989276
O O3 0.962543 0.659922 0.003826
O O4 0.096692 0.750000 0.000000
O O5 0.169988 0.250000 0.500000
O O6 0.151876 0.331158 0.750000
O O7 0.199000 0.380891 0.468766
O O8 0.211513 0.578356 0.250000
O O9 0.242274 0.510282 0.509682
O O10 0.306312 0.636694 0.471172
O O11 0.702422 0.941747 0.250000
O O12 0.636099 0.914433 0.533338
O O13 0.364038 0.826148 0.250000
O O14 0.399284 0.750000 0.000000
O O15 0.479025 0.866910 0.032211
O O16 0.491389 0.079819 0.250000
O O17 0.500000 0.000000 0.000000
#
# Coordination Sequence:
#
# PCOD8234102 Si02
#       6
#     8   8   8   8   8   8
#     4   9  19  36  58  85 118 160 202 250 303 357
#     4  10  21  39  61  86 119 157 205 255 305 361
#     4  10  21  38  60  88 124 161 201 248 302 363
#     4  11  23  39  62  90 122 160 202 247 303 362
#     4  12  25  41  63  92 125 161 204 252 303 359
#     4  12  24  42  65  90 121 159 202 247 301 362
#
# _framework density 19.983347999999999
#
# number of rings (size 3 to 8) (size 9 to 14) (size 15 to 20)
#    0.000    1.333    1.667    4.500    0.000    4.667 
#    0.000    3.333    0.000    0.000    0.000    0.000 
#    0.000    0.000    0.000    0.000    0.000    0.000 
#
# Total GULP energy -595396.232117 kJ/mol
# GULP energy per Si atom -12404.088169 kJ/mol
# Density = 1.993787 g / cm^3
# Si number density = 19.983348 Si / 1000 Ang^3
#
#
#
# Elastic Constant Matrix: (Units=GPa)
#
#
# Indices 1 2 3 4 5 6 
#
# 1 117.7358 66.0294 -4.1991 0.0000 0.0000 0.0000
# 2 66.0294 143.8375 -1.3093 0.0000 0.0000 0.0000
# 3 -4.1991 -1.3093 31.7382 0.0000 0.0000 0.0000
# 4 0.0000 0.0000 0.0000 30.3824 0.0000 0.0000
# 5 0.0000 0.0000 0.0000 0.0000 26.9910 0.0000
# 6 0.0000 0.0000 0.0000 0.0000 0.0000 51.8167
#
#
#
# Elastic Compliance Matrix: (Units=1/GPa)
#
#
# Indices 1 2 3 4 5 6 
#
# 1 0.011492 -0.005264 0.001303 0.000000 0.000000 0.000000
# 2 -0.005264 0.009366 -0.000310 0.000000 0.000000 0.000000
# 3 0.001303 -0.000310 0.031667 0.000000 0.000000 0.000000
# 4 0.000000 0.000000 0.000000 0.032914 0.000000 0.000000
# 5 0.000000 0.000000 0.000000 0.000000 0.037049 0.000000
# 6 0.000000 0.000000 0.000000 0.000000 0.000000 0.019299
#
#
# Mechanical properties :
#
#
# Convention : Reuss Voigt Hill
#
# Bulk Modulus (GPa) = 22.73527 46.03927 34.38727
# Shear Modulus (GPa) = 30.30500 37.35742 33.83121
#
# Velocity S-wave (km/s) = 3.89847 4.32838 4.11904
# Velocity P-wave (km/s) = 5.62724 6.93316 6.31405
#
# Compressibility (1/GPa) = 0.04398452
#
# Stress axis : x y z
#
# Youngs Moduli (GPa) = 87.01655 106.77181 31.57823
#
# Poissons Ratio (x) = 0.56201 -0.04116
# Poissons Ratio (y) = 0.45802 0.00979
# Poissons Ratio (z) = -0.11341 0.03310
#
# Static dielectric constant tensor:
#      x y z
#    x 3.898800 0.000000 0.000000 
#    y 0.000000 3.655200 0.000000 
#    z 0.000000 0.000000 3.649420 
# 
# 
# High freq. dielectric constant tensor:
#      x y z
#    x 1.790120 0.000000 0.000000 
#    y 0.000000 1.786080 0.000000 
#    z 0.000000 0.000000 1.779920 
# 
# From -- ./inp_files/4682.got.cif
#   From: 2010.03.12/outbox.cif.g09.slc.cpg/sg57_3_cif.got.tgz:4682.got - 2010.04.16 15:48:40.
