data_PCOD8234603
_publ_section_title
;
Structure prediction by ZEFSAII (Michael W. Deem and Ramdas Pophale) SiO2 
 PCOD8234603
Probable space group: P B C M
;
_chemical_formula_sum "Si O2"
_cell_formula_units_Z 40
_cell_length_a 5.408123
_cell_length_b 12.107570
_cell_length_c 26.061156
_cell_angle_alpha 90.000000
_cell_angle_beta 90.000000
_cell_angle_gamma 90.000000
_cell_volume 1706.464370
_symmetry_space_group_name_H-M "P B C M"
_symmetry_group_IT_number 57
_symmetry_cell_setting 'orthorhombic'
loop_
_space_group_symop_operation_xyz
x,y,z
-x,-y,1/2+z
x,1/2-y,-z
-x,1/2+y,1/2-z
-x,-y,-z
x,y,1/2-z
-x,1/2+y,z
x,1/2-y,1/2+z
loop_
_atom_site_type_symbol
_atom_site_label
_atom_site_fract_x
_atom_site_fract_y
_atom_site_fract_z
Si Si1 0.693616 0.550631 0.462840
Si Si2 0.241096 0.298234 0.622871
Si Si3 0.048702 0.668812 0.961490
Si Si4 0.441926 0.383782 0.309463
Si Si5 0.943027 0.984427 0.809388
O O1 0.500000 0.500000 0.500000
O O2 0.596543 0.620038 0.413788
O O3 0.845820 0.635339 0.496630
O O4 0.831236 0.443082 0.440184
O O5 0.056624 0.224594 0.589303
O O6 0.433732 0.225809 0.655458
O O7 0.066364 0.369936 0.659929
O O8 0.213547 0.750000 0.000000
O O9 0.433060 0.348315 0.250000
O O10 0.698219 0.444215 0.322366
O O11 0.199045 0.455074 0.323837
O O12 0.944118 0.952545 0.750000
#
# Coordination Sequence:
#
# PCOD8234603 Si02
#       5
#     8   8   8   8   8
#     4  10  22  41  61  89 127 170 217 277 327 387
#     4  11  22  40  67  95 129 177 225 274 336 401
#     4   9  21  41  60  87 126 169 217 269 328 391
#     4  10  23  44  67  98 137 174 219 272 333 403
#     4  10  23  44  68 101 140 174 220 279 334 401
#
# _framework density 23.440280000000001
#
# number of rings (size 3 to 8) (size 9 to 14) (size 15 to 20)
#    0.000    2.000    0.000    1.800    2.800    4.000 
#   14.400    6.000    0.000    0.000    0.000    0.000 
#    0.000    0.000    0.000    0.000    0.000    0.000 
#
# Total GULP energy -495604.717909 kJ/mol
# GULP energy per Si atom -12390.117948 kJ/mol
# Density = 2.338693 g / cm^3
# Si number density = 23.440280 Si / 1000 Ang^3
#
#
#
# Elastic Constant Matrix: (Units=GPa)
#
#
# Indices 1 2 3 4 5 6 
#
# 1 88.6199 27.4101 23.9495 0.0000 0.0000 0.0000
# 2 27.4101 139.0514 78.3408 0.0000 0.0000 0.0000
# 3 23.9495 78.3408 111.1373 0.0000 0.0000 0.0000
# 4 0.0000 0.0000 0.0000 61.5373 0.0000 0.0000
# 5 0.0000 0.0000 0.0000 0.0000 25.3475 0.0000
# 6 0.0000 0.0000 0.0000 0.0000 0.0000 37.7885
#
#
#
# Elastic Compliance Matrix: (Units=1/GPa)
#
#
# Indices 1 2 3 4 5 6 
#
# 1 0.012175 -0.001529 -0.001546 0.000000 0.000000 0.000000
# 2 -0.001529 0.012121 -0.008215 0.000000 0.000000 0.000000
# 3 -0.001546 -0.008215 0.015122 0.000000 0.000000 0.000000
# 4 0.000000 0.000000 0.000000 0.016250 0.000000 0.000000
# 5 0.000000 0.000000 0.000000 0.000000 0.039452 0.000000
# 6 0.000000 0.000000 0.000000 0.000000 0.000000 0.026463
#
#
# Mechanical properties :
#
#
# Convention : Reuss Voigt Hill
#
# Bulk Modulus (GPa) = 59.38793 66.46770 62.92781
# Shear Modulus (GPa) = 33.38356 38.87519 36.12937
#
# Velocity S-wave (km/s) = 3.77795 4.07686 3.93025
# Velocity P-wave (km/s) = 6.66493 7.11188 6.89203
#
# Compressibility (1/GPa) = 0.01683844
#
# Stress axis : x y z
#
# Youngs Moduli (GPa) = 82.13673 82.50082 66.13095
#
# Poissons Ratio (x) = 0.12615 0.10222
# Poissons Ratio (y) = 0.12559 0.54324
# Poissons Ratio (z) = 0.12697 0.67772
#
# Static dielectric constant tensor:
#      x y z
#    x 4.445390 0.000000 0.000000 
#    y 0.000000 4.002040 0.000000 
#    z 0.000000 0.000000 4.394690 
# 
# 
# High freq. dielectric constant tensor:
#      x y z
#    x 1.893300 0.000000 0.000000 
#    y 0.000000 1.949270 0.000000 
#    z 0.000000 0.000000 1.953730 
# 
# From -- ./inp_files/27782.got.cif
#   From: 2010.03.12/outbox.cif.g09.slc.cpg/sg57_14_cif.got.tgz:27782.got - 2010.04.16 15:48:40.
