data_PCOD8234849
_publ_section_title
;
Structure prediction by ZEFSAII (Michael W. Deem and Ramdas Pophale) SiO2 
 PCOD8234849
Probable space group: P B C M
;
_chemical_formula_sum "Si O2"
_cell_formula_units_Z 40
_cell_length_a 12.590000
_cell_length_b 15.343234
_cell_length_c 9.948379
_cell_angle_alpha 90.000000
_cell_angle_beta 90.000000
_cell_angle_gamma 90.000000
_cell_volume 1921.741464
_symmetry_space_group_name_H-M "P B C M"
_symmetry_group_IT_number 57
_symmetry_cell_setting 'orthorhombic'
loop_
_space_group_symop_operation_xyz
x,y,z
-x,-y,1/2+z
x,1/2-y,-z
-x,1/2+y,1/2-z
-x,-y,-z
x,y,1/2-z
-x,1/2+y,z
x,1/2-y,1/2+z
loop_
_atom_site_type_symbol
_atom_site_label
_atom_site_fract_x
_atom_site_fract_y
_atom_site_fract_z
Si Si1 0.579177 0.919166 0.250000
Si Si2 0.333630 0.149706 0.015650
Si Si3 0.128039 0.065689 0.096518
Si Si4 0.514380 0.893234 0.750000
Si Si5 0.112415 0.590072 0.404043
Si Si6 0.387134 0.715354 0.750000
Si Si7 0.752598 0.250000 0.000000
O O1 0.653121 0.898813 0.375812
O O2 0.472672 0.861722 0.250000
O O3 0.556778 0.021244 0.250000
O O4 0.213071 0.141535 0.067724
O O5 0.413092 0.104799 0.119056
O O6 0.364430 0.250000 0.000000
O O7 0.135896 0.033267 0.250000
O O8 0.012306 0.105068 0.065369
O O9 0.156607 0.984497 0.001577
O O10 0.438325 0.810428 0.750000
O O11 0.130224 0.561043 0.250000
O O12 0.173360 0.678944 0.430528
O O13 0.318340 0.704580 0.614829
#
# Coordination Sequence:
#
# PCOD8234849 Si02
#       7
#     4   8   8   4   8   4   4
#     4  12  28  44  71  98 134 182 227 282 337 399
#     4  12  24  45  68 102 135 176 226 280 342 401
#     4  10  24  44  73  96 136 174 223 278 338 401
#     4  12  26  48  67  94 134 182 233 280 331 403
#     4  10  24  47  65 103 135 174 225 277 329 409
#     4  12  26  46  64 100 138 180 232 286 334 394
#     4  12  26  40  70  96 140 180 222 272 336 400
#
# _framework density 20.814454000000001
#
# number of rings (size 3 to 8) (size 9 to 14) (size 15 to 20)
#    0.000    0.800    4.000    1.800    9.800    0.000 
#    0.000    0.000    0.000    0.000    0.000    0.000 
#    0.000    0.000    0.000    0.000    0.000    0.000 
#
# Total GULP energy -496275.956635 kJ/mol
# GULP energy per Si atom -12406.898916 kJ/mol
# Density = 2.076708 g / cm^3
# Si number density = 20.814454 Si / 1000 Ang^3
#
#
#
# Elastic Constant Matrix: (Units=GPa)
#
#
# Indices 1 2 3 4 5 6 
#
# 1 79.0782 17.9281 29.5202 0.0000 0.0000 0.0000
# 2 17.9281 68.7670 14.6428 0.0000 0.0000 0.0000
# 3 29.5202 14.6428 138.6247 0.0000 0.0000 0.0000
# 4 0.0000 0.0000 0.0000 67.5740 0.0000 0.0000
# 5 0.0000 0.0000 0.0000 0.0000 31.6437 0.0000
# 6 0.0000 0.0000 0.0000 0.0000 0.0000 1.9091
#
#
#
# Elastic Compliance Matrix: (Units=1/GPa)
#
#
# Indices 1 2 3 4 5 6 
#
# 1 0.014382 -0.003169 -0.002728 0.000000 0.000000 0.000000
# 2 -0.003169 0.015575 -0.000970 0.000000 0.000000 0.000000
# 3 -0.002728 -0.000970 0.007897 0.000000 0.000000 0.000000
# 4 0.000000 0.000000 0.000000 0.014799 0.000000 0.000000
# 5 0.000000 0.000000 0.000000 0.000000 0.031602 0.000000
# 6 0.000000 0.000000 0.000000 0.000000 0.000000 0.523807
#
#
# Mechanical properties :
#
#
# Convention : Reuss Voigt Hill
#
# Bulk Modulus (GPa) = 41.45937 45.62798 43.54367
# Shear Modulus (GPa) = 7.93858 35.18397 21.56127
#
# Velocity S-wave (km/s) = 1.95506 4.11586 3.22200
# Velocity P-wave (km/s) = 5.00581 6.67503 5.89975
#
# Compressibility (1/GPa) = 0.02412000
#
# Stress axis : x y z
#
# Youngs Moduli (GPa) = 69.52898 64.20713 126.62790
#
# Poissons Ratio (x) = 0.20346 0.34545
# Poissons Ratio (y) = 0.22032 0.12287
# Poissons Ratio (z) = 0.18968 0.06230
#
# Static dielectric constant tensor:
#      x y z
#    x 3.909590 0.000000 0.000000 
#    y 0.000000 3.559300 0.000000 
#    z 0.000000 0.000000 4.056270 
# 
# 
# High freq. dielectric constant tensor:
#      x y z
#    x 1.828190 0.000000 0.000000 
#    y 0.000000 1.804080 0.000000 
#    z 0.000000 0.000000 1.837840 
# 
# From -- ./inp_files/2749.got.cif
#   From: 2010.03.12/outbox.cif.g09.slc.cpg/sg57_2_cif.got.tgz:2749.got - 2010.04.16 15:48:40.
