data_PCOD8234933
_publ_section_title
;
Structure prediction by ZEFSAII (Michael W. Deem and Ramdas Pophale) SiO2 
 PCOD8234933
Probable space group: P B C M
;
_chemical_formula_sum "Si O2"
_cell_formula_units_Z 40
_cell_length_a 26.113023
_cell_length_b 9.134091
_cell_length_c 8.607584
_cell_angle_alpha 90.000000
_cell_angle_beta 90.000000
_cell_angle_gamma 90.000000
_cell_volume 2053.069990
_symmetry_space_group_name_H-M "P B C M"
_symmetry_group_IT_number 57
_symmetry_cell_setting 'orthorhombic'
loop_
_space_group_symop_operation_xyz
x,y,z
-x,-y,1/2+z
x,1/2-y,-z
-x,1/2+y,1/2-z
-x,-y,-z
x,y,1/2-z
-x,1/2+y,z
x,1/2-y,1/2+z
loop_
_atom_site_type_symbol
_atom_site_label
_atom_site_fract_x
_atom_site_fract_y
_atom_site_fract_z
Si Si1 0.047592 0.588071 0.065372
Si Si2 0.761114 0.409922 0.068460
Si Si3 0.649016 0.410900 0.432502
Si Si4 0.858272 0.911402 0.934674
Si Si5 0.452932 0.587663 0.067019
O O1 0.045381 0.591017 0.250000
O O2 0.044946 0.750000 0.000000
O O3 0.099498 0.514430 0.009203
O O4 0.000000 0.500000 0.000000
O O5 0.765686 0.386210 0.250000
O O6 0.704926 0.478927 0.027335
O O7 0.803423 0.525004 0.010410
O O8 0.770897 0.250000 0.000000
O O9 0.651329 0.250000 0.500000
O O10 0.638305 0.407660 0.250000
O O11 0.600735 0.491082 0.515148
O O12 0.864485 0.909558 0.750000
O O13 0.864738 0.750000 0.000000
O O14 0.456881 0.591622 0.250000
O O15 0.454697 0.750000 0.000000
O O16 0.500000 0.500000 0.000000
#
# Coordination Sequence:
#
# PCOD8234933 Si02
#       5
#     8   8   8   8   8
#     4  12  25  43  65  91 120 154 192 236 283 334
#     4   9  19  34  56  82 110 142 183 230 279 331
#     4   9  16  30  51  77 106 140 180 227 276 331
#     4  11  23  40  59  85 118 155 193 234 281 334
#     4  11  21  35  54  79 108 143 183 229 279 334
#
# _framework density 19.483017
#
# number of rings (size 3 to 8) (size 9 to 14) (size 15 to 20)
#    0.000    1.600    0.000    7.200    0.000    4.000 
#    0.000    1.000    0.000    2.400    0.000    0.000 
#    0.000    0.000    0.000    0.000    0.000    0.000 
#
# Total GULP energy -495833.301886 kJ/mol
# GULP energy per Si atom -12395.832547 kJ/mol
# Density = 1.943867 g / cm^3
# Si number density = 19.483017 Si / 1000 Ang^3
#
#
#
# Elastic Constant Matrix: (Units=GPa)
#
#
# Indices 1 2 3 4 5 6 
#
# 1 200.8971 75.1690 79.1500 0.0000 0.0000 0.0000
# 2 75.1690 109.4268 49.2819 0.0000 0.0000 0.0000
# 3 79.1500 49.2819 145.8463 0.0000 0.0000 0.0000
# 4 0.0000 0.0000 0.0000 31.1997 0.0000 0.0000
# 5 0.0000 0.0000 0.0000 0.0000 34.1436 0.0000
# 6 0.0000 0.0000 0.0000 0.0000 0.0000 34.7324
#
#
#
# Elastic Compliance Matrix: (Units=1/GPa)
#
#
# Indices 1 2 3 4 5 6 
#
# 1 0.007538 -0.003934 -0.002761 0.000000 0.000000 0.000000
# 2 -0.003934 0.012832 -0.002201 0.000000 0.000000 0.000000
# 3 -0.002761 -0.002201 0.009099 0.000000 0.000000 0.000000
# 4 0.000000 0.000000 0.000000 0.032052 0.000000 0.000000
# 5 0.000000 0.000000 0.000000 0.000000 0.029288 0.000000
# 6 0.000000 0.000000 0.000000 0.000000 0.000000 0.028792
#
#
# Mechanical properties :
#
#
# Convention : Reuss Voigt Hill
#
# Bulk Modulus (GPa) = 85.64750 95.93022 90.78886
# Shear Modulus (GPa) = 35.38951 36.85311 36.12131
#
# Velocity S-wave (km/s) = 4.26658 4.35391 4.31047
# Velocity P-wave (km/s) = 8.26602 8.63830 8.45421
#
# Compressibility (1/GPa) = 0.01167576
#
# Stress axis : x y z
#
# Youngs Moduli (GPa) = 132.66772 77.92791 109.90521
#
# Poissons Ratio (x) = 0.30659 0.30347
# Poissons Ratio (y) = 0.52195 0.24190
# Poissons Ratio (z) = 0.36632 0.17152
#
# Static dielectric constant tensor:
#      x y z
#    x 5.475720 0.000000 0.000000 
#    y 0.000000 3.336820 0.000000 
#    z 0.000000 0.000000 3.754120 
# 
# 
# High freq. dielectric constant tensor:
#      x y z
#    x 1.791930 0.000000 0.000000 
#    y 0.000000 1.729370 0.000000 
#    z 0.000000 0.000000 1.774900 
# 
# From -- ./inp_files/9635.got.cif
#   From: 2010.03.12/outbox.cif.g09.slc.cpg/sg57_5_cif.got.tgz:9635.got - 2010.04.16 15:48:40.
