data_PCOD8234602
_publ_section_title
;
Structure prediction by ZEFSAII (Michael W. Deem and Ramdas Pophale) SiO2 
 PCOD8234602
Probable space group: P B C M
;
_chemical_formula_sum "Si O2"
_cell_formula_units_Z 64
_cell_length_a 11.941502
_cell_length_b 31.383353
_cell_length_c 8.787441
_cell_angle_alpha 90.000000
_cell_angle_beta 90.000000
_cell_angle_gamma 90.000000
_cell_volume 3293.219813
_symmetry_space_group_name_H-M "P B C M"
_symmetry_group_IT_number 57
_symmetry_cell_setting 'orthorhombic'
loop_
_space_group_symop_operation_xyz
x,y,z
-x,-y,1/2+z
x,1/2-y,-z
-x,1/2+y,1/2-z
-x,-y,-z
x,y,1/2-z
-x,1/2+y,z
x,1/2-y,1/2+z
loop_
_atom_site_type_symbol
_atom_site_label
_atom_site_fract_x
_atom_site_fract_y
_atom_site_fract_z
Si Si1 0.411080 0.627968 0.430448
Si Si2 0.606724 0.979459 0.577193
Si Si3 0.870113 0.874879 0.929577
Si Si4 0.987463 0.293639 0.929334
Si Si5 0.254516 0.560629 0.577777
Si Si6 0.640228 0.890998 0.429308
Si Si7 0.976558 0.046101 0.070633
Si Si8 0.266539 0.706905 0.070505
O O1 0.411145 0.624746 0.250000
O O2 0.354931 0.585702 0.497343
O O3 0.536820 0.632792 0.490995
O O4 0.341282 0.668235 0.490125
O O5 0.576759 0.965531 0.750000
O O6 0.645831 0.939808 0.479017
O O7 0.500000 0.000000 0.500000
O O8 0.711577 0.011213 0.578192
O O9 0.847753 0.873676 0.750000
O O10 0.944823 0.835018 0.983781
O O11 0.928205 0.919719 0.974666
O O12 0.754366 0.868805 0.018248
O O13 0.992998 0.288883 0.750000
O O14 0.860297 0.300480 0.986189
O O15 0.037333 0.250000 0.000000
O O16 0.238716 0.577190 0.750000
O O17 0.139589 0.566065 0.487101
O O18 0.625542 0.887590 0.250000
O O19 0.969269 0.040437 0.250000
O O20 0.000000 0.000000 0.000000
O O21 0.272446 0.710349 0.250000
O O22 0.316360 0.750000 0.000000
#
# Coordination Sequence:
#
# PCOD8234602 Si02
#       8
#     8   8   8   8   8   8   8   8
#     4  11  22  38  60  84 114 151 192 234 285 343
#     4  11  22  37  57  81 113 153 196 240 287 341
#     4  10  22  41  61  82 115 159 200 241 293 356
#     4   9  18  36  62  90 118 146 186 236 291 353
#     4  11  23  37  57  86 116 147 191 240 289 341
#     4  12  25  39  57  84 116 152 198 246 293 346
#     4  11  23  39  59  84 117 156 198 242 293 351
#     4   9  19  36  60  90 118 148 182 227 287 348
#
# _framework density 19.433868
#
# number of rings (size 3 to 8) (size 9 to 14) (size 15 to 20)
#    0.000    1.500    1.250    4.125    0.000    9.000 
#    0.000    3.125    0.000    0.000    0.000    0.000 
#    0.000    0.000    0.000    0.000    0.000    0.000 
#
# Total GULP energy -793847.286140 kJ/mol
# GULP energy per Si atom -12403.863846 kJ/mol
# Density = 1.938964 g / cm^3
# Si number density = 19.433868 Si / 1000 Ang^3
#
#
#
# Elastic Constant Matrix: (Units=GPa)
#
#
# Indices 1 2 3 4 5 6 
#
# 1 117.6779 52.0648 42.2896 0.0000 0.0000 0.0000
# 2 52.0648 130.0815 38.8462 0.0000 0.0000 0.0000
# 3 42.2896 38.8462 79.1653 0.0000 0.0000 0.0000
# 4 0.0000 0.0000 0.0000 32.5423 0.0000 0.0000
# 5 0.0000 0.0000 0.0000 0.0000 31.9009 0.0000
# 6 0.0000 0.0000 0.0000 0.0000 0.0000 33.7638
#
#
#
# Elastic Compliance Matrix: (Units=1/GPa)
#
#
# Indices 1 2 3 4 5 6 
#
# 1 0.011594 -0.003270 -0.004589 0.000000 0.000000 0.000000
# 2 -0.003270 0.009930 -0.003126 0.000000 0.000000 0.000000
# 3 -0.004589 -0.003126 0.016617 0.000000 0.000000 0.000000
# 4 0.000000 0.000000 0.000000 0.030729 0.000000 0.000000
# 5 0.000000 0.000000 0.000000 0.000000 0.031347 0.000000
# 6 0.000000 0.000000 0.000000 0.000000 0.000000 0.029618
#
#
# Mechanical properties :
#
#
# Convention : Reuss Voigt Hill
#
# Bulk Modulus (GPa) = 61.83738 65.92511 63.88125
# Shear Modulus (GPa) = 31.80806 32.55634 32.18220
#
# Velocity S-wave (km/s) = 4.05005 4.09741 4.07379
# Velocity P-wave (km/s) = 7.33205 7.50876 7.42093
#
# Compressibility (1/GPa) = 0.01617145
#
# Stress axis : x y z
#
# Youngs Moduli (GPa) = 86.25498 100.70786 60.18019
#
# Poissons Ratio (x) = 0.32931 0.27614
# Poissons Ratio (y) = 0.28205 0.18810
# Poissons Ratio (z) = 0.39579 0.31478
#
# Static dielectric constant tensor:
#      x y z
#    x 3.614110 0.000000 0.000000 
#    y 0.000000 3.642230 0.000000 
#    z 0.000000 0.000000 3.579460 
# 
# 
# High freq. dielectric constant tensor:
#      x y z
#    x 1.760190 0.000000 0.000000 
#    y 0.000000 1.754290 0.000000 
#    z 0.000000 0.000000 1.760710 
# 
# From -- ./inp_files/3806.got.cif
#   From: 2010.03.12/outbox.cif.g09.slc.cpg/sg57_2_cif.got.tgz:3806.got - 2010.04.16 15:48:40.
