data_PCOD8234635
_publ_section_title
;
Structure prediction by ZEFSAII (Michael W. Deem and Ramdas Pophale) SiO2 
 PCOD8234635
Probable space group: P B C M
;
_chemical_formula_sum "Si O2"
_cell_formula_units_Z 64
_cell_length_a 9.160566
_cell_length_b 17.871717
_cell_length_c 18.763212
_cell_angle_alpha 90.000000
_cell_angle_beta 90.000000
_cell_angle_gamma 90.000000
_cell_volume 3071.820061
_symmetry_space_group_name_H-M "P B C M"
_symmetry_group_IT_number 57
_symmetry_cell_setting 'orthorhombic'
loop_
_space_group_symop_operation_xyz
x,y,z
-x,-y,1/2+z
x,1/2-y,-z
-x,1/2+y,1/2-z
-x,-y,-z
x,y,1/2-z
-x,1/2+y,z
x,1/2-y,1/2+z
loop_
_atom_site_type_symbol
_atom_site_label
_atom_site_fract_x
_atom_site_fract_y
_atom_site_fract_z
Si Si1 0.415465 0.667632 0.831762
Si Si2 0.209785 0.550139 0.600219
Si Si3 0.259193 0.378150 0.170768
Si Si4 0.107655 0.878400 0.960009
Si Si5 0.409770 0.062894 0.459037
Si Si6 0.602507 0.298419 0.933458
Si Si7 0.189083 0.172174 0.972880
Si Si8 0.064421 0.514758 0.330327
O O1 0.368317 0.671606 0.750000
O O2 0.292723 0.624638 0.876199
O O3 0.567631 0.624673 0.842159
O O4 0.424503 0.751834 0.861559
O O5 0.159132 0.560684 0.518231
O O6 0.315970 0.477781 0.602846
O O7 0.074663 0.537354 0.652482
O O8 0.220929 0.347489 0.250000
O O9 0.173727 0.326598 0.113226
O O10 0.209499 0.464303 0.163343
O O11 0.227172 0.815134 0.945294
O O12 0.071641 0.917715 0.885448
O O13 0.964508 0.837469 0.988498
O O14 0.517578 0.123388 0.424354
O O15 0.298928 0.104156 0.512228
O O16 0.500000 0.000000 0.500000
O O17 0.543219 0.250000 0.000000
O O18 0.257857 0.250000 0.000000
O O19 0.048950 0.546610 0.250000
#
# Coordination Sequence:
#
# PCOD8234635 Si02
#       8
#     8   8   8   8   8   8   8   8
#     4  11  25  45  68  99 136 176 226 281 344 418
#     4  12  22  42  67 101 131 178 226 279 336 400
#     4  10  22  41  67  95 131 175 219 274 338 402
#     4  12  24  40  68  97 137 172 231 283 333 404
#     4  12  23  38  68 102 130 171 223 283 337 392
#     4  12  24  43  67  98 133 176 221 278 342 411
#     4  12  24  41  67  98 133 175 224 279 336 403
#     4  11  24  43  66 100 138 177 222 282 344 401
#
# _framework density 20.834554000000001
#
# number of rings (size 3 to 8) (size 9 to 14) (size 15 to 20)
#    0.000    0.500    5.000    4.500    1.750    0.500 
#    0.000    1.875    0.000    0.000    0.000    0.000 
#    0.000    0.000    0.000    0.000    0.000    0.000 
#
# Total GULP energy -793864.594732 kJ/mol
# GULP energy per Si atom -12404.134293 kJ/mol
# Density = 2.078713 g / cm^3
# Si number density = 20.834554 Si / 1000 Ang^3
#
#
#
# Elastic Constant Matrix: (Units=GPa)
#
#
# Indices 1 2 3 4 5 6 
#
# 1 114.4802 44.5106 35.8422 0.0000 0.0000 0.0000
# 2 44.5106 110.8049 42.8585 0.0000 0.0000 0.0000
# 3 35.8422 42.8585 143.9478 0.0000 0.0000 0.0000
# 4 0.0000 0.0000 0.0000 33.6833 0.0000 0.0000
# 5 0.0000 0.0000 0.0000 0.0000 25.8899 0.0000
# 6 0.0000 0.0000 0.0000 0.0000 0.0000 31.0712
#
#
#
# Elastic Compliance Matrix: (Units=1/GPa)
#
#
# Indices 1 2 3 4 5 6 
#
# 1 0.010652 -0.003677 -0.001558 0.000000 0.000000 0.000000
# 2 -0.003677 0.011468 -0.002499 0.000000 0.000000 0.000000
# 3 -0.001558 -0.002499 0.008079 0.000000 0.000000 0.000000
# 4 0.000000 0.000000 0.000000 0.029688 0.000000 0.000000
# 5 0.000000 0.000000 0.000000 0.000000 0.038625 0.000000
# 6 0.000000 0.000000 0.000000 0.000000 0.000000 0.032184
#
#
# Mechanical properties :
#
#
# Convention : Reuss Voigt Hill
#
# Bulk Modulus (GPa) = 67.87562 68.40616 68.14089
# Shear Modulus (GPa) = 33.09618 34.53032 33.81325
#
# Velocity S-wave (km/s) = 3.98995 4.07548 4.03294
# Velocity P-wave (km/s) = 7.33999 7.41960 7.37990
#
# Compressibility (1/GPa) = 0.01473283
#
# Stress axis : x y z
#
# Youngs Moduli (GPa) = 93.87645 87.19619 123.77916
#
# Poissons Ratio (x) = 0.32058 0.19281
# Poissons Ratio (y) = 0.34514 0.30934
# Poissons Ratio (z) = 0.14623 0.21791
#
# Static dielectric constant tensor:
#      x y z
#    x 3.975880 0.000000 0.000000 
#    y 0.000000 3.679470 0.000000 
#    z 0.000000 0.000000 3.817740 
# 
# 
# High freq. dielectric constant tensor:
#      x y z
#    x 1.832510 0.000000 0.000000 
#    y 0.000000 1.807700 0.000000 
#    z 0.000000 0.000000 1.809350 
# 
# From -- ./inp_files/21448.got.cif
#   From: 2010.03.12/outbox.cif.g09.slc.cpg/sg57_11_cif.got.tgz:21448.got - 2010.04.16 15:48:40.
