data_PCOD8234550
_publ_section_title
;
Structure prediction by ZEFSAII (Michael W. Deem and Ramdas Pophale) SiO2 
 PCOD8234550
Probable space group: P B C M
;
_chemical_formula_sum "Si O2"
_cell_formula_units_Z 48
_cell_length_a 18.777299
_cell_length_b 8.818717
_cell_length_c 13.961029
_cell_angle_alpha 90.000000
_cell_angle_beta 90.000000
_cell_angle_gamma 90.000000
_cell_volume 2311.830329
_symmetry_space_group_name_H-M "P B C M"
_symmetry_group_IT_number 57
_symmetry_cell_setting 'orthorhombic'
loop_
_space_group_symop_operation_xyz
x,y,z
-x,-y,1/2+z
x,1/2-y,-z
-x,1/2+y,1/2-z
-x,-y,-z
x,y,1/2-z
-x,1/2+y,z
x,1/2-y,1/2+z
loop_
_atom_site_type_symbol
_atom_site_label
_atom_site_fract_x
_atom_site_fract_y
_atom_site_fract_z
Si Si1 0.569214 0.581903 0.459925
Si Si2 0.820364 0.920276 0.476981
Si Si3 0.539056 0.999289 0.750000
Si Si4 0.092113 0.993218 0.141435
Si Si5 0.398285 0.834031 0.750000
Si Si6 0.952879 0.834407 0.358414
Si Si7 0.311213 0.895019 0.560488
O O1 0.568907 0.750000 0.500000
O O2 0.500000 0.500000 0.500000
O O3 0.570914 0.581565 0.344323
O O4 0.638293 0.496345 0.495355
O O5 0.793973 0.750000 0.500000
O O6 0.837342 0.011695 0.575532
O O7 0.893245 0.922505 0.417717
O O8 0.759340 0.006623 0.417641
O O9 0.453425 0.974838 0.750000
O O10 0.556415 0.178252 0.750000
O O11 0.117231 0.961859 0.250000
O O12 0.055571 0.156393 0.130058
O O13 0.032610 0.873868 0.106394
O O14 0.348476 0.843539 0.657831
O O15 0.944012 0.890877 0.250000
O O16 0.288438 0.750000 0.500000
#
# Coordination Sequence:
#
# PCOD8234550 Si02
#       7
#     8   8   4   8   4   8   8
#     4  12  24  43  69  99 132 165 215 266 320 392
#     4  10  22  40  59  86 126 173 215 261 328 388
#     4  12  24  44  74 100 128 169 211 270 332 380
#     4   9  18  35  57  87 121 159 215 269 317 379
#     4  12  26  44  72 102 130 165 219 266 336 390
#     4   9  18  33  59  88 119 158 211 270 319 379
#     4  12  26  45  63  94 135 172 213 270 322 398
#
# _framework density 20.76277
#
# number of rings (size 3 to 8) (size 9 to 14) (size 15 to 20)
#    0.000    1.333    3.333    2.500    1.167    1.333 
#    3.000    0.000    0.000    0.000    0.000    0.000 
#    0.000    0.000    0.000    0.000    0.000    0.000 
#
# Total GULP energy -595277.684900 kJ/mol
# GULP energy per Si atom -12401.618435 kJ/mol
# Density = 2.071551 g / cm^3
# Si number density = 20.762770 Si / 1000 Ang^3
#
#
#
# Elastic Constant Matrix: (Units=GPa)
#
#
# Indices 1 2 3 4 5 6 
#
# 1 74.6165 32.4557 30.3492 0.0000 0.0000 0.0000
# 2 32.4557 84.6351 32.1924 0.0000 0.0000 0.0000
# 3 30.3492 32.1924 122.4753 0.0000 0.0000 0.0000
# 4 0.0000 0.0000 0.0000 30.6273 0.0000 0.0000
# 5 0.0000 0.0000 0.0000 0.0000 20.8779 0.0000
# 6 0.0000 0.0000 0.0000 0.0000 0.0000 35.3072
#
#
#
# Elastic Compliance Matrix: (Units=1/GPa)
#
#
# Indices 1 2 3 4 5 6 
#
# 1 0.016883 -0.005426 -0.002758 0.000000 0.000000 0.000000
# 2 -0.005426 0.014871 -0.002564 0.000000 0.000000 0.000000
# 3 -0.002758 -0.002564 0.009522 0.000000 0.000000 0.000000
# 4 0.000000 0.000000 0.000000 0.032651 0.000000 0.000000
# 5 0.000000 0.000000 0.000000 0.000000 0.047897 0.000000
# 6 0.000000 0.000000 0.000000 0.000000 0.000000 0.028323
#
#
# Mechanical properties :
#
#
# Convention : Reuss Voigt Hill
#
# Bulk Modulus (GPa) = 50.55116 52.41350 51.48233
# Shear Modulus (GPa) = 28.05250 29.81113 28.93181
#
# Velocity S-wave (km/s) = 3.67971 3.79330 3.73694
# Velocity P-wave (km/s) = 6.51564 6.66966 6.59310
#
# Compressibility (1/GPa) = 0.01978194
#
# Stress axis : x y z
#
# Youngs Moduli (GPa) = 59.22982 67.24302 105.01651
#
# Poissons Ratio (x) = 0.36483 0.28959
# Poissons Ratio (y) = 0.32135 0.26931
# Poissons Ratio (z) = 0.16333 0.17244
#
# Static dielectric constant tensor:
#      x y z
#    x 3.726870 0.000000 0.000000 
#    y 0.000000 3.833740 0.000000 
#    z 0.000000 0.000000 4.173090 
# 
# 
# High freq. dielectric constant tensor:
#      x y z
#    x 1.803940 0.000000 0.000000 
#    y 0.000000 1.814160 0.000000 
#    z 0.000000 0.000000 1.825740 
# 
# From -- ./inp_files/18992.got.cif
#   From: 2010.03.12/outbox.cif.g09.slc.cpg/sg57_10_cif.got.tgz:18992.got - 2010.04.16 15:48:40.
