data_PCOD8234240
_publ_section_title
;
Structure prediction by ZEFSAII (Michael W. Deem and Ramdas Pophale) SiO2 
 PCOD8234240
Probable space group: P B C M
;
_chemical_formula_sum "Si O2"
_cell_formula_units_Z 64
_cell_length_a 15.386333
_cell_length_b 23.645977
_cell_length_c 8.826265
_cell_angle_alpha 90.000000
_cell_angle_beta 90.000000
_cell_angle_gamma 90.000000
_cell_volume 3211.214771
_symmetry_space_group_name_H-M "P B C M"
_symmetry_group_IT_number 57
_symmetry_cell_setting 'orthorhombic'
loop_
_space_group_symop_operation_xyz
x,y,z
-x,-y,1/2+z
x,1/2-y,-z
-x,1/2+y,1/2-z
-x,-y,-z
x,y,1/2-z
-x,1/2+y,z
x,1/2-y,1/2+z
loop_
_atom_site_type_symbol
_atom_site_label
_atom_site_fract_x
_atom_site_fract_y
_atom_site_fract_z
Si Si1 0.505387 0.810748 0.571419
Si Si2 0.592384 0.506875 0.075676
Si Si3 0.355282 0.619223 0.576008
Si Si4 0.836868 0.378984 0.070356
Si Si5 0.847835 0.892832 0.423693
Si Si6 0.000300 0.189819 0.929283
Si Si7 0.905824 0.497319 0.071045
Si Si8 0.346905 0.118444 0.575782
O O1 0.487198 0.750000 0.500000
O O2 0.510326 0.804136 0.750000
O O3 0.427435 0.852909 0.529524
O O4 0.596119 0.835880 0.513193
O O5 0.580316 0.524640 0.250000
O O6 0.644609 0.448527 0.060576
O O7 0.500000 0.500000 0.000000
O O8 0.644428 0.555692 0.990456
O O9 0.373328 0.636933 0.750000
O O10 0.260021 0.639750 0.519652
O O11 0.840384 0.381297 0.250000
O O12 0.858893 0.441210 0.007635
O O13 0.908418 0.334608 0.009460
O O14 0.866908 0.909500 0.250000
O O15 0.921561 0.850445 0.484103
O O16 0.848455 0.949232 0.523419
O O17 0.753695 0.863335 0.439781
O O18 0.999905 0.195409 0.750000
O O19 0.017632 0.250000 0.000000
O O20 0.915166 0.495402 0.250000
O O21 0.000000 0.500000 0.000000
O O22 0.377745 0.117810 0.750000
#
# Coordination Sequence:
#
# PCOD8234240 Si02
#       8
#     8   8   8   8   8   8   8   8
#     4  12  26  44  65  87 118 158 204 255 306 363
#     4  11  21  35  60  91 126 161 197 242 300 362
#     4  10  21  39  63  90 120 158 201 245 299 361
#     4   9  19  37  61  86 120 158 193 241 298 352
#     4  10  22  40  61  88 123 159 197 249 303 354
#     4  10  21  40  60  82 116 154 198 246 296 349
#     4  11  20  35  61  91 124 161 199 243 301 364
#     4  11  23  40  63  91 124 160 201 252 306 362
#
# _framework density 19.930152
#
# number of rings (size 3 to 8) (size 9 to 14) (size 15 to 20)
#    0.000    1.500    2.500    3.000    0.000    4.000 
#    0.000    4.375    0.000    0.000    0.000    0.000 
#    0.000    0.000    0.000    0.000    0.000    0.000 
#
# Total GULP energy -793782.903671 kJ/mol
# GULP energy per Si atom -12402.857870 kJ/mol
# Density = 1.988479 g / cm^3
# Si number density = 19.930152 Si / 1000 Ang^3
#
#
#
# Elastic Constant Matrix: (Units=GPa)
#
#
# Indices 1 2 3 4 5 6 
#
# 1 114.9955 16.7557 28.2003 0.0000 0.0000 0.0000
# 2 16.7557 85.7403 26.7076 0.0000 0.0000 0.0000
# 3 28.2003 26.7076 91.0645 0.0000 0.0000 0.0000
# 4 0.0000 0.0000 0.0000 32.6901 0.0000 0.0000
# 5 0.0000 0.0000 0.0000 0.0000 20.2311 0.0000
# 6 0.0000 0.0000 0.0000 0.0000 0.0000 16.7238
#
#
#
# Elastic Compliance Matrix: (Units=1/GPa)
#
#
# Indices 1 2 3 4 5 6 
#
# 1 0.009493 -0.001034 -0.002637 0.000000 0.000000 0.000000
# 2 -0.001034 0.012948 -0.003477 0.000000 0.000000 0.000000
# 3 -0.002637 -0.003477 0.012818 0.000000 0.000000 0.000000
# 4 0.000000 0.000000 0.000000 0.030590 0.000000 0.000000
# 5 0.000000 0.000000 0.000000 0.000000 0.049429 0.000000
# 6 0.000000 0.000000 0.000000 0.000000 0.000000 0.059795
#
#
# Mechanical properties :
#
#
# Convention : Reuss Voigt Hill
#
# Bulk Modulus (GPa) = 47.70209 48.34749 48.02479
# Shear Modulus (GPa) = 25.46383 28.60477 27.03430
#
# Velocity S-wave (km/s) = 3.57831 3.79258 3.68700
# Velocity P-wave (km/s) = 6.40773 6.59465 6.50186
#
# Compressibility (1/GPa) = 0.02096344
#
# Stress axis : x y z
#
# Youngs Moduli (GPa) = 105.33851 77.22993 78.01805
#
# Poissons Ratio (x) = 0.07985 0.20570
# Poissons Ratio (y) = 0.10891 0.27130
# Poissons Ratio (z) = 0.27773 0.26855
#
# Static dielectric constant tensor:
#      x y z
#    x 3.825300 0.000000 0.000000 
#    y 0.000000 3.061560 0.000000 
#    z 0.000000 0.000000 3.604810 
# 
# 
# High freq. dielectric constant tensor:
#      x y z
#    x 1.794320 0.000000 0.000000 
#    y 0.000000 1.773010 0.000000 
#    z 0.000000 0.000000 1.766420 
# 
# From -- ./inp_files/5688.got.cif
#   From: 2010.03.12/outbox.cif.g09.slc.cpg/sg57_3_cif.got.tgz:5688.got - 2010.04.16 15:48:40.
