data_PCOD8234067
_publ_section_title
;
Structure prediction by ZEFSAII (Michael W. Deem and Ramdas Pophale) SiO2 
 PCOD8234067
Probable space group: P B C M
;
_chemical_formula_sum "Si O2"
_cell_formula_units_Z 32
_cell_length_a 7.673015
_cell_length_b 12.981291
_cell_length_c 17.838709
_cell_angle_alpha 90.000000
_cell_angle_beta 90.000000
_cell_angle_gamma 90.000000
_cell_volume 1776.836037
_symmetry_space_group_name_H-M "P B C M"
_symmetry_group_IT_number 57
_symmetry_cell_setting 'orthorhombic'
loop_
_space_group_symop_operation_xyz
x,y,z
-x,-y,1/2+z
x,1/2-y,-z
-x,1/2+y,1/2-z
-x,-y,-z
x,y,1/2-z
-x,1/2+y,z
x,1/2-y,1/2+z
loop_
_atom_site_type_symbol
_atom_site_label
_atom_site_fract_x
_atom_site_fract_y
_atom_site_fract_z
Si Si1 0.471473 0.546688 0.418795
Si Si2 0.228823 0.556002 0.838001
Si Si3 0.865672 0.041914 0.338386
Si Si4 0.756222 0.230580 0.082705
O O1 0.500000 0.500000 0.500000
O O2 0.642921 0.531995 0.368744
O O3 0.304666 0.491593 0.378192
O O4 0.428551 0.668938 0.424884
O O5 0.253234 0.565106 0.750000
O O6 0.279549 0.663478 0.875304
O O7 0.032352 0.526030 0.859897
O O8 0.836054 0.047047 0.250000
O O9 0.890749 0.159034 0.369929
O O10 0.834527 0.250000 0.000000
#
# Coordination Sequence:
#
# PCOD8234067 Si02
#       4
#     8   8   8   8
#     4  10  21  38  60  87 121 152 197 239 290 350
#     4  11  21  39  63  85 118 160 192 242 300 341
#     4   9  21  39  59  88 119 148 198 247 286 351
#     4  10  21  38  59  87 118 153 195 243 289 349
#
# _framework density 18.009540000000001
#
# number of rings (size 3 to 8) (size 9 to 14) (size 15 to 20)
#    1.500    0.500    2.500    1.500    0.000    4.000 
#    4.500    1.250    0.000    0.000    0.000    0.000 
#    0.000    0.000    0.000    0.000    0.000    0.000 
#
# Total GULP energy -396563.012864 kJ/mol
# GULP energy per Si atom -12392.594152 kJ/mol
# Density = 1.796855 g / cm^3
# Si number density = 18.009540 Si / 1000 Ang^3
#
#
#
# Elastic Constant Matrix: (Units=GPa)
#
#
# Indices 1 2 3 4 5 6 
#
# 1 108.4095 35.6053 74.2985 0.0000 0.0000 0.0000
# 2 35.6053 91.7629 50.0674 0.0000 0.0000 0.0000
# 3 74.2985 50.0674 130.6026 0.0000 0.0000 0.0000
# 4 0.0000 0.0000 0.0000 34.1193 0.0000 0.0000
# 5 0.0000 0.0000 0.0000 0.0000 25.1331 0.0000
# 6 0.0000 0.0000 0.0000 0.0000 0.0000 27.7524
#
#
#
# Elastic Compliance Matrix: (Units=1/GPa)
#
#
# Indices 1 2 3 4 5 6 
#
# 1 0.015281 -0.001500 -0.008118 0.000000 0.000000 0.000000
# 2 -0.001500 0.013927 -0.004486 0.000000 0.000000 0.000000
# 3 -0.008118 -0.004486 0.013995 0.000000 0.000000 0.000000
# 4 0.000000 0.000000 0.000000 0.029309 0.000000 0.000000
# 5 0.000000 0.000000 0.000000 0.000000 0.039788 0.000000
# 6 0.000000 0.000000 0.000000 0.000000 0.000000 0.036033
#
#
# Mechanical properties :
#
#
# Convention : Reuss Voigt Hill
#
# Bulk Modulus (GPa) = 66.68805 72.30192 69.49499
# Shear Modulus (GPa) = 27.54245 28.78789 28.16517
#
# Velocity S-wave (km/s) = 3.91490 4.00244 3.95891
# Velocity P-wave (km/s) = 7.58584 7.84812 7.71809
#
# Compressibility (1/GPa) = 0.01499519
#
# Stress axis : x y z
#
# Youngs Moduli (GPa) = 65.44280 71.80223 71.45536
#
# Poissons Ratio (x) = 0.10768 0.58007
# Poissons Ratio (y) = 0.09815 0.32054
# Poissons Ratio (z) = 0.53126 0.32210
#
# Static dielectric constant tensor:
#      x y z
#    x 3.226360 0.000000 0.000000 
#    y 0.000000 3.000290 0.000000 
#    z 0.000000 0.000000 3.534530 
# 
# 
# High freq. dielectric constant tensor:
#      x y z
#    x 1.679980 0.000000 0.000000 
#    y 0.000000 1.683930 0.000000 
#    z 0.000000 0.000000 1.720390 
# 
# From -- ./inp_files/15528.got.cif
#   From: 2010.03.12/outbox.cif.g09.slc.cpg/sg57_8_cif.got.tgz:15528.got - 2010.04.16 15:48:40.
