data_PCOD8234586
_publ_section_title
;
Structure prediction by ZEFSAII (Michael W. Deem and Ramdas Pophale) SiO2 
 PCOD8234586
Probable space group: P B C M
;
_chemical_formula_sum "Si O2"
_cell_formula_units_Z 48
_cell_length_a 15.130801
_cell_length_b 9.727368
_cell_length_c 15.785449
_cell_angle_alpha 90.000000
_cell_angle_beta 90.000000
_cell_angle_gamma 90.000000
_cell_volume 2323.347680
_symmetry_space_group_name_H-M "P B C M"
_symmetry_group_IT_number 57
_symmetry_cell_setting 'orthorhombic'
loop_
_space_group_symop_operation_xyz
x,y,z
-x,-y,1/2+z
x,1/2-y,-z
-x,1/2+y,1/2-z
-x,-y,-z
x,y,1/2-z
-x,1/2+y,z
x,1/2-y,1/2+z
loop_
_atom_site_type_symbol
_atom_site_label
_atom_site_fract_x
_atom_site_fract_y
_atom_site_fract_z
Si Si1 0.930045 0.248917 0.847299
Si Si2 0.913053 0.941298 0.148379
Si Si3 0.431717 0.775615 0.401093
Si Si4 0.254456 0.394311 0.040492
Si Si5 0.239678 0.643592 0.574681
Si Si6 0.583288 0.978062 0.154706
O O1 0.952084 0.265291 0.750000
O O2 0.928647 0.402991 0.886114
O O3 0.836915 0.171149 0.857354
O O4 0.007542 0.154465 0.886449
O O5 0.902870 0.938747 0.250000
O O6 0.824871 0.880287 0.106930
O O7 0.445457 0.750000 0.500000
O O8 0.334145 0.834018 0.381011
O O9 0.447672 0.635379 0.350583
O O10 0.500338 0.885659 0.367917
O O11 0.338174 0.456147 0.088838
O O12 0.280598 0.250000 0.000000
O O13 0.230223 0.490810 0.961549
O O14 0.224563 0.750000 0.500000
O O15 0.615491 0.945427 0.250000
#
# Coordination Sequence:
#
# PCOD8234586 Si02
#       6
#     8   8   8   8   8   8
#     4  10  22  40  65  92 126 166 207 260 316 374
#     4  10  22  42  64  91 126 166 208 257 317 375
#     4  11  23  43  68  94 128 167 208 262 315 377
#     4  12  26  42  64  94 126 169 210 265 316 369
#     4  11  22  43  64  91 122 164 213 249 315 379
#     4  12  25  43  67  96 128 167 212 259 316 378
#
# _framework density 20.659844
#
# number of rings (size 3 to 8) (size 9 to 14) (size 15 to 20)
#    0.000    1.000    5.000    2.000    4.667    4.000 
#    0.000    0.833    0.000    0.000    0.000    0.000 
#    0.000    0.000    0.000    0.000    0.000    0.000 
#
# Total GULP energy -595370.438551 kJ/mol
# GULP energy per Si atom -12403.550803 kJ/mol
# Density = 2.061282 g / cm^3
# Si number density = 20.659844 Si / 1000 Ang^3
#
#
#
# Elastic Constant Matrix: (Units=GPa)
#
#
# Indices 1 2 3 4 5 6 
#
# 1 116.6622 35.0601 19.0664 0.0000 0.0000 0.0000
# 2 35.0601 89.1972 20.2598 0.0000 0.0000 0.0000
# 3 19.0664 20.2598 43.6800 0.0000 0.0000 0.0000
# 4 0.0000 0.0000 0.0000 19.2159 0.0000 0.0000
# 5 0.0000 0.0000 0.0000 0.0000 25.3786 0.0000
# 6 0.0000 0.0000 0.0000 0.0000 0.0000 36.7060
#
#
#
# Elastic Compliance Matrix: (Units=1/GPa)
#
#
# Indices 1 2 3 4 5 6 
#
# 1 0.010027 -0.003294 -0.002849 0.000000 0.000000 0.000000
# 2 -0.003294 0.013614 -0.004876 0.000000 0.000000 0.000000
# 3 -0.002849 -0.004876 0.026399 0.000000 0.000000 0.000000
# 4 0.000000 0.000000 0.000000 0.052040 0.000000 0.000000
# 5 0.000000 0.000000 0.000000 0.000000 0.039403 0.000000
# 6 0.000000 0.000000 0.000000 0.000000 0.000000 0.027243
#
#
# Mechanical properties :
#
#
# Convention : Reuss Voigt Hill
#
# Bulk Modulus (GPa) = 35.71321 44.25689 39.98505
# Shear Modulus (GPa) = 24.98752 27.93698 26.46225
#
# Velocity S-wave (km/s) = 3.48152 3.68127 3.58279
# Velocity P-wave (km/s) = 5.78663 6.28786 6.04245
#
# Compressibility (1/GPa) = 0.02800084
#
# Stress axis : x y z
#
# Youngs Moduli (GPa) = 99.72678 73.45622 37.88002
#
# Poissons Ratio (x) = 0.24199 0.10792
# Poissons Ratio (y) = 0.32853 0.18472
# Poissons Ratio (z) = 0.28412 0.35820
#
# Static dielectric constant tensor:
#      x y z
#    x 3.901470 0.000000 0.000000 
#    y 0.000000 4.586460 0.000000 
#    z 0.000000 0.000000 3.705600 
# 
# 
# High freq. dielectric constant tensor:
#      x y z
#    x 1.817330 0.000000 0.000000 
#    y 0.000000 1.819870 0.000000 
#    z 0.000000 0.000000 1.797280 
# 
# From -- ./inp_files/18968.got.cif
#   From: 2010.03.12/outbox.cif.g09.slc.cpg/sg57_10_cif.got.tgz:18968.got - 2010.04.16 15:48:40.
