data_PCOD8234711
_publ_section_title
;
Structure prediction by ZEFSAII (Michael W. Deem and Ramdas Pophale) SiO2 
 PCOD8234711
Probable space group: P B C M
;
_chemical_formula_sum "Si O2"
_cell_formula_units_Z 48
_cell_length_a 30.680143
_cell_length_b 8.921914
_cell_length_c 8.671983
_cell_angle_alpha 90.000000
_cell_angle_beta 90.000000
_cell_angle_gamma 90.000000
_cell_volume 2373.743727
_symmetry_space_group_name_H-M "P B C M"
_symmetry_group_IT_number 57
_symmetry_cell_setting 'orthorhombic'
loop_
_space_group_symop_operation_xyz
x,y,z
-x,-y,1/2+z
x,1/2-y,-z
-x,1/2+y,1/2-z
-x,-y,-z
x,y,1/2-z
-x,1/2+y,z
x,1/2-y,1/2+z
loop_
_atom_site_type_symbol
_atom_site_label
_atom_site_fract_x
_atom_site_fract_y
_atom_site_fract_z
Si Si1 0.459237 0.086177 0.432042
Si Si2 0.127747 0.414483 0.931966
Si Si3 0.380001 0.912481 0.571718
Si Si4 0.041157 0.584885 0.567088
Si Si5 0.212979 0.586347 0.568097
Si Si6 0.291860 0.091228 0.927780
O O1 0.458851 0.250000 0.500000
O O2 0.463709 0.093811 0.250000
O O3 0.500000 0.000000 0.500000
O O4 0.414554 0.007127 0.476538
O O5 0.129165 0.399323 0.750000
O O6 0.083598 0.493975 0.987650
O O7 0.167816 0.515206 0.992305
O O8 0.131036 0.250000 0.000000
O O9 0.377804 0.750000 0.500000
O O10 0.394301 0.905088 0.750000
O O11 0.332903 0.984233 0.551663
O O12 0.043880 0.750000 0.500000
O O13 0.037444 0.593777 0.750000
O O14 0.000000 0.500000 0.500000
O O15 0.219729 0.750000 0.500000
O O16 0.213180 0.601236 0.750000
O O17 0.251479 0.477939 0.517506
O O18 0.279021 0.111406 0.750000
O O19 0.304170 0.250000 0.000000
#
# Coordination Sequence:
#
# PCOD8234711 Si02
#       6
#     8   8   8   8   8   8
#     4  12  25  43  66  93 126 163 205 252 304 360
#     4  10  23  40  60  87 119 156 198 246 298 355
#     4  11  24  42  64  92 125 162 204 250 302 358
#     4  11  23  40  61  88 120 156 199 246 299 356
#     4  11  23  40  62  89 121 158 201 248 300 357
#     4  11  24  41  63  91 124 161 202 250 302 358
#
# _framework density 20.221221
#
# number of rings (size 3 to 8) (size 9 to 14) (size 15 to 20)
#    0.000    1.000    0.000    6.500    0.000   10.667 
#    0.000    0.000    0.000    0.000    0.000    0.000 
#    0.000    0.000    0.000    0.000    0.000    0.000 
#
# Total GULP energy -595516.923133 kJ/mol
# GULP energy per Si atom -12406.602565 kJ/mol
# Density = 2.017520 g / cm^3
# Si number density = 20.221221 Si / 1000 Ang^3
#
#
#
# Elastic Constant Matrix: (Units=GPa)
#
#
# Indices 1 2 3 4 5 6 
#
# 1 118.6966 41.5916 51.9051 0.0000 0.0000 0.0000
# 2 41.5916 149.2423 56.6737 0.0000 0.0000 0.0000
# 3 51.9051 56.6737 114.9657 0.0000 0.0000 0.0000
# 4 0.0000 0.0000 0.0000 40.9444 0.0000 0.0000
# 5 0.0000 0.0000 0.0000 0.0000 32.9925 0.0000
# 6 0.0000 0.0000 0.0000 0.0000 0.0000 63.2572
#
#
#
# Elastic Compliance Matrix: (Units=1/GPa)
#
#
# Indices 1 2 3 4 5 6 
#
# 1 0.010735 -0.001416 -0.004149 0.000000 0.000000 0.000000
# 2 -0.001416 0.008431 -0.003517 0.000000 0.000000 0.000000
# 3 -0.004149 -0.003517 0.012305 0.000000 0.000000 0.000000
# 4 0.000000 0.000000 0.000000 0.024423 0.000000 0.000000
# 5 0.000000 0.000000 0.000000 0.000000 0.030310 0.000000
# 6 0.000000 0.000000 0.000000 0.000000 0.000000 0.015808
#
#
# Mechanical properties :
#
#
# Convention : Reuss Voigt Hill
#
# Bulk Modulus (GPa) = 75.14423 75.91616 75.53020
# Shear Modulus (GPa) = 40.12479 42.95443 41.53961
#
# Velocity S-wave (km/s) = 4.45937 4.61393 4.53731
# Velocity P-wave (km/s) = 7.98476 8.12458 8.05497
#
# Compressibility (1/GPa) = 0.01330774
#
# Stress axis : x y z
#
# Youngs Moduli (GPa) = 93.15074 118.61549 81.26925
#
# Poissons Ratio (x) = 0.16800 0.33715
# Poissons Ratio (y) = 0.13194 0.28578
# Poissons Ratio (z) = 0.38644 0.41711
#
# Static dielectric constant tensor:
#      x y z
#    x 3.901470 0.000000 0.000000 
#    y 0.000000 3.885130 0.000000 
#    z 0.000000 0.000000 3.805020 
# 
# 
# High freq. dielectric constant tensor:
#      x y z
#    x 1.810690 0.000000 0.000000 
#    y 0.000000 1.812190 0.000000 
#    z 0.000000 0.000000 1.803150 
# 
# From -- ./inp_files/10047.got.cif
#   From: 2010.03.12/outbox.cif.g09.slc.cpg/sg57_6_cif.got.tgz:10047.got - 2010.04.16 15:48:40.
