data_PCOD8234088
_publ_section_title
;
Structure prediction by ZEFSAII (Michael W. Deem and Ramdas Pophale) SiO2 
 PCOD8234088
Probable space group: P B C M
;
_chemical_formula_sum "Si O2"
_cell_formula_units_Z 48
_cell_length_a 14.653879
_cell_length_b 19.390269
_cell_length_c 8.894824
_cell_angle_alpha 90.000000
_cell_angle_beta 90.000000
_cell_angle_gamma 90.000000
_cell_volume 2527.398913
_symmetry_space_group_name_H-M "P B C M"
_symmetry_group_IT_number 57
_symmetry_cell_setting 'orthorhombic'
loop_
_space_group_symop_operation_xyz
x,y,z
-x,-y,1/2+z
x,1/2-y,-z
-x,1/2+y,1/2-z
-x,-y,-z
x,y,1/2-z
-x,1/2+y,z
x,1/2-y,1/2+z
loop_
_atom_site_type_symbol
_atom_site_label
_atom_site_fract_x
_atom_site_fract_y
_atom_site_fract_z
Si Si1 0.359680 0.678721 0.924220
Si Si2 0.755441 0.440177 0.573093
Si Si3 0.426274 0.320975 0.423487
Si Si4 0.963674 0.431416 0.925413
Si Si5 0.716435 0.586072 0.072019
Si Si6 0.110848 0.175924 0.073167
O O1 0.331114 0.679848 0.750000
O O2 0.466861 0.666642 0.944225
O O3 0.328995 0.750000 0.000000
O O4 0.310455 0.617870 0.010651
O O5 0.740323 0.448980 0.750000
O O6 0.858625 0.418171 0.534014
O O7 0.731867 0.510743 0.492053
O O8 0.394560 0.250000 0.500000
O O9 0.397674 0.317496 0.250000
O O10 0.376733 0.384369 0.503885
O O11 0.979337 0.441661 0.750000
O O12 0.021937 0.366047 0.982989
O O13 0.000000 0.500000 0.000000
O O14 0.707447 0.581207 0.250000
O O15 0.799633 0.634623 0.021027
O O16 0.109966 0.186082 0.250000
O O17 0.110171 0.250000 0.000000
#
# Coordination Sequence:
#
# PCOD8234088 Si02
#       6
#     8   8   8   8   8   8
#     4  10  22  41  63  86 117 155 196 245 296 349
#     4  11  23  38  61  89 118 154 198 245 295 352
#     4  10  21  38  60  86 117 155 197 242 295 351
#     4  10  21  39  60  84 115 153 195 239 290 348
#     4  11  22  37  59  86 119 157 196 242 294 351
#     4  10  22  38  57  85 118 151 193 237 287 346
#
# _framework density 18.991858000000001
#
# number of rings (size 3 to 8) (size 9 to 14) (size 15 to 20)
#    0.000    1.667    1.667    2.500    0.000    7.333 
#    0.000    1.667    0.000    0.000    0.000    0.000 
#    0.000    0.000    0.000    0.000    0.000    0.000 
#
# Total GULP energy -595433.207782 kJ/mol
# GULP energy per Si atom -12404.858495 kJ/mol
# Density = 1.894863 g / cm^3
# Si number density = 18.991858 Si / 1000 Ang^3
#
#
#
# Elastic Constant Matrix: (Units=GPa)
#
#
# Indices 1 2 3 4 5 6 
#
# 1 79.3833 65.3287 50.7143 0.0000 0.0000 0.0000
# 2 65.3287 165.5873 59.0706 0.0000 0.0000 0.0000
# 3 50.7143 59.0706 88.6672 0.0000 0.0000 0.0000
# 4 0.0000 0.0000 0.0000 42.7959 0.0000 0.0000
# 5 0.0000 0.0000 0.0000 0.0000 13.1430 0.0000
# 6 0.0000 0.0000 0.0000 0.0000 0.0000 44.4917
#
#
#
# Elastic Compliance Matrix: (Units=1/GPa)
#
#
# Indices 1 2 3 4 5 6 
#
# 1 0.023532 -0.005880 -0.009542 0.000000 0.000000 0.000000
# 2 -0.005880 0.009391 -0.002893 0.000000 0.000000 0.000000
# 3 -0.009542 -0.002893 0.018663 0.000000 0.000000 0.000000
# 4 0.000000 0.000000 0.000000 0.023367 0.000000 0.000000
# 5 0.000000 0.000000 0.000000 0.000000 0.076086 0.000000
# 6 0.000000 0.000000 0.000000 0.000000 0.000000 0.022476
#
#
# Mechanical properties :
#
#
# Convention : Reuss Voigt Hill
#
# Bulk Modulus (GPa) = 66.86413 75.98498 71.42456
# Shear Modulus (GPa) = 23.24158 30.65441 26.94799
#
# Velocity S-wave (km/s) = 3.50203 4.02192 3.77095
# Velocity P-wave (km/s) = 7.18578 7.85264 7.52660
#
# Compressibility (1/GPa) = 0.01495570
#
# Stress axis : x y z
#
# Youngs Moduli (GPa) = 42.49497 106.48431 53.58094
#
# Poissons Ratio (x) = 0.62613 0.51128
# Poissons Ratio (y) = 0.24987 0.15502
# Poissons Ratio (z) = 0.40550 0.30808
#
# Static dielectric constant tensor:
#      x y z
#    x 3.683470 0.000000 0.000000 
#    y 0.000000 3.716280 0.000000 
#    z 0.000000 0.000000 3.586750 
# 
# 
# High freq. dielectric constant tensor:
#      x y z
#    x 1.746610 0.000000 0.000000 
#    y 0.000000 1.746280 0.000000 
#    z 0.000000 0.000000 1.748050 
# 
# From -- ./inp_files/4562.got.cif
#   From: 2010.03.12/outbox.cif.g09.slc.cpg/sg57_3_cif.got.tgz:4562.got - 2010.04.16 15:48:40.
