data_PCOD8234672
_publ_section_title
;
Structure prediction by ZEFSAII (Michael W. Deem and Ramdas Pophale) SiO2 
 PCOD8234672
Probable space group: P B C M
;
_chemical_formula_sum "Si O2"
_cell_formula_units_Z 56
_cell_length_a 6.549430
_cell_length_b 13.951464
_cell_length_c 29.455209
_cell_angle_alpha 90.000000
_cell_angle_beta 90.000000
_cell_angle_gamma 90.000000
_cell_volume 2691.444299
_symmetry_space_group_name_H-M "P B C M"
_symmetry_group_IT_number 57
_symmetry_cell_setting 'orthorhombic'
loop_
_space_group_symop_operation_xyz
x,y,z
-x,-y,1/2+z
x,1/2-y,-z
-x,1/2+y,1/2-z
-x,-y,-z
x,y,1/2-z
-x,1/2+y,z
x,1/2-y,1/2+z
loop_
_atom_site_type_symbol
_atom_site_label
_atom_site_fract_x
_atom_site_fract_y
_atom_site_fract_z
Si Si1 0.472284 0.061302 0.158553
Si Si2 0.216475 0.772262 0.859219
Si Si3 0.510186 0.139574 0.698603
Si Si4 0.172403 0.294805 0.699343
Si Si5 0.164083 0.810293 0.043614
Si Si6 0.575257 0.499008 0.060717
Si Si7 0.185309 0.064331 0.517228
O O1 0.659232 0.131412 0.149374
O O2 0.305885 0.111141 0.190228
O O3 0.550109 0.968010 0.185050
O O4 0.369602 0.031970 0.111008
O O5 0.320048 0.680209 0.835711
O O6 0.186500 0.756760 0.912590
O O7 0.998085 0.788734 0.838091
O O8 0.596324 0.144106 0.750000
O O9 0.304474 0.199379 0.694409
O O10 0.080004 0.303238 0.750000
O O11 0.314664 0.899536 0.048856
O O12 0.924115 0.840960 0.037477
O O13 0.234957 0.750000 0.000000
O O14 0.328883 0.485424 0.055639
O O15 0.662503 0.580349 0.025978
O O16 0.000000 0.000000 0.500000
#
# Coordination Sequence:
#
# PCOD8234672 Si02
#       7
#     8   8   8   8   8   8   8
#     4  11  24  40  69  97 132 169 219 269 335 396
#     4  11  25  41  66  98 136 172 223 273 330 392
#     4  10  22  45  68  94 130 173 220 273 334 401
#     4  10  24  44  68  98 131 169 216 275 336 393
#     4  11  25  40  62  97 132 171 218 264 324 386
#     4  10  22  43  66  89 128 172 215 269 325 381
#     4   9  22  39  61  87 123 164 212 259 311 374
#
# _framework density 20.806671999999999
#
# number of rings (size 3 to 8) (size 9 to 14) (size 15 to 20)
#    0.000    1.714    1.429    0.857   10.000    4.571 
#    0.000    1.429    0.000    0.000    0.000    0.000 
#    0.000    0.000    0.000    0.000    0.000    0.000 
#
# Total GULP energy -694333.575728 kJ/mol
# GULP energy per Si atom -12398.813852 kJ/mol
# Density = 2.075932 g / cm^3
# Si number density = 20.806672 Si / 1000 Ang^3
#
#
#
# Elastic Constant Matrix: (Units=GPa)
#
#
# Indices 1 2 3 4 5 6 
#
# 1 95.4449 41.5485 40.0736 0.0000 0.0000 0.0000
# 2 41.5485 121.0921 52.4540 0.0000 0.0000 0.0000
# 3 40.0736 52.4540 150.0037 0.0000 0.0000 0.0000
# 4 0.0000 0.0000 0.0000 32.6863 0.0000 0.0000
# 5 0.0000 0.0000 0.0000 0.0000 24.6385 0.0000
# 6 0.0000 0.0000 0.0000 0.0000 0.0000 13.6906
#
#
#
# Elastic Compliance Matrix: (Units=1/GPa)
#
#
# Indices 1 2 3 4 5 6 
#
# 1 0.012927 -0.003464 -0.002242 0.000000 0.000000 0.000000
# 2 -0.003464 0.010661 -0.002802 0.000000 0.000000 0.000000
# 3 -0.002242 -0.002802 0.008245 0.000000 0.000000 0.000000
# 4 0.000000 0.000000 0.000000 0.030594 0.000000 0.000000
# 5 0.000000 0.000000 0.000000 0.000000 0.040587 0.000000
# 6 0.000000 0.000000 0.000000 0.000000 0.000000 0.073043
#
#
# Mechanical properties :
#
#
# Convention : Reuss Voigt Hill
#
# Bulk Modulus (GPa) = 67.49652 70.52143 69.00897
# Shear Modulus (GPa) = 25.25102 29.70073 27.47588
#
# Velocity S-wave (km/s) = 3.48746 3.78228 3.63785
# Velocity P-wave (km/s) = 6.98046 7.28295 7.13331
#
# Compressibility (1/GPa) = 0.01481558
#
# Stress axis : x y z
#
# Youngs Moduli (GPa) = 77.36017 93.80232 121.27942
#
# Poissons Ratio (x) = 0.32494 0.27191
# Poissons Ratio (y) = 0.26799 0.33988
# Poissons Ratio (z) = 0.17344 0.26288
#
# Static dielectric constant tensor:
#      x y z
#    x 3.837530 0.000000 0.000000 
#    y 0.000000 3.843260 0.000000 
#    z 0.000000 0.000000 4.032690 
# 
# 
# High freq. dielectric constant tensor:
#      x y z
#    x 1.810650 0.000000 0.000000 
#    y 0.000000 1.810570 0.000000 
#    z 0.000000 0.000000 1.829700 
# 
# From -- ./inp_files/29177.got.cif
#   From: 2010.03.12/outbox.cif.g09.slc.cpg/sg57_15_cif.got.tgz:29177.got - 2010.04.16 15:48:40.
