data_PCOD8234098
_publ_section_title
;
Structure prediction by ZEFSAII (Michael W. Deem and Ramdas Pophale) SiO2 
 PCOD8234098
Probable space group: P B C M
;
_chemical_formula_sum "Si O2"
_cell_formula_units_Z 64
_cell_length_a 15.452534
_cell_length_b 8.567407
_cell_length_c 24.043880
_cell_angle_alpha 90.000000
_cell_angle_beta 90.000000
_cell_angle_gamma 90.000000
_cell_volume 3183.124743
_symmetry_space_group_name_H-M "P B C M"
_symmetry_group_IT_number 57
_symmetry_cell_setting 'orthorhombic'
loop_
_space_group_symop_operation_xyz
x,y,z
-x,-y,1/2+z
x,1/2-y,-z
-x,1/2+y,1/2-z
-x,-y,-z
x,y,1/2-z
-x,1/2+y,z
x,1/2-y,1/2+z
loop_
_atom_site_type_symbol
_atom_site_label
_atom_site_fract_x
_atom_site_fract_y
_atom_site_fract_z
Si Si1 0.746587 0.570967 0.004339
Si Si2 0.414260 0.574161 0.312108
Si Si3 0.099408 0.586911 0.184072
Si Si4 0.078292 0.559694 0.815710
Si Si5 0.234818 0.076075 0.376879
Si Si6 0.257055 0.056630 0.619500
Si Si7 0.586887 0.417153 0.152060
Si Si8 0.423041 0.912419 0.472432
O O1 0.762636 0.491733 0.943728
O O2 0.770806 0.750000 0.000000
O O3 0.793311 0.508442 0.061252
O O4 0.648142 0.545712 0.021598
O O5 0.387615 0.517472 0.250000
O O6 0.350395 0.500132 0.358280
O O7 0.406616 0.760619 0.312239
O O8 0.514655 0.531221 0.322390
O O9 0.106892 0.576596 0.250000
O O10 0.183674 0.508344 0.159176
O O11 0.014607 0.497455 0.161846
O O12 0.094542 0.765039 0.163566
O O13 0.079272 0.546965 0.750000
O O14 0.152700 0.446238 0.837683
O O15 0.258153 0.257565 0.381105
O O16 0.317761 0.993188 0.349249
O O17 0.555160 0.372036 0.090744
O O18 0.395363 0.750000 0.500000
O O19 0.500000 0.000000 0.500000
#
# Coordination Sequence:
#
# PCOD8234098 Si02
#       8
#     8   8   8   8   8   8   8   8
#     4   9  20  37  55  79 111 145 183 228 277 333
#     4  12  25  40  56  79 113 153 195 237 282 338
#     4  10  21  38  60  88 116 147 187 233 281 333
#     4  10  21  38  61  87 117 148 186 233 281 334
#     4  10  22  38  60  86 115 149 188 231 284 338
#     4  11  21  38  61  85 114 150 188 233 283 336
#     4  11  23  39  56  80 113 150 190 235 284 336
#     4  11  20  32  54  80 105 138 183 234 283 334
#
# _framework density 20.106028999999999
#
# number of rings (size 3 to 8) (size 9 to 14) (size 15 to 20)
#    0.000    1.500    0.000    5.625    0.000    7.000 
#    0.000    0.625    0.000    0.000    0.000    0.000 
#    0.000    0.000    0.000    0.000    0.000    0.000 
#
# Total GULP energy -793206.313171 kJ/mol
# GULP energy per Si atom -12393.848643 kJ/mol
# Density = 2.006027 g / cm^3
# Si number density = 20.106029 Si / 1000 Ang^3
#
#
#
# Elastic Constant Matrix: (Units=GPa)
#
#
# Indices 1 2 3 4 5 6 
#
# 1 91.4879 21.7411 24.9446 0.0000 0.0000 0.0000
# 2 21.7411 66.0080 22.2596 0.0000 0.0000 0.0000
# 3 24.9446 22.2596 64.1726 0.0000 0.0000 0.0000
# 4 0.0000 0.0000 0.0000 24.5441 0.0000 0.0000
# 5 0.0000 0.0000 0.0000 0.0000 22.8469 0.0000
# 6 0.0000 0.0000 0.0000 0.0000 0.0000 35.0914
#
#
#
# Elastic Compliance Matrix: (Units=1/GPa)
#
#
# Indices 1 2 3 4 5 6 
#
# 1 0.012682 -0.002848 -0.003942 0.000000 0.000000 0.000000
# 2 -0.002848 0.017796 -0.005066 0.000000 0.000000 0.000000
# 3 -0.003942 -0.005066 0.018872 0.000000 0.000000 0.000000
# 4 0.000000 0.000000 0.000000 0.040743 0.000000 0.000000
# 5 0.000000 0.000000 0.000000 0.000000 0.043770 0.000000
# 6 0.000000 0.000000 0.000000 0.000000 0.000000 0.028497
#
#
# Mechanical properties :
#
#
# Convention : Reuss Voigt Hill
#
# Bulk Modulus (GPa) = 39.00261 39.95101 39.47681
# Shear Modulus (GPa) = 25.69144 26.67803 26.18473
#
# Velocity S-wave (km/s) = 3.57851 3.64657 3.61270
# Velocity P-wave (km/s) = 6.04275 6.13541 6.08926
#
# Compressibility (1/GPa) = 0.02563931
#
# Stress axis : x y z
#
# Youngs Moduli (GPa) = 78.85249 56.19234 52.98737
#
# Poissons Ratio (x) = 0.16002 0.20887
# Poissons Ratio (y) = 0.22455 0.26843
# Poissons Ratio (z) = 0.31082 0.28467
#
# Static dielectric constant tensor:
#      x y z
#    x 3.409670 0.000000 0.000000 
#    y 0.000000 3.275710 0.000000 
#    z 0.000000 0.000000 3.758460 
# 
# 
# High freq. dielectric constant tensor:
#      x y z
#    x 1.774520 0.000000 0.000000 
#    y 0.000000 1.787600 0.000000 
#    z 0.000000 0.000000 1.796600 
# 
# From -- ./inp_files/27450.got.cif
#   From: 2010.03.12/outbox.cif.g09.slc.cpg/sg57_14_cif.got.tgz:27450.got - 2010.04.16 15:48:40.
