data_PCOD8234549
_publ_section_title
;
Structure prediction by ZEFSAII (Michael W. Deem and Ramdas Pophale) SiO2 
 PCOD8234549
Probable space group: P B C M
;
_chemical_formula_sum "Si O2"
_cell_formula_units_Z 56
_cell_length_a 9.186621
_cell_length_b 13.452902
_cell_length_c 21.277631
_cell_angle_alpha 90.000000
_cell_angle_beta 90.000000
_cell_angle_gamma 90.000000
_cell_volume 2629.632455
_symmetry_space_group_name_H-M "P B C M"
_symmetry_group_IT_number 57
_symmetry_cell_setting 'orthorhombic'
loop_
_space_group_symop_operation_xyz
x,y,z
-x,-y,1/2+z
x,1/2-y,-z
-x,1/2+y,1/2-z
-x,-y,-z
x,y,1/2-z
-x,1/2+y,z
x,1/2-y,1/2+z
loop_
_atom_site_type_symbol
_atom_site_label
_atom_site_fract_x
_atom_site_fract_y
_atom_site_fract_z
Si Si1 0.273727 0.639106 0.927171
Si Si2 0.500000 1.000000 0.359189
Si Si3 0.050615 0.132094 0.430162
Si Si4 0.050615 0.132094 0.569838
Si Si5 0.257535 0.135979 0.680942
Si Si6 0.257535 0.364021 0.680942
Si Si7 0.726273 0.360894 0.927171
O O1 0.395314 0.566899 0.901078
O O2 0.283918 0.750000 0.896343
O O3 0.112250 0.591333 0.916263
O O4 0.304252 0.650709 1.000000
O O5 0.404962 0.072652 0.316131
O O6 0.604686 0.066899 0.401078
O O7 0.595038 0.927348 0.316131
O O8 0.104414 0.096550 0.500000
O O9 0.040544 0.250000 0.430019
O O10 0.155564 0.094040 0.374749
O O11 0.887750 0.091333 0.416263
O O12 0.155564 0.094040 0.625251
O O13 0.182112 0.126366 0.750000
O O14 0.298321 0.250000 0.666851
O O15 0.182112 0.373634 0.750000
#
# Coordination Sequence:
#
# PCOD8234549 Si02
#       7
#     8   8   8   8   8   8   8
#     4   9  19  36  57  84 117 149 185 231 280 330
#     4  12  22  34  54  84 115 152 187 224 275 338
#     4   8  16  35  61  83 106 142 188 235 279 325
#     4   8  16  35  61  83 106 142 188 235 279 325
#     4  10  22  40  59  81 112 148 187 232 280 332
#     4  10  22  40  59  81 112 148 187 232 280 332
#     4   9  19  36  57  84 117 149 185 231 280 330
#
# _framework density 21.295750999999999
#
# number of rings (size 3 to 8) (size 9 to 14) (size 15 to 20)
#    0.000    2.571    0.000    3.429    0.000    3.429 
#    0.000   10.000    0.000    6.857    0.000    0.000 
#    0.000    0.000    0.000    0.000    0.000    0.000 
#
# Total GULP energy -694023.824505 kJ/mol
# GULP energy per Si atom -12393.282580 kJ/mol
# Density = 2.124728 g / cm^3
# Si number density = 21.295751 Si / 1000 Ang^3
#
#
#
# Elastic Constant Matrix: (Units=GPa)
#
#
# Indices 1 2 3 4 5 6 
#
# 1 120.6478 39.8863 80.6406 0.0000 0.0000 0.0000
# 2 39.8863 66.1762 49.4111 0.0000 0.0000 0.0000
# 3 80.6406 49.4111 136.4970 0.0000 0.0000 0.0000
# 4 0.0000 0.0000 0.0000 -2.8001 0.0000 0.0000
# 5 0.0000 0.0000 0.0000 0.0000 -20.0507 0.0000
# 6 0.0000 0.0000 0.0000 0.0000 0.0000 -30.6272
#
#
#
# Elastic Compliance Matrix: (Units=1/GPa)
#
#
# Indices 1 2 3 4 5 6 
#
# 1 0.014157 -0.003135 -0.007229 0.000000 0.000000 0.000000
# 2 -0.003135 0.021403 -0.005895 0.000000 0.000000 0.000000
# 3 -0.007229 -0.005895 0.013731 0.000000 0.000000 0.000000
# 4 0.000000 0.000000 0.000000 -0.357135 0.000000 0.000000
# 5 0.000000 0.000000 0.000000 0.000000 -0.049874 0.000000
# 6 0.000000 0.000000 0.000000 0.000000 0.000000 -0.032651
#
#
# Mechanical properties :
#
#
# Convention : Reuss Voigt Hill
#
# Bulk Modulus (GPa) = 59.62436 73.68856 66.65646
# Shear Modulus (GPa) = -14.19406 -0.47005 -7.33206
#
# Velocity S-wave (km/s) = -2.58451 -0.47032 -1.85754
# Velocity P-wave (km/s) = 4.37639 5.86367 5.17375
#
# Compressibility (1/GPa) = 0.01677167
#
# Stress axis : x y z
#
# Youngs Moduli (GPa) = 70.63783 46.72293 72.82888
#
# Poissons Ratio (x) = 0.14649 0.52645
# Poissons Ratio (y) = 0.22147 0.42935
# Poissons Ratio (z) = 0.51061 0.27545
#
# Static dielectric constant tensor:
#      x y z
#    x 3.889960 0.000000 0.000000 
#    y 0.000000 4.518620 0.000000 
#    z 0.000000 0.000000 3.762930 
# 
# 
# High freq. dielectric constant tensor:
#      x y z
#    x 1.821280 0.000000 0.000000 
#    y 0.000000 1.857760 0.000000 
#    z 0.000000 0.000000 1.819980 
# 
# From -- ./inp_files/24445.got.cif
#   From: 2010.03.12/outbox.cif.g09.slc.cpg/sg57_13_cif.got.tgz:24445.got - 2010.04.16 15:48:40.
