data_PCOD8234838
_publ_section_title
;
Structure prediction by ZEFSAII (Michael W. Deem and Ramdas Pophale) SiO2 
 PCOD8234838
Probable space group: P B C M
;
_chemical_formula_sum "Si O2"
_cell_formula_units_Z 32
_cell_length_a 4.745359
_cell_length_b 30.782539
_cell_length_c 7.990925
_cell_angle_alpha 90.000000
_cell_angle_beta 90.000000
_cell_angle_gamma 90.000000
_cell_volume 1167.267965
_symmetry_space_group_name_H-M "P B C M"
_symmetry_group_IT_number 57
_symmetry_cell_setting 'orthorhombic'
loop_
_space_group_symop_operation_xyz
x,y,z
-x,-y,1/2+z
x,1/2-y,-z
-x,1/2+y,1/2-z
-x,-y,-z
x,y,1/2-z
-x,1/2+y,z
x,1/2-y,1/2+z
loop_
_atom_site_type_symbol
_atom_site_label
_atom_site_fract_x
_atom_site_fract_y
_atom_site_fract_z
Si Si1 0.717596 0.651637 0.941363
Si Si2 0.695963 0.417860 0.569172
Si Si3 0.767604 0.203680 0.442640
Si Si4 0.003826 0.943401 0.250000
Si Si5 0.505256 0.496659 0.750000
O O1 0.767564 0.637028 0.750000
O O2 0.571962 0.612727 0.040628
O O3 0.014582 0.664433 0.024625
O O4 0.514061 0.693809 0.951182
O O5 0.835529 0.405397 0.750000
O O6 0.924012 0.415182 0.417691
O O7 0.573051 0.467276 0.584534
O O8 0.893062 0.250000 0.500000
O O9 0.684746 0.204996 0.250000
O O10 0.180506 0.988479 0.250000
O O11 0.678607 0.957688 0.250000
#
# Coordination Sequence:
#
# PCOD8234838 Si02
#       5
#     8   8   8   4   4
#     4  12  25  47  70 103 142 184 231 286 347 412
#     4  10  24  43  68  99 132 181 224 281 343 407
#     4  12  26  46  73 104 140 182 231 283 346 413
#     4  12  22  48  60 102 129 180 219 292 330 414
#     4  10  26  40  72  90 139 170 233 274 350 398
#
# _framework density 27.414442999999999
#
# number of rings (size 3 to 8) (size 9 to 14) (size 15 to 20)
#    0.750    0.000    1.250    6.750    0.000    4.000 
#    0.000    0.000    0.000    0.000    0.000    0.000 
#    0.000    0.000    0.000    0.000    0.000    0.000 
#
# Total GULP energy -397025.131721 kJ/mol
# GULP energy per Si atom -12407.035366 kJ/mol
# Density = 2.735205 g / cm^3
# Si number density = 27.414443 Si / 1000 Ang^3
#
#
#
# Elastic Constant Matrix: (Units=GPa)
#
#
# Indices 1 2 3 4 5 6 
#
# 1 80.0370 -23.4240 18.7940 0.0000 0.0000 0.0000
# 2 -23.4240 57.5000 27.0828 0.0000 0.0000 0.0000
# 3 18.7940 27.0828 182.5189 0.0000 0.0000 0.0000
# 4 0.0000 0.0000 0.0000 50.7426 0.0000 0.0000
# 5 0.0000 0.0000 0.0000 0.0000 20.8549 0.0000
# 6 0.0000 0.0000 0.0000 0.0000 0.0000 23.4036
#
#
#
# Elastic Compliance Matrix: (Units=1/GPa)
#
#
# Indices 1 2 3 4 5 6 
#
# 1 0.015325 0.007511 -0.002693 0.000000 0.000000 0.000000
# 2 0.007511 0.022379 -0.004094 0.000000 0.000000 0.000000
# 3 -0.002693 -0.004094 0.006364 0.000000 0.000000 0.000000
# 4 0.000000 0.000000 0.000000 0.019707 0.000000 0.000000
# 5 0.000000 0.000000 0.000000 0.000000 0.047950 0.000000
# 6 0.000000 0.000000 0.000000 0.000000 0.000000 0.042729
#
#
# Mechanical properties :
#
#
# Convention : Reuss Voigt Hill
#
# Bulk Modulus (GPa) = 21.97003 40.55130 31.26066
# Shear Modulus (GPa) = 29.73051 38.84042 34.28546
#
# Velocity S-wave (km/s) = 3.29672 3.76811 3.54027
# Velocity P-wave (km/s) = 4.74580 5.80995 5.30463
#
# Compressibility (1/GPa) = 0.04551656
#
# Stress axis : x y z
#
# Youngs Moduli (GPa) = 65.25422 44.68377 157.14273
#
# Poissons Ratio (x) = -0.33562 0.42311
# Poissons Ratio (y) = -0.49013 0.64337
# Poissons Ratio (z) = 0.17570 0.18294
#
# Static dielectric constant tensor:
#      x y z
#    x 4.671550 0.000000 0.000000 
#    y 0.000000 5.198580 0.000000 
#    z 0.000000 0.000000 4.993560 
# 
# 
# High freq. dielectric constant tensor:
#      x y z
#    x 2.096030 0.000000 0.000000 
#    y 0.000000 2.132650 0.000000 
#    z 0.000000 0.000000 2.117300 
# 
# From -- ./inp_files/797.got.cif
#   From: 2010.03.12/outbox.cif.g09.slc.cpg/sg57_1_cif.got.tgz:797.got - 2010.04.16 15:48:40.
