data_PCOD8234431
_publ_section_title
;
Structure prediction by ZEFSAII (Michael W. Deem and Ramdas Pophale) SiO2 
 PCOD8234431
Probable space group: P B C M
;
_chemical_formula_sum "Si O2"
_cell_formula_units_Z 40
_cell_length_a 10.664163
_cell_length_b 10.599643
_cell_length_c 14.259675
_cell_angle_alpha 90.000000
_cell_angle_beta 90.000000
_cell_angle_gamma 90.000000
_cell_volume 1611.861196
_symmetry_space_group_name_H-M "P B C M"
_symmetry_group_IT_number 57
_symmetry_cell_setting 'orthorhombic'
loop_
_space_group_symop_operation_xyz
x,y,z
-x,-y,1/2+z
x,1/2-y,-z
-x,1/2+y,1/2-z
-x,-y,-z
x,y,1/2-z
-x,1/2+y,z
x,1/2-y,1/2+z
loop_
_atom_site_type_symbol
_atom_site_label
_atom_site_fract_x
_atom_site_fract_y
_atom_site_fract_z
Si Si1 0.777807 0.566407 0.459834
Si Si2 0.118734 0.814186 0.098241
Si Si3 0.153969 0.184914 0.854048
Si Si4 0.455549 0.500782 0.853186
Si Si5 0.614546 0.264523 0.609321
O O1 0.869937 0.463175 0.418178
O O2 0.790599 0.690122 0.398588
O O3 0.805122 0.577022 0.571436
O O4 0.634093 0.525221 0.442053
O O5 0.243973 0.759267 0.149447
O O6 0.995239 0.798888 0.160811
O O7 0.087435 0.750000 0.000000
O O8 0.210875 0.157992 0.750000
O O9 0.395949 0.474748 0.750000
O O10 0.483045 0.653532 0.856830
O O11 0.573543 0.405729 0.862181
O O12 0.632588 0.250000 0.500000
#
# Coordination Sequence:
#
# PCOD8234431 Si02
#       5
#     8   8   8   8   8
#     4  10  23  43  65  94 141 172 216 276 340 391
#     4  10  21  43  66  94 132 179 215 274 340 392
#     4  11  23  39  67  97 128 176 227 270 329 398
#     4  11  23  43  70 101 137 181 226 281 340 408
#     4  10  23  42  70  98 137 179 225 277 348 401
#
# _framework density 24.816033999999998
#
# number of rings (size 3 to 8) (size 9 to 14) (size 15 to 20)
#    0.000    1.600    2.000    2.400    2.800    4.800 
#    0.000    0.000    0.000    9.600    0.000    0.000 
#    0.000    0.000    0.000    0.000    0.000    0.000 
#
# Total GULP energy -495529.797794 kJ/mol
# GULP energy per Si atom -12388.244945 kJ/mol
# Density = 2.475955 g / cm^3
# Si number density = 24.816034 Si / 1000 Ang^3
#
#
#
# Elastic Constant Matrix: (Units=GPa)
#
#
# Indices 1 2 3 4 5 6 
#
# 1 54.6478 18.5001 26.8819 0.0000 0.0000 0.0000
# 2 18.5001 63.3480 -7.5526 0.0000 0.0000 0.0000
# 3 26.8819 -7.5526 135.8888 0.0000 0.0000 0.0000
# 4 0.0000 0.0000 0.0000 10.1873 0.0000 0.0000
# 5 0.0000 0.0000 0.0000 0.0000 10.5613 0.0000
# 6 0.0000 0.0000 0.0000 0.0000 0.0000 -37.3331
#
#
#
# Elastic Compliance Matrix: (Units=1/GPa)
#
#
# Indices 1 2 3 4 5 6 
#
# 1 0.023268 -0.007393 -0.005014 0.000000 0.000000 0.000000
# 2 -0.007393 0.018240 0.002476 0.000000 0.000000 0.000000
# 3 -0.005014 0.002476 0.008488 0.000000 0.000000 0.000000
# 4 0.000000 0.000000 0.000000 0.098161 0.000000 0.000000
# 5 0.000000 0.000000 0.000000 0.000000 0.094685 0.000000
# 6 0.000000 0.000000 0.000000 0.000000 0.000000 -0.026786
#
#
# Mechanical properties :
#
#
# Convention : Reuss Voigt Hill
#
# Bulk Modulus (GPa) = 33.18342 36.61593 34.89967
# Shear Modulus (GPa) = 20.32823 11.08679 15.70751
#
# Velocity S-wave (km/s) = 2.86520 2.11596 2.51859
# Velocity P-wave (km/s) = 4.93423 4.55595 4.74886
#
# Compressibility (1/GPa) = 0.03013553
#
# Stress axis : x y z
#
# Youngs Moduli (GPa) = 42.97716 54.82429 117.80715
#
# Poissons Ratio (x) = 0.40532 0.59067
# Poissons Ratio (y) = 0.31773 -0.29172
# Poissons Ratio (z) = 0.21548 -0.13576
#
# Static dielectric constant tensor:
#      x y z
#    x 4.442520 0.000000 0.000000 
#    y 0.000000 4.932720 0.000000 
#    z 0.000000 0.000000 4.639750 
# 
# 
# High freq. dielectric constant tensor:
#      x y z
#    x 1.969120 0.000000 0.000000 
#    y 0.000000 1.996920 0.000000 
#    z 0.000000 0.000000 1.987060 
# 
# From -- ./inp_files/17390.got.cif
#   From: 2010.03.12/outbox.cif.g09.slc.cpg/sg57_9_cif.got.tgz:17390.got - 2010.04.16 15:48:40.
