data_PCOD8234930
_publ_section_title
;
Structure prediction by ZEFSAII (Michael W. Deem and Ramdas Pophale) SiO2 
 PCOD8234930
Probable space group: P B C M
;
_chemical_formula_sum "Si O2"
_cell_formula_units_Z 64
_cell_length_a 12.592270
_cell_length_b 33.996494
_cell_length_c 8.713694
_cell_angle_alpha 90.000000
_cell_angle_beta 90.000000
_cell_angle_gamma 90.000000
_cell_volume 3730.271680
_symmetry_space_group_name_H-M "P B C M"
_symmetry_group_IT_number 57
_symmetry_cell_setting 'orthorhombic'
loop_
_space_group_symop_operation_xyz
x,y,z
-x,-y,1/2+z
x,1/2-y,-z
-x,1/2+y,1/2-z
-x,-y,-z
x,y,1/2-z
-x,1/2+y,z
x,1/2-y,1/2+z
loop_
_atom_site_type_symbol
_atom_site_label
_atom_site_fract_x
_atom_site_fract_y
_atom_site_fract_z
Si Si1 0.115562 0.918366 0.929619
Si Si2 0.885779 0.495844 0.427466
Si Si3 0.618495 0.708556 0.069035
Si Si4 0.392829 0.708005 0.932228
Si Si5 0.203272 0.157656 0.572471
Si Si6 0.199726 0.665028 0.432192
Si Si7 0.998099 0.208397 0.930252
Si Si8 0.129301 0.418186 0.572007
O O1 0.124609 0.923037 0.750000
O O2 0.174746 0.879294 0.986824
O O3 0.993129 0.915781 0.981246
O O4 0.171699 0.957349 0.001580
O O5 0.901164 0.488127 0.250000
O O6 0.825038 0.537450 0.455688
O O7 0.000000 0.500000 0.500000
O O8 0.603015 0.713035 0.250000
O O9 0.657308 0.750000 0.000000
O O10 0.507952 0.695435 0.993446
O O11 0.705690 0.676030 0.032325
O O12 0.394519 0.710567 0.750000
O O13 0.358264 0.750000 0.000000
O O14 0.310252 0.675501 0.988463
O O15 0.233235 0.163115 0.750000
O O16 0.197006 0.111613 0.531136
O O17 0.091306 0.177755 0.532552
O O18 0.209197 0.668442 0.250000
O O19 0.108792 0.694460 0.488081
O O20 0.977248 0.212474 0.750000
O O21 0.033054 0.250000 0.000000
O O22 0.139129 0.406053 0.750000
#
# Coordination Sequence:
#
# PCOD8234930 Si02
#       8
#     8   8   8   8   8   8   8   8
#     4   9  18  31  48  71 101 136 171 208 251 299
#     4   9  17  28  45  68  98 134 171 207 249 298
#     4  11  22  38  58  77 100 131 170 216 261 304
#     4  11  22  38  57  77 101 130 171 217 260 304
#     4  11  22  34  51  76 103 135 172 211 255 303
#     4  11  21  35  53  74 103 136 171 211 256 303
#     4  11  23  35  48  70 100 136 173 206 251 304
#     4   9  17  31  47  70 101 137 171 207 252 298
#
# _framework density 17.156925999999999
#
# number of rings (size 3 to 8) (size 9 to 14) (size 15 to 20)
#    0.000    1.750    1.250    6.000    0.000    6.000 
#    0.000    0.000    0.000    0.000    0.000    0.875 
#    0.000    0.000    0.000    0.000    0.000    0.000 
#
# Total GULP energy -793625.994623 kJ/mol
# GULP energy per Si atom -12400.406166 kJ/mol
# Density = 1.711788 g / cm^3
# Si number density = 17.156926 Si / 1000 Ang^3
#
#
#
# Elastic Constant Matrix: (Units=GPa)
#
#
# Indices 1 2 3 4 5 6 
#
# 1 62.0547 38.4325 28.9391 0.0000 0.0000 0.0000
# 2 38.4325 121.1693 43.7707 0.0000 0.0000 0.0000
# 3 28.9391 43.7707 92.4171 0.0000 0.0000 0.0000
# 4 0.0000 0.0000 0.0000 32.8820 0.0000 0.0000
# 5 0.0000 0.0000 0.0000 0.0000 24.2836 0.0000
# 6 0.0000 0.0000 0.0000 0.0000 0.0000 20.2891
#
#
#
# Elastic Compliance Matrix: (Units=1/GPa)
#
#
# Indices 1 2 3 4 5 6 
#
# 1 0.021319 -0.005248 -0.004190 0.000000 0.000000 0.000000
# 2 -0.005248 0.011248 -0.003684 0.000000 0.000000 0.000000
# 3 -0.004190 -0.003684 0.013877 0.000000 0.000000 0.000000
# 4 0.000000 0.000000 0.000000 0.030412 0.000000 0.000000
# 5 0.000000 0.000000 0.000000 0.000000 0.041180 0.000000
# 6 0.000000 0.000000 0.000000 0.000000 0.000000 0.049288
#
#
# Mechanical properties :
#
#
# Convention : Reuss Voigt Hill
#
# Bulk Modulus (GPa) = 49.50472 55.32508 52.41490
# Shear Modulus (GPa) = 24.96218 26.45753 25.70985
#
# Velocity S-wave (km/s) = 3.81850 3.93121 3.87526
# Velocity P-wave (km/s) = 6.95399 7.27477 7.11619
#
# Compressibility (1/GPa) = 0.02020009
#
# Stress axis : x y z
#
# Youngs Moduli (GPa) = 46.90563 88.90127 72.05966
#
# Poissons Ratio (x) = 0.46660 0.30193
# Poissons Ratio (y) = 0.24618 0.26547
# Poissons Ratio (z) = 0.19654 0.32751
#
# Static dielectric constant tensor:
#      x y z
#    x 2.937610 0.000000 0.000000 
#    y 0.000000 3.550710 0.000000 
#    z 0.000000 0.000000 3.329550 
# 
# 
# High freq. dielectric constant tensor:
#      x y z
#    x 1.621960 0.000000 0.000000 
#    y 0.000000 1.670900 0.000000 
#    z 0.000000 0.000000 1.677680 
# 
# From -- ./inp_files/3862.got.cif
#   From: 2010.03.12/outbox.cif.g09.slc.cpg/sg57_2_cif.got.tgz:3862.got - 2010.04.16 15:48:40.
