data_PCOD8234926
_publ_section_title
;
Structure prediction by ZEFSAII (Michael W. Deem and Ramdas Pophale) SiO2 
 PCOD8234926
Probable space group: P B C M
;
_chemical_formula_sum "Si O2"
_cell_formula_units_Z 56
_cell_length_a 17.787646
_cell_length_b 19.047065
_cell_length_c 8.586387
_cell_angle_alpha 90.000000
_cell_angle_beta 90.000000
_cell_angle_gamma 90.000000
_cell_volume 2909.088948
_symmetry_space_group_name_H-M "P B C M"
_symmetry_group_IT_number 57
_symmetry_cell_setting 'orthorhombic'
loop_
_space_group_symop_operation_xyz
x,y,z
-x,-y,1/2+z
x,1/2-y,-z
-x,1/2+y,1/2-z
-x,-y,-z
x,y,1/2-z
-x,1/2+y,z
x,1/2-y,1/2+z
loop_
_atom_site_type_symbol
_atom_site_label
_atom_site_fract_x
_atom_site_fract_y
_atom_site_fract_z
Si Si1 0.962737 0.569978 0.934251
Si Si2 0.367830 0.673004 0.568765
Si Si3 0.482798 0.327147 0.933164
Si Si4 0.800974 0.558672 0.434445
Si Si5 0.919348 0.173099 0.432964
Si Si6 0.767553 0.090809 0.430316
Si Si7 0.317821 0.173449 0.433203
O O1 0.952022 0.562157 0.750000
O O2 0.883564 0.582664 0.016920
O O3 0.000000 0.500000 0.000000
O O4 0.012872 0.637092 0.974470
O O5 0.352896 0.750000 0.500000
O O6 0.376406 0.682321 0.750000
O O7 0.444067 0.634226 0.505114
O O8 0.298409 0.623097 0.532277
O O9 0.491877 0.327028 0.750000
O O10 0.400653 0.356560 0.983047
O O11 0.488967 0.250000 0.000000
O O12 0.796644 0.545756 0.250000
O O13 0.777215 0.489640 0.525514
O O14 0.744499 0.619311 0.492096
O O15 0.908002 0.250000 0.500000
O O16 0.937616 0.174776 0.250000
O O17 0.844347 0.130333 0.469732
O O18 0.746482 0.098203 0.250000
O O19 0.300886 0.250000 0.500000
O O20 0.314820 0.181851 0.250000
#
# Coordination Sequence:
#
# PCOD8234926 Si02
#       7
#     8   8   8   8   8   8   8
#     4  12  24  41  64  88 117 156 199 242 292 350
#     4  11  21  34  55  84 117 154 197 242 293 346
#     4   9  16  31  54  81 113 149 193 239 291 346
#     4  11  23  40  62  88 120 155 196 241 295 355
#     4  11  24  41  63  91 121 153 197 245 297 351
#     4  11  23  39  59  85 118 156 199 241 293 352
#     4   9  20  37  60  88 117 152 193 244 295 347
#
# _framework density 19.250014
#
# number of rings (size 3 to 8) (size 9 to 14) (size 15 to 20)
#    0.000    1.429    1.429    5.571    0.000    5.143 
#    0.000    2.143    0.000    0.000    0.000    0.000 
#    0.000    0.000    0.000    0.000    0.000    0.000 
#
# Total GULP energy -694384.360223 kJ/mol
# GULP energy per Si atom -12399.720718 kJ/mol
# Density = 1.920620 g / cm^3
# Si number density = 19.250014 Si / 1000 Ang^3
#
#
#
# Elastic Constant Matrix: (Units=GPa)
#
#
# Indices 1 2 3 4 5 6 
#
# 1 142.3985 49.7564 27.8066 0.0000 0.0000 0.0000
# 2 49.7564 99.8324 18.9051 0.0000 0.0000 0.0000
# 3 27.8066 18.9051 59.2034 0.0000 0.0000 0.0000
# 4 0.0000 0.0000 0.0000 28.2175 0.0000 0.0000
# 5 0.0000 0.0000 0.0000 0.0000 43.9177 0.0000
# 6 0.0000 0.0000 0.0000 0.0000 0.0000 29.4713
#
#
#
# Elastic Compliance Matrix: (Units=1/GPa)
#
#
# Indices 1 2 3 4 5 6 
#
# 1 0.008967 -0.003908 -0.002964 0.000000 0.000000 0.000000
# 2 -0.003908 0.012365 -0.002113 0.000000 0.000000 0.000000
# 3 -0.002964 -0.002113 0.018958 0.000000 0.000000 0.000000
# 4 0.000000 0.000000 0.000000 0.035439 0.000000 0.000000
# 5 0.000000 0.000000 0.000000 0.000000 0.022770 0.000000
# 6 0.000000 0.000000 0.000000 0.000000 0.000000 0.033931
#
#
# Mechanical properties :
#
#
# Convention : Reuss Voigt Hill
#
# Bulk Modulus (GPa) = 44.80243 54.93004 49.86623
# Shear Modulus (GPa) = 31.67814 33.98573 32.83193
#
# Velocity S-wave (km/s) = 4.06102 4.20633 4.13432
# Velocity P-wave (km/s) = 6.73154 7.22413 6.98218
#
# Compressibility (1/GPa) = 0.02232022
#
# Stress axis : x y z
#
# Youngs Moduli (GPa) = 111.52369 80.87642 52.74941
#
# Poissons Ratio (x) = 0.31605 0.15633
# Poissons Ratio (y) = 0.43581 0.11145
# Poissons Ratio (z) = 0.33051 0.17088
#
# Static dielectric constant tensor:
#      x y z
#    x 4.063140 0.000000 0.000000 
#    y 0.000000 3.405830 0.000000 
#    z 0.000000 0.000000 3.721030 
# 
# 
# High freq. dielectric constant tensor:
#      x y z
#    x 1.771750 0.000000 0.000000 
#    y 0.000000 1.728850 0.000000 
#    z 0.000000 0.000000 1.762940 
# 
# From -- ./inp_files/5175.got.cif
#   From: 2010.03.12/outbox.cif.g09.slc.cpg/sg57_3_cif.got.tgz:5175.got - 2010.04.16 15:48:40.
