data_PCOD8234686
_publ_section_title
;
Structure prediction by ZEFSAII (Michael W. Deem and Ramdas Pophale) SiO2 
 PCOD8234686
Probable space group: P B C M
;
_chemical_formula_sum "Si O2"
_cell_formula_units_Z 48
_cell_length_a 9.764398
_cell_length_b 13.316621
_cell_length_c 16.775585
_cell_angle_alpha 90.000000
_cell_angle_beta 90.000000
_cell_angle_gamma 90.000000
_cell_volume 2181.308976
_symmetry_space_group_name_H-M "P B C M"
_symmetry_group_IT_number 57
_symmetry_cell_setting 'orthorhombic'
loop_
_space_group_symop_operation_xyz
x,y,z
-x,-y,1/2+z
x,1/2-y,-z
-x,1/2+y,1/2-z
-x,-y,-z
x,y,1/2-z
-x,1/2+y,z
x,1/2-y,1/2+z
loop_
_atom_site_type_symbol
_atom_site_label
_atom_site_fract_x
_atom_site_fract_y
_atom_site_fract_z
Si Si1 0.293063 0.873596 0.625001
Si Si2 0.420269 0.321568 0.923683
Si Si3 0.724629 0.296946 0.250000
Si Si4 0.245290 0.471586 0.250000
Si Si5 0.582870 0.717939 0.750000
Si Si6 0.081233 0.508306 0.750000
Si Si7 0.831609 0.955111 0.585372
Si Si8 0.923024 0.133140 0.003498
O O1 0.423139 0.856476 0.567609
O O2 0.253391 0.773184 0.673092
O O3 0.317971 0.971544 0.677447
O O4 0.162746 0.909450 0.576329
O O5 0.401729 0.278605 0.833449
O O6 0.323567 0.419838 0.928765
O O7 0.386480 0.250000 0.000000
O O8 0.566571 0.335549 0.250000
O O9 0.830746 0.388590 0.250000
O O10 0.291607 0.357699 0.250000
O O11 0.080670 0.470894 0.250000
O O12 0.121637 0.436991 0.824018
O O13 0.919013 0.891624 0.520698
O O14 0.861439 0.074601 0.573072
O O15 0.896044 0.250000 0.000000
#
# Coordination Sequence:
#
# PCOD8234686 Si02
#       8
#     8   8   4   4   4   4   8   8
#     4  10  22  44  66  97 136 177 229 281 345 421
#     4  11  25  45  71 104 142 185 235 287 355 416
#     4   9  22  40  68  96 128 178 229 278 348 417
#     4  11  24  42  68  98 138 180 232 291 350 408
#     4  10  25  44  68 103 141 183 233 294 346 409
#     4  12  23  42  64  97 127 183 232 275 356 412
#     4  11  26  41  66 100 136 179 236 284 350 412
#     4  11  23  43  65  96 140 177 223 290 343 418
#
# _framework density 22.005136
#
# number of rings (size 3 to 8) (size 9 to 14) (size 15 to 20)
#    0.000    1.333    1.667    3.000    4.667    4.667 
#    0.000    0.000    0.000    0.000    0.000    0.000 
#    0.000    0.000    0.000    0.000    0.000    0.000 
#
# Total GULP energy -594767.606612 kJ/mol
# GULP energy per Si atom -12390.991804 kJ/mol
# Density = 2.195505 g / cm^3
# Si number density = 22.005136 Si / 1000 Ang^3
#
#
#
# Elastic Constant Matrix: (Units=GPa)
#
#
# Indices 1 2 3 4 5 6 
#
# 1 105.0107 33.5224 16.4167 0.0000 0.0000 0.0000
# 2 33.5224 86.1896 20.4570 0.0000 0.0000 0.0000
# 3 16.4167 20.4570 102.1846 0.0000 0.0000 0.0000
# 4 0.0000 0.0000 0.0000 6.9275 0.0000 0.0000
# 5 0.0000 0.0000 0.0000 0.0000 26.0949 0.0000
# 6 0.0000 0.0000 0.0000 0.0000 0.0000 41.0510
#
#
#
# Elastic Compliance Matrix: (Units=1/GPa)
#
#
# Indices 1 2 3 4 5 6 
#
# 1 0.010960 -0.004037 -0.000953 0.000000 0.000000 0.000000
# 2 -0.004037 0.013668 -0.002088 0.000000 0.000000 0.000000
# 3 -0.000953 -0.002088 0.010357 0.000000 0.000000 0.000000
# 4 0.000000 0.000000 0.000000 0.144353 0.000000 0.000000
# 5 0.000000 0.000000 0.000000 0.000000 0.038322 0.000000
# 6 0.000000 0.000000 0.000000 0.000000 0.000000 0.024360
#
#
# Mechanical properties :
#
#
# Convention : Reuss Voigt Hill
#
# Bulk Modulus (GPa) = 48.00518 48.24189 48.12354
# Shear Modulus (GPa) = 19.00288 29.68059 24.34173
#
# Velocity S-wave (km/s) = 2.94184 3.67659 3.32954
# Velocity P-wave (km/s) = 5.77945 6.32406 6.05787
#
# Compressibility (1/GPa) = 0.02083108
#
# Stress axis : x y z
#
# Youngs Moduli (GPa) = 91.23717 73.16401 96.55092
#
# Poissons Ratio (x) = 0.29535 0.09199
# Poissons Ratio (y) = 0.36831 0.20157
# Poissons Ratio (z) = 0.08692 0.15275
#
# Static dielectric constant tensor:
#      x y z
#    x 3.964750 0.000000 0.000000 
#    y 0.000000 3.725620 0.000000 
#    z 0.000000 0.000000 4.128960 
# 
# 
# High freq. dielectric constant tensor:
#      x y z
#    x 1.873870 0.000000 0.000000 
#    y 0.000000 1.851090 0.000000 
#    z 0.000000 0.000000 1.880040 
# 
# From -- ./inp_files/21040.got.cif
#   From: 2010.03.12/outbox.cif.g09.slc.cpg/sg57_11_cif.got.tgz:21040.got - 2010.04.16 15:48:40.
