data_PCOD8234836
_publ_section_title
;
Structure prediction by ZEFSAII (Michael W. Deem and Ramdas Pophale) SiO2 
 PCOD8234836
Probable space group: P B C M
;
_chemical_formula_sum "Si O2"
_cell_formula_units_Z 64
_cell_length_a 14.584580
_cell_length_b 8.582115
_cell_length_c 24.267455
_cell_angle_alpha 90.000000
_cell_angle_beta 90.000000
_cell_angle_gamma 90.000000
_cell_volume 3037.473445
_symmetry_space_group_name_H-M "P B C M"
_symmetry_group_IT_number 57
_symmetry_cell_setting 'orthorhombic'
loop_
_space_group_symop_operation_xyz
x,y,z
-x,-y,1/2+z
x,1/2-y,-z
-x,1/2+y,1/2-z
-x,-y,-z
x,y,1/2-z
-x,1/2+y,z
x,1/2-y,1/2+z
loop_
_atom_site_type_symbol
_atom_site_label
_atom_site_fract_x
_atom_site_fract_y
_atom_site_fract_z
Si Si1 0.788091 0.064582 0.003100
Si Si2 0.587878 0.984686 0.648880
Si Si3 0.097358 0.445689 0.901355
Si Si4 0.589422 0.421770 0.023661
Si Si5 0.895827 0.578743 0.897411
Si Si6 0.588791 0.851803 0.186682
Si Si7 0.222197 0.602743 0.813332
Si Si8 0.764804 0.455337 0.685093
O O1 0.825861 0.999623 0.060032
O O2 0.789080 0.250000 0.000000
O O3 0.850296 0.004429 0.954270
O O4 0.684344 0.999232 0.996557
O O5 0.587317 0.066413 0.589555
O O6 0.503627 0.048672 0.684182
O O7 0.680788 0.019633 0.681110
O O8 0.580803 0.797036 0.646363
O O9 0.096669 0.261246 0.904874
O O10 0.144843 0.509261 0.846354
O O11 0.994007 0.502364 0.903792
O O12 0.587884 0.250000 0.000000
O O13 0.500000 0.500000 0.000000
O O14 0.853833 0.544748 0.837443
O O15 0.604471 0.798971 0.250000
O O16 0.671696 0.960469 0.165168
O O17 0.190695 0.602120 0.750000
O O18 0.233296 0.777809 0.836675
O O19 0.771151 0.458777 0.750000
#
# Coordination Sequence:
#
# PCOD8234836 Si02
#       8
#     8   8   8   8   8   8   8   8
#     4  11  24  45  70  97 134 175 223 278 332 396
#     4  12  23  41  66  94 135 177 225 274 335 402
#     4  12  25  46  66 104 128 174 221 276 339 395
#     4  11  26  43  65  98 136 178 222 276 332 396
#     4  12  26  42  73  94 135 172 221 277 333 408
#     4  11  23  39  64  98 135 175 224 275 330 402
#     4  11  23  43  69  96 134 175 221 277 338 402
#     4  10  24  43  66  99 133 173 220 274 333 397
#
# _framework density 21.070143000000002
#
# number of rings (size 3 to 8) (size 9 to 14) (size 15 to 20)
#    0.000    0.750    1.250    6.375    3.500    4.000 
#    0.000    0.000    0.000    0.000    0.000    0.000 
#    0.000    0.000    0.000    0.000    0.000    0.000 
#
# Total GULP energy -793867.704377 kJ/mol
# GULP energy per Si atom -12404.182881 kJ/mol
# Density = 2.102219 g / cm^3
# Si number density = 21.070143 Si / 1000 Ang^3
#
#
#
# Elastic Constant Matrix: (Units=GPa)
#
#
# Indices 1 2 3 4 5 6 
#
# 1 156.3813 38.7072 31.9949 0.0000 0.0000 0.0000
# 2 38.7072 116.8015 35.6484 0.0000 0.0000 0.0000
# 3 31.9949 35.6484 60.2822 0.0000 0.0000 0.0000
# 4 0.0000 0.0000 0.0000 29.0740 0.0000 0.0000
# 5 0.0000 0.0000 0.0000 0.0000 -37.3122 0.0000
# 6 0.0000 0.0000 0.0000 0.0000 0.0000 39.8112
#
#
#
# Elastic Compliance Matrix: (Units=1/GPa)
#
#
# Indices 1 2 3 4 5 6 
#
# 1 0.007390 -0.001528 -0.003019 0.000000 0.000000 0.000000
# 2 -0.001528 0.010763 -0.005554 0.000000 0.000000 0.000000
# 3 -0.003019 -0.005554 0.021475 0.000000 0.000000 0.000000
# 4 0.000000 0.000000 0.000000 0.034395 0.000000 0.000000
# 5 0.000000 0.000000 0.000000 0.000000 -0.026801 0.000000
# 6 0.000000 0.000000 0.000000 0.000000 0.000000 0.025119
#
#
# Mechanical properties :
#
#
# Convention : Reuss Voigt Hill
#
# Bulk Modulus (GPa) = 51.47378 60.68510 56.07944
# Shear Modulus (GPa) = 50.49559 21.45556 35.97557
#
# Velocity S-wave (km/s) = 4.90076 3.19453 4.13658
# Velocity P-wave (km/s) = 7.51705 6.51695 7.03480
#
# Compressibility (1/GPa) = 0.01942736
#
# Stress axis : x y z
#
# Youngs Moduli (GPa) = 135.30975 92.91189 46.56497
#
# Poissons Ratio (x) = 0.14194 0.14058
# Poissons Ratio (y) = 0.20671 0.25862
# Poissons Ratio (z) = 0.40851 0.51602
#
# Static dielectric constant tensor:
#      x y z
#    x 4.622920 0.000000 0.000000 
#    y 0.000000 3.917940 0.000000 
#    z 0.000000 0.000000 3.388250 
# 
# 
# High freq. dielectric constant tensor:
#      x y z
#    x 1.842280 0.000000 0.000000 
#    y 0.000000 1.838670 0.000000 
#    z 0.000000 0.000000 1.831510 
# 
# From -- ./inp_files/27509.got.cif
#   From: 2010.03.12/outbox.cif.g09.slc.cpg/sg57_14_cif.got.tgz:27509.got - 2010.04.16 15:48:40.
