data_PCOD8234216
_publ_section_title
;
Structure prediction by ZEFSAII (Michael W. Deem and Ramdas Pophale) SiO2 
 PCOD8234216
Probable space group: P B C M
;
_chemical_formula_sum "Si O2"
_cell_formula_units_Z 56
_cell_length_a 12.392674
_cell_length_b 14.613346
_cell_length_c 14.819875
_cell_angle_alpha 90.000000
_cell_angle_beta 90.000000
_cell_angle_gamma 90.000000
_cell_volume 2683.856140
_symmetry_space_group_name_H-M "P B C M"
_symmetry_group_IT_number 57
_symmetry_cell_setting 'orthorhombic'
loop_
_space_group_symop_operation_xyz
x,y,z
-x,-y,1/2+z
x,1/2-y,-z
-x,1/2+y,1/2-z
-x,-y,-z
x,y,1/2-z
-x,1/2+y,z
x,1/2-y,1/2+z
loop_
_atom_site_type_symbol
_atom_site_label
_atom_site_fract_x
_atom_site_fract_y
_atom_site_fract_z
Si Si1 0.753022 0.327189 0.143876
Si Si2 0.877897 0.674936 0.074717
Si Si3 0.898522 0.152494 0.147861
Si Si4 0.818476 0.023806 0.501063
Si Si5 0.496468 0.686704 0.851276
Si Si6 0.393591 0.449112 0.480351
Si Si7 0.342453 0.344841 0.650648
O O1 0.762856 0.349872 0.250000
O O2 0.818107 0.234932 0.120089
O O3 0.627162 0.312204 0.115121
O O4 0.803654 0.410864 0.088200
O O5 0.769293 0.707226 0.127328
O O6 0.976688 0.682655 0.144582
O O7 0.901415 0.750000 0.000000
O O8 0.869411 0.573056 0.031200
O O9 0.871973 0.119931 0.250000
O O10 0.891386 0.071045 0.075026
O O11 0.705056 0.010796 0.445730
O O12 0.502078 0.646569 0.750000
O O13 0.547298 0.787198 0.855274
O O14 0.580138 0.632198 0.913147
O O15 0.500000 0.500000 0.500000
O O16 0.350374 0.424701 0.579360
O O17 0.333366 0.388268 0.750000
#
# Coordination Sequence:
#
# PCOD8234216 Si02
#       7
#     8   8   8   8   8   8   8
#     4  10  22  40  64  94 126 164 210 262 322 382
#     4  11  23  44  66  93 126 165 219 266 321 377
#     4  11  25  43  65  95 128 168 211 259 319 379
#     4  11  23  40  66  94 127 166 210 264 316 379
#     4  10  21  39  61  89 124 162 208 262 318 381
#     4  11  22  35  56  89 122 161 202 250 314 377
#     4  10  22  38  60  86 119 164 207 257 314 374
#
# _framework density 20.865500999999998
#
# number of rings (size 3 to 8) (size 9 to 14) (size 15 to 20)
#    0.000    1.429    1.429    4.286    2.000    5.143 
#    0.000    2.857    0.000    0.000    0.000    0.000 
#    0.000    0.000    0.000    0.000    0.000    0.000 
#
# Total GULP energy -694027.684875 kJ/mol
# GULP energy per Si atom -12393.351516 kJ/mol
# Density = 2.081801 g / cm^3
# Si number density = 20.865501 Si / 1000 Ang^3
#
#
#
# Elastic Constant Matrix: (Units=GPa)
#
#
# Indices 1 2 3 4 5 6 
#
# 1 117.2867 26.0638 32.7369 0.0000 0.0000 0.0000
# 2 26.0638 86.2739 39.6406 0.0000 0.0000 0.0000
# 3 32.7369 39.6406 99.5467 0.0000 0.0000 0.0000
# 4 0.0000 0.0000 0.0000 -10.7164 0.0000 0.0000
# 5 0.0000 0.0000 0.0000 0.0000 35.1077 0.0000
# 6 0.0000 0.0000 0.0000 0.0000 0.0000 22.5731
#
#
#
# Elastic Compliance Matrix: (Units=1/GPa)
#
#
# Indices 1 2 3 4 5 6 
#
# 1 0.009605 -0.001775 -0.002452 0.000000 0.000000 0.000000
# 2 -0.001775 0.014515 -0.005196 0.000000 0.000000 0.000000
# 3 -0.002452 -0.005196 0.012921 0.000000 0.000000 0.000000
# 4 0.000000 0.000000 0.000000 -0.093315 0.000000 0.000000
# 5 0.000000 0.000000 0.000000 0.000000 0.028484 0.000000
# 6 0.000000 0.000000 0.000000 0.000000 0.000000 0.044300
#
#
# Mechanical properties :
#
#
# Convention : Reuss Voigt Hill
#
# Bulk Modulus (GPa) = 54.96174 55.55444 55.25809
# Shear Modulus (GPa) = 120.71108 23.03729 71.87418
#
# Velocity S-wave (km/s) = 7.61430 3.32638 5.87547
# Velocity P-wave (km/s) = 10.18340 6.43707 8.51873
#
# Compressibility (1/GPa) = 0.01819448
#
# Stress axis : x y z
#
# Youngs Moduli (GPa) = 104.11313 68.89532 77.39341
#
# Poissons Ratio (x) = 0.12230 0.18975
# Poissons Ratio (y) = 0.18482 0.40215
# Poissons Ratio (z) = 0.25526 0.35799
#
# Static dielectric constant tensor:
#      x y z
#    x 4.026310 0.000000 0.000000 
#    y 0.000000 3.439400 0.000000 
#    z 0.000000 0.000000 3.557640 
# 
# 
# High freq. dielectric constant tensor:
#      x y z
#    x 1.841280 0.000000 0.000000 
#    y 0.000000 1.801460 0.000000 
#    z 0.000000 0.000000 1.819060 
# 
# From -- ./inp_files/17737.got.cif
#   From: 2010.03.12/outbox.cif.g09.slc.cpg/sg57_9_cif.got.tgz:17737.got - 2010.04.16 15:48:40.
