data_PCOD8234981
_publ_section_title
;
Structure prediction by ZEFSAII (Michael W. Deem and Ramdas Pophale) SiO2 
 PCOD8234981
Probable space group: P B C M
;
_chemical_formula_sum "Si O2"
_cell_formula_units_Z 48
_cell_length_a 14.835699
_cell_length_b 18.592948
_cell_length_c 8.550127
_cell_angle_alpha 90.000000
_cell_angle_beta 90.000000
_cell_angle_gamma 90.000000
_cell_volume 2358.461731
_symmetry_space_group_name_H-M "P B C M"
_symmetry_group_IT_number 57
_symmetry_cell_setting 'orthorhombic'
loop_
_space_group_symop_operation_xyz
x,y,z
-x,-y,1/2+z
x,1/2-y,-z
-x,1/2+y,1/2-z
-x,-y,-z
x,y,1/2-z
-x,1/2+y,z
x,1/2-y,1/2+z
loop_
_atom_site_type_symbol
_atom_site_label
_atom_site_fract_x
_atom_site_fract_y
_atom_site_fract_z
Si Si1 0.376348 0.555118 0.066214
Si Si2 0.824687 0.428942 0.935315
Si Si3 0.274027 0.326510 0.432914
Si Si4 0.875952 0.922033 0.566687
Si Si5 0.034021 0.672011 0.566078
Si Si6 0.550343 0.596096 0.931380
O O1 0.369806 0.553789 0.250000
O O2 0.278100 0.576873 0.001236
O O3 0.404045 0.476652 0.000653
O O4 0.454102 0.611505 0.013782
O O5 0.828462 0.440630 0.750000
O O6 0.875966 0.494748 0.018347
O O7 0.874742 0.355891 0.983930
O O8 0.244719 0.250000 0.500000
O O9 0.250591 0.331092 0.250000
O O10 0.220351 0.388322 0.522972
O O11 0.380521 0.338757 0.463547
O O12 0.895727 0.914637 0.750000
O O13 0.952491 0.881332 0.470733
O O14 0.009434 0.750000 0.500000
O O15 0.049302 0.676597 0.750000
O O16 0.530554 0.586452 0.750000
#
# Coordination Sequence:
#
# PCOD8234981 Si02
#       6
#     8   8   8   8   8   8
#     4   9  18  34  58  86 116 151 193 243 294 346
#     4  11  22  41  65  93 125 159 202 253 301 356
#     4  11  22  38  57  85 123 162 202 251 307 364
#     4  12  24  40  63  92 121 159 203 250 304 362
#     4  12  26  45  65  89 121 160 202 249 305 365
#     4   9  18  34  55  82 117 155 194 242 295 350
#
# _framework density 20.352249
#
# number of rings (size 3 to 8) (size 9 to 14) (size 15 to 20)
#    0.000    1.333    1.667    5.000    0.000    2.667 
#    0.000    0.833    0.000    2.000    0.000    0.000 
#    0.000    0.000    0.000    0.000    0.000    0.000 
#
# Total GULP energy -595341.497540 kJ/mol
# GULP energy per Si atom -12402.947865 kJ/mol
# Density = 2.030593 g / cm^3
# Si number density = 20.352249 Si / 1000 Ang^3
#
#
#
# Elastic Constant Matrix: (Units=GPa)
#
#
# Indices 1 2 3 4 5 6 
#
# 1 126.5364 20.3957 23.1103 0.0000 0.0000 0.0000
# 2 20.3957 50.0313 16.1156 0.0000 0.0000 0.0000
# 3 23.1103 16.1156 69.4520 0.0000 0.0000 0.0000
# 4 0.0000 0.0000 0.0000 30.7212 0.0000 0.0000
# 5 0.0000 0.0000 0.0000 0.0000 34.8829 0.0000
# 6 0.0000 0.0000 0.0000 0.0000 0.0000 21.9131
#
#
#
# Elastic Compliance Matrix: (Units=1/GPa)
#
#
# Indices 1 2 3 4 5 6 
#
# 1 0.008775 -0.002850 -0.002259 0.000000 0.000000 0.000000
# 2 -0.002850 0.022527 -0.004279 0.000000 0.000000 0.000000
# 3 -0.002259 -0.004279 0.016143 0.000000 0.000000 0.000000
# 4 0.000000 0.000000 0.000000 0.032551 0.000000 0.000000
# 5 0.000000 0.000000 0.000000 0.000000 0.028667 0.000000
# 6 0.000000 0.000000 0.000000 0.000000 0.000000 0.045635
#
#
# Mechanical properties :
#
#
# Convention : Reuss Voigt Hill
#
# Bulk Modulus (GPa) = 34.87889 40.58475 37.73182
# Shear Modulus (GPa) = 27.37789 29.92999 28.65394
#
# Velocity S-wave (km/s) = 3.67168 3.83900 3.75627
# Velocity P-wave (km/s) = 5.92873 6.29563 6.11493
#
# Compressibility (1/GPa) = 0.02867063
#
# Stress axis : x y z
#
# Youngs Moduli (GPa) = 113.96434 44.39027 61.94677
#
# Poissons Ratio (x) = 0.12649 0.13991
# Poissons Ratio (y) = 0.32475 0.26507
# Poissons Ratio (z) = 0.25740 0.18995
#
# Static dielectric constant tensor:
#      x y z
#    x 3.958840 0.000000 0.000000 
#    y 0.000000 3.557560 0.000000 
#    z 0.000000 0.000000 3.620780 
# 
# 
# High freq. dielectric constant tensor:
#      x y z
#    x 1.810000 0.000000 0.000000 
#    y 0.000000 1.772700 0.000000 
#    z 0.000000 0.000000 1.796580 
# 
# From -- ./inp_files/4576.got.cif
#   From: 2010.03.12/outbox.cif.g09.slc.cpg/sg57_3_cif.got.tgz:4576.got - 2010.04.16 15:48:40.
