data_PCOD8234340
_publ_section_title
;
Structure prediction by ZEFSAII (Michael W. Deem and Ramdas Pophale) SiO2 
 PCOD8234340
Probable space group: P B C M
;
_chemical_formula_sum "Si O2"
_cell_formula_units_Z 48
_cell_length_a 7.406788
_cell_length_b 22.243898
_cell_length_c 14.704057
_cell_angle_alpha 90.000000
_cell_angle_beta 90.000000
_cell_angle_gamma 90.000000
_cell_volume 2422.579215
_symmetry_space_group_name_H-M "P B C M"
_symmetry_group_IT_number 57
_symmetry_cell_setting 'orthorhombic'
loop_
_space_group_symop_operation_xyz
x,y,z
-x,-y,1/2+z
x,1/2-y,-z
-x,1/2+y,1/2-z
-x,-y,-z
x,y,1/2-z
-x,1/2+y,z
x,1/2-y,1/2+z
loop_
_atom_site_type_symbol
_atom_site_label
_atom_site_fract_x
_atom_site_fract_y
_atom_site_fract_z
Si Si1 0.817004 0.117286 0.148749
Si Si2 0.834990 0.735702 0.643872
Si Si3 0.768913 0.630976 0.144515
Si Si4 0.509393 0.652462 0.648812
Si Si5 0.229344 0.752562 0.101058
Si Si6 0.523807 0.430828 0.520511
O O1 0.771231 0.093636 0.250000
O O2 0.762452 0.187318 0.146521
O O3 0.709715 0.078990 0.074559
O O4 0.027725 0.108575 0.128186
O O5 0.878740 0.739666 0.750000
O O6 0.750518 0.799557 0.613392
O O7 0.697255 0.683110 0.618553
O O8 0.024584 0.722286 0.594794
O O9 0.712106 0.623054 0.250000
O O10 0.640926 0.591771 0.081412
O O11 0.529617 0.624009 0.750000
O O12 0.352927 0.702156 0.657488
O O13 0.461746 0.601733 0.576521
O O14 0.310331 0.750000 0.000000
O O15 0.500000 0.500000 0.500000
#
# Coordination Sequence:
#
# PCOD8234340 Si02
#       6
#     8   8   8   8   8   8
#     4  10  21  40  64  91 118 150 192 242 299 357
#     4   9  20  36  59  91 122 149 182 235 299 367
#     4   9  20  39  64  91 118 148 191 244 299 356
#     4  11  24  39  56  86 125 159 192 237 298 355
#     4  11  20  34  62  94 122 149 183 236 300 365
#     4  12  26  40  59  84 116 161 212 250 283 331
#
# _framework density 19.813592
#
# number of rings (size 3 to 8) (size 9 to 14) (size 15 to 20)
#    0.000    1.667    1.667    4.000    4.667    3.333 
#    0.000    0.000    0.000    2.000    0.000    0.000 
#    0.000    0.000    0.000    0.000    0.000    0.000 
#
# Total GULP energy -595331.370655 kJ/mol
# GULP energy per Si atom -12402.736889 kJ/mol
# Density = 1.976850 g / cm^3
# Si number density = 19.813592 Si / 1000 Ang^3
#
#
#
# Elastic Constant Matrix: (Units=GPa)
#
#
# Indices 1 2 3 4 5 6 
#
# 1 56.4038 8.3839 25.7526 0.0000 0.0000 0.0000
# 2 8.3839 50.7489 18.9992 0.0000 0.0000 0.0000
# 3 25.7526 18.9992 104.9395 0.0000 0.0000 0.0000
# 4 0.0000 0.0000 0.0000 16.3590 0.0000 0.0000
# 5 0.0000 0.0000 0.0000 0.0000 33.4917 0.0000
# 6 0.0000 0.0000 0.0000 0.0000 0.0000 12.1731
#
#
#
# Elastic Compliance Matrix: (Units=1/GPa)
#
#
# Indices 1 2 3 4 5 6 
#
# 1 0.020084 -0.001580 -0.004643 0.000000 0.000000 0.000000
# 2 -0.001580 0.021262 -0.003462 0.000000 0.000000 0.000000
# 3 -0.004643 -0.003462 0.011295 0.000000 0.000000 0.000000
# 4 0.000000 0.000000 0.000000 0.061128 0.000000 0.000000
# 5 0.000000 0.000000 0.000000 0.000000 0.029858 0.000000
# 6 0.000000 0.000000 0.000000 0.000000 0.000000 0.082149
#
#
# Mechanical properties :
#
#
# Convention : Reuss Voigt Hill
#
# Bulk Modulus (GPa) = 30.05470 35.37373 32.71421
# Shear Modulus (GPa) = 19.51329 23.00184 21.25757
#
# Velocity S-wave (km/s) = 3.14163 3.41091 3.27903
# Velocity P-wave (km/s) = 5.32554 5.77966 5.55724
#
# Compressibility (1/GPa) = 0.03327267
#
# Stress axis : x y z
#
# Youngs Moduli (GPa) = 49.79125 47.03259 88.53187
#
# Poissons Ratio (x) = 0.07430 0.41102
# Poissons Ratio (y) = 0.07866 0.30647
# Poissons Ratio (z) = 0.23116 0.16281
#
# Static dielectric constant tensor:
#      x y z
#    x 3.787550 0.000000 0.000000 
#    y 0.000000 3.221480 0.000000 
#    z 0.000000 0.000000 3.673220 
# 
# 
# High freq. dielectric constant tensor:
#      x y z
#    x 1.784300 0.000000 0.000000 
#    y 0.000000 1.728460 0.000000 
#    z 0.000000 0.000000 1.791120 
# 
# From -- ./inp_files/16400.got.cif
#   From: 2010.03.12/outbox.cif.g09.slc.cpg/sg57_9_cif.got.tgz:16400.got - 2010.04.16 15:48:40.
