data_PCOD8234520
_publ_section_title
;
Structure prediction by ZEFSAII (Michael W. Deem and Ramdas Pophale) SiO2 
 PCOD8234520
Probable space group: P B C M
;
_chemical_formula_sum "Si O2"
_cell_formula_units_Z 40
_cell_length_a 4.982504
_cell_length_b 15.644370
_cell_length_c 24.437285
_cell_angle_alpha 90.000000
_cell_angle_beta 90.000000
_cell_angle_gamma 90.000000
_cell_volume 1904.840817
_symmetry_space_group_name_H-M "P B C M"
_symmetry_group_IT_number 57
_symmetry_cell_setting 'orthorhombic'
loop_
_space_group_symop_operation_xyz
x,y,z
-x,-y,1/2+z
x,1/2-y,-z
-x,1/2+y,1/2-z
-x,-y,-z
x,y,1/2-z
-x,1/2+y,z
x,1/2-y,1/2+z
loop_
_atom_site_type_symbol
_atom_site_label
_atom_site_fract_x
_atom_site_fract_y
_atom_site_fract_z
Si Si1 0.032979 0.435345 0.130470
Si Si2 0.984927 0.382341 0.917766
Si Si3 0.504544 0.229984 0.398579
Si Si4 0.517470 0.130720 0.813979
Si Si5 0.112109 0.831331 0.029957
O O1 0.815328 0.400221 0.172830
O O2 0.064634 0.370011 0.079149
O O3 0.945125 0.527941 0.109619
O O4 0.313383 0.440591 0.162333
O O5 0.751454 0.333586 0.884985
O O6 0.249433 0.323696 0.917841
O O7 0.868991 0.399220 0.979881
O O8 0.442619 0.279254 0.342220
O O9 0.601032 0.298894 0.445394
O O10 0.480035 0.142468 0.750000
O O11 0.969994 0.750000 0.000000
#
# Coordination Sequence:
#
# PCOD8234520 Si02
#       5
#     8   8   8   8   8
#     4  11  23  39  63  91 121 156 198 246 302 356
#     4  11  22  39  59  92 127 152 190 247 301 354
#     4  10  22  39  61  87 119 159 203 241 289 358
#     4  11  23  43  63  83 113 158 205 248 294 352
#     4   9  20  36  59  87 121 159 193 230 285 356
#
# _framework density 20.999130000000001
#
# number of rings (size 3 to 8) (size 9 to 14) (size 15 to 20)
#    0.000    1.600    0.000    6.000    0.000   15.200 
#    0.000   16.000    0.000    0.000    0.000    0.000 
#    0.000    0.000    0.000    0.000    0.000    0.000 
#
# Total GULP energy -495699.307941 kJ/mol
# GULP energy per Si atom -12392.482699 kJ/mol
# Density = 2.095133 g / cm^3
# Si number density = 20.999130 Si / 1000 Ang^3
#
#
#
# Elastic Constant Matrix: (Units=GPa)
#
#
# Indices 1 2 3 4 5 6 
#
# 1 97.8485 33.2593 33.4197 0.0000 0.0000 0.0000
# 2 33.2593 83.3966 62.9683 0.0000 0.0000 0.0000
# 3 33.4197 62.9683 151.0251 0.0000 0.0000 0.0000
# 4 0.0000 0.0000 0.0000 16.6312 0.0000 0.0000
# 5 0.0000 0.0000 0.0000 0.0000 22.1753 0.0000
# 6 0.0000 0.0000 0.0000 0.0000 0.0000 30.0251
#
#
#
# Elastic Compliance Matrix: (Units=1/GPa)
#
#
# Indices 1 2 3 4 5 6 
#
# 1 0.011916 -0.004030 -0.000957 0.000000 0.000000 0.000000
# 2 -0.004030 0.018863 -0.006973 0.000000 0.000000 0.000000
# 3 -0.000957 -0.006973 0.009740 0.000000 0.000000 0.000000
# 4 0.000000 0.000000 0.000000 0.060128 0.000000 0.000000
# 5 0.000000 0.000000 0.000000 0.000000 0.045095 0.000000
# 6 0.000000 0.000000 0.000000 0.000000 0.000000 0.033305
#
#
# Mechanical properties :
#
#
# Convention : Reuss Voigt Hill
#
# Bulk Modulus (GPa) = 60.23894 65.72941 62.98418
# Shear Modulus (GPa) = 23.98067 27.27453 25.62760
#
# Velocity S-wave (km/s) = 3.38299 3.60785 3.49723
# Velocity P-wave (km/s) = 6.63387 6.98029 6.80928
#
# Compressibility (1/GPa) = 0.01660056
#
# Stress axis : x y z
#
# Youngs Moduli (GPa) = 83.91742 53.01380 102.66521
#
# Poissons Ratio (x) = 0.21365 0.09821
# Poissons Ratio (y) = 0.33820 0.71588
# Poissons Ratio (z) = 0.08028 0.36966
#
# Static dielectric constant tensor:
#      x y z
#    x 3.826890 0.000000 0.000000 
#    y 0.000000 3.795960 0.000000 
#    z 0.000000 0.000000 3.875150 
# 
# 
# High freq. dielectric constant tensor:
#      x y z
#    x 1.829050 0.000000 0.000000 
#    y 0.000000 1.811910 0.000000 
#    z 0.000000 0.000000 1.810970 
# 
# From -- ./inp_files/26123.got.cif
#   From: 2010.03.12/outbox.cif.g09.slc.cpg/sg57_14_cif.got.tgz:26123.got - 2010.04.16 15:48:40.
