data_PCOD8234015
_publ_section_title
;
Structure prediction by ZEFSAII (Michael W. Deem and Ramdas Pophale) SiO2 
 PCOD8234015
Probable space group: P B C M
;
_chemical_formula_sum "Si O2"
_cell_formula_units_Z 64
_cell_length_a 12.252776
_cell_length_b 8.843075
_cell_length_c 28.321313
_cell_angle_alpha 90.000000
_cell_angle_beta 90.000000
_cell_angle_gamma 90.000000
_cell_volume 3068.677055
_symmetry_space_group_name_H-M "P B C M"
_symmetry_group_IT_number 57
_symmetry_cell_setting 'orthorhombic'
loop_
_space_group_symop_operation_xyz
x,y,z
-x,-y,1/2+z
x,1/2-y,-z
-x,1/2+y,1/2-z
-x,-y,-z
x,y,1/2-z
-x,1/2+y,z
x,1/2-y,1/2+z
loop_
_atom_site_type_symbol
_atom_site_label
_atom_site_fract_x
_atom_site_fract_y
_atom_site_fract_z
Si Si1 0.488357 0.807160 0.897990
Si Si2 0.963329 0.700594 0.949951
Si Si3 0.355280 0.069997 0.628594
Si Si4 0.954831 0.878931 0.803150
Si Si5 0.259980 0.093023 0.973416
Si Si6 0.872996 0.993318 0.602997
Si Si7 0.153289 0.065857 0.802658
Si Si8 0.352688 0.546691 0.939583
O O1 0.560391 0.706527 0.861646
O O2 0.412335 0.705814 0.931879
O O3 0.413075 0.908862 0.863439
O O4 0.561885 0.911344 0.931708
O O5 0.868878 0.575929 0.961065
O O6 0.905037 0.841335 0.924616
O O7 0.054341 0.632288 0.915892
O O8 0.016461 0.750000 0.000000
O O9 0.329488 0.085396 0.573510
O O10 0.249638 0.084292 0.660501
O O11 0.922197 0.931827 0.750000
O O12 0.886354 0.974305 0.840990
O O13 0.933217 0.701475 0.809821
O O14 0.084175 0.912540 0.811514
O O15 0.279893 0.250000 0.000000
O O16 0.301721 0.959378 0.007721
O O17 0.746269 0.029929 0.597235
O O18 0.203608 0.068551 0.750000
#
# Coordination Sequence:
#
# PCOD8234015 Si02
#       8
#     8   8   8   8   8   8   8   8
#     4  10  24  40  61  86 117 158 215 261 296 350
#     4  11  23  38  58  89 127 164 201 244 296 385
#     4  11  22  41  61  86 122 159 205 258 310 354
#     4  10  21  37  63  96 123 156 200 245 305 382
#     4  11  20  36  61  86 123 166 199 248 305 363
#     4  12  22  39  62  87 128 165 197 246 313 365
#     4  10  22  42  67  93 124 159 198 253 312 372
#     4  11  23  40  59  86 120 163 208 252 301 352
#
# _framework density 20.855891
#
# number of rings (size 3 to 8) (size 9 to 14) (size 15 to 20)
#    0.000    1.250    3.750    3.375    0.000    6.500 
#    0.000    0.625    0.000    3.000    0.000    0.000 
#    0.000    0.000    0.000    0.000    0.000    0.000 
#
# Total GULP energy -793589.193900 kJ/mol
# GULP energy per Si atom -12399.831155 kJ/mol
# Density = 2.080842 g / cm^3
# Si number density = 20.855891 Si / 1000 Ang^3
#
#
#
# Elastic Constant Matrix: (Units=GPa)
#
#
# Indices 1 2 3 4 5 6 
#
# 1 117.2024 54.8484 50.5292 0.0000 0.0000 0.0000
# 2 54.8484 97.7759 29.8135 0.0000 0.0000 0.0000
# 3 50.5292 29.8135 102.6632 0.0000 0.0000 0.0000
# 4 0.0000 0.0000 0.0000 22.5423 0.0000 0.0000
# 5 0.0000 0.0000 0.0000 0.0000 25.0671 0.0000
# 6 0.0000 0.0000 0.0000 0.0000 0.0000 31.4373
#
#
#
# Elastic Compliance Matrix: (Units=1/GPa)
#
#
# Indices 1 2 3 4 5 6 
#
# 1 0.013473 -0.006074 -0.004867 0.000000 0.000000 0.000000
# 2 -0.006074 0.013959 -0.001064 0.000000 0.000000 0.000000
# 3 -0.004867 -0.001064 0.012445 0.000000 0.000000 0.000000
# 4 0.000000 0.000000 0.000000 0.044361 0.000000 0.000000
# 5 0.000000 0.000000 0.000000 0.000000 0.039893 0.000000
# 6 0.000000 0.000000 0.000000 0.000000 0.000000 0.031809
#
#
# Mechanical properties :
#
#
# Convention : Reuss Voigt Hill
#
# Bulk Modulus (GPa) = 63.02563 65.33599 64.18081
# Shear Modulus (GPa) = 26.99189 27.97270 27.48230
#
# Velocity S-wave (km/s) = 3.60142 3.66626 3.63398
# Velocity P-wave (km/s) = 6.89774 7.02263 6.96046
#
# Compressibility (1/GPa) = 0.01586656
#
# Stress axis : x y z
#
# Youngs Moduli (GPa) = 74.22190 71.63773 80.35121
#
# Poissons Ratio (x) = 0.43511 0.39110
# Poissons Ratio (y) = 0.45080 0.08552
# Poissons Ratio (z) = 0.36127 0.07625
#
# Static dielectric constant tensor:
#      x y z
#    x 3.928120 0.000000 0.000000 
#    y 0.000000 3.925810 0.000000 
#    z 0.000000 0.000000 3.792070 
# 
# 
# High freq. dielectric constant tensor:
#      x y z
#    x 1.818340 0.000000 0.000000 
#    y 0.000000 1.817410 0.000000 
#    z 0.000000 0.000000 1.800410 
# 
# From -- ./inp_files/29758.got.cif
#   From: 2010.03.12/outbox.cif.g09.slc.cpg/sg57_15_cif.got.tgz:29758.got - 2010.04.16 15:48:40.
