data_PCOD8234355
_publ_section_title
;
Structure prediction by ZEFSAII (Michael W. Deem and Ramdas Pophale) SiO2 
 PCOD8234355
Probable space group: P B C M
;
_chemical_formula_sum "Si O2"
_cell_formula_units_Z 40
_cell_length_a 22.047007
_cell_length_b 9.788213
_cell_length_c 9.371296
_cell_angle_alpha 90.000000
_cell_angle_beta 90.000000
_cell_angle_gamma 90.000000
_cell_volume 2022.333179
_symmetry_space_group_name_H-M "P B C M"
_symmetry_group_IT_number 57
_symmetry_cell_setting 'orthorhombic'
loop_
_space_group_symop_operation_xyz
x,y,z
-x,-y,1/2+z
x,1/2-y,-z
-x,1/2+y,1/2-z
-x,-y,-z
x,y,1/2-z
-x,1/2+y,z
x,1/2-y,1/2+z
loop_
_atom_site_type_symbol
_atom_site_label
_atom_site_fract_x
_atom_site_fract_y
_atom_site_fract_z
Si Si1 0.221197 0.498365 0.909358
Si Si2 0.861486 0.750000 0.000000
Si Si3 0.940104 0.155796 0.250000
Si Si4 0.677858 0.887837 0.413579
Si Si5 0.857035 0.250000 0.000000
Si Si6 0.944677 0.652180 0.750000
Si Si7 0.460789 0.109529 0.583357
O O1 0.247983 0.493608 0.750000
O O2 0.179652 0.366050 0.930507
O O3 0.277430 0.501176 0.020206
O O4 0.184047 0.636875 0.925458
O O5 0.904233 0.678727 0.886632
O O6 0.899072 0.174560 0.387603
O O7 0.995506 0.258519 0.250000
O O8 0.967190 0.003770 0.250000
O O9 0.688386 0.750000 0.500000
O O10 0.696031 0.861557 0.250000
O O11 0.608864 0.938766 0.426254
O O12 0.470503 0.250000 0.500000
O O13 0.480489 0.124019 0.750000
O O14 0.500000 0.000000 0.500000
#
# Coordination Sequence:
#
# PCOD8234355 Si02
#       7
#     8   4   4   8   4   4   8
#     4  12  25  42  67  95 126 169 213 262 325 385
#     4  12  25  42  66  96 123 162 206 258 316 388
#     4  12  28  46  68  94 126 164 207 264 319 391
#     4  10  22  38  65  99 133 170 219 269 319 381
#     4  12  27  46  66  92 129 164 208 266 328 382
#     4  12  28  44  68  94 126 162 209 260 319 387
#     4  10  21  40  65  97 134 179 223 274 327 383
#
# _framework density 19.779133000000002
#
# number of rings (size 3 to 8) (size 9 to 14) (size 15 to 20)
#    0.000    0.800    5.000    1.800    5.600    4.000 
#    1.800    0.000    0.000    0.000    0.000    0.000 
#    0.000    0.000    0.000    0.000    0.000    0.000 
#
# Total GULP energy -496152.326317 kJ/mol
# GULP energy per Si atom -12403.808158 kJ/mol
# Density = 1.973411 g / cm^3
# Si number density = 19.779133 Si / 1000 Ang^3
#
#
#
# Elastic Constant Matrix: (Units=GPa)
#
#
# Indices 1 2 3 4 5 6 
#
# 1 107.8685 55.1544 64.1240 0.0000 0.0000 0.0000
# 2 55.1544 128.7016 48.9165 0.0000 0.0000 0.0000
# 3 64.1240 48.9165 173.6898 0.0000 0.0000 0.0000
# 4 0.0000 0.0000 0.0000 28.8765 0.0000 0.0000
# 5 0.0000 0.0000 0.0000 0.0000 35.7186 0.0000
# 6 0.0000 0.0000 0.0000 0.0000 0.0000 28.2638
#
#
#
# Elastic Compliance Matrix: (Units=1/GPa)
#
#
# Indices 1 2 3 4 5 6 
#
# 1 0.013846 -0.004469 -0.003853 0.000000 0.000000 0.000000
# 2 -0.004469 0.010144 -0.001207 0.000000 0.000000 0.000000
# 3 -0.003853 -0.001207 0.007520 0.000000 0.000000 0.000000
# 4 0.000000 0.000000 0.000000 0.034630 0.000000 0.000000
# 5 0.000000 0.000000 0.000000 0.000000 0.027997 0.000000
# 6 0.000000 0.000000 0.000000 0.000000 0.000000 0.035381
#
#
# Mechanical properties :
#
#
# Convention : Reuss Voigt Hill
#
# Bulk Modulus (GPa) = 80.31206 82.96107 81.63657
# Shear Modulus (GPa) = 32.73819 34.70946 33.72382
#
# Velocity S-wave (km/s) = 4.07281 4.19364 4.13367
# Velocity P-wave (km/s) = 7.92526 8.09219 8.00916
#
# Compressibility (1/GPa) = 0.01245143
#
# Stress axis : x y z
#
# Youngs Moduli (GPa) = 72.22146 98.58167 132.98191
#
# Poissons Ratio (x) = 0.44059 0.51240
# Poissons Ratio (y) = 0.32278 0.16049
# Poissons Ratio (z) = 0.27828 0.11897
#
# Static dielectric constant tensor:
#      x y z
#    x 3.767760 0.000000 0.000000 
#    y 0.000000 3.677300 0.000000 
#    z 0.000000 0.000000 3.667980 
# 
# 
# High freq. dielectric constant tensor:
#      x y z
#    x 1.776390 0.000000 0.000000 
#    y 0.000000 1.767350 0.000000 
#    z 0.000000 0.000000 1.795260 
# 
# From -- ./inp_files/9025.got.cif
#   From: 2010.03.12/outbox.cif.g09.slc.cpg/sg57_5_cif.got.tgz:9025.got - 2010.04.16 15:48:40.
