data_PCOD8234235
_publ_section_title
;
Structure prediction by ZEFSAII (Michael W. Deem and Ramdas Pophale) SiO2 
 PCOD8234235
Probable space group: P B C M
;
_chemical_formula_sum "Si O2"
_cell_formula_units_Z 36
_cell_length_a 8.945905
_cell_length_b 12.307771
_cell_length_c 14.848145
_cell_angle_alpha 90.000000
_cell_angle_beta 90.000000
_cell_angle_gamma 90.000000
_cell_volume 1634.842386
_symmetry_space_group_name_H-M "P B C M"
_symmetry_group_IT_number 57
_symmetry_cell_setting 'orthorhombic'
loop_
_space_group_symop_operation_xyz
x,y,z
-x,-y,1/2+z
x,1/2-y,-z
-x,1/2+y,1/2-z
-x,-y,-z
x,y,1/2-z
-x,1/2+y,z
x,1/2-y,1/2+z
loop_
_atom_site_type_symbol
_atom_site_label
_atom_site_fract_x
_atom_site_fract_y
_atom_site_fract_z
Si Si1 0.508886 0.638409 0.145367
Si Si2 0.931586 0.904074 0.944528
Si Si3 0.308453 0.250000 0.500000
Si Si4 0.715815 0.455347 0.351400
Si Si5 0.193581 0.776130 0.644909
O O1 0.551765 0.658404 0.250000
O O2 0.567483 0.519071 0.112384
O O3 0.330672 0.640325 0.131844
O O4 0.587728 0.735204 0.088359
O O5 0.803832 0.852327 0.008555
O O6 0.051069 0.816170 0.910726
O O7 0.852803 0.959745 0.858140
O O8 0.000000 0.000000 0.000000
O O9 0.684718 0.421398 0.250000
O O10 0.755147 0.340220 0.399025
O O11 0.149202 0.765312 0.750000
#
# Coordination Sequence:
#
# PCOD8234235 Si02
#       5
#     8   8   4   8   8
#     4   9  20  39  62  88 118 156 207 262 316 373
#     4  11  22  36  54  84 119 154 196 243 299 366
#     4  10  22  38  58  84 118 160 198 246 310 370
#     4   9  19  37  58  80 112 152 195 246 300 358
#     4  10  21  39  63  88 117 157 204 254 307 365
#
# _framework density 22.020472000000002
#
# number of rings (size 3 to 8) (size 9 to 14) (size 15 to 20)
#    0.000    2.222    0.000    2.000    0.000    5.333 
#    0.000    8.889    0.000    0.000    0.000    0.000 
#    0.000    0.000    0.000    0.000    0.000    0.000 
#
# Total GULP energy -446039.250901 kJ/mol
# GULP energy per Si atom -12389.979192 kJ/mol
# Density = 2.197035 g / cm^3
# Si number density = 22.020472 Si / 1000 Ang^3
#
#
#
# Elastic Constant Matrix: (Units=GPa)
#
#
# Indices 1 2 3 4 5 6 
#
# 1 91.8169 23.8310 14.9096 0.0000 0.0000 0.0000
# 2 23.8310 94.8738 5.3038 0.0000 0.0000 0.0000
# 3 14.9096 5.3038 48.0156 0.0000 0.0000 0.0000
# 4 0.0000 0.0000 0.0000 27.0912 0.0000 0.0000
# 5 0.0000 0.0000 0.0000 0.0000 24.7336 0.0000
# 6 0.0000 0.0000 0.0000 0.0000 0.0000 38.9351
#
#
#
# Elastic Compliance Matrix: (Units=1/GPa)
#
#
# Indices 1 2 3 4 5 6 
#
# 1 0.012200 -0.002870 -0.003471 0.000000 0.000000 0.000000
# 2 -0.002870 0.011281 -0.000355 0.000000 0.000000 0.000000
# 3 -0.003471 -0.000355 0.021944 0.000000 0.000000 0.000000
# 4 0.000000 0.000000 0.000000 0.036912 0.000000 0.000000
# 5 0.000000 0.000000 0.000000 0.000000 0.040431 0.000000
# 6 0.000000 0.000000 0.000000 0.000000 0.000000 0.025684
#
#
# Mechanical properties :
#
#
# Convention : Reuss Voigt Hill
#
# Bulk Modulus (GPa) = 31.21888 35.86610 33.54249
# Shear Modulus (GPa) = 28.98185 30.86277 29.92231
#
# Velocity S-wave (km/s) = 3.63179 3.74779 3.69024
# Velocity P-wave (km/s) = 5.63866 5.92038 5.78124
#
# Compressibility (1/GPa) = 0.03203189
#
# Stress axis : x y z
#
# Youngs Moduli (GPa) = 81.96778 88.64341 45.57131
#
# Poissons Ratio (x) = 0.25444 0.15819
# Poissons Ratio (y) = 0.23528 0.01617
# Poissons Ratio (z) = 0.28453 0.03145
#
# Static dielectric constant tensor:
#      x y z
#    x 4.227510 0.000000 0.000000 
#    y 0.000000 4.204980 0.000000 
#    z 0.000000 0.000000 4.092870 
# 
# 
# High freq. dielectric constant tensor:
#      x y z
#    x 1.872680 0.000000 0.000000 
#    y 0.000000 1.868770 0.000000 
#    z 0.000000 0.000000 1.848330 
# 
# From -- ./inp_files/20670.got.cif
#   From: 2010.03.12/outbox.cif.g09.slc.cpg/sg57_11_cif.got.tgz:20670.got - 2010.04.16 15:48:40.
