data_PCOD8234203
_publ_section_title
;
Structure prediction by ZEFSAII (Michael W. Deem and Ramdas Pophale) SiO2 
 PCOD8234203
Probable space group: P B C M
;
_chemical_formula_sum "Si O2"
_cell_formula_units_Z 64
_cell_length_a 23.797002
_cell_length_b 15.072801
_cell_length_c 8.546693
_cell_angle_alpha 90.000000
_cell_angle_beta 90.000000
_cell_angle_gamma 90.000000
_cell_volume 3065.591736
_symmetry_space_group_name_H-M "P B C M"
_symmetry_group_IT_number 57
_symmetry_cell_setting 'orthorhombic'
loop_
_space_group_symop_operation_xyz
x,y,z
-x,-y,1/2+z
x,1/2-y,-z
-x,1/2+y,1/2-z
-x,-y,-z
x,y,1/2-z
-x,1/2+y,z
x,1/2-y,1/2+z
loop_
_atom_site_type_symbol
_atom_site_label
_atom_site_fract_x
_atom_site_fract_y
_atom_site_fract_z
Si Si1 0.501254 0.343853 0.063925
Si Si2 0.078794 0.520685 0.932870
Si Si3 0.619574 0.888925 0.074597
Si Si4 0.390310 0.591973 0.074132
Si Si5 0.199692 0.513200 0.066299
Si Si6 0.718764 0.342790 0.066451
Si Si7 0.989878 0.850299 0.565900
Si Si8 0.738013 0.839785 0.435629
O O1 0.500832 0.349889 0.250000
O O2 0.439439 0.364471 0.990593
O O3 0.522031 0.250000 0.000000
O O4 0.547154 0.412080 0.997945
O O5 0.067383 0.530330 0.750000
O O6 0.057615 0.422493 0.989882
O O7 0.143826 0.532935 0.970319
O O8 0.048312 0.604131 0.015355
O O9 0.614552 0.851778 0.250000
O O10 0.674541 0.846780 0.992022
O O11 0.631827 0.992613 0.076164
O O12 0.391470 0.631398 0.250000
O O13 0.347778 0.648765 0.968379
O O14 0.186392 0.513455 0.250000
O O15 0.222548 0.418744 0.006460
O O16 0.247156 0.584195 0.028483
O O17 0.730307 0.350659 0.250000
O O18 0.740799 0.250000 0.000000
O O19 0.980972 0.750000 0.500000
O O20 0.988746 0.838752 0.750000
O O21 0.765847 0.750000 0.500000
O O22 0.734144 0.841500 0.250000
#
# Coordination Sequence:
#
# PCOD8234203 Si02
#       8
#     8   8   8   8   8   8   8   8
#     4  11  22  36  54  81 112 146 191 242 300 366
#     4  10  22  40  63  94 131 168 213 261 306 359
#     4   9  19  37  59  81 112 149 192 244 302 364
#     4  11  21  39  61  82 113 150 192 245 307 369
#     4  11  23  42  65  90 127 167 208 256 308 360
#     4  12  25  42  64  90 119 156 204 254 309 372
#     4  10  21  39  65  96 132 173 214 257 308 360
#     4  10  21  39  61  87 119 159 202 250 305 363
#
# _framework density 20.876881999999998
#
# number of rings (size 3 to 8) (size 9 to 14) (size 15 to 20)
#    0.000    1.500    1.250    4.125    0.000    3.500 
#    0.000    7.500    0.000    0.000    0.000    0.000 
#    0.000    0.000    0.000    0.000    0.000    0.000 
#
# Total GULP energy -793487.240826 kJ/mol
# GULP energy per Si atom -12398.238138 kJ/mol
# Density = 2.082936 g / cm^3
# Si number density = 20.876882 Si / 1000 Ang^3
#
#
#
# Elastic Constant Matrix: (Units=GPa)
#
#
# Indices 1 2 3 4 5 6 
#
# 1 87.8510 11.2158 12.3956 0.0000 0.0000 0.0000
# 2 11.2158 102.8800 23.6422 0.0000 0.0000 0.0000
# 3 12.3956 23.6422 58.8012 0.0000 0.0000 0.0000
# 4 0.0000 0.0000 0.0000 31.0206 0.0000 0.0000
# 5 0.0000 0.0000 0.0000 0.0000 26.0756 0.0000
# 6 0.0000 0.0000 0.0000 0.0000 0.0000 1.1704
#
#
#
# Elastic Compliance Matrix: (Units=1/GPa)
#
#
# Indices 1 2 3 4 5 6 
#
# 1 0.011789 -0.000787 -0.002169 0.000000 0.000000 0.000000
# 2 -0.000787 0.010762 -0.004161 0.000000 0.000000 0.000000
# 3 -0.002169 -0.004161 0.019137 0.000000 0.000000 0.000000
# 4 0.000000 0.000000 0.000000 0.032237 0.000000 0.000000
# 5 0.000000 0.000000 0.000000 0.000000 0.038350 0.000000
# 6 0.000000 0.000000 0.000000 0.000000 0.000000 0.854433
#
#
# Mechanical properties :
#
#
# Convention : Reuss Voigt Hill
#
# Bulk Modulus (GPa) = 36.42413 38.22657 37.32535
# Shear Modulus (GPa) = 5.05003 25.13854 15.09429
#
# Velocity S-wave (km/s) = 1.55699 3.47383 2.69181
# Velocity P-wave (km/s) = 4.55162 5.86858 5.25155
#
# Compressibility (1/GPa) = 0.02745433
#
# Stress axis : x y z
#
# Youngs Moduli (GPa) = 84.82198 92.91858 52.25536
#
# Poissons Ratio (x) = 0.07311 0.11334
# Poissons Ratio (y) = 0.06674 0.21745
# Poissons Ratio (z) = 0.18397 0.38666
#
# Static dielectric constant tensor:
#      x y z
#    x 3.786240 0.000000 0.000000 
#    y 0.000000 3.999460 0.000000 
#    z 0.000000 0.000000 3.608590 
# 
# 
# High freq. dielectric constant tensor:
#      x y z
#    x 1.817940 0.000000 0.000000 
#    y 0.000000 1.825790 0.000000 
#    z 0.000000 0.000000 1.806740 
# 
# From -- ./inp_files/9368.got.cif
#   From: 2010.03.12/outbox.cif.g09.slc.cpg/sg57_5_cif.got.tgz:9368.got - 2010.04.16 15:48:40.
