data_PCOD8234310
_publ_section_title
;
Structure prediction by ZEFSAII (Michael W. Deem and Ramdas Pophale) SiO2 
 PCOD8234310
Probable space group: P B C M
;
_chemical_formula_sum "Si O2"
_cell_formula_units_Z 48
_cell_length_a 5.028569
_cell_length_b 20.849470
_cell_length_c 23.509633
_cell_angle_alpha 90.000000
_cell_angle_beta 90.000000
_cell_angle_gamma 90.000000
_cell_volume 2464.820418
_symmetry_space_group_name_H-M "P B C M"
_symmetry_group_IT_number 57
_symmetry_cell_setting 'orthorhombic'
loop_
_space_group_symop_operation_xyz
x,y,z
-x,-y,1/2+z
x,1/2-y,-z
-x,1/2+y,1/2-z
-x,-y,-z
x,y,1/2-z
-x,1/2+y,z
x,1/2-y,1/2+z
loop_
_atom_site_type_symbol
_atom_site_label
_atom_site_fract_x
_atom_site_fract_y
_atom_site_fract_z
Si Si1 0.918307 0.013545 0.815514
Si Si2 0.419690 0.929582 0.684579
Si Si3 0.465043 0.166767 0.410404
Si Si4 0.972812 0.246759 0.433936
Si Si5 0.942039 0.108634 0.914833
Si Si6 0.559249 0.572539 0.515269
O O1 0.935577 0.035602 0.750000
O O2 0.634231 0.983797 0.831435
O O3 0.132816 0.958794 0.829264
O O4 0.968835 0.075984 0.853406
O O5 0.449130 0.909382 0.750000
O O6 0.458239 0.864972 0.649247
O O7 0.675326 0.221250 0.426778
O O8 0.458700 0.112424 0.457826
O O9 0.178232 0.199426 0.403010
O O10 0.051046 0.250000 0.500000
O O11 0.999397 0.316465 0.405826
O O12 0.647005 0.099805 0.939037
O O13 0.146057 0.077117 0.959214
O O14 0.500000 0.500000 0.500000
#
# Coordination Sequence:
#
# PCOD8234310 Si02
#       6
#     8   8   8   8   8   8
#     4  10  21  40  62  85 116 152 191 241 301 348
#     4  10  22  41  64  88 117 152 192 245 299 345
#     4  12  22  39  60  86 117 155 200 234 293 348
#     4  12  23  40  58  84 121 166 192 232 291 348
#     4  12  23  38  57  85 117 153 196 232 290 349
#     4  12  23  35  58  87 117 144 190 249 293 343
#
# _framework density 19.474036000000002
#
# number of rings (size 3 to 8) (size 9 to 14) (size 15 to 20)
#    0.000    0.667    3.333    6.000    0.000    0.000 
#    0.000    1.667    0.000    0.000    0.000    0.000 
#    0.000    0.000    0.000    0.000    0.000    0.000 
#
# Total GULP energy -595626.382155 kJ/mol
# GULP energy per Si atom -12408.882962 kJ/mol
# Density = 1.942971 g / cm^3
# Si number density = 19.474036 Si / 1000 Ang^3
#
#
#
# Elastic Constant Matrix: (Units=GPa)
#
#
# Indices 1 2 3 4 5 6 
#
# 1 68.8505 4.9093 8.9522 0.0000 0.0000 0.0000
# 2 4.9093 116.5914 41.5556 0.0000 0.0000 0.0000
# 3 8.9522 41.5556 79.4972 0.0000 0.0000 0.0000
# 4 0.0000 0.0000 0.0000 29.7406 0.0000 0.0000
# 5 0.0000 0.0000 0.0000 0.0000 20.4955 0.0000
# 6 0.0000 0.0000 0.0000 0.0000 0.0000 28.9310
#
#
#
# Elastic Compliance Matrix: (Units=1/GPa)
#
#
# Indices 1 2 3 4 5 6 
#
# 1 0.014740 -0.000036 -0.001641 0.000000 0.000000 0.000000
# 2 -0.000036 0.010541 -0.005506 0.000000 0.000000 0.000000
# 3 -0.001641 -0.005506 0.015642 0.000000 0.000000 0.000000
# 4 0.000000 0.000000 0.000000 0.033624 0.000000 0.000000
# 5 0.000000 0.000000 0.000000 0.000000 0.048791 0.000000
# 6 0.000000 0.000000 0.000000 0.000000 0.000000 0.034565
#
#
# Mechanical properties :
#
#
# Convention : Reuss Voigt Hill
#
# Bulk Modulus (GPa) = 37.65457 41.75260 39.70358
# Shear Modulus (GPa) = 27.60572 29.80155 28.70364
#
# Velocity S-wave (km/s) = 3.76914 3.91618 3.84336
# Velocity P-wave (km/s) = 6.19029 6.47574 6.33462
#
# Compressibility (1/GPa) = 0.02655720
#
# Stress axis : x y z
#
# Youngs Moduli (GPa) = 67.84186 94.86824 63.93023
#
# Poissons Ratio (x) = 0.00339 0.10492
# Poissons Ratio (y) = 0.00242 0.35200
# Poissons Ratio (z) = 0.11134 0.52235
#
# Static dielectric constant tensor:
#      x y z
#    x 3.802700 0.000000 0.000000 
#    y 0.000000 3.517680 0.000000 
#    z 0.000000 0.000000 3.450730 
# 
# 
# High freq. dielectric constant tensor:
#      x y z
#    x 1.780180 0.000000 0.000000 
#    y 0.000000 1.759400 0.000000 
#    z 0.000000 0.000000 1.749530 
# 
# From -- ./inp_files/26215.got.cif
#   From: 2010.03.12/outbox.cif.g09.slc.cpg/sg57_14_cif.got.tgz:26215.got - 2010.04.16 15:48:40.
