data_PCOD8234905
_publ_section_title
;
Structure prediction by ZEFSAII (Michael W. Deem and Ramdas Pophale) SiO2 
 PCOD8234905
Probable space group: P B C M
;
_chemical_formula_sum "Si O2"
_cell_formula_units_Z 64
_cell_length_a 11.978401
_cell_length_b 30.905614
_cell_length_c 8.448750
_cell_angle_alpha 90.000000
_cell_angle_beta 90.000000
_cell_angle_gamma 90.000000
_cell_volume 3127.725878
_symmetry_space_group_name_H-M "P B C M"
_symmetry_group_IT_number 57
_symmetry_cell_setting 'orthorhombic'
loop_
_space_group_symop_operation_xyz
x,y,z
-x,-y,1/2+z
x,1/2-y,-z
-x,1/2+y,1/2-z
-x,-y,-z
x,y,1/2-z
-x,1/2+y,z
x,1/2-y,1/2+z
loop_
_atom_site_type_symbol
_atom_site_label
_atom_site_fract_x
_atom_site_fract_y
_atom_site_fract_z
Si Si1 0.244562 0.052675 0.566112
Si Si2 0.219947 0.794738 0.937791
Si Si3 0.777083 0.456369 0.562604
Si Si4 0.614644 0.628480 0.434506
Si Si5 0.000669 0.330006 0.063434
Si Si6 0.636774 0.376495 0.561955
Si Si7 0.237337 0.295930 0.434607
Si Si8 0.011166 0.077092 0.065574
O O1 0.272739 0.059366 0.750000
O O2 0.322816 0.083337 0.463054
O O3 0.115399 0.063818 0.540859
O O4 0.267497 0.003416 0.510098
O O5 0.205758 0.794724 0.750000
O O6 0.299398 0.833604 0.995720
O O7 0.274241 0.750000 0.000000
O O8 0.100137 0.798062 0.022683
O O9 0.776259 0.451944 0.750000
O O10 0.697993 0.418967 0.489791
O O11 0.905112 0.450837 0.506506
O O12 0.615193 0.639119 0.250000
O O13 0.489426 0.624658 0.502254
O O14 0.674001 0.667537 0.522914
O O15 0.006408 0.340108 0.250000
O O16 0.115219 0.308628 0.000055
O O17 0.980147 0.373186 0.963262
O O18 0.636567 0.379114 0.750000
O O19 0.277764 0.250000 0.500000
O O20 0.230309 0.291437 0.250000
O O21 0.038570 0.069676 0.250000
#
# Coordination Sequence:
#
# PCOD8234905 Si02
#       8
#     8   8   8   8   8   8   8   8
#     4  11  22  37  59  88 124 158 195 245 297 353
#     4  11  22  39  63  89 122 156 196 242 295 354
#     4   9  19  37  61  88 119 157 196 242 300 353
#     4  11  23  40  63  86 116 157 205 250 296 351
#     4  11  22  37  60  91 124 155 191 239 295 354
#     4   9  20  40  62  85 114 156 203 252 298 346
#     4  11  24  41  62  88 122 155 194 242 296 352
#     4  11  20  35  62  89 119 158 196 238 295 358
#
# _framework density 20.462150999999999
#
# number of rings (size 3 to 8) (size 9 to 14) (size 15 to 20)
#    0.000    1.500    2.500    3.000    0.000    3.500 
#    0.000    5.625    0.000    0.000    0.000    0.000 
#    0.000    0.000    0.000    0.000    0.000    0.000 
#
# Total GULP energy -793827.889370 kJ/mol
# GULP energy per Si atom -12403.560771 kJ/mol
# Density = 2.041558 g / cm^3
# Si number density = 20.462151 Si / 1000 Ang^3
#
#
#
# Elastic Constant Matrix: (Units=GPa)
#
#
# Indices 1 2 3 4 5 6 
#
# 1 134.6228 53.1767 4.7443 0.0000 0.0000 0.0000
# 2 53.1767 146.4411 3.7908 0.0000 0.0000 0.0000
# 3 4.7443 3.7908 30.8561 0.0000 0.0000 0.0000
# 4 0.0000 0.0000 0.0000 30.6850 0.0000 0.0000
# 5 0.0000 0.0000 0.0000 0.0000 8.5248 0.0000
# 6 0.0000 0.0000 0.0000 0.0000 0.0000 29.3638
#
#
#
# Elastic Compliance Matrix: (Units=1/GPa)
#
#
# Indices 1 2 3 4 5 6 
#
# 1 0.008700 -0.003134 -0.000953 0.000000 0.000000 0.000000
# 2 -0.003134 0.007980 -0.000498 0.000000 0.000000 0.000000
# 3 -0.000953 -0.000498 0.032616 0.000000 0.000000 0.000000
# 4 0.000000 0.000000 0.000000 0.032589 0.000000 0.000000
# 5 0.000000 0.000000 0.000000 0.000000 0.117304 0.000000
# 6 0.000000 0.000000 0.000000 0.000000 0.000000 0.034055
#
#
# Mechanical properties :
#
#
# Convention : Reuss Voigt Hill
#
# Bulk Modulus (GPa) = 24.92215 48.37150 36.64683
# Shear Modulus (GPa) = 19.54723 30.39529 24.97126
#
# Velocity S-wave (km/s) = 3.09412 3.85832 3.49716
# Velocity P-wave (km/s) = 4.99709 6.59846 5.85280
#
# Compressibility (1/GPa) = 0.04012494
#
# Stress axis : x y z
#
# Youngs Moduli (GPa) = 114.94424 125.31634 30.65962
#
# Poissons Ratio (x) = 0.39280 0.02920
# Poissons Ratio (y) = 0.36029 0.01528
# Poissons Ratio (z) = 0.10949 0.06246
#
# Static dielectric constant tensor:
#      x y z
#    x 3.838230 0.000000 0.000000 
#    y 0.000000 4.158270 0.000000 
#    z 0.000000 0.000000 3.413730 
# 
# 
# High freq. dielectric constant tensor:
#      x y z
#    x 1.797240 0.000000 0.000000 
#    y 0.000000 1.815320 0.000000 
#    z 0.000000 0.000000 1.781590 
# 
# From -- ./inp_files/3742.got.cif
#   From: 2010.03.12/outbox.cif.g09.slc.cpg/sg57_2_cif.got.tgz:3742.got - 2010.04.16 15:48:40.
