data_PCOD8234693
_publ_section_title
;
Structure prediction by ZEFSAII (Michael W. Deem and Ramdas Pophale) SiO2 
 PCOD8234693
Probable space group: P B C M
;
_chemical_formula_sum "Si O2"
_cell_formula_units_Z 48
_cell_length_a 14.946927
_cell_length_b 16.669708
_cell_length_c 9.497229
_cell_angle_alpha 90.000000
_cell_angle_beta 90.000000
_cell_angle_gamma 90.000000
_cell_volume 2366.338207
_symmetry_space_group_name_H-M "P B C M"
_symmetry_group_IT_number 57
_symmetry_cell_setting 'orthorhombic'
loop_
_space_group_symop_operation_xyz
x,y,z
-x,-y,1/2+z
x,1/2-y,-z
-x,1/2+y,1/2-z
-x,-y,-z
x,y,1/2-z
-x,1/2+y,z
x,1/2-y,1/2+z
loop_
_atom_site_type_symbol
_atom_site_label
_atom_site_fract_x
_atom_site_fract_y
_atom_site_fract_z
Si Si1 0.300393 0.108154 0.407979
Si Si2 0.126266 0.975607 0.750000
Si Si3 0.793035 0.454946 0.472551
Si Si4 0.500231 0.083357 0.082340
Si Si5 0.651323 0.174060 0.587983
Si Si6 0.058259 0.538978 0.750000
Si Si7 0.905952 0.846152 0.250000
Si Si8 0.178113 0.250000 0.000000
O O1 0.290057 0.075477 0.250000
O O2 0.404304 0.125783 0.439643
O O3 0.243387 0.187985 0.424122
O O4 0.264688 0.035077 0.502096
O O5 0.152044 0.071236 0.750000
O O6 0.017852 0.969405 0.750000
O O7 0.169342 0.927137 0.621841
O O8 0.733273 0.387354 0.400949
O O9 0.881210 0.474812 0.385006
O O10 0.522268 0.072393 0.250000
O O11 0.570394 0.139786 0.004327
O O12 0.500000 0.000000 0.000000
O O13 0.686002 0.250000 0.500000
O O14 0.622066 0.194016 0.750000
O O15 0.011017 0.627450 0.750000
O O16 0.885060 0.793975 0.387909
#
# Coordination Sequence:
#
# PCOD8234693 Si02
#       8
#     8   4   8   8   8   4   4   4
#     4  11  22  39  68  97 131 180 220 272 337 399
#     4  10  24  38  67 109 124 170 231 283 335 406
#     4  12  22  44  73  97 135 177 229 278 338 416
#     4  11  24  43  68 102 134 177 231 279 339 410
#     4  12  27  48  69  98 141 186 234 293 350 409
#     4  10  22  45  68 101 128 174 226 280 343 410
#     4  10  24  41  65  98 136 172 221 277 338 398
#     4  12  22  44  62  98 142 172 216 282 338 400
#
# _framework density 20.284506
#
# number of rings (size 3 to 8) (size 9 to 14) (size 15 to 20)
#    0.500    0.333    5.833    1.500    3.500    0.000 
#    6.000    0.833    0.000    0.000    0.000    0.000 
#    0.000    0.000    0.000    0.000    0.000    0.000 
#
# Total GULP energy -595004.410365 kJ/mol
# GULP energy per Si atom -12395.925216 kJ/mol
# Density = 2.023834 g / cm^3
# Si number density = 20.284506 Si / 1000 Ang^3
#
#
#
# Elastic Constant Matrix: (Units=GPa)
#
#
# Indices 1 2 3 4 5 6 
#
# 1 106.0370 17.4664 39.7577 0.0000 0.0000 0.0000
# 2 17.4664 66.2083 5.0301 0.0000 0.0000 0.0000
# 3 39.7577 5.0301 137.2855 0.0000 0.0000 0.0000
# 4 0.0000 0.0000 0.0000 35.7099 0.0000 0.0000
# 5 0.0000 0.0000 0.0000 0.0000 26.4063 0.0000
# 6 0.0000 0.0000 0.0000 0.0000 0.0000 28.8035
#
#
#
# Elastic Compliance Matrix: (Units=1/GPa)
#
#
# Indices 1 2 3 4 5 6 
#
# 1 0.011033 -0.002675 -0.003097 0.000000 0.000000 0.000000
# 2 -0.002675 0.015795 0.000196 0.000000 0.000000 0.000000
# 3 -0.003097 0.000196 0.008174 0.000000 0.000000 0.000000
# 4 0.000000 0.000000 0.000000 0.028003 0.000000 0.000000
# 5 0.000000 0.000000 0.000000 0.000000 0.037870 0.000000
# 6 0.000000 0.000000 0.000000 0.000000 0.000000 0.034718
#
#
# Mechanical properties :
#
#
# Convention : Reuss Voigt Hill
#
# Bulk Modulus (GPa) = 41.93105 48.22658 45.07882
# Shear Modulus (GPa) = 32.32185 34.66905 33.49545
#
# Velocity S-wave (km/s) = 3.99610 4.13866 4.06801
# Velocity P-wave (km/s) = 6.48137 6.83116 6.65856
#
# Compressibility (1/GPa) = 0.02384868
#
# Stress axis : x y z
#
# Youngs Moduli (GPa) = 90.64113 63.31240 122.34230
#
# Poissons Ratio (x) = 0.16937 0.37889
# Poissons Ratio (y) = 0.24248 -0.02398
# Poissons Ratio (z) = 0.28071 -0.01241
#
# Static dielectric constant tensor:
#      x y z
#    x 3.760340 0.000000 0.000000 
#    y 0.000000 3.795460 0.000000 
#    z 0.000000 0.000000 4.051990 
# 
# 
# High freq. dielectric constant tensor:
#      x y z
#    x 1.797740 0.000000 0.000000 
#    y 0.000000 1.775980 0.000000 
#    z 0.000000 0.000000 1.807220 
# 
# From -- ./inp_files/4794.got.cif
#   From: 2010.03.12/outbox.cif.g09.slc.cpg/sg57_3_cif.got.tgz:4794.got - 2010.04.16 15:48:40.
