data_PCOD8234632
_publ_section_title
;
Structure prediction by ZEFSAII (Michael W. Deem and Ramdas Pophale) SiO2 
 PCOD8234632
Probable space group: P B C M
;
_chemical_formula_sum "Si O2"
_cell_formula_units_Z 40
_cell_length_a 12.344188
_cell_length_b 18.162743
_cell_length_c 8.660426
_cell_angle_alpha 90.000000
_cell_angle_beta 90.000000
_cell_angle_gamma 90.000000
_cell_volume 1941.704872
_symmetry_space_group_name_H-M "P B C M"
_symmetry_group_IT_number 57
_symmetry_cell_setting 'orthorhombic'
loop_
_space_group_symop_operation_xyz
x,y,z
-x,-y,1/2+z
x,1/2-y,-z
-x,1/2+y,1/2-z
-x,-y,-z
x,y,1/2-z
-x,1/2+y,z
x,1/2-y,1/2+z
loop_
_atom_site_type_symbol
_atom_site_label
_atom_site_fract_x
_atom_site_fract_y
_atom_site_fract_z
Si Si1 0.225425 0.583646 0.571547
Si Si2 0.964267 0.328029 0.568405
Si Si3 0.362420 0.328255 0.069357
Si Si4 0.174710 0.081748 0.072960
Si Si5 0.457574 0.575877 0.431271
O O1 0.254452 0.596360 0.750000
O O2 0.145273 0.646867 0.514369
O O3 0.168249 0.505247 0.544629
O O4 0.333584 0.589489 0.472289
O O5 0.000229 0.250000 0.500000
O O6 0.944114 0.322160 0.750000
O O7 0.058895 0.385331 0.527610
O O8 0.379578 0.320652 0.250000
O O9 0.329106 0.250000 0.000000
O O10 0.266878 0.385647 0.036374
O O11 0.474002 0.355850 0.995281
O O12 0.204983 0.100387 0.250000
O O13 0.500000 0.500000 0.500000
O O14 0.473023 0.571443 0.250000
#
# Coordination Sequence:
#
# PCOD8234632 Si02
#       5
#     8   8   8   8   8
#     4  11  23  41  67  96 128 168 214 264 320 382
#     4  11  24  42  63  92 129 171 216 265 322 381
#     4  12  25  41  65  96 131 171 214 266 323 380
#     4  10  22  41  66  95 129 167 213 266 319 383
#     4  12  24  42  66  95 129 168 213 261 316 381
#
# _framework density 20.600455
#
# number of rings (size 3 to 8) (size 9 to 14) (size 15 to 20)
#    0.000    0.800    2.000    6.000    0.000    4.800 
#    0.000    4.000    0.000    0.000    0.000    0.000 
#    0.000    0.000    0.000    0.000    0.000    0.000 
#
# Total GULP energy -496360.178126 kJ/mol
# GULP energy per Si atom -12409.004453 kJ/mol
# Density = 2.055357 g / cm^3
# Si number density = 20.600455 Si / 1000 Ang^3
#
#
#
# Elastic Constant Matrix: (Units=GPa)
#
#
# Indices 1 2 3 4 5 6 
#
# 1 100.5818 12.6514 31.7277 0.0000 0.0000 0.0000
# 2 12.6514 63.4591 28.8068 0.0000 0.0000 0.0000
# 3 31.7277 28.8068 138.6371 0.0000 0.0000 0.0000
# 4 0.0000 0.0000 0.0000 34.4930 0.0000 0.0000
# 5 0.0000 0.0000 0.0000 0.0000 33.1866 0.0000
# 6 0.0000 0.0000 0.0000 0.0000 0.0000 13.2324
#
#
#
# Elastic Compliance Matrix: (Units=1/GPa)
#
#
# Indices 1 2 3 4 5 6 
#
# 1 0.010790 -0.001137 -0.002233 0.000000 0.000000 0.000000
# 2 -0.001137 0.017519 -0.003380 0.000000 0.000000 0.000000
# 3 -0.002233 -0.003380 0.008426 0.000000 0.000000 0.000000
# 4 0.000000 0.000000 0.000000 0.028991 0.000000 0.000000
# 5 0.000000 0.000000 0.000000 0.000000 0.030133 0.000000
# 6 0.000000 0.000000 0.000000 0.000000 0.000000 0.075572
#
#
# Mechanical properties :
#
#
# Convention : Reuss Voigt Hill
#
# Bulk Modulus (GPa) = 43.03915 49.89442 46.46679
# Shear Modulus (GPa) = 25.95017 31.48186 28.71601
#
# Velocity S-wave (km/s) = 3.55306 3.91348 3.73762
# Velocity P-wave (km/s) = 6.14573 6.68528 6.42118
#
# Compressibility (1/GPa) = 0.02323466
#
# Stress axis : x y z
#
# Youngs Moduli (GPa) = 92.68210 57.08013 118.67480
#
# Poissons Ratio (x) = 0.06492 0.26499
# Poissons Ratio (y) = 0.10542 0.40111
# Poissons Ratio (z) = 0.20695 0.19293
#
# Static dielectric constant tensor:
#      x y z
#    x 3.778030 0.000000 0.000000 
#    y 0.000000 3.600740 0.000000 
#    z 0.000000 0.000000 4.109690 
# 
# 
# High freq. dielectric constant tensor:
#      x y z
#    x 1.815060 0.000000 0.000000 
#    y 0.000000 1.811640 0.000000 
#    z 0.000000 0.000000 1.817880 
# 
# From -- ./inp_files/2667.got.cif
#   From: 2010.03.12/outbox.cif.g09.slc.cpg/sg57_2_cif.got.tgz:2667.got - 2010.04.16 15:48:40.
