data_PCOD8234863
_publ_section_title
;
Structure prediction by ZEFSAII (Michael W. Deem and Ramdas Pophale) SiO2 
 PCOD8234863
Probable space group: P B C M
;
_chemical_formula_sum "Si O2"
_cell_formula_units_Z 40
_cell_length_a 6.403418
_cell_length_b 14.694312
_cell_length_c 19.345669
_cell_angle_alpha 90.000000
_cell_angle_beta 90.000000
_cell_angle_gamma 90.000000
_cell_volume 1820.307935
_symmetry_space_group_name_H-M "P B C M"
_symmetry_group_IT_number 57
_symmetry_cell_setting 'orthorhombic'
loop_
_space_group_symop_operation_xyz
x,y,z
-x,-y,1/2+z
x,1/2-y,-z
-x,1/2+y,1/2-z
-x,-y,-z
x,y,1/2-z
-x,1/2+y,z
x,1/2-y,1/2+z
loop_
_atom_site_type_symbol
_atom_site_label
_atom_site_fract_x
_atom_site_fract_y
_atom_site_fract_z
Si Si1 0.743282 0.968691 0.250000
Si Si2 0.069952 0.297582 0.567085
Si Si3 0.059481 0.473597 0.863839
Si Si4 0.643787 0.902122 0.750000
Si Si5 0.524204 0.750000 0.500000
Si Si6 0.510226 0.301972 0.250000
Si Si7 0.762587 0.336443 0.387865
O O1 0.703642 0.860320 0.250000
O O2 0.524716 0.019055 0.250000
O O3 0.864210 0.994758 0.180843
O O4 0.964658 0.250000 0.500000
O O5 0.989092 0.401127 0.577383
O O6 0.322596 0.298869 0.556963
O O7 0.963055 0.231151 0.624030
O O8 0.218116 0.413573 0.818239
O O9 0.162784 0.560351 0.899524
O O10 0.538623 0.804128 0.750000
O O11 0.384414 0.682805 0.545850
O O12 0.638419 0.330525 0.316975
#
# Coordination Sequence:
#
# PCOD8234863 Si02
#       7
#     4   8   8   4   4   4   8
#     4  11  24  45  66 116 142 184 237 292 384 421
#     4  10  25  46  67 101 140 194 239 286 362 419
#     4  11  25  42  72 103 145 184 240 297 354 438
#     4  11  23  45  65 107 139 183 235 289 371 418
#     4  10  24  48  70 102 146 192 240 282 366 428
#     4  12  25  44  81 101 145 187 236 315 357 435
#     4  12  24  48  69 108 145 185 248 297 362 432
#
# _framework density 21.974302999999999
#
# number of rings (size 3 to 8) (size 9 to 14) (size 15 to 20)
#    0.600    0.400    3.000    3.000    5.600    2.400 
#    0.000    0.000    0.000    0.000    0.000    0.000 
#    0.000    0.000    0.000    0.000    0.000    0.000 
#
# Total GULP energy -495621.995296 kJ/mol
# GULP energy per Si atom -12390.549882 kJ/mol
# Density = 2.192429 g / cm^3
# Si number density = 21.974303 Si / 1000 Ang^3
#
#
#
# Elastic Constant Matrix: (Units=GPa)
#
#
# Indices 1 2 3 4 5 6 
#
# 1 91.3222 37.1093 45.6334 0.0000 0.0000 0.0000
# 2 37.1093 166.4491 52.3086 0.0000 0.0000 0.0000
# 3 45.6334 52.3086 97.3930 0.0000 0.0000 0.0000
# 4 0.0000 0.0000 0.0000 65.3651 0.0000 0.0000
# 5 0.0000 0.0000 0.0000 0.0000 249.7179 0.0000
# 6 0.0000 0.0000 0.0000 0.0000 0.0000 38.8174
#
#
#
# Elastic Compliance Matrix: (Units=1/GPa)
#
#
# Indices 1 2 3 4 5 6 
#
# 1 0.014536 -0.001324 -0.006100 0.000000 0.000000 0.000000
# 2 -0.001324 0.007348 -0.003326 0.000000 0.000000 0.000000
# 3 -0.006100 -0.003326 0.014912 0.000000 0.000000 0.000000
# 4 0.000000 0.000000 0.000000 0.015299 0.000000 0.000000
# 5 0.000000 0.000000 0.000000 0.000000 0.004005 0.000000
# 6 0.000000 0.000000 0.000000 0.000000 0.000000 0.025762
#
#
# Mechanical properties :
#
#
# Convention : Reuss Voigt Hill
#
# Bulk Modulus (GPa) = 65.37396 69.47411 67.42403
# Shear Modulus (GPa) = 46.09942 85.45428 65.77685
#
# Velocity S-wave (km/s) = 4.58523 6.24281 5.47709
# Velocity P-wave (km/s) = 7.60574 9.14594 8.41117
#
# Compressibility (1/GPa) = 0.01529661
#
# Stress axis : x y z
#
# Youngs Moduli (GPa) = 68.79324 136.08483 67.05836
#
# Poissons Ratio (x) = 0.18016 0.40905
# Poissons Ratio (y) = 0.09107 0.22306
# Poissons Ratio (z) = 0.41964 0.45268
#
# Static dielectric constant tensor:
#      x y z
#    x 4.052910 0.000000 0.000000 
#    y 0.000000 4.053650 0.000000 
#    z 0.000000 0.000000 2.799820 
# 
# 
# High freq. dielectric constant tensor:
#      x y z
#    x 1.872500 0.000000 0.000000 
#    y 0.000000 1.869300 0.000000 
#    z 0.000000 0.000000 1.864040 
# 
# From -- ./inp_files/26175.got.cif
#   From: 2010.03.12/outbox.cif.g09.slc.cpg/sg57_14_cif.got.tgz:26175.got - 2010.04.16 15:48:40.
