data_PCOD8234559
_publ_section_title
;
Structure prediction by ZEFSAII (Michael W. Deem and Ramdas Pophale) SiO2 
 PCOD8234559
Probable space group: P B C M
;
_chemical_formula_sum "Si O2"
_cell_formula_units_Z 48
_cell_length_a 9.860097
_cell_length_b 28.438045
_cell_length_c 8.972384
_cell_angle_alpha 90.000000
_cell_angle_beta 90.000000
_cell_angle_gamma 90.000000
_cell_volume 2515.873361
_symmetry_space_group_name_H-M "P B C M"
_symmetry_group_IT_number 57
_symmetry_cell_setting 'orthorhombic'
loop_
_space_group_symop_operation_xyz
x,y,z
-x,-y,1/2+z
x,1/2-y,-z
-x,1/2+y,1/2-z
-x,-y,-z
x,y,1/2-z
-x,1/2+y,z
x,1/2-y,1/2+z
loop_
_atom_site_type_symbol
_atom_site_label
_atom_site_fract_x
_atom_site_fract_y
_atom_site_fract_z
Si Si1 0.783132 0.797828 0.576031
Si Si2 0.473880 0.700926 0.073908
Si Si3 0.118073 0.026754 0.918674
Si Si4 0.288438 0.876865 0.425181
Si Si5 0.976965 0.632396 0.583025
Si Si6 0.363861 0.982896 0.426216
O O1 0.830423 0.750000 0.500000
O O2 0.792936 0.790127 0.750000
O O3 0.629228 0.810988 0.529203
O O4 0.887722 0.837673 0.529390
O O5 0.455394 0.705639 0.250000
O O6 0.428261 0.750000 0.000000
O O7 0.380856 0.659228 0.014604
O O8 0.133832 0.007829 0.750000
O O9 0.085513 0.081163 0.917760
O O10 0.253032 0.018541 0.011568
O O11 0.000000 0.000000 0.000000
O O12 0.310475 0.869222 0.250000
O O13 0.330119 0.929476 0.472288
O O14 0.132535 0.868544 0.471192
O O15 0.968442 0.653513 0.750000
O O16 0.372289 0.988261 0.250000
O O17 0.500000 0.000000 0.500000
#
# Coordination Sequence:
#
# PCOD8234559 Si02
#       6
#     8   8   8   8   8   8
#     4  10  22  40  62  90 119 152 195 244 296 354
#     4  10  22  40  62  89 118 153 196 243 297 355
#     4  11  22  40  63  89 122 164 204 248 301 355
#     4  10  22  41  61  85 120 159 198 243 296 354
#     4  10  22  40  61  87 119 158 199 241 296 355
#     4  11  24  42  61  89 124 162 206 253 302 359
#
# _framework density 19.078862000000001
#
# number of rings (size 3 to 8) (size 9 to 14) (size 15 to 20)
#    0.000    1.667    1.667    2.000    2.333    6.000 
#    0.000    0.000    0.000    0.000    0.000    0.000 
#    0.000    0.000    0.000    0.000    0.000    0.000 
#
# Total GULP energy -595349.227792 kJ/mol
# GULP energy per Si atom -12403.108912 kJ/mol
# Density = 1.903544 g / cm^3
# Si number density = 19.078862 Si / 1000 Ang^3
#
#
#
# Elastic Constant Matrix: (Units=GPa)
#
#
# Indices 1 2 3 4 5 6 
#
# 1 140.3768 57.2262 54.8903 0.0000 0.0000 0.0000
# 2 57.2262 89.9101 51.2378 0.0000 0.0000 0.0000
# 3 54.8903 51.2378 92.2164 0.0000 0.0000 0.0000
# 4 0.0000 0.0000 0.0000 38.9452 0.0000 0.0000
# 5 0.0000 0.0000 0.0000 0.0000 39.0690 0.0000
# 6 0.0000 0.0000 0.0000 0.0000 0.0000 38.8262
#
#
#
# Elastic Compliance Matrix: (Units=1/GPa)
#
#
# Indices 1 2 3 4 5 6 
#
# 1 0.010408 -0.004528 -0.003680 0.000000 0.000000 0.000000
# 2 -0.004528 0.018245 -0.007443 0.000000 0.000000 0.000000
# 3 -0.003680 -0.007443 0.017170 0.000000 0.000000 0.000000
# 4 0.000000 0.000000 0.000000 0.025677 0.000000 0.000000
# 5 0.000000 0.000000 0.000000 0.000000 0.025596 0.000000
# 6 0.000000 0.000000 0.000000 0.000000 0.000000 0.025756
#
#
# Mechanical properties :
#
#
# Convention : Reuss Voigt Hill
#
# Bulk Modulus (GPa) = 68.85435 72.13464 70.49449
# Shear Modulus (GPa) = 31.44795 33.97799 32.71297
#
# Velocity S-wave (km/s) = 4.06435 4.22468 4.14529
# Velocity P-wave (km/s) = 7.62843 7.85417 7.74212
#
# Compressibility (1/GPa) = 0.01452341
#
# Stress axis : x y z
#
# Youngs Moduli (GPa) = 96.07727 54.80839 58.24265
#
# Poissons Ratio (x) = 0.24816 0.21431
# Poissons Ratio (y) = 0.43501 0.43347
# Poissons Ratio (z) = 0.35353 0.40791
#
# Static dielectric constant tensor:
#      x y z
#    x 3.669660 0.000000 0.000000 
#    y 0.000000 3.500930 0.000000 
#    z 0.000000 0.000000 3.644800 
# 
# 
# High freq. dielectric constant tensor:
#      x y z
#    x 1.753770 0.000000 0.000000 
#    y 0.000000 1.745590 0.000000 
#    z 0.000000 0.000000 1.751870 
# 
# From -- ./inp_files/2125.got.cif
#   From: 2010.03.12/outbox.cif.g09.slc.cpg/sg57_2_cif.got.tgz:2125.got - 2010.04.16 15:48:40.
