data_PCOD8234854
_publ_section_title
;
Structure prediction by ZEFSAII (Michael W. Deem and Ramdas Pophale) SiO2 
 PCOD8234854
Probable space group: P B C M
;
_chemical_formula_sum "Si O2"
_cell_formula_units_Z 40
_cell_length_a 4.939838
_cell_length_b 20.172881
_cell_length_c 16.269482
_cell_angle_alpha 90.000000
_cell_angle_beta 90.000000
_cell_angle_gamma 90.000000
_cell_volume 1621.266313
_symmetry_space_group_name_H-M "P B C M"
_symmetry_group_IT_number 57
_symmetry_cell_setting 'orthorhombic'
loop_
_space_group_symop_operation_xyz
x,y,z
-x,-y,1/2+z
x,1/2-y,-z
-x,1/2+y,1/2-z
-x,-y,-z
x,y,1/2-z
-x,1/2+y,z
x,1/2-y,1/2+z
loop_
_atom_site_type_symbol
_atom_site_label
_atom_site_fract_x
_atom_site_fract_y
_atom_site_fract_z
Si Si1 0.692537 0.842701 0.346948
Si Si2 0.046664 0.562819 0.941370
Si Si3 0.809907 0.236323 0.595614
Si Si4 0.263384 0.457571 0.842517
Si Si5 0.757273 0.381728 0.598117
O O1 0.714387 0.855423 0.250000
O O2 0.778590 0.909621 0.395901
O O3 0.890674 0.783684 0.375963
O O4 0.389857 0.820878 0.370942
O O5 0.253890 0.534669 0.872276
O O6 0.166095 0.620786 0.999974
O O7 0.000000 0.500000 0.000000
O O8 0.781289 0.250000 0.500000
O O9 0.746831 0.308073 0.636338
O O10 0.369003 0.456635 0.750000
O O11 0.462465 0.414423 0.898369
O O12 0.965082 0.426028 0.849697
#
# Coordination Sequence:
#
# PCOD8234854 Si02
#       5
#     8   8   8   8   8
#     4  12  27  46  72 108 142 179 231 299 352 405
#     4  10  24  45  71 100 136 184 234 279 343 419
#     4  12  26  45  74 100 140 187 235 281 351 427
#     4  11  24  42  68 100 140 179 225 289 348 404
#     4  11  24  43  70  99 134 182 236 278 339 421
#
# _framework density 24.672073999999999
#
# number of rings (size 3 to 8) (size 9 to 14) (size 15 to 20)
#    0.000    0.800    2.000    4.200    5.600    8.000 
#    0.000    6.000    0.000    0.000    0.000    0.000 
#    0.000    0.000    0.000    0.000    0.000    0.000 
#
# Total GULP energy -496022.180994 kJ/mol
# GULP energy per Si atom -12400.554525 kJ/mol
# Density = 2.461592 g / cm^3
# Si number density = 24.672074 Si / 1000 Ang^3
#
#
#
# Elastic Constant Matrix: (Units=GPa)
#
#
# Indices 1 2 3 4 5 6 
#
# 1 59.2109 -8.7754 7.5234 0.0000 0.0000 0.0000
# 2 -8.7754 80.4898 13.0286 0.0000 0.0000 0.0000
# 3 7.5234 13.0286 149.4726 0.0000 0.0000 0.0000
# 4 0.0000 0.0000 0.0000 27.0164 0.0000 0.0000
# 5 0.0000 0.0000 0.0000 0.0000 35.5292 0.0000
# 6 0.0000 0.0000 0.0000 0.0000 0.0000 33.2935
#
#
#
# Elastic Compliance Matrix: (Units=1/GPa)
#
#
# Indices 1 2 3 4 5 6 
#
# 1 0.017328 0.002059 -0.001052 0.000000 0.000000 0.000000
# 2 0.002059 0.012846 -0.001223 0.000000 0.000000 0.000000
# 3 -0.001052 -0.001223 0.006850 0.000000 0.000000 0.000000
# 4 0.000000 0.000000 0.000000 0.037015 0.000000 0.000000
# 5 0.000000 0.000000 0.000000 0.000000 0.028146 0.000000
# 6 0.000000 0.000000 0.000000 0.000000 0.000000 0.030036
#
#
# Mechanical properties :
#
#
# Convention : Reuss Voigt Hill
#
# Bulk Modulus (GPa) = 27.32803 34.74740 31.03772
# Shear Modulus (GPa) = 34.51869 37.66092 36.08980
#
# Velocity S-wave (km/s) = 3.74451 3.91123 3.82878
# Velocity P-wave (km/s) = 5.45854 5.87463 5.67040
#
# Compressibility (1/GPa) = 0.03659247
#
# Stress axis : x y z
#
# Youngs Moduli (GPa) = 57.71133 77.84233 145.99051
#
# Poissons Ratio (x) = -0.16031 0.15353
# Poissons Ratio (y) = -0.11885 0.17861
# Poissons Ratio (z) = 0.06069 0.09523
#
# Static dielectric constant tensor:
#      x y z
#    x 4.207470 0.000000 0.000000 
#    y 0.000000 5.120600 0.000000 
#    z 0.000000 0.000000 4.685530 
# 
# 
# High freq. dielectric constant tensor:
#      x y z
#    x 1.975180 0.000000 0.000000 
#    y 0.000000 2.004350 0.000000 
#    z 0.000000 0.000000 1.984600 
# 
# From -- ./inp_files/20110.got.cif
#   From: 2010.03.12/outbox.cif.g09.slc.cpg/sg57_11_cif.got.tgz:20110.got - 2010.04.16 15:48:40.
