data_PCOD8234042
_publ_section_title
;
Structure prediction by ZEFSAII (Michael W. Deem and Ramdas Pophale) SiO2 
 PCOD8234042
Probable space group: P B C M
;
_chemical_formula_sum "Si O2"
_cell_formula_units_Z 48
_cell_length_a 12.532762
_cell_length_b 23.353979
_cell_length_c 8.662777
_cell_angle_alpha 90.000000
_cell_angle_beta 90.000000
_cell_angle_gamma 90.000000
_cell_volume 2535.506992
_symmetry_space_group_name_H-M "P B C M"
_symmetry_group_IT_number 57
_symmetry_cell_setting 'orthorhombic'
loop_
_space_group_symop_operation_xyz
x,y,z
-x,-y,1/2+z
x,1/2-y,-z
-x,1/2+y,1/2-z
-x,-y,-z
x,y,1/2-z
-x,1/2+y,z
x,1/2-y,1/2+z
loop_
_atom_site_type_symbol
_atom_site_label
_atom_site_fract_x
_atom_site_fract_y
_atom_site_fract_z
Si Si1 0.294699 0.373985 0.932736
Si Si2 0.125998 0.810241 0.568974
Si Si3 0.695594 0.384353 0.071596
Si Si4 0.509381 0.810082 0.069243
Si Si5 0.384384 0.493806 0.569738
Si Si6 0.898974 0.688746 0.567393
O O1 0.280870 0.371779 0.750000
O O2 0.326245 0.437115 0.993618
O O3 0.383224 0.328482 0.983563
O O4 0.182962 0.359357 0.012055
O O5 0.166352 0.750000 0.500000
O O6 0.108412 0.802965 0.750000
O O7 0.213654 0.858265 0.536219
O O8 0.015409 0.829295 0.491928
O O9 0.726225 0.374281 0.250000
O O10 0.581908 0.356139 0.033937
O O11 0.688166 0.451328 0.029474
O O12 0.532723 0.804285 0.250000
O O13 0.470388 0.750000 0.000000
O O14 0.500000 0.500000 0.500000
O O15 0.402109 0.488405 0.750000
O O16 0.864103 0.750000 0.500000
O O17 0.900123 0.692826 0.750000
#
# Coordination Sequence:
#
# PCOD8234042 Si02
#       6
#     8   8   8   8   8   8
#     4  11  22  37  58  85 116 150 192 237 286 341
#     4  11  22  38  61  88 117 151 191 236 289 346
#     4  10  21  38  58  84 116 151 193 237 285 339
#     4  11  22  35  54  81 116 150 188 235 287 343
#     4  10  21  38  60  84 115 154 194 238 285 340
#     4  11  22  39  62  86 116 152 191 237 289 345
#
# _framework density 18.931125000000002
#
# number of rings (size 3 to 8) (size 9 to 14) (size 15 to 20)
#    0.000    1.333    1.667    6.000    0.000    4.000 
#    0.000    0.833    0.000    0.000    0.000    0.000 
#    0.000    0.000    0.000    0.000    0.000    0.000 
#
# Total GULP energy -595479.926052 kJ/mol
# GULP energy per Si atom -12405.831793 kJ/mol
# Density = 1.888804 g / cm^3
# Si number density = 18.931125 Si / 1000 Ang^3
#
#
#
# Elastic Constant Matrix: (Units=GPa)
#
#
# Indices 1 2 3 4 5 6 
#
# 1 102.5124 44.2401 44.5014 0.0000 0.0000 0.0000
# 2 44.2401 99.6762 37.9626 0.0000 0.0000 0.0000
# 3 44.5014 37.9626 112.2472 0.0000 0.0000 0.0000
# 4 0.0000 0.0000 0.0000 25.7062 0.0000 0.0000
# 5 0.0000 0.0000 0.0000 0.0000 34.5042 0.0000
# 6 0.0000 0.0000 0.0000 0.0000 0.0000 27.5559
#
#
#
# Elastic Compliance Matrix: (Units=1/GPa)
#
#
# Indices 1 2 3 4 5 6 
#
# 1 0.013323 -0.004478 -0.003767 0.000000 0.000000 0.000000
# 2 -0.004478 0.013021 -0.002628 0.000000 0.000000 0.000000
# 3 -0.003767 -0.002628 0.011291 0.000000 0.000000 0.000000
# 4 0.000000 0.000000 0.000000 0.038901 0.000000 0.000000
# 5 0.000000 0.000000 0.000000 0.000000 0.028982 0.000000
# 6 0.000000 0.000000 0.000000 0.000000 0.000000 0.036290
#
#
# Mechanical properties :
#
#
# Convention : Reuss Voigt Hill
#
# Bulk Modulus (GPa) = 62.94304 63.09375 63.01840
# Shear Modulus (GPa) = 29.61155 30.06868 29.84011
#
# Velocity S-wave (km/s) = 3.95925 3.98970 3.97450
# Velocity P-wave (km/s) = 7.36353 7.39080 7.37718
#
# Compressibility (1/GPa) = 0.01588738
#
# Stress axis : x y z
#
# Youngs Moduli (GPa) = 75.05763 76.79775 88.56254
#
# Poissons Ratio (x) = 0.34393 0.33365
# Poissons Ratio (y) = 0.33614 0.23277
# Poissons Ratio (z) = 0.28277 0.20185
#
# Static dielectric constant tensor:
#      x y z
#    x 3.396370 0.000000 0.000000 
#    y 0.000000 3.634400 0.000000 
#    z 0.000000 0.000000 3.524580 
# 
# 
# High freq. dielectric constant tensor:
#      x y z
#    x 1.735540 0.000000 0.000000 
#    y 0.000000 1.737110 0.000000 
#    z 0.000000 0.000000 1.745540 
# 
# From -- ./inp_files/3136.got.cif
#   From: 2010.03.12/outbox.cif.g09.slc.cpg/sg57_2_cif.got.tgz:3136.got - 2010.04.16 15:48:40.
