data_PCOD8234159
_publ_section_title
;
Structure prediction by ZEFSAII (Michael W. Deem and Ramdas Pophale) SiO2 
 PCOD8234159
Probable space group: P B C M
;
_chemical_formula_sum "Si O2"
_cell_formula_units_Z 40
_cell_length_a 10.031385
_cell_length_b 9.454079
_cell_length_c 18.376932
_cell_angle_alpha 90.000000
_cell_angle_beta 90.000000
_cell_angle_gamma 90.000000
_cell_volume 1742.822404
_symmetry_space_group_name_H-M "P B C M"
_symmetry_group_IT_number 57
_symmetry_cell_setting 'orthorhombic'
loop_
_space_group_symop_operation_xyz
x,y,z
-x,-y,1/2+z
x,1/2-y,-z
-x,1/2+y,1/2-z
-x,-y,-z
x,y,1/2-z
-x,1/2+y,z
x,1/2-y,1/2+z
loop_
_atom_site_type_symbol
_atom_site_label
_atom_site_fract_x
_atom_site_fract_y
_atom_site_fract_z
Si Si1 0.454927 0.771604 0.250000
Si Si2 0.283773 0.715148 0.117037
Si Si3 0.984296 0.157829 0.664081
Si Si4 0.666446 0.562630 0.250000
Si Si5 0.656244 0.468049 0.008857
Si Si6 0.841858 0.598710 0.385568
O O1 0.392107 0.699093 0.179484
O O2 0.608093 0.721043 0.250000
O O3 0.447325 0.941259 0.250000
O O4 0.141257 0.738619 0.153965
O O5 0.327903 0.840318 0.064376
O O6 0.283595 0.570682 0.070068
O O7 0.009154 0.127880 0.750000
O O8 0.109866 0.241782 0.629152
O O9 0.965230 0.014250 0.616179
O O10 0.755394 0.535710 0.319784
O O11 0.748678 0.595276 0.041927
O O12 0.500000 0.500000 0.000000
#
# Coordination Sequence:
#
# PCOD8234159 Si02
#       6
#     4   8   8   4   8   8
#     4  12  22  41  67  97 127 178 229 276 336 402
#     4  10  21  38  63  91 127 176 211 274 340 382
#     4  11  19  40  66  92 135 169 221 277 334 396
#     4  12  22  41  61  97 135 170 229 282 336 400
#     4  10  21  40  63  90 131 174 219 271 335 400
#     4  11  22  41  66  96 136 180 221 282 343 397
#
# _framework density 22.951277000000001
#
# number of rings (size 3 to 8) (size 9 to 14) (size 15 to 20)
#    0.000    1.200    7.000    1.200    0.000    0.800 
#    3.600    4.000    0.000    0.000    0.000    0.000 
#    0.000    0.000    0.000    0.000    0.000    0.000 
#
# Total GULP energy -495811.601531 kJ/mol
# GULP energy per Si atom -12395.290038 kJ/mol
# Density = 2.289904 g / cm^3
# Si number density = 22.951277 Si / 1000 Ang^3
#
#
#
# Elastic Constant Matrix: (Units=GPa)
#
#
# Indices 1 2 3 4 5 6 
#
# 1 67.1258 29.0474 10.8446 0.0000 0.0000 0.0000
# 2 29.0474 65.2211 8.6056 0.0000 0.0000 0.0000
# 3 10.8446 8.6056 63.3519 0.0000 0.0000 0.0000
# 4 0.0000 0.0000 0.0000 18.9514 0.0000 0.0000
# 5 0.0000 0.0000 0.0000 0.0000 8.4914 0.0000
# 6 0.0000 0.0000 0.0000 0.0000 0.0000 49.5833
#
#
#
# Elastic Compliance Matrix: (Units=1/GPa)
#
#
# Indices 1 2 3 4 5 6 
#
# 1 0.018727 -0.008062 -0.002111 0.000000 0.000000 0.000000
# 2 -0.008062 0.019083 -0.001212 0.000000 0.000000 0.000000
# 3 -0.002111 -0.001212 0.016311 0.000000 0.000000 0.000000
# 4 0.000000 0.000000 0.000000 0.052767 0.000000 0.000000
# 5 0.000000 0.000000 0.000000 0.000000 0.117766 0.000000
# 6 0.000000 0.000000 0.000000 0.000000 0.000000 0.020168
#
#
# Mechanical properties :
#
#
# Convention : Reuss Voigt Hill
#
# Bulk Modulus (GPa) = 31.89648 32.52156 32.20902
# Shear Modulus (GPa) = 17.98293 25.21863 21.60078
#
# Velocity S-wave (km/s) = 2.80219 3.31840 3.07116
# Velocity P-wave (km/s) = 4.93937 5.37428 5.16141
#
# Compressibility (1/GPa) = 0.03135142
#
# Stress axis : x y z
#
# Youngs Moduli (GPa) = 53.39868 52.40278 61.30905
#
# Poissons Ratio (x) = 0.42247 0.12940
# Poissons Ratio (y) = 0.43050 0.07431
# Poissons Ratio (z) = 0.11270 0.06352
#
# Static dielectric constant tensor:
#      x y z
#    x 4.067590 0.000000 0.000000 
#    y 0.000000 3.917690 0.000000 
#    z 0.000000 0.000000 5.129490 
# 
# 
# High freq. dielectric constant tensor:
#      x y z
#    x 1.896910 0.000000 0.000000 
#    y 0.000000 1.891340 0.000000 
#    z 0.000000 0.000000 1.912960 
# 
# From -- ./inp_files/20562.got.cif
#   From: 2010.03.12/outbox.cif.g09.slc.cpg/sg57_11_cif.got.tgz:20562.got - 2010.04.16 15:48:40.
