data_PCOD8234610
_publ_section_title
;
Structure prediction by ZEFSAII (Michael W. Deem and Ramdas Pophale) SiO2 
 PCOD8234610
Probable space group: P B C M
;
_chemical_formula_sum "Si O2"
_cell_formula_units_Z 64
_cell_length_a 5.116053
_cell_length_b 28.024032
_cell_length_c 20.339467
_cell_angle_alpha 90.000000
_cell_angle_beta 90.000000
_cell_angle_gamma 90.000000
_cell_volume 2916.118869
_symmetry_space_group_name_H-M "P B C M"
_symmetry_group_IT_number 57
_symmetry_cell_setting 'orthorhombic'
loop_
_space_group_symop_operation_xyz
x,y,z
-x,-y,1/2+z
x,1/2-y,-z
-x,1/2+y,1/2-z
-x,-y,-z
x,y,1/2-z
-x,1/2+y,z
x,1/2-y,1/2+z
loop_
_atom_site_type_symbol
_atom_site_label
_atom_site_fract_x
_atom_site_fract_y
_atom_site_fract_z
Si Si1 0.143454 0.733497 0.570742
Si Si2 0.208716 0.183787 0.677536
Si Si3 0.825378 0.900821 0.407138
Si Si4 0.723857 0.396811 0.894008
Si Si5 0.542184 0.271217 0.678323
Si Si6 0.337999 0.638525 0.967592
Si Si7 0.247093 0.501322 0.046669
Si Si8 0.227214 0.138141 0.175396
O O1 0.022751 0.750000 0.500000
O O2 0.264595 0.776453 0.615458
O O3 0.362056 0.694033 0.552134
O O4 0.938140 0.706702 0.616107
O O5 0.069628 0.185661 0.750000
O O6 0.260735 0.128119 0.659201
O O7 0.470800 0.215171 0.682839
O O8 0.628328 0.883202 0.464368
O O9 0.772192 0.957295 0.401751
O O10 0.128570 0.890381 0.422912
O O11 0.767337 0.452323 0.908023
O O12 0.432517 0.392326 0.866259
O O13 0.931986 0.374617 0.843629
O O14 0.762137 0.365511 0.958703
O O15 0.670738 0.285164 0.750000
O O16 0.290339 0.305114 0.665751
O O17 0.500000 0.500000 0.000000
O O18 0.000000 0.500000 0.000000
O O19 0.264214 0.122732 0.250000
#
# Coordination Sequence:
#
# PCOD8234610 Si02
#       8
#     8   8   8   8   8   8   8   8
#     4  11  23  37  58  96 130 169 221 283 333 390
#     4  10  23  42  63  89 131 183 224 270 334 413
#     4  11  21  42  62  96 129 161 220 266 325 401
#     4  12  23  42  67  95 131 172 213 278 341 396
#     4  10  22  41  63  86 125 180 226 266 327 404
#     4  11  22  37  62  93 133 164 201 274 336 390
#     4  12  22  40  68  99 131 168 214 270 345 414
#     4  11  26  43  64  92 128 175 226 269 321 400
#
# _framework density 21.946978000000001
#
# number of rings (size 3 to 8) (size 9 to 14) (size 15 to 20)
#    0.000    1.000    3.750    3.000    3.500    0.500 
#    0.000    1.250    0.000    0.000    0.000    0.000 
#    0.000    0.000    0.000    0.000    0.000    0.000 
#
# Total GULP energy -793012.970064 kJ/mol
# GULP energy per Si atom -12390.827657 kJ/mol
# Density = 2.189703 g / cm^3
# Si number density = 21.946978 Si / 1000 Ang^3
#
#
#
# Elastic Constant Matrix: (Units=GPa)
#
#
# Indices 1 2 3 4 5 6 
#
# 1 66.1094 8.6558 14.1349 0.0000 0.0000 0.0000
# 2 8.6558 111.7140 53.4380 0.0000 0.0000 0.0000
# 3 14.1349 53.4380 141.9703 0.0000 0.0000 0.0000
# 4 0.0000 0.0000 0.0000 25.2247 0.0000 0.0000
# 5 0.0000 0.0000 0.0000 0.0000 33.2174 0.0000
# 6 0.0000 0.0000 0.0000 0.0000 0.0000 29.9151
#
#
#
# Elastic Compliance Matrix: (Units=1/GPa)
#
#
# Indices 1 2 3 4 5 6 
#
# 1 0.015485 -0.000564 -0.001329 0.000000 0.000000 0.000000
# 2 -0.000564 0.010938 -0.004061 0.000000 0.000000 0.000000
# 3 -0.001329 -0.004061 0.008705 0.000000 0.000000 0.000000
# 4 0.000000 0.000000 0.000000 0.039644 0.000000 0.000000
# 5 0.000000 0.000000 0.000000 0.000000 0.030105 0.000000
# 6 0.000000 0.000000 0.000000 0.000000 0.000000 0.033428
#
#
# Mechanical properties :
#
#
# Convention : Reuss Voigt Hill
#
# Bulk Modulus (GPa) = 43.06905 52.47234 47.77070
# Shear Modulus (GPa) = 31.65543 33.90908 32.78226
#
# Velocity S-wave (km/s) = 3.80196 3.93497 3.86904
# Velocity P-wave (km/s) = 6.24019 6.67877 6.46320
#
# Compressibility (1/GPa) = 0.02321853
#
# Stress axis : x y z
#
# Youngs Moduli (GPa) = 64.58063 91.42785 114.88195
#
# Poissons Ratio (x) = 0.05155 0.15273
# Poissons Ratio (y) = 0.03641 0.46651
# Poissons Ratio (z) = 0.08586 0.37127
#
# Static dielectric constant tensor:
#      x y z
#    x 3.714880 0.000000 0.000000 
#    y 0.000000 4.430920 0.000000 
#    z 0.000000 0.000000 4.237620 
# 
# 
# High freq. dielectric constant tensor:
#      x y z
#    x 1.855680 0.000000 0.000000 
#    y 0.000000 1.862290 0.000000 
#    z 0.000000 0.000000 1.861010 
# 
# From -- ./inp_files/20346.got.cif
#   From: 2010.03.12/outbox.cif.g09.slc.cpg/sg57_11_cif.got.tgz:20346.got - 2010.04.16 15:48:40.
