data_PCOD8234320
_publ_section_title
;
Structure prediction by ZEFSAII (Michael W. Deem and Ramdas Pophale) SiO2 
 PCOD8234320
Probable space group: P B C M
;
_chemical_formula_sum "Si O2"
_cell_formula_units_Z 40
_cell_length_a 12.424070
_cell_length_b 18.616592
_cell_length_c 8.762588
_cell_angle_alpha 90.000000
_cell_angle_beta 90.000000
_cell_angle_gamma 90.000000
_cell_volume 2026.732646
_symmetry_space_group_name_H-M "P B C M"
_symmetry_group_IT_number 57
_symmetry_cell_setting 'orthorhombic'
loop_
_space_group_symop_operation_xyz
x,y,z
-x,-y,1/2+z
x,1/2-y,-z
-x,1/2+y,1/2-z
-x,-y,-z
x,y,1/2-z
-x,1/2+y,z
x,1/2-y,1/2+z
loop_
_atom_site_type_symbol
_atom_site_label
_atom_site_fract_x
_atom_site_fract_y
_atom_site_fract_z
Si Si1 0.463617 0.672291 0.930377
Si Si2 0.665607 0.918411 0.069004
Si Si3 0.960351 0.426229 0.571234
Si Si4 0.709879 0.076888 0.428338
Si Si5 0.868804 0.672415 0.931393
O O1 0.466870 0.679175 0.750000
O O2 0.558822 0.620773 0.992430
O O3 0.481702 0.750000 0.000000
O O4 0.349948 0.640029 0.981963
O O5 0.668374 0.918978 0.250000
O O6 0.771230 0.877287 0.009625
O O7 0.668186 0.000059 0.008345
O O8 0.984263 0.428286 0.750000
O O9 0.835288 0.415256 0.536742
O O10 0.000000 0.500000 0.500000
O O11 0.020190 0.359409 0.494423
O O12 0.685108 0.085060 0.250000
O O13 0.874210 0.676798 0.750000
O O14 0.848834 0.750000 0.000000
#
# Coordination Sequence:
#
# PCOD8234320 Si02
#       5
#     8   8   8   8   8
#     4  11  23  39  60  87 120 158 200 245 297 356
#     4   9  19  38  62  88 120 155 195 247 301 353
#     4  11  22  39  63  89 120 159 198 246 300 356
#     4  10  21  40  63  87 119 156 196 246 300 353
#     4  11  22  39  61  90 125 160 200 249 301 358
#
# _framework density 19.736198999999999
#
# number of rings (size 3 to 8) (size 9 to 14) (size 15 to 20)
#    0.000    1.600    2.000    3.000    0.000    2.400 
#    0.000    4.000    0.000    0.000    0.000    0.000 
#    0.000    0.000    0.000    0.000    0.000    0.000 
#
# Total GULP energy -496188.864219 kJ/mol
# GULP energy per Si atom -12404.721605 kJ/mol
# Density = 1.969128 g / cm^3
# Si number density = 19.736199 Si / 1000 Ang^3
#
#
#
# Elastic Constant Matrix: (Units=GPa)
#
#
# Indices 1 2 3 4 5 6 
#
# 1 109.1701 31.9256 43.7131 0.0000 0.0000 0.0000
# 2 31.9256 69.4753 17.9232 0.0000 0.0000 0.0000
# 3 43.7131 17.9232 68.8115 0.0000 0.0000 0.0000
# 4 0.0000 0.0000 0.0000 36.2841 0.0000 0.0000
# 5 0.0000 0.0000 0.0000 0.0000 27.0502 0.0000
# 6 0.0000 0.0000 0.0000 0.0000 0.0000 34.3120
#
#
#
# Elastic Compliance Matrix: (Units=1/GPa)
#
#
# Indices 1 2 3 4 5 6 
#
# 1 0.013353 -0.004232 -0.007380 0.000000 0.000000 0.000000
# 2 -0.004232 0.016772 -0.001680 0.000000 0.000000 0.000000
# 3 -0.007380 -0.001680 0.019658 0.000000 0.000000 0.000000
# 4 0.000000 0.000000 0.000000 0.027560 0.000000 0.000000
# 5 0.000000 0.000000 0.000000 0.000000 0.036968 0.000000
# 6 0.000000 0.000000 0.000000 0.000000 0.000000 0.029144
#
#
# Mechanical properties :
#
#
# Convention : Reuss Voigt Hill
#
# Bulk Modulus (GPa) = 43.10644 48.28675 45.69660
# Shear Modulus (GPa) = 28.12576 29.78892 28.95734
#
# Velocity S-wave (km/s) = 3.77913 3.88926 3.83459
# Velocity P-wave (km/s) = 6.39774 6.68488 6.54289
#
# Compressibility (1/GPa) = 0.02319839
#
# Stress axis : x y z
#
# Youngs Moduli (GPa) = 74.89120 59.62407 50.86896
#
# Poissons Ratio (x) = 0.25233 0.37542
# Poissons Ratio (y) = 0.31694 0.08547
# Poissons Ratio (z) = 0.55271 0.10018
#
# Static dielectric constant tensor:
#      x y z
#    x 3.832610 0.000000 0.000000 
#    y 0.000000 3.708500 0.000000 
#    z 0.000000 0.000000 3.513220 
# 
# 
# High freq. dielectric constant tensor:
#      x y z
#    x 1.782440 0.000000 0.000000 
#    y 0.000000 1.779970 0.000000 
#    z 0.000000 0.000000 1.757930 
# 
# From -- ./inp_files/2642.got.cif
#   From: 2010.03.12/outbox.cif.g09.slc.cpg/sg57_2_cif.got.tgz:2642.got - 2010.04.16 15:48:40.
