data_PCOD8234873
_publ_section_title
;
Structure prediction by ZEFSAII (Michael W. Deem and Ramdas Pophale) SiO2 
 PCOD8234873
Probable space group: P B C M
;
_chemical_formula_sum "Si O2"
_cell_formula_units_Z 48
_cell_length_a 5.034717
_cell_length_b 27.432953
_cell_length_c 14.573527
_cell_angle_alpha 90.000000
_cell_angle_beta 90.000000
_cell_angle_gamma 90.000000
_cell_volume 2012.854085
_symmetry_space_group_name_H-M "P B C M"
_symmetry_group_IT_number 57
_symmetry_cell_setting 'orthorhombic'
loop_
_space_group_symop_operation_xyz
x,y,z
-x,-y,1/2+z
x,1/2-y,-z
-x,1/2+y,1/2-z
-x,-y,-z
x,y,1/2-z
-x,1/2+y,z
x,1/2-y,1/2+z
loop_
_atom_site_type_symbol
_atom_site_label
_atom_site_fract_x
_atom_site_fract_y
_atom_site_fract_z
Si Si1 0.496756 0.413343 0.250000
Si Si2 0.905777 0.553566 0.352220
Si Si3 0.005277 0.343651 0.250000
Si Si4 0.596320 0.202540 0.150060
Si Si5 0.913599 0.759372 0.107016
Si Si6 0.657284 0.033209 0.573214
Si Si7 0.606504 0.398527 0.576263
O O1 0.724477 0.371712 0.250000
O O2 0.497435 0.449689 0.337186
O O3 0.218865 0.386158 0.250000
O O4 0.796071 0.549852 0.250000
O O5 0.913604 0.498741 0.395278
O O6 0.695683 0.585350 0.409471
O O7 0.194335 0.578570 0.348588
O O8 0.041391 0.312245 0.344982
O O9 0.514325 0.181319 0.250000
O O10 0.392314 0.244620 0.120881
O O11 0.601363 0.159731 0.075377
O O12 0.889326 0.223935 0.160955
O O13 0.986945 0.750000 0.000000
O O14 0.732672 0.083045 0.520274
O O15 0.500000 0.000000 0.500000
#
# Coordination Sequence:
#
# PCOD8234873 Si02
#       7
#     4   8   4   8   8   8   8
#     4  12  28  48  80 107 144 197 242 300 358 442
#     4  11  21  42  63  96 138 182 226 283 356 413
#     4  12  28  50  76 107 148 187 254 296 368 442
#     4  12  23  45  70 104 141 183 241 293 369 426
#     4  12  27  47  74 102 144 190 234 305 368 430
#     4  10  25  48  72 104 148 186 243 293 364 429
#     4  11  25  38  69 100 136 179 233 293 341 431
#
# _framework density 23.846737999999998
#
# number of rings (size 3 to 8) (size 9 to 14) (size 15 to 20)
#    0.000    0.667    2.500    4.500    4.667    5.333 
#    0.000    0.000    0.000    0.000    0.000    0.000 
#    0.000    0.000    0.000    0.000    0.000    0.000 
#
# Total GULP energy -594771.097140 kJ/mol
# GULP energy per Si atom -12391.064524 kJ/mol
# Density = 2.379246 g / cm^3
# Si number density = 23.846738 Si / 1000 Ang^3
#
#
#
# Elastic Constant Matrix: (Units=GPa)
#
#
# Indices 1 2 3 4 5 6 
#
# 1 75.9631 13.1815 9.7545 0.0000 0.0000 0.0000
# 2 13.1815 98.5862 40.4389 0.0000 0.0000 0.0000
# 3 9.7545 40.4389 119.5543 0.0000 0.0000 0.0000
# 4 0.0000 0.0000 0.0000 47.5239 0.0000 0.0000
# 5 0.0000 0.0000 0.0000 0.0000 22.5186 0.0000
# 6 0.0000 0.0000 0.0000 0.0000 0.0000 32.5688
#
#
#
# Elastic Compliance Matrix: (Units=1/GPa)
#
#
# Indices 1 2 3 4 5 6 
#
# 1 0.013510 -0.001572 -0.000570 0.000000 0.000000 0.000000
# 2 -0.001572 0.011960 -0.003917 0.000000 0.000000 0.000000
# 3 -0.000570 -0.003917 0.009736 0.000000 0.000000 0.000000
# 4 0.000000 0.000000 0.000000 0.021042 0.000000 0.000000
# 5 0.000000 0.000000 0.000000 0.000000 0.044408 0.000000
# 6 0.000000 0.000000 0.000000 0.000000 0.000000 0.030704
#
#
# Mechanical properties :
#
#
# Convention : Reuss Voigt Hill
#
# Bulk Modulus (GPa) = 43.31538 46.76147 45.03843
# Shear Modulus (GPa) = 33.07388 35.90419 34.48903
#
# Velocity S-wave (km/s) = 3.72820 3.88444 3.80712
# Velocity P-wave (km/s) = 6.06103 6.30637 6.18492
#
# Compressibility (1/GPa) = 0.02308649
#
# Stress axis : x y z
#
# Youngs Moduli (GPa) = 74.01713 83.60876 102.71203
#
# Poissons Ratio (x) = 0.13147 0.05859
# Poissons Ratio (y) = 0.11639 0.40235
# Poissons Ratio (z) = 0.04222 0.32752
#
# Static dielectric constant tensor:
#      x y z
#    x 4.026700 0.000000 0.000000 
#    y 0.000000 4.450920 0.000000 
#    z 0.000000 0.000000 4.738650 
# 
# 
# High freq. dielectric constant tensor:
#      x y z
#    x 1.939590 0.000000 0.000000 
#    y 0.000000 1.945360 0.000000 
#    z 0.000000 0.000000 1.958820 
# 
# From -- ./inp_files/15148.got.cif
#   From: 2010.03.12/outbox.cif.g09.slc.cpg/sg57_8_cif.got.tgz:15148.got - 2010.04.16 15:48:40.
