data_PCOD8234673
_publ_section_title
;
Structure prediction by ZEFSAII (Michael W. Deem and Ramdas Pophale) SiO2 
 PCOD8234673
Probable space group: P B C M
;
_chemical_formula_sum "Si O2"
_cell_formula_units_Z 44
_cell_length_a 7.699298
_cell_length_b 13.391053
_cell_length_c 19.686429
_cell_angle_alpha 90.000000
_cell_angle_beta 90.000000
_cell_angle_gamma 90.000000
_cell_volume 2029.704446
_symmetry_space_group_name_H-M "P B C M"
_symmetry_group_IT_number 57
_symmetry_cell_setting 'orthorhombic'
loop_
_space_group_symop_operation_xyz
x,y,z
-x,-y,1/2+z
x,1/2-y,-z
-x,1/2+y,1/2-z
-x,-y,-z
x,y,1/2-z
-x,1/2+y,z
x,1/2-y,1/2+z
loop_
_atom_site_type_symbol
_atom_site_label
_atom_site_fract_x
_atom_site_fract_y
_atom_site_fract_z
Si Si1 0.224262 0.923435 0.250000
Si Si2 0.815154 0.137585 0.383661
Si Si3 0.951442 0.869393 0.750000
Si Si4 0.964540 0.112357 0.519525
Si Si5 0.351778 0.841488 0.385796
Si Si6 0.722501 0.587447 0.606982
Si Si7 0.155658 0.156961 0.750000
O O1 0.339996 0.898806 0.314805
O O2 0.051089 0.857498 0.250000
O O3 0.178590 0.039015 0.250000
O O4 0.934894 0.173288 0.448670
O O5 0.669073 0.222379 0.373923
O O6 0.929998 0.127224 0.316746
O O7 0.725095 0.032642 0.402825
O O8 0.821209 0.775932 0.750000
O O9 0.792504 0.115772 0.564433
O O10 0.132009 0.146381 0.563051
O O11 0.000000 0.000000 0.500000
O O12 0.539532 0.866829 0.416986
O O13 0.754547 0.607692 0.685831
#
# Coordination Sequence:
#
# PCOD8234673 Si02
#       7
#     4   8   4   8   8   8   4
#     4  12  21  40  67  98 132 172 216 269 326 385
#     4  11  22  41  67  95 131 178 215 270 337 390
#     4  12  22  40  74  94 128 176 222 266 336 388
#     4  10  22  43  66  93 130 177 216 267 334 392
#     4  12  24  42  67 100 134 172 223 278 324 390
#     4  11  24  43  68  96 137 170 222 273 328 395
#     4  12  21  42  67  98 126 178 218 263 324 397
#
# _framework density 21.678032000000002
#
# number of rings (size 3 to 8) (size 9 to 14) (size 15 to 20)
#    0.000    0.727    5.455    2.182    0.000    4.364 
#    0.000   12.727    0.000    0.000    0.000    0.000 
#    0.000    0.000    0.000    0.000    0.000    0.000 
#
# Total GULP energy -545686.140284 kJ/mol
# GULP energy per Si atom -12401.957734 kJ/mol
# Density = 2.162869 g / cm^3
# Si number density = 21.678032 Si / 1000 Ang^3
#
#
#
# Elastic Constant Matrix: (Units=GPa)
#
#
# Indices 1 2 3 4 5 6 
#
# 1 157.4794 38.2410 60.4817 0.0000 0.0000 0.0000
# 2 38.2410 114.7364 26.0494 0.0000 0.0000 0.0000
# 3 60.4817 26.0494 150.6012 0.0000 0.0000 0.0000
# 4 0.0000 0.0000 0.0000 26.8044 0.0000 0.0000
# 5 0.0000 0.0000 0.0000 0.0000 0.4879 0.0000
# 6 0.0000 0.0000 0.0000 0.0000 0.0000 26.7719
#
#
#
# Elastic Compliance Matrix: (Units=1/GPa)
#
#
# Indices 1 2 3 4 5 6 
#
# 1 0.007925 -0.001997 -0.002837 0.000000 0.000000 0.000000
# 2 -0.001997 0.009575 -0.000854 0.000000 0.000000 0.000000
# 3 -0.002837 -0.000854 0.007927 0.000000 0.000000 0.000000
# 4 0.000000 0.000000 0.000000 0.037307 0.000000 0.000000
# 5 0.000000 0.000000 0.000000 0.000000 2.049476 0.000000
# 6 0.000000 0.000000 0.000000 0.000000 0.000000 0.037353
#
#
# Mechanical properties :
#
#
# Convention : Reuss Voigt Hill
#
# Bulk Modulus (GPa) = 71.17322 74.70679 72.94001
# Shear Modulus (GPa) = 2.30880 30.68251 16.49566
#
# Velocity S-wave (km/s) = 1.03313 3.76623 2.76150
# Velocity P-wave (km/s) = 5.85887 7.31091 6.62479
#
# Compressibility (1/GPa) = 0.01405023
#
# Stress axis : x y z
#
# Youngs Moduli (GPa) = 126.18905 104.43664 126.14822
#
# Poissons Ratio (x) = 0.20857 0.35790
# Poissons Ratio (y) = 0.25201 0.10775
# Poissons Ratio (z) = 0.35801 0.08921
#
# Static dielectric constant tensor:
#      x y z
#    x 3.863290 0.000000 0.000000 
#    y 0.000000 4.167350 0.000000 
#    z 0.000000 0.000000 4.723760 
# 
# 
# High freq. dielectric constant tensor:
#      x y z
#    x 1.832000 0.000000 0.000000 
#    y 0.000000 1.865180 0.000000 
#    z 0.000000 0.000000 1.871320 
# 
# From -- ./inp_files/20866.got.cif
#   From: 2010.03.12/outbox.cif.g09.slc.cpg/sg57_11_cif.got.tgz:20866.got - 2010.04.16 15:48:40.
