data_PCOD8234676
_publ_section_title
;
Structure prediction by ZEFSAII (Michael W. Deem and Ramdas Pophale) SiO2 
 PCOD8234676
Probable space group: P B C M
;
_chemical_formula_sum "Si O2"
_cell_formula_units_Z 48
_cell_length_a 11.805386
_cell_length_b 11.893709
_cell_length_c 16.344284
_cell_angle_alpha 90.000000
_cell_angle_beta 90.000000
_cell_angle_gamma 90.000000
_cell_volume 2294.898068
_symmetry_space_group_name_H-M "P B C M"
_symmetry_group_IT_number 57
_symmetry_cell_setting 'orthorhombic'
loop_
_space_group_symop_operation_xyz
x,y,z
-x,-y,1/2+z
x,1/2-y,-z
-x,1/2+y,1/2-z
-x,-y,-z
x,y,1/2-z
-x,1/2+y,z
x,1/2-y,1/2+z
loop_
_atom_site_type_symbol
_atom_site_label
_atom_site_fract_x
_atom_site_fract_y
_atom_site_fract_z
Si Si1 0.333897 0.723167 0.907302
Si Si2 0.824425 0.025909 0.652864
Si Si3 0.223045 0.217236 0.407910
Si Si4 0.281122 0.962376 0.844344
Si Si5 0.430355 0.341210 0.155952
Si Si6 0.928757 0.598038 0.653150
O O1 0.266602 0.618775 0.871286
O O2 0.300610 0.831706 0.855357
O O3 0.466640 0.697572 0.900714
O O4 0.301092 0.750000 0.000000
O O5 0.821521 0.002732 0.750000
O O6 0.946758 0.067208 0.621549
O O7 0.794844 0.914895 0.602294
O O8 0.254969 0.250000 0.500000
O O9 0.327400 0.253014 0.350189
O O10 0.107518 0.280366 0.381428
O O11 0.275924 0.993094 0.750000
O O12 0.385639 0.037781 0.878474
O O13 0.160523 0.004353 0.880711
O O14 0.471998 0.346728 0.250000
O O15 0.931287 0.605300 0.750000
#
# Coordination Sequence:
#
# PCOD8234676 Si02
#       6
#     8   8   8   8   8   8
#     4  12  27  40  63  97 134 167 210 274 329 381
#     4  11  25  43  67  96 130 175 226 267 313 389
#     4  11  24  41  67  98 133 167 210 272 331 385
#     4   9  20  41  65  88 122 168 217 264 321 386
#     4  10  22  43  68  90 122 171 218 262 321 393
#     4   9  21  42  67  91 124 174 222 265 316 381
#
# _framework density 20.915960999999999
#
# number of rings (size 3 to 8) (size 9 to 14) (size 15 to 20)
#    0.000    1.667    0.000    4.500    9.333    2.000 
#    0.000    0.000    0.000    0.000    0.000    0.000 
#    0.000    0.000    0.000    0.000    0.000    0.000 
#
# Total GULP energy -595267.530054 kJ/mol
# GULP energy per Si atom -12401.406876 kJ/mol
# Density = 2.086836 g / cm^3
# Si number density = 20.915961 Si / 1000 Ang^3
#
#
#
# Elastic Constant Matrix: (Units=GPa)
#
#
# Indices 1 2 3 4 5 6 
#
# 1 106.8215 52.7063 15.2592 0.0000 0.0000 0.0000
# 2 52.7063 156.9235 11.7104 0.0000 0.0000 0.0000
# 3 15.2592 11.7104 50.6526 0.0000 0.0000 0.0000
# 4 0.0000 0.0000 0.0000 30.9021 0.0000 0.0000
# 5 0.0000 0.0000 0.0000 0.0000 21.2688 0.0000
# 6 0.0000 0.0000 0.0000 0.0000 0.0000 26.0936
#
#
#
# Elastic Compliance Matrix: (Units=1/GPa)
#
#
# Indices 1 2 3 4 5 6 
#
# 1 0.011555 -0.003685 -0.002629 0.000000 0.000000 0.000000
# 2 -0.003685 0.007659 -0.000661 0.000000 0.000000 0.000000
# 3 -0.002629 -0.000661 0.020687 0.000000 0.000000 0.000000
# 4 0.000000 0.000000 0.000000 0.032360 0.000000 0.000000
# 5 0.000000 0.000000 0.000000 0.000000 0.047017 0.000000
# 6 0.000000 0.000000 0.000000 0.000000 0.000000 0.038324
#
#
# Mechanical properties :
#
#
# Convention : Reuss Voigt Hill
#
# Bulk Modulus (GPa) = 38.53217 52.63881 45.58549
# Shear Modulus (GPa) = 27.74650 31.30100 29.52375
#
# Velocity S-wave (km/s) = 3.64616 3.87268 3.76112
# Velocity P-wave (km/s) = 6.01568 6.72445 6.37992
#
# Compressibility (1/GPa) = 0.02595234
#
# Stress axis : x y z
#
# Youngs Moduli (GPa) = 86.54189 130.55718 48.33930
#
# Poissons Ratio (x) = 0.48108 0.12709
# Poissons Ratio (y) = 0.31889 0.03194
# Poissons Ratio (z) = 0.22753 0.08626
#
# Static dielectric constant tensor:
#      x y z
#    x 3.918350 0.000000 0.000000 
#    y 0.000000 3.826670 0.000000 
#    z 0.000000 0.000000 2.999160 
# 
# 
# High freq. dielectric constant tensor:
#      x y z
#    x 1.825500 0.000000 0.000000 
#    y 0.000000 1.824370 0.000000 
#    z 0.000000 0.000000 1.810880 
# 
# From -- ./inp_files/21821.got.cif
#   From: 2010.03.12/outbox.cif.g09.slc.cpg/sg57_11_cif.got.tgz:21821.got - 2010.04.16 15:48:40.
