data_PCOD8234542
_publ_section_title
;
Structure prediction by ZEFSAII (Michael W. Deem and Ramdas Pophale) SiO2 
 PCOD8234542
Probable space group: P B C M
;
_chemical_formula_sum "Si O2"
_cell_formula_units_Z 64
_cell_length_a 9.447510
_cell_length_b 22.402104
_cell_length_c 14.146848
_cell_angle_alpha 90.000000
_cell_angle_beta 90.000000
_cell_angle_gamma 90.000000
_cell_volume 2994.096935
_symmetry_space_group_name_H-M "P B C M"
_symmetry_group_IT_number 57
_symmetry_cell_setting 'orthorhombic'
loop_
_space_group_symop_operation_xyz
x,y,z
-x,-y,1/2+z
x,1/2-y,-z
-x,1/2+y,1/2-z
-x,-y,-z
x,y,1/2-z
-x,1/2+y,z
x,1/2-y,1/2+z
loop_
_atom_site_type_symbol
_atom_site_label
_atom_site_fract_x
_atom_site_fract_y
_atom_site_fract_z
Si Si1 0.681321 0.547545 0.360128
Si Si2 0.216044 0.335990 0.956118
Si Si3 0.327860 0.124133 0.853797
Si Si4 0.853463 0.466495 0.491026
Si Si5 0.098308 0.668289 0.003870
Si Si6 0.566310 0.751601 0.856138
Si Si7 0.756695 0.259668 0.639138
Si Si8 0.621584 0.490473 0.858156
O O1 0.685066 0.536135 0.250000
O O2 0.750872 0.611032 0.383168
O O3 0.767527 0.493281 0.404223
O O4 0.517932 0.544246 0.396118
O O5 0.322358 0.281470 0.929627
O O6 0.221207 0.364578 0.060959
O O7 0.056585 0.312580 0.956434
O O8 0.251309 0.123286 0.750000
O O9 0.434453 0.179723 0.858111
O O10 0.408408 0.061573 0.869757
O O11 0.890862 0.398661 0.467763
O O12 0.761449 0.471727 0.585955
O O13 0.000000 0.500000 0.500000
O O14 0.156802 0.709303 0.918668
O O15 0.189481 0.676875 0.099702
O O16 0.600809 0.775150 0.750000
O O17 0.407840 0.765206 0.886569
O O18 0.784501 0.250593 0.750000
O O19 0.651266 0.473365 0.750000
#
# Coordination Sequence:
#
# PCOD8234542 Si02
#       8
#     8   8   8   8   8   8   8   8
#     4  11  25  42  67 100 135 182 233 284 340 400
#     4  12  24  44  67  97 138 178 228 280 337 415
#     4  10  22  39  65  98 129 169 223 280 339 394
#     4  12  24  46  67  99 139 180 226 275 343 413
#     4  11  27  44  69 101 136 180 223 271 348 407
#     4  10  24  42  68  98 129 176 230 285 339 398
#     4  10  26  48  68 100 136 176 230 283 340 403
#     4  10  23  42  67  99 134 176 228 282 339 401
#
# _framework density 21.375392999999999
#
# number of rings (size 3 to 8) (size 9 to 14) (size 15 to 20)
#    0.000    1.250    2.500    1.125   10.500    3.000 
#    0.000    0.000    0.000    0.000    0.000    0.000 
#    0.000    0.000    0.000    0.000    0.000    0.000 
#
# Total GULP energy -793145.578923 kJ/mol
# GULP energy per Si atom -12392.899671 kJ/mol
# Density = 2.132674 g / cm^3
# Si number density = 21.375393 Si / 1000 Ang^3
#
#
#
# Elastic Constant Matrix: (Units=GPa)
#
#
# Indices 1 2 3 4 5 6 
#
# 1 145.6723 23.9846 56.1655 0.0000 0.0000 0.0000
# 2 23.9846 84.2024 22.6142 0.0000 0.0000 0.0000
# 3 56.1655 22.6142 111.8161 0.0000 0.0000 0.0000
# 4 0.0000 0.0000 0.0000 26.8611 0.0000 0.0000
# 5 0.0000 0.0000 0.0000 0.0000 17.4864 0.0000
# 6 0.0000 0.0000 0.0000 0.0000 0.0000 31.9225
#
#
#
# Elastic Compliance Matrix: (Units=1/GPa)
#
#
# Indices 1 2 3 4 5 6 
#
# 1 0.008661 -0.001373 -0.004073 0.000000 0.000000 0.000000
# 2 -0.001373 0.012776 -0.001894 0.000000 0.000000 0.000000
# 3 -0.004073 -0.001894 0.011372 0.000000 0.000000 0.000000
# 4 0.000000 0.000000 0.000000 0.037229 0.000000 0.000000
# 5 0.000000 0.000000 0.000000 0.000000 0.057187 0.000000
# 6 0.000000 0.000000 0.000000 0.000000 0.000000 0.031326
#
#
# Mechanical properties :
#
#
# Convention : Reuss Voigt Hill
#
# Bulk Modulus (GPa) = 55.16027 60.80215 57.98121
# Shear Modulus (GPa) = 27.89026 31.18244 29.53635
#
# Velocity S-wave (km/s) = 3.61610 3.82357 3.72128
# Velocity P-wave (km/s) = 6.58000 6.92817 6.75633
#
# Compressibility (1/GPa) = 0.01812899
#
# Stress axis : x y z
#
# Youngs Moduli (GPa) = 115.45841 78.27174 87.93462
#
# Poissons Ratio (x) = 0.10749 0.35814
# Poissons Ratio (y) = 0.15855 0.16656
# Poissons Ratio (z) = 0.47024 0.14825
#
# Static dielectric constant tensor:
#      x y z
#    x 5.297290 0.000000 0.000000 
#    y 0.000000 3.854260 0.000000 
#    z 0.000000 0.000000 4.137930 
# 
# 
# High freq. dielectric constant tensor:
#      x y z
#    x 1.833340 0.000000 0.000000 
#    y 0.000000 1.847970 0.000000 
#    z 0.000000 0.000000 1.851390 
# 
# From -- ./inp_files/16922.got.cif
#   From: 2010.03.12/outbox.cif.g09.slc.cpg/sg57_9_cif.got.tgz:16922.got - 2010.04.16 15:48:40.
