data_PCOD8234547
_publ_section_title
;
Structure prediction by ZEFSAII (Michael W. Deem and Ramdas Pophale) SiO2 
 PCOD8234547
Probable space group: P B C M
;
_chemical_formula_sum "Si O2"
_cell_formula_units_Z 64
_cell_length_a 20.442295
_cell_length_b 19.456509
_cell_length_c 8.834815
_cell_angle_alpha 90.000000
_cell_angle_beta 90.000000
_cell_angle_gamma 90.000000
_cell_volume 3513.921299
_symmetry_space_group_name_H-M "P B C M"
_symmetry_group_IT_number 57
_symmetry_cell_setting 'orthorhombic'
loop_
_space_group_symop_operation_xyz
x,y,z
-x,-y,1/2+z
x,1/2-y,-z
-x,1/2+y,1/2-z
-x,-y,-z
x,y,1/2-z
-x,1/2+y,z
x,1/2-y,1/2+z
loop_
_atom_site_type_symbol
_atom_site_label
_atom_site_fract_x
_atom_site_fract_y
_atom_site_fract_z
Si Si1 0.154984 0.427088 0.929520
Si Si2 0.483935 0.928516 0.073392
Si Si3 0.377576 0.096000 0.924646
Si Si4 0.345914 0.952540 0.071021
Si Si5 0.204439 0.924654 0.070352
Si Si6 0.018988 0.427722 0.429100
Si Si7 0.094942 0.824208 0.428624
Si Si8 0.253770 0.177640 0.926697
O O1 0.148769 0.420542 0.750000
O O2 0.170532 0.504618 0.981851
O O3 0.088091 0.402393 0.006496
O O4 0.212632 0.379692 0.988739
O O5 0.478469 0.940606 0.250000
O O6 0.546899 0.880290 0.034261
O O7 0.410158 0.906961 0.018820
O O8 0.500000 0.000000 0.000000
O O9 0.374340 0.072911 0.750000
O O10 0.330360 0.160479 0.954519
O O11 0.353803 0.031217 0.021015
O O12 0.338544 0.953705 0.250000
O O13 0.278739 0.920195 0.003868
O O14 0.205297 0.922923 0.250000
O O15 0.161248 0.860981 0.009668
O O16 0.021862 0.436395 0.250000
O O17 0.000000 0.500000 0.500000
O O18 0.966508 0.370462 0.477455
O O19 0.087800 0.750000 0.500000
O O20 0.097802 0.815776 0.250000
O O21 0.235930 0.179027 0.750000
O O22 0.237066 0.250000 0.000000
#
# Coordination Sequence:
#
# PCOD8234547 Si02
#       8
#     8   8   8   8   8   8   8   8
#     4  11  21  37  59  82 110 141 178 229 279 328
#     4   8  14  24  41  69 100 129 163 208 260 312
#     4   9  17  29  45  69 103 134 170 221 268 312
#     4   9  15  26  49  76 101 134 172 210 263 322
#     4   9  17  32  54  80 109 139 173 217 266 319
#     4  11  22  38  60  86 115 146 185 226 270 323
#     4  10  22  40  58  81 111 142 177 218 262 316
#     4  11  23  37  52  74 105 145 188 231 278 334
#
# _framework density 18.213272
#
# number of rings (size 3 to 8) (size 9 to 14) (size 15 to 20)
#    0.000    2.250    2.500    1.125    0.000    2.000 
#    0.000    1.875    0.000    0.750    0.000    0.000 
#    0.000    0.000    0.000    0.000    0.000    0.000 
#
# Total GULP energy -792960.255187 kJ/mol
# GULP energy per Si atom -12390.003987 kJ/mol
# Density = 1.817182 g / cm^3
# Si number density = 18.213272 Si / 1000 Ang^3
#
#
#
# Elastic Constant Matrix: (Units=GPa)
#
#
# Indices 1 2 3 4 5 6 
#
# 1 170.7706 55.8975 36.3667 0.0000 0.0000 0.0000
# 2 55.8975 102.1375 27.8564 0.0000 0.0000 0.0000
# 3 36.3667 27.8564 34.4933 0.0000 0.0000 0.0000
# 4 0.0000 0.0000 0.0000 22.9933 0.0000 0.0000
# 5 0.0000 0.0000 0.0000 0.0000 22.1202 0.0000
# 6 0.0000 0.0000 0.0000 0.0000 0.0000 21.5193
#
#
#
# Elastic Compliance Matrix: (Units=1/GPa)
#
#
# Indices 1 2 3 4 5 6 
#
# 1 0.008091 -0.002695 -0.006354 0.000000 0.000000 0.000000
# 2 -0.002695 0.013454 -0.008024 0.000000 0.000000 0.000000
# 3 -0.006354 -0.008024 0.042170 0.000000 0.000000 0.000000
# 4 0.000000 0.000000 0.000000 0.043491 0.000000 0.000000
# 5 0.000000 0.000000 0.000000 0.000000 0.045208 0.000000
# 6 0.000000 0.000000 0.000000 0.000000 0.000000 0.046470
#
#
# Mechanical properties :
#
#
# Convention : Reuss Voigt Hill
#
# Bulk Modulus (GPa) = 33.81869 60.84918 47.33394
# Shear Modulus (GPa) = 20.58574 25.81194 23.19884
#
# Velocity S-wave (km/s) = 3.36558 3.76866 3.57281
# Velocity P-wave (km/s) = 5.80615 7.24009 6.56240
#
# Compressibility (1/GPa) = 0.02956945
#
# Stress axis : x y z
#
# Youngs Moduli (GPa) = 123.59237 74.32683 23.71338
#
# Poissons Ratio (x) = 0.20032 0.15068
# Poissons Ratio (y) = 0.33310 0.19027
# Poissons Ratio (z) = 0.78531 0.59639
#
# Static dielectric constant tensor:
#      x y z
#    x 4.408510 0.000000 0.000000 
#    y 0.000000 3.106910 0.000000 
#    z 0.000000 0.000000 3.265850 
# 
# 
# High freq. dielectric constant tensor:
#      x y z
#    x 1.737110 0.000000 0.000000 
#    y 0.000000 1.663490 0.000000 
#    z 0.000000 0.000000 1.695840 
# 
# From -- ./inp_files/8501.got.cif
#   From: 2010.03.12/outbox.cif.g09.slc.cpg/sg57_5_cif.got.tgz:8501.got - 2010.04.16 15:48:40.
