data_PCOD8234594
_publ_section_title
;
Structure prediction by ZEFSAII (Michael W. Deem and Ramdas Pophale) SiO2 
 PCOD8234594
Probable space group: P B C M
;
_chemical_formula_sum "Si O2"
_cell_formula_units_Z 32
_cell_length_a 9.639064
_cell_length_b 10.692745
_cell_length_c 13.584433
_cell_angle_alpha 90.000000
_cell_angle_beta 90.000000
_cell_angle_gamma 90.000000
_cell_volume 1400.121066
_symmetry_space_group_name_H-M "P B C M"
_symmetry_group_IT_number 57
_symmetry_cell_setting 'orthorhombic'
loop_
_space_group_symop_operation_xyz
x,y,z
-x,-y,1/2+z
x,1/2-y,-z
-x,1/2+y,1/2-z
-x,-y,-z
x,y,1/2-z
-x,1/2+y,z
x,1/2-y,1/2+z
loop_
_atom_site_type_symbol
_atom_site_label
_atom_site_fract_x
_atom_site_fract_y
_atom_site_fract_z
Si Si1 0.729746 0.748490 0.642296
Si Si2 0.092792 0.478925 0.141054
Si Si3 0.472520 0.874106 0.439178
Si Si4 0.206816 0.504105 0.563595
O O1 0.720347 0.812141 0.750000
O O2 0.870571 0.668143 0.635075
O O3 0.598760 0.653094 0.634711
O O4 0.732806 0.859901 0.561303
O O5 0.135623 0.532015 0.250000
O O6 0.927971 0.492716 0.131348
O O7 0.171164 0.546034 0.049393
O O8 0.449565 0.750000 0.500000
O O9 0.500000 0.000000 0.500000
O O10 0.322344 0.903688 0.389431
#
# Coordination Sequence:
#
# PCOD8234594 Si02
#       4
#     8   8   8   8
#     4  11  23  42  68  99 140 182 231 289 347 418
#     4  10  22  40  65  97 133 181 233 282 342 415
#     4  12  23  44  69  97 135 184 230 282 351 414
#     4  11  23  42  69  97 142 183 227 287 358 409
#
# _framework density 22.855167999999999
#
# number of rings (size 3 to 8) (size 9 to 14) (size 15 to 20)
#    0.000    1.000    5.000    1.500    0.000    6.000 
#    0.000    1.250    0.000    1.500    0.000    0.000 
#    0.000    0.000    0.000    0.000    0.000    0.000 
#
# Total GULP energy -396489.837604 kJ/mol
# GULP energy per Si atom -12390.307425 kJ/mol
# Density = 2.280315 g / cm^3
# Si number density = 22.855168 Si / 1000 Ang^3
#
#
#
# Elastic Constant Matrix: (Units=GPa)
#
#
# Indices 1 2 3 4 5 6 
#
# 1 150.2998 57.0014 23.4649 0.0000 0.0000 0.0000
# 2 57.0014 107.8108 8.2309 0.0000 0.0000 0.0000
# 3 23.4649 8.2309 102.1854 0.0000 0.0000 0.0000
# 4 0.0000 0.0000 0.0000 23.4604 0.0000 0.0000
# 5 0.0000 0.0000 0.0000 0.0000 22.4525 0.0000
# 6 0.0000 0.0000 0.0000 0.0000 0.0000 39.0951
#
#
#
# Elastic Compliance Matrix: (Units=1/GPa)
#
#
# Indices 1 2 3 4 5 6 
#
# 1 0.008579 -0.004413 -0.001615 0.000000 0.000000 0.000000
# 2 -0.004413 0.011602 0.000079 0.000000 0.000000 0.000000
# 3 -0.001615 0.000079 0.010151 0.000000 0.000000 0.000000
# 4 0.000000 0.000000 0.000000 0.042625 0.000000 0.000000
# 5 0.000000 0.000000 0.000000 0.000000 0.044538 0.000000
# 6 0.000000 0.000000 0.000000 0.000000 0.000000 0.025579
#
#
# Mechanical properties :
#
#
# Convention : Reuss Voigt Hill
#
# Bulk Modulus (GPa) = 54.24430 59.74338 56.99384
# Shear Modulus (GPa) = 31.03356 35.10818 33.07087
#
# Velocity S-wave (km/s) = 3.68888 3.92358 3.80804
# Velocity P-wave (km/s) = 6.47528 6.83540 6.65778
#
# Compressibility (1/GPa) = 0.01843512
#
# Stress axis : x y z
#
# Youngs Moduli (GPa) = 116.56501 86.18834 98.51685
#
# Poissons Ratio (x) = 0.38031 0.15906
# Poissons Ratio (y) = 0.51435 -0.00775
# Poissons Ratio (z) = 0.18820 -0.00678
#
# Static dielectric constant tensor:
#      x y z
#    x 4.787230 0.000000 0.000000 
#    y 0.000000 3.868630 0.000000 
#    z 0.000000 0.000000 4.034030 
# 
# 
# High freq. dielectric constant tensor:
#      x y z
#    x 1.920730 0.000000 0.000000 
#    y 0.000000 1.878270 0.000000 
#    z 0.000000 0.000000 1.892660 
# 
# From -- ./inp_files/15529.got.cif
#   From: 2010.03.12/outbox.cif.g09.slc.cpg/sg57_8_cif.got.tgz:15529.got - 2010.04.16 15:48:40.
