data_PCOD8234292
_publ_section_title
;
Structure prediction by ZEFSAII (Michael W. Deem and Ramdas Pophale) SiO2 
 PCOD8234292
Probable space group: P B C M
;
_chemical_formula_sum "Si O2"
_cell_formula_units_Z 64
_cell_length_a 18.564604
_cell_length_b 10.287621
_cell_length_c 16.422191
_cell_angle_alpha 90.000000
_cell_angle_beta 90.000000
_cell_angle_gamma 90.000000
_cell_volume 3136.402165
_symmetry_space_group_name_H-M "P B C M"
_symmetry_group_IT_number 57
_symmetry_cell_setting 'orthorhombic'
loop_
_space_group_symop_operation_xyz
x,y,z
-x,-y,1/2+z
x,1/2-y,-z
-x,1/2+y,1/2-z
-x,-y,-z
x,y,1/2-z
-x,1/2+y,z
x,1/2-y,1/2+z
loop_
_atom_site_type_symbol
_atom_site_label
_atom_site_fract_x
_atom_site_fract_y
_atom_site_fract_z
Si Si1 0.797572 0.513306 0.345652
Si Si2 0.920944 0.132865 0.058697
Si Si3 0.083331 0.377520 0.546346
Si Si4 0.349661 0.127531 0.154907
Si Si5 0.575627 0.105902 0.580472
Si Si6 0.359269 0.636723 0.099125
Si Si7 0.427140 0.114475 0.657618
Si Si8 0.790775 0.213138 0.345597
O O1 0.802199 0.524505 0.250000
O O2 0.866756 0.588092 0.378288
O O3 0.727848 0.587935 0.381477
O O4 0.795048 0.363437 0.372997
O O5 0.866753 0.142138 0.135344
O O6 0.004240 0.149187 0.084603
O O7 0.897809 0.250000 0.000000
O O8 0.913538 0.993501 0.017842
O O9 0.111410 0.250000 0.500000
O O10 0.349429 0.101603 0.250000
O O11 0.368827 0.275698 0.133523
O O12 0.409797 0.034619 0.117327
O O13 0.612872 0.222993 0.631441
O O14 0.606158 0.111735 0.489284
O O15 0.489639 0.122876 0.589507
O O16 0.386599 0.522985 0.157497
O O17 0.272200 0.642366 0.102107
O O18 0.456463 0.137314 0.750000
O O19 0.774148 0.199256 0.250000
#
# Coordination Sequence:
#
# PCOD8234292 Si02
#       8
#     8   8   8   8   8   8   8   8
#     4  10  21  40  66  92 127 169 212 258 318 384
#     4  10  21  39  66  92 131 165 211 259 304 375
#     4  10  22  39  63  98 128 171 207 253 318 371
#     4  10  22  40  62  91 124 162 208 256 316 383
#     4  11  23  39  63  90 120 166 208 257 315 385
#     4  11  25  40  63  93 124 158 211 267 311 375
#     4  11  24  42  63  87 125 165 207 267 325 375
#     4  11  23  40  68  96 124 168 215 263 316 374
#
# _framework density 20.405546000000001
#
# number of rings (size 3 to 8) (size 9 to 14) (size 15 to 20)
#    0.000    1.500    2.500    1.875    3.500    5.500 
#    0.000    1.875    0.000    0.000    0.000    0.000 
#    0.000    0.000    0.000    0.000    0.000    0.000 
#
# Total GULP energy -793550.446624 kJ/mol
# GULP energy per Si atom -12399.225729 kJ/mol
# Density = 2.035910 g / cm^3
# Si number density = 20.405546 Si / 1000 Ang^3
#
#
#
# Elastic Constant Matrix: (Units=GPa)
#
#
# Indices 1 2 3 4 5 6 
#
# 1 140.6271 39.8748 53.9643 0.0000 0.0000 0.0000
# 2 39.8748 118.4573 35.6259 0.0000 0.0000 0.0000
# 3 53.9643 35.6259 51.2428 0.0000 0.0000 0.0000
# 4 0.0000 0.0000 0.0000 27.1839 0.0000 0.0000
# 5 0.0000 0.0000 0.0000 0.0000 26.5265 0.0000
# 6 0.0000 0.0000 0.0000 0.0000 0.0000 -7.2448
#
#
#
# Elastic Compliance Matrix: (Units=1/GPa)
#
#
# Indices 1 2 3 4 5 6 
#
# 1 0.011942 -0.000300 -0.012367 0.000000 0.000000 0.000000
# 2 -0.000300 0.010681 -0.007110 0.000000 0.000000 0.000000
# 3 -0.012367 -0.007110 0.037482 0.000000 0.000000 0.000000
# 4 0.000000 0.000000 0.000000 0.036787 0.000000 0.000000
# 5 0.000000 0.000000 0.000000 0.000000 0.037698 0.000000
# 6 0.000000 0.000000 0.000000 0.000000 0.000000 -0.138030
#
#
# Mechanical properties :
#
#
# Convention : Reuss Voigt Hill
#
# Bulk Modulus (GPa) = 48.66079 63.25078 55.95579
# Shear Modulus (GPa) = 116.37368 21.35060 68.86214
#
# Velocity S-wave (km/s) = 7.56004 3.23819 5.81550
# Velocity P-wave (km/s) = 10.00521 6.71158 8.51908
#
# Compressibility (1/GPa) = 0.02055043
#
# Stress axis : x y z
#
# Youngs Moduli (GPa) = 83.73754 93.62255 26.67942
#
# Poissons Ratio (x) = 0.02813 0.32996
# Poissons Ratio (y) = 0.02516 0.18968
# Poissons Ratio (z) = 1.03562 0.66562
#
# Static dielectric constant tensor:
#      x y z
#    x 3.881510 0.000000 0.000000 
#    y 0.000000 3.965290 0.000000 
#    z 0.000000 0.000000 3.386730 
# 
# 
# High freq. dielectric constant tensor:
#      x y z
#    x 1.804180 0.000000 0.000000 
#    y 0.000000 1.810010 0.000000 
#    z 0.000000 0.000000 1.776710 
# 
# From -- ./inp_files/19103.got.cif
#   From: 2010.03.12/outbox.cif.g09.slc.cpg/sg57_10_cif.got.tgz:19103.got - 2010.04.16 15:48:40.
