data_PCOD8234755
_publ_section_title
;
Structure prediction by ZEFSAII (Michael W. Deem and Ramdas Pophale) SiO2 
 PCOD8234755
Probable space group: P B C M
;
_chemical_formula_sum "Si O2"
_cell_formula_units_Z 64
_cell_length_a 11.755450
_cell_length_b 30.508482
_cell_length_c 8.490462
_cell_angle_alpha 90.000000
_cell_angle_beta 90.000000
_cell_angle_gamma 90.000000
_cell_volume 3045.027228
_symmetry_space_group_name_H-M "P B C M"
_symmetry_group_IT_number 57
_symmetry_cell_setting 'orthorhombic'
loop_
_space_group_symop_operation_xyz
x,y,z
-x,-y,1/2+z
x,1/2-y,-z
-x,1/2+y,1/2-z
-x,-y,-z
x,y,1/2-z
-x,1/2+y,z
x,1/2-y,1/2+z
loop_
_atom_site_type_symbol
_atom_site_label
_atom_site_fract_x
_atom_site_fract_y
_atom_site_fract_z
Si Si1 0.229181 0.704934 0.066244
Si Si2 0.239549 0.550343 0.067686
Si Si3 0.997636 0.169765 0.929791
Si Si4 0.382519 0.374711 0.931004
Si Si5 0.757089 0.703789 0.931275
Si Si6 0.009759 0.076361 0.067959
Si Si7 0.373523 0.871501 0.069380
Si Si8 0.759210 0.950638 0.069762
O O1 0.204530 0.708815 0.250000
O O2 0.283450 0.750000 0.000000
O O3 0.111369 0.698003 0.975307
O O4 0.316221 0.665443 0.037939
O O5 0.250066 0.563926 0.250000
O O6 0.109680 0.556119 0.011527
O O7 0.278628 0.500534 0.039339
O O8 0.321465 0.581000 0.966641
O O9 0.986779 0.153283 0.750000
O O10 0.107523 0.200210 0.951154
O O11 0.007367 0.128362 0.043810
O O12 0.420074 0.372665 0.750000
O O13 0.301134 0.334407 0.969825
O O14 0.492747 0.372948 0.039618
O O15 0.314997 0.419756 0.958563
O O16 0.719680 0.699904 0.750000
O O17 0.715593 0.750000 0.000000
O O18 0.033884 0.066269 0.250000
O O19 0.107173 0.053999 0.964561
O O20 0.350478 0.859578 0.250000
O O21 0.737978 0.936782 0.250000
#
# Coordination Sequence:
#
# PCOD8234755 Si02
#       8
#     8   8   8   8   8   8   8   8
#     4  12  25  43  67  97 133 169 214 262 316 380
#     4  10  23  42  65  95 131 171 213 262 318 379
#     4  11  22  38  64  97 133 172 211 259 317 379
#     4  12  26  45  68  92 125 167 216 267 321 377
#     4  11  24  42  66  96 131 167 212 260 315 378
#     4  11  21  36  63  96 132 172 212 259 317 381
#     4  12  26  45  69  94 125 166 215 266 322 379
#     4  11  23  41  65  95 132 170 214 264 317 380
#
# _framework density 21.017873999999999
#
# number of rings (size 3 to 8) (size 9 to 14) (size 15 to 20)
#    0.000    0.750    2.500    5.625    0.000    5.000 
#    0.000    2.500    0.000    0.000    0.000    0.000 
#    0.000    0.000    0.000    0.000    0.000    0.000 
#
# Total GULP energy -794141.055343 kJ/mol
# GULP energy per Si atom -12408.453990 kJ/mol
# Density = 2.097004 g / cm^3
# Si number density = 21.017874 Si / 1000 Ang^3
#
#
#
# Elastic Constant Matrix: (Units=GPa)
#
#
# Indices 1 2 3 4 5 6 
#
# 1 100.7736 30.6468 22.2092 0.0000 0.0000 0.0000
# 2 30.6468 119.1328 31.3384 0.0000 0.0000 0.0000
# 3 22.2092 31.3384 77.6082 0.0000 0.0000 0.0000
# 4 0.0000 0.0000 0.0000 32.8690 0.0000 0.0000
# 5 0.0000 0.0000 0.0000 0.0000 32.6112 0.0000
# 6 0.0000 0.0000 0.0000 0.0000 0.0000 -0.1813
#
#
#
# Elastic Compliance Matrix: (Units=1/GPa)
#
#
# Indices 1 2 3 4 5 6 
#
# 1 0.011111 -0.002262 -0.002266 0.000000 0.000000 0.000000
# 2 -0.002262 0.009852 -0.003331 0.000000 0.000000 0.000000
# 3 -0.002266 -0.003331 0.014879 0.000000 0.000000 0.000000
# 4 0.000000 0.000000 0.000000 0.030424 0.000000 0.000000
# 5 0.000000 0.000000 0.000000 0.000000 0.030664 0.000000
# 6 0.000000 0.000000 0.000000 0.000000 0.000000 -5.515424
#
#
# Mechanical properties :
#
#
# Convention : Reuss Voigt Hill
#
# Bulk Modulus (GPa) = 49.69390 51.76707 50.73048
# Shear Modulus (GPa) = -0.92660 27.28114 13.17727
#
# Velocity S-wave (km/s) = -0.66470 3.60668 2.50662
# Velocity P-wave (km/s) = 4.80686 6.48288 5.70673
#
# Compressibility (1/GPa) = 0.02012319
#
# Stress axis : x y z
#
# Youngs Moduli (GPa) = 90.00429 101.50070 67.20983
#
# Poissons Ratio (x) = 0.22960 0.15230
# Poissons Ratio (y) = 0.20360 0.22387
# Poissons Ratio (z) = 0.20396 0.33810
#
# Static dielectric constant tensor:
#      x y z
#    x 3.710330 0.000000 0.000000 
#    y 0.000000 3.837630 0.000000 
#    z 0.000000 0.000000 3.804110 
# 
# 
# High freq. dielectric constant tensor:
#      x y z
#    x 1.819010 0.000000 0.000000 
#    y 0.000000 1.833420 0.000000 
#    z 0.000000 0.000000 1.832370 
# 
# From -- ./inp_files/3894.got.cif
#   From: 2010.03.12/outbox.cif.g09.slc.cpg/sg57_2_cif.got.tgz:3894.got - 2010.04.16 15:48:40.
