data_PCOD8234038
_publ_section_title
;
Structure prediction by ZEFSAII (Michael W. Deem and Ramdas Pophale) SiO2 
 PCOD8234038
Probable space group: P B C M
;
_chemical_formula_sum "Si O2"
_cell_formula_units_Z 56
_cell_length_a 16.331582
_cell_length_b 19.094910
_cell_length_c 8.852332
_cell_angle_alpha 90.000000
_cell_angle_beta 90.000000
_cell_angle_gamma 90.000000
_cell_volume 2760.600517
_symmetry_space_group_name_H-M "P B C M"
_symmetry_group_IT_number 57
_symmetry_cell_setting 'orthorhombic'
loop_
_space_group_symop_operation_xyz
x,y,z
-x,-y,1/2+z
x,1/2-y,-z
-x,1/2+y,1/2-z
-x,-y,-z
x,y,1/2-z
-x,1/2+y,z
x,1/2-y,1/2+z
loop_
_atom_site_type_symbol
_atom_site_label
_atom_site_fract_x
_atom_site_fract_y
_atom_site_fract_z
Si Si1 0.017911 0.680362 0.422631
Si Si2 0.322773 0.915045 0.922734
Si Si3 0.639047 0.826574 0.071190
Si Si4 0.760384 0.942838 0.420654
Si Si5 0.927978 0.541645 0.420195
Si Si6 0.510641 0.076114 0.929431
Si Si7 0.813332 0.175804 0.929439
O O1 0.982337 0.750000 0.500000
O O2 0.044345 0.695977 0.250000
O O3 0.096770 0.653216 0.514147
O O4 0.946291 0.623974 0.430346
O O5 0.325565 0.888359 0.750000
O O6 0.311161 0.998946 0.928118
O O7 0.404966 0.892023 0.007860
O O8 0.247776 0.882156 0.011532
O O9 0.638270 0.818430 0.250000
O O10 0.719686 0.870586 0.019357
O O11 0.559319 0.869706 0.017614
O O12 0.640940 0.750000 0.000000
O O13 0.791156 0.932847 0.250000
O O14 0.838253 0.969572 0.513221
O O15 0.925691 0.514140 0.250000
O O16 0.000000 0.500000 0.500000
O O17 0.512999 0.068463 0.750000
O O18 0.500000 0.000000 0.000000
O O19 0.811192 0.179841 0.750000
O O20 0.788380 0.250000 0.000000
#
# Coordination Sequence:
#
# PCOD8234038 Si02
#       7
#     8   8   8   8   8   8   8
#     4  10  21  38  58  82 114 154 197 245 301 360
#     4  11  22  39  62  89 122 158 199 249 305 361
#     4  10  23  43  64  92 126 163 205 252 307 363
#     4  10  22  41  62  86 121 161 199 249 307 362
#     4  11  24  39  59  89 121 156 203 252 303 362
#     4  11  22  40  64  91 123 160 206 252 305 367
#     4  11  22  37  58  87 119 156 200 247 302 364
#
# _framework density 20.285440999999999
#
# number of rings (size 3 to 8) (size 9 to 14) (size 15 to 20)
#    0.000    1.429    1.429    4.714    0.000    9.714 
#    0.000    4.286    0.000    0.000    0.000    0.000 
#    0.000    0.000    0.000    0.000    0.000    0.000 
#
# Total GULP energy -694499.344990 kJ/mol
# GULP energy per Si atom -12401.774018 kJ/mol
# Density = 2.023927 g / cm^3
# Si number density = 20.285441 Si / 1000 Ang^3
#
#
#
# Elastic Constant Matrix: (Units=GPa)
#
#
# Indices 1 2 3 4 5 6 
#
# 1 104.1822 38.8777 44.7833 0.0000 0.0000 0.0000
# 2 38.8777 76.7292 36.3481 0.0000 0.0000 0.0000
# 3 44.7833 36.3481 133.1262 0.0000 0.0000 0.0000
# 4 0.0000 0.0000 0.0000 37.0604 0.0000 0.0000
# 5 0.0000 0.0000 0.0000 0.0000 32.8400 0.0000
# 6 0.0000 0.0000 0.0000 0.0000 0.0000 33.7584
#
#
#
# Elastic Compliance Matrix: (Units=1/GPa)
#
#
# Indices 1 2 3 4 5 6 
#
# 1 0.012741 -0.005083 -0.002898 0.000000 0.000000 0.000000
# 2 -0.005083 0.016997 -0.002931 0.000000 0.000000 0.000000
# 3 -0.002898 -0.002931 0.009287 0.000000 0.000000 0.000000
# 4 0.000000 0.000000 0.000000 0.026983 0.000000 0.000000
# 5 0.000000 0.000000 0.000000 0.000000 0.030451 0.000000
# 6 0.000000 0.000000 0.000000 0.000000 0.000000 0.029622
#
#
# Mechanical properties :
#
#
# Convention : Reuss Voigt Hill
#
# Bulk Modulus (GPa) = 58.13689 61.56176 59.84933
# Shear Modulus (GPa) = 32.54403 33.66700 33.10551
#
# Velocity S-wave (km/s) = 4.00972 4.07832 4.04416
# Velocity P-wave (km/s) = 7.08229 7.25193 7.16761
#
# Compressibility (1/GPa) = 0.01720078
#
# Stress axis : x y z
#
# Youngs Moduli (GPa) = 78.48572 58.83522 107.67886
#
# Poissons Ratio (x) = 0.29905 0.31209
# Poissons Ratio (y) = 0.39893 0.31559
# Poissons Ratio (z) = 0.22748 0.17244
#
# Static dielectric constant tensor:
#      x y z
#    x 1.533750 0.000000 0.000000 
#    y 0.000000 3.766570 0.000000 
#    z 0.000000 0.000000 3.824180 
# 
# 
# High freq. dielectric constant tensor:
#      x y z
#    x 1.794890 0.000000 0.000000 
#    y 0.000000 1.796080 0.000000 
#    z 0.000000 0.000000 1.800040 
# 
# From -- ./inp_files/5236.got.cif
#   From: 2010.03.12/outbox.cif.g09.slc.cpg/sg57_3_cif.got.tgz:5236.got - 2010.04.16 15:48:40.
