data_PCOD8234339
_publ_section_title
;
Structure prediction by ZEFSAII (Michael W. Deem and Ramdas Pophale) SiO2 
 PCOD8234339
Probable space group: P B C M
;
_chemical_formula_sum "Si O2"
_cell_formula_units_Z 40
_cell_length_a 23.685066
_cell_length_b 8.722155
_cell_length_c 9.700400
_cell_angle_alpha 90.000000
_cell_angle_beta 90.000000
_cell_angle_gamma 90.000000
_cell_volume 2003.955357
_symmetry_space_group_name_H-M "P B C M"
_symmetry_group_IT_number 57
_symmetry_cell_setting 'orthorhombic'
loop_
_space_group_symop_operation_xyz
x,y,z
-x,-y,1/2+z
x,1/2-y,-z
-x,1/2+y,1/2-z
-x,-y,-z
x,y,1/2-z
-x,1/2+y,z
x,1/2-y,1/2+z
loop_
_atom_site_type_symbol
_atom_site_label
_atom_site_fract_x
_atom_site_fract_y
_atom_site_fract_z
Si Si1 0.379184 0.069403 0.016034
Si Si2 0.852172 0.387120 0.095153
Si Si3 0.573351 0.066267 0.250000
Si Si4 0.956288 0.598264 0.087362
Si Si5 0.274888 0.608217 0.907557
Si Si6 0.452608 0.926473 0.250000
O O1 0.315878 0.036430 0.069566
O O2 0.426477 0.005714 0.117301
O O3 0.387401 0.250000 0.000000
O O4 0.387335 0.975740 0.877162
O O5 0.852528 0.322294 0.250000
O O6 0.893993 0.528399 0.080436
O O7 0.789056 0.441184 0.053215
O O8 0.874163 0.250000 0.000000
O O9 0.557488 0.244750 0.250000
O O10 0.519007 0.956715 0.250000
O O11 0.974420 0.620212 0.250000
O O12 0.952134 0.750000 0.000000
O O13 0.000000 0.500000 0.000000
O O14 0.279024 0.662430 0.750000
O O15 0.295190 0.750000 0.000000
#
# Coordination Sequence:
#
# PCOD8234339 Si02
#       6
#     8   8   4   8   8   4
#     4  12  25  41  63  92 125 160 202 253 308 366
#     4   9  20  38  61  89 121 160 203 252 303 365
#     4  12  26  42  68  90 124 158 205 246 309 370
#     4  11  23  39  61  89 125 166 211 262 318 376
#     4  10  21  40  64  90 122 161 206 252 306 368
#     4  12  24  46  64  92 120 162 199 254 303 374
#
# _framework density 19.960522999999998
#
# number of rings (size 3 to 8) (size 9 to 14) (size 15 to 20)
#    0.000    1.200    1.000    5.400    1.400    4.000 
#    0.000    0.000    0.000    0.000    0.000    0.000 
#    0.000    0.000    0.000    0.000    0.000    0.000 
#
# Total GULP energy -495995.065908 kJ/mol
# GULP energy per Si atom -12399.876648 kJ/mol
# Density = 1.991509 g / cm^3
# Si number density = 19.960523 Si / 1000 Ang^3
#
#
#
# Elastic Constant Matrix: (Units=GPa)
#
#
# Indices 1 2 3 4 5 6 
#
# 1 92.3707 36.0425 38.8749 0.0000 0.0000 0.0000
# 2 36.0425 136.8909 53.6216 0.0000 0.0000 0.0000
# 3 38.8749 53.6216 140.2972 0.0000 0.0000 0.0000
# 4 0.0000 0.0000 0.0000 36.4136 0.0000 0.0000
# 5 0.0000 0.0000 0.0000 0.0000 31.8950 0.0000
# 6 0.0000 0.0000 0.0000 0.0000 0.0000 29.9068
#
#
#
# Elastic Compliance Matrix: (Units=1/GPa)
#
#
# Indices 1 2 3 4 5 6 
#
# 1 0.012863 -0.002341 -0.002669 0.000000 0.000000 0.000000
# 2 -0.002341 0.009017 -0.002798 0.000000 0.000000 0.000000
# 3 -0.002669 -0.002798 0.008937 0.000000 0.000000 0.000000
# 4 0.000000 0.000000 0.000000 0.027462 0.000000 0.000000
# 5 0.000000 0.000000 0.000000 0.000000 0.031353 0.000000
# 6 0.000000 0.000000 0.000000 0.000000 0.000000 0.033437
#
#
# Mechanical properties :
#
#
# Convention : Reuss Voigt Hill
#
# Bulk Modulus (GPa) = 65.78748 69.62634 67.70691
# Shear Modulus (GPa) = 34.78197 35.71106 35.24652
#
# Velocity S-wave (km/s) = 4.17890 4.23435 4.20671
# Velocity P-wave (km/s) = 7.50431 7.67229 7.58876
#
# Compressibility (1/GPa) = 0.01520046
#
# Stress axis : x y z
#
# Youngs Moduli (GPa) = 77.74318 110.89685 111.89820
#
# Poissons Ratio (x) = 0.25962 0.29870
# Poissons Ratio (y) = 0.18200 0.31306
# Poissons Ratio (z) = 0.20753 0.31026
#
# Static dielectric constant tensor:
#      x y z
#    x 4.176640 0.000000 0.000000 
#    y 0.000000 3.368620 0.000000 
#    z 0.000000 0.000000 4.156270 
# 
# 
# High freq. dielectric constant tensor:
#      x y z
#    x 1.793570 0.000000 0.000000 
#    y 0.000000 1.769360 0.000000 
#    z 0.000000 0.000000 1.799650 
# 
# From -- ./inp_files/8934.got.cif
#   From: 2010.03.12/outbox.cif.g09.slc.cpg/sg57_5_cif.got.tgz:8934.got - 2010.04.16 15:48:40.
