data_PCOD8234181
_publ_section_title
;
Structure prediction by ZEFSAII (Michael W. Deem and Ramdas Pophale) SiO2 
 PCOD8234181
Probable space group: P B C M
;
_chemical_formula_sum "Si O2"
_cell_formula_units_Z 48
_cell_length_a 15.131741
_cell_length_b 9.285332
_cell_length_c 16.438460
_cell_angle_alpha 90.000000
_cell_angle_beta 90.000000
_cell_angle_gamma 90.000000
_cell_volume 2309.656873
_symmetry_space_group_name_H-M "P B C M"
_symmetry_group_IT_number 57
_symmetry_cell_setting 'orthorhombic'
loop_
_space_group_symop_operation_xyz
x,y,z
-x,-y,1/2+z
x,1/2-y,-z
-x,1/2+y,1/2-z
-x,-y,-z
x,y,1/2-z
-x,1/2+y,z
x,1/2-y,1/2+z
loop_
_atom_site_type_symbol
_atom_site_label
_atom_site_fract_x
_atom_site_fract_y
_atom_site_fract_z
Si Si1 0.755136 0.403052 0.346836
Si Si2 0.270634 0.920010 0.654786
Si Si3 0.430807 0.103985 0.595275
Si Si4 0.922248 0.019347 0.343313
Si Si5 0.407081 0.420934 0.905264
Si Si6 0.936732 0.317804 0.410882
O O1 0.760002 0.426864 0.250000
O O2 0.718885 0.245985 0.371670
O O3 0.691303 0.522254 0.386941
O O4 0.852535 0.416410 0.385958
O O5 0.270237 0.930281 0.750000
O O6 0.178608 0.989479 0.624199
O O7 0.350460 0.005392 0.619140
O O8 0.419920 0.262745 0.634897
O O9 0.428410 0.105338 0.498718
O O10 0.521700 0.034993 0.629806
O O11 0.933806 0.968190 0.250000
O O12 0.949977 0.187061 0.347708
O O13 0.978333 0.920697 0.404486
O O14 0.926395 0.250000 0.500000
#
# Coordination Sequence:
#
# PCOD8234181 Si02
#       6
#     8   8   8   8   8   8
#     4  10  22  39  60  89 120 161 206 249 312 370
#     4   9  20  37  59  83 116 158 199 248 304 362
#     4  10  21  39  58  89 118 155 204 246 306 364
#     4  10  21  40  61  86 123 165 204 249 312 373
#     4  10  22  37  60  86 118 158 197 251 303 366
#     4  11  23  39  62  94 122 162 207 262 304 367
#
# _framework density 20.782306999999999
#
# number of rings (size 3 to 8) (size 9 to 14) (size 15 to 20)
#    0.000    2.000    0.000    4.000    4.667    4.000 
#    3.000    1.667    0.000    0.000    0.000    0.000 
#    0.000    0.000    0.000    0.000    0.000    0.000 
#
# Total GULP energy -595103.480435 kJ/mol
# GULP energy per Si atom -12397.989176 kJ/mol
# Density = 2.073501 g / cm^3
# Si number density = 20.782307 Si / 1000 Ang^3
#
#
#
# Elastic Constant Matrix: (Units=GPa)
#
#
# Indices 1 2 3 4 5 6 
#
# 1 99.8598 33.0586 20.8811 0.0000 0.0000 0.0000
# 2 33.0586 66.7390 17.0203 0.0000 0.0000 0.0000
# 3 20.8811 17.0203 43.5780 0.0000 0.0000 0.0000
# 4 0.0000 0.0000 0.0000 25.2830 0.0000 0.0000
# 5 0.0000 0.0000 0.0000 0.0000 39.7356 0.0000
# 6 0.0000 0.0000 0.0000 0.0000 0.0000 49.4213
#
#
#
# Elastic Compliance Matrix: (Units=1/GPa)
#
#
# Indices 1 2 3 4 5 6 
#
# 1 0.012573 -0.005211 -0.003990 0.000000 0.000000 0.000000
# 2 -0.005211 0.018801 -0.004846 0.000000 0.000000 0.000000
# 3 -0.003990 -0.004846 0.026752 0.000000 0.000000 0.000000
# 4 0.000000 0.000000 0.000000 0.039552 0.000000 0.000000
# 5 0.000000 0.000000 0.000000 0.000000 0.025166 0.000000
# 6 0.000000 0.000000 0.000000 0.000000 0.000000 0.020234
#
#
# Mechanical properties :
#
#
# Convention : Reuss Voigt Hill
#
# Bulk Modulus (GPa) = 33.29681 39.12189 36.20935
# Shear Modulus (GPa) = 27.59650 32.16911 29.88280
#
# Velocity S-wave (km/s) = 3.64797 3.93862 3.79607
# Velocity P-wave (km/s) = 5.81378 6.28880 6.05595
#
# Compressibility (1/GPa) = 0.03003291
#
# Stress axis : x y z
#
# Youngs Moduli (GPa) = 79.53394 53.18952 37.38058
#
# Poissons Ratio (x) = 0.27715 0.14913
# Poissons Ratio (y) = 0.41442 0.18116
# Poissons Ratio (z) = 0.31731 0.25777
#
# Static dielectric constant tensor:
#      x y z
#    x 3.712450 0.000000 0.000000 
#    y 0.000000 3.876360 0.000000 
#    z 0.000000 0.000000 3.834030 
# 
# 
# High freq. dielectric constant tensor:
#      x y z
#    x 1.820280 0.000000 0.000000 
#    y 0.000000 1.814610 0.000000 
#    z 0.000000 0.000000 1.801580 
# 
# From -- ./inp_files/18953.got.cif
#   From: 2010.03.12/outbox.cif.g09.slc.cpg/sg57_10_cif.got.tgz:18953.got - 2010.04.16 15:48:40.
