data_PCOD8234861
_publ_section_title
;
Structure prediction by ZEFSAII (Michael W. Deem and Ramdas Pophale) SiO2 
 PCOD8234861
Probable space group: P B C M
;
_chemical_formula_sum "Si O2"
_cell_formula_units_Z 48
_cell_length_a 7.905748
_cell_length_b 15.347712
_cell_length_c 18.623137
_cell_angle_alpha 90.000000
_cell_angle_beta 90.000000
_cell_angle_gamma 90.000000
_cell_volume 2259.640999
_symmetry_space_group_name_H-M "P B C M"
_symmetry_group_IT_number 57
_symmetry_cell_setting 'orthorhombic'
loop_
_space_group_symop_operation_xyz
x,y,z
-x,-y,1/2+z
x,1/2-y,-z
-x,1/2+y,1/2-z
-x,-y,-z
x,y,1/2-z
-x,1/2+y,z
x,1/2-y,1/2+z
loop_
_atom_site_type_symbol
_atom_site_label
_atom_site_fract_x
_atom_site_fract_y
_atom_site_fract_z
Si Si1 0.201045 0.858267 0.387331
Si Si2 0.186023 0.531535 0.750000
Si Si3 0.687472 0.469855 0.979375
Si Si4 0.180675 0.371846 0.100874
Si Si5 0.627854 0.750000 0.500000
Si Si6 0.486701 0.098782 0.250000
Si Si7 0.216029 0.457137 0.250000
Si Si8 0.599339 0.322395 0.609550
O O1 0.246932 0.912696 0.317365
O O2 0.237050 0.919557 0.453826
O O3 0.299496 0.767530 0.387233
O O4 0.005431 0.835451 0.388113
O O5 0.301488 0.445114 0.750000
O O6 0.982922 0.510521 0.750000
O O7 0.804895 0.551565 0.958080
O O8 0.708165 0.408631 0.908146
O O9 0.500000 0.500000 0.000000
O O10 0.254122 0.399838 0.178731
O O11 0.275359 0.289245 0.068023
O O12 0.516730 0.675957 0.462024
O O13 0.495060 0.162797 0.318057
O O14 0.650720 0.036011 0.250000
#
# Coordination Sequence:
#
# PCOD8234861 Si02
#       8
#     8   4   8   8   4   4   4   8
#     4  11  24  44  67  97 143 178 226 289 346 404
#     4  10  25  45  69 101 134 179 239 272 342 425
#     4  12  21  41  68  98 132 177 230 279 333 419
#     4  11  25  44  70  99 135 183 225 286 351 408
#     4  12  26  42  66 104 138 172 236 278 342 426
#     4  12  25  44  75  98 137 190 224 285 353 400
#     4  10  24  47  70 101 131 181 231 283 335 417
#     4  12  24  42  67 102 135 179 231 282 340 417
#
# _framework density 21.24231
#
# number of rings (size 3 to 8) (size 9 to 14) (size 15 to 20)
#    0.000    0.667    5.000    2.000    4.667    0.667 
#    3.000    0.000    0.000    0.000    0.000    0.000 
#    0.000    0.000    0.000    0.000    0.000    0.000 
#
# Total GULP energy -594950.441849 kJ/mol
# GULP energy per Si atom -12394.800872 kJ/mol
# Density = 2.119396 g / cm^3
# Si number density = 21.242310 Si / 1000 Ang^3
#
#
#
# Elastic Constant Matrix: (Units=GPa)
#
#
# Indices 1 2 3 4 5 6 
#
# 1 64.2158 27.3914 27.4920 0.0000 0.0000 0.0000
# 2 27.3914 89.2183 32.2423 0.0000 0.0000 0.0000
# 3 27.4920 32.2423 131.6457 0.0000 0.0000 0.0000
# 4 0.0000 0.0000 0.0000 46.6244 0.0000 0.0000
# 5 0.0000 0.0000 0.0000 0.0000 32.5313 0.0000
# 6 0.0000 0.0000 0.0000 0.0000 0.0000 32.4269
#
#
#
# Elastic Compliance Matrix: (Units=1/GPa)
#
#
# Indices 1 2 3 4 5 6 
#
# 1 0.018788 -0.004773 -0.002755 0.000000 0.000000 0.000000
# 2 -0.004773 0.013509 -0.002312 0.000000 0.000000 0.000000
# 3 -0.002755 -0.002312 0.008738 0.000000 0.000000 0.000000
# 4 0.000000 0.000000 0.000000 0.021448 0.000000 0.000000
# 5 0.000000 0.000000 0.000000 0.000000 0.030740 0.000000
# 6 0.000000 0.000000 0.000000 0.000000 0.000000 0.030839
#
#
# Mechanical properties :
#
#
# Convention : Reuss Voigt Hill
#
# Bulk Modulus (GPa) = 46.82495 51.03680 48.93087
# Shear Modulus (GPa) = 33.14382 35.51345 34.32864
#
# Velocity S-wave (km/s) = 3.95432 4.09323 4.02437
# Velocity P-wave (km/s) = 6.55286 6.81304 6.68422
#
# Compressibility (1/GPa) = 0.02135614
#
# Stress axis : x y z
#
# Youngs Moduli (GPa) = 53.22674 74.02343 114.44746
#
# Poissons Ratio (x) = 0.35328 0.31525
# Poissons Ratio (y) = 0.25403 0.26460
# Poissons Ratio (z) = 0.14662 0.17114
#
# Static dielectric constant tensor:
#      x y z
#    x 2.839990 0.000000 0.000000 
#    y 0.000000 3.820120 0.000000 
#    z 0.000000 0.000000 4.206290 
# 
# 
# High freq. dielectric constant tensor:
#      x y z
#    x 1.825440 0.000000 0.000000 
#    y 0.000000 1.839060 0.000000 
#    z 0.000000 0.000000 1.857450 
# 
# From -- ./inp_files/21029.got.cif
#   From: 2010.03.12/outbox.cif.g09.slc.cpg/sg57_11_cif.got.tgz:21029.got - 2010.04.16 15:48:40.
