data_PCOD8234983
_publ_section_title
;
Structure prediction by ZEFSAII (Michael W. Deem and Ramdas Pophale) SiO2 
 PCOD8234983
Probable space group: P B C M
;
_chemical_formula_sum "Si O2"
_cell_formula_units_Z 32
_cell_length_a 9.407417
_cell_length_b 10.185643
_cell_length_c 17.162436
_cell_angle_alpha 90.000000
_cell_angle_beta 90.000000
_cell_angle_gamma 90.000000
_cell_volume 1644.514762
_symmetry_space_group_name_H-M "P B C M"
_symmetry_group_IT_number 57
_symmetry_cell_setting 'orthorhombic'
loop_
_space_group_symop_operation_xyz
x,y,z
-x,-y,1/2+z
x,1/2-y,-z
-x,1/2+y,1/2-z
-x,-y,-z
x,y,1/2-z
-x,1/2+y,z
x,1/2-y,1/2+z
loop_
_atom_site_type_symbol
_atom_site_label
_atom_site_fract_x
_atom_site_fract_y
_atom_site_fract_z
Si Si1 0.887699 0.738978 0.406502
Si Si2 0.088470 0.520108 0.422385
Si Si3 0.415619 0.522694 0.421319
Si Si4 0.589010 0.744829 0.341904
O O1 0.871125 0.750000 0.500000
O O2 0.739982 0.688371 0.371177
O O3 0.013717 0.642021 0.378202
O O4 0.921544 0.884885 0.372759
O O5 0.251574 0.551648 0.441748
O O6 0.000000 0.500000 0.500000
O O7 0.500000 0.500000 0.500000
O O8 0.468587 0.651288 0.376764
O O9 0.434751 0.394196 0.368448
O O10 0.580011 0.738956 0.250000
#
# Coordination Sequence:
#
# PCOD8234983 Si02
#       4
#     8   8   8   8
#     4   9  18  35  55  78 108 146 189 235 281 333
#     4   9  18  32  55  83 109 139 189 242 279 326
#     4  11  22  38  62  88 114 152 197 238 283 342
#     4  11  23  39  56  83 120 153 186 237 293 343
#
# _framework density 19.458628999999998
#
# number of rings (size 3 to 8) (size 9 to 14) (size 15 to 20)
#    0.000    2.000    0.000    6.000    0.000    8.000 
#    0.000    6.250    0.000    0.000    0.000    0.000 
#    0.000    0.000    0.000    0.000    0.000    0.000 
#
# Total GULP energy -396676.088953 kJ/mol
# GULP energy per Si atom -12396.127780 kJ/mol
# Density = 1.941434 g / cm^3
# Si number density = 19.458629 Si / 1000 Ang^3
#
#
#
# Elastic Constant Matrix: (Units=GPa)
#
#
# Indices 1 2 3 4 5 6 
#
# 1 168.2605 78.2470 34.4713 0.0000 0.0000 0.0000
# 2 78.2470 103.9100 17.4490 0.0000 0.0000 0.0000
# 3 34.4713 17.4490 83.5751 0.0000 0.0000 0.0000
# 4 0.0000 0.0000 0.0000 24.8405 0.0000 0.0000
# 5 0.0000 0.0000 0.0000 0.0000 13.6287 0.0000
# 6 0.0000 0.0000 0.0000 0.0000 0.0000 43.2991
#
#
#
# Elastic Compliance Matrix: (Units=1/GPa)
#
#
# Indices 1 2 3 4 5 6 
#
# 1 0.009644 -0.006834 -0.002551 0.000000 0.000000 0.000000
# 2 -0.006834 0.014816 -0.000275 0.000000 0.000000 0.000000
# 3 -0.002551 -0.000275 0.013075 0.000000 0.000000 0.000000
# 4 0.000000 0.000000 0.000000 0.040257 0.000000 0.000000
# 5 0.000000 0.000000 0.000000 0.000000 0.073375 0.000000
# 6 0.000000 0.000000 0.000000 0.000000 0.000000 0.023095
#
#
# Mechanical properties :
#
#
# Convention : Reuss Voigt Hill
#
# Bulk Modulus (GPa) = 54.89729 68.45335 61.67532
# Shear Modulus (GPa) = 25.04375 31.39223 28.21799
#
# Velocity S-wave (km/s) = 3.59141 4.02092 3.81222
# Velocity P-wave (km/s) = 6.74323 7.53740 7.15135
#
# Compressibility (1/GPa) = 0.01821583
#
# Stress axis : x y z
#
# Youngs Moduli (GPa) = 103.69586 67.49611 76.48324
#
# Poissons Ratio (x) = 0.46124 0.19510
# Poissons Ratio (y) = 0.70861 0.02101
# Poissons Ratio (z) = 0.26451 0.01854
#
# Static dielectric constant tensor:
#      x y z
#    x 3.855530 0.000000 0.000000 
#    y 0.000000 4.319210 0.000000 
#    z 0.000000 0.000000 3.061510 
# 
# 
# High freq. dielectric constant tensor:
#      x y z
#    x 1.769270 0.000000 0.000000 
#    y 0.000000 1.779710 0.000000 
#    z 0.000000 0.000000 1.719120 
# 
# From -- ./inp_files/15504.got.cif
#   From: 2010.03.12/outbox.cif.g09.slc.cpg/sg57_8_cif.got.tgz:15504.got - 2010.04.16 15:48:40.
