data_PCOD8234058
_publ_section_title
;
Structure prediction by ZEFSAII (Michael W. Deem and Ramdas Pophale) SiO2 
 PCOD8234058
Probable space group: P B C M
;
_chemical_formula_sum "Si O2"
_cell_formula_units_Z 48
_cell_length_a 14.424449
_cell_length_b 20.339215
_cell_length_c 8.833632
_cell_angle_alpha 90.000000
_cell_angle_beta 90.000000
_cell_angle_gamma 90.000000
_cell_volume 2591.628354
_symmetry_space_group_name_H-M "P B C M"
_symmetry_group_IT_number 57
_symmetry_cell_setting 'orthorhombic'
loop_
_space_group_symop_operation_xyz
x,y,z
-x,-y,1/2+z
x,1/2-y,-z
-x,1/2+y,1/2-z
-x,-y,-z
x,y,1/2-z
-x,1/2+y,z
x,1/2-y,1/2+z
loop_
_atom_site_type_symbol
_atom_site_label
_atom_site_fract_x
_atom_site_fract_y
_atom_site_fract_z
Si Si1 0.940590 0.680695 0.571886
Si Si2 0.442999 0.941249 0.926934
Si Si3 0.739148 0.019414 0.928785
Si Si4 0.942822 0.058301 0.572399
Si Si5 0.743860 0.623556 0.929531
Si Si6 0.566891 0.816221 0.927575
O O1 0.966272 0.750000 0.500000
O O2 0.942344 0.689477 0.750000
O O3 0.840297 0.655608 0.517629
O O4 0.017373 0.628161 0.516516
O O5 0.434018 0.955321 0.750000
O O6 0.493829 0.873262 0.961653
O O7 0.341601 0.936079 0.000587
O O8 0.500000 0.000000 0.000000
O O9 0.725792 0.014758 0.750000
O O10 0.835591 0.053555 0.974927
O O11 0.732675 0.946865 0.994822
O O12 0.956282 0.050852 0.750000
O O13 0.000000 0.000000 0.500000
O O14 0.738216 0.615383 0.750000
O O15 0.663533 0.670569 0.988880
O O16 0.585257 0.807865 0.750000
O O17 0.524840 0.750000 0.000000
#
# Coordination Sequence:
#
# PCOD8234058 Si02
#       6
#     8   8   8   8   8   8
#     4  10  22  38  56  84 118 154 194 237 291 348
#     4  11  23  39  61  87 118 154 196 240 289 349
#     4  11  22  36  59  89 119 152 195 244 293 345
#     4  10  21  38  59  85 116 152 195 241 288 344
#     4  11  21  35  59  87 120 155 191 240 294 351
#     4  11  24  40  59  86 119 155 196 240 294 352
#
# _framework density 18.521173000000001
#
# number of rings (size 3 to 8) (size 9 to 14) (size 15 to 20)
#    0.000    1.333    3.333    2.500    0.000    6.000 
#    0.000    0.833    0.000    4.000    0.000    0.000 
#    0.000    0.000    0.000    0.000    0.000    0.000 
#
# Total GULP energy -595431.082471 kJ/mol
# GULP energy per Si atom -12404.814218 kJ/mol
# Density = 1.847902 g / cm^3
# Si number density = 18.521173 Si / 1000 Ang^3
#
#
#
# Elastic Constant Matrix: (Units=GPa)
#
#
# Indices 1 2 3 4 5 6 
#
# 1 147.6826 72.4047 56.5408 0.0000 0.0000 0.0000
# 2 72.4047 127.6100 41.4809 0.0000 0.0000 0.0000
# 3 56.5408 41.4809 68.3118 0.0000 0.0000 0.0000
# 4 0.0000 0.0000 0.0000 33.8847 0.0000 0.0000
# 5 0.0000 0.0000 0.0000 0.0000 28.1923 0.0000
# 6 0.0000 0.0000 0.0000 0.0000 0.0000 19.1210
#
#
#
# Elastic Compliance Matrix: (Units=1/GPa)
#
#
# Indices 1 2 3 4 5 6 
#
# 1 0.011530 -0.004286 -0.006941 0.000000 0.000000 0.000000
# 2 -0.004286 0.011357 -0.003349 0.000000 0.000000 0.000000
# 3 -0.006941 -0.003349 0.022417 0.000000 0.000000 0.000000
# 4 0.000000 0.000000 0.000000 0.029512 0.000000 0.000000
# 5 0.000000 0.000000 0.000000 0.000000 0.035471 0.000000
# 6 0.000000 0.000000 0.000000 0.000000 0.000000 0.052299
#
#
# Mechanical properties :
#
#
# Convention : Reuss Voigt Hill
#
# Bulk Modulus (GPa) = 61.90816 76.05078 68.97947
# Shear Modulus (GPa) = 25.36544 27.78482 26.57513
#
# Velocity S-wave (km/s) = 3.70474 3.87740 3.79205
# Velocity P-wave (km/s) = 7.19710 7.82281 7.51647
#
# Compressibility (1/GPa) = 0.01615296
#
# Stress axis : x y z
#
# Youngs Moduli (GPa) = 86.73283 88.05436 44.60933
#
# Poissons Ratio (x) = 0.37738 0.30961
# Poissons Ratio (y) = 0.37171 0.14939
# Poissons Ratio (z) = 0.60197 0.29488
#
# Static dielectric constant tensor:
#      x y z
#    x 3.716270 0.000000 0.000000 
#    y 0.000000 3.459490 0.000000 
#    z 0.000000 0.000000 3.479490 
# 
# 
# High freq. dielectric constant tensor:
#      x y z
#    x 1.723880 0.000000 0.000000 
#    y 0.000000 1.720050 0.000000 
#    z 0.000000 0.000000 1.728060 
# 
# From -- ./inp_files/4554.got.cif
#   From: 2010.03.12/outbox.cif.g09.slc.cpg/sg57_3_cif.got.tgz:4554.got - 2010.04.16 15:48:40.
