data_PCOD8234469
_publ_section_title
;
Structure prediction by ZEFSAII (Michael W. Deem and Ramdas Pophale) SiO2 
 PCOD8234469
Probable space group: P B C M
;
_chemical_formula_sum "Si O2"
_cell_formula_units_Z 52
_cell_length_a 12.894142
_cell_length_b 21.726705
_cell_length_c 9.001587
_cell_angle_alpha 90.000000
_cell_angle_beta 90.000000
_cell_angle_gamma 90.000000
_cell_volume 2521.769569
_symmetry_space_group_name_H-M "P B C M"
_symmetry_group_IT_number 57
_symmetry_cell_setting 'orthorhombic'
loop_
_space_group_symop_operation_xyz
x,y,z
-x,-y,1/2+z
x,1/2-y,-z
-x,1/2+y,1/2-z
-x,-y,-z
x,y,1/2-z
-x,1/2+y,z
x,1/2-y,1/2+z
loop_
_atom_site_type_symbol
_atom_site_label
_atom_site_fract_x
_atom_site_fract_y
_atom_site_fract_z
Si Si1 0.911698 0.172399 0.914335
Si Si2 0.386445 0.929620 0.423046
Si Si3 0.008660 0.436527 0.919664
Si Si4 0.292724 0.809571 0.926341
Si Si5 0.095879 0.250000 0.000000
Si Si6 0.373377 0.055054 0.921331
Si Si7 0.218100 0.132584 0.411577
O O1 0.862473 0.164707 0.750000
O O2 0.016097 0.213395 0.893487
O O3 0.827883 0.199127 0.029460
O O4 0.937849 0.106812 0.981706
O O5 0.358046 0.925377 0.250000
O O6 0.335816 0.873148 0.509806
O O7 0.508779 0.926029 0.451675
O O8 0.342506 0.994258 0.485612
O O9 0.967473 0.438678 0.750000
O O10 0.127100 0.416410 0.924611
O O11 0.000000 0.500000 0.000000
O O12 0.306378 0.807902 0.750000
O O13 0.350880 0.750000 0.000000
O O14 0.172149 0.298585 0.922943
O O15 0.353437 0.039994 0.750000
O O16 0.304301 0.114175 0.967552
O O17 0.271260 0.128038 0.250000
#
# Coordination Sequence:
#
# PCOD8234469 Si02
#       7
#     8   8   8   8   4   8   8
#     4  11  22  38  62  87 120 162 205 252 307 365
#     4  10  22  43  68  93 126 163 206 258 313 373
#     4  10  22  38  56  84 121 159 204 254 306 365
#     4  12  25  41  64  94 126 163 208 254 308 370
#     4  10  22  40  64  88 122 166 216 254 308 368
#     4  10  22  41  67  97 125 161 206 255 316 377
#     4  10  22  39  61  89 122 163 210 257 311 373
#
# _framework density 20.620442000000001
#
# number of rings (size 3 to 8) (size 9 to 14) (size 15 to 20)
#    0.000    1.538    0.769    3.692    2.154    6.769 
#    1.385    0.000    0.000    0.000    0.000    0.000 
#    0.000    0.000    0.000    0.000    0.000    0.000 
#
# Total GULP energy -644561.423632 kJ/mol
# GULP energy per Si atom -12395.411993 kJ/mol
# Density = 2.057351 g / cm^3
# Si number density = 20.620442 Si / 1000 Ang^3
#
#
#
# Elastic Constant Matrix: (Units=GPa)
#
#
# Indices 1 2 3 4 5 6 
#
# 1 56.4822 47.7354 36.7243 0.0000 0.0000 0.0000
# 2 47.7354 155.3704 61.4324 0.0000 0.0000 0.0000
# 3 36.7243 61.4324 153.5900 0.0000 0.0000 0.0000
# 4 0.0000 0.0000 0.0000 22.3506 0.0000 0.0000
# 5 0.0000 0.0000 0.0000 0.0000 29.7258 0.0000
# 6 0.0000 0.0000 0.0000 0.0000 0.0000 28.6709
#
#
#
# Elastic Compliance Matrix: (Units=1/GPa)
#
#
# Indices 1 2 3 4 5 6 
#
# 1 0.025412 -0.006420 -0.003508 0.000000 0.000000 0.000000
# 2 -0.006420 0.009267 -0.002172 0.000000 0.000000 0.000000
# 3 -0.003508 -0.002172 0.008218 0.000000 0.000000 0.000000
# 4 0.000000 0.000000 0.000000 0.044742 0.000000 0.000000
# 5 0.000000 0.000000 0.000000 0.000000 0.033641 0.000000
# 6 0.000000 0.000000 0.000000 0.000000 0.000000 0.034879
#
#
# Mechanical properties :
#
#
# Convention : Reuss Voigt Hill
#
# Bulk Modulus (GPa) = 53.48367 73.02522 63.25444
# Shear Modulus (GPa) = 26.79659 30.78616 28.79137
#
# Velocity S-wave (km/s) = 3.60879 3.86812 3.74070
# Velocity P-wave (km/s) = 6.58468 7.44585 7.02847
#
# Compressibility (1/GPa) = 0.01869730
#
# Stress axis : x y z
#
# Youngs Moduli (GPa) = 39.35187 107.90480 121.68042
#
# Poissons Ratio (x) = 0.69278 0.42687
# Poissons Ratio (y) = 0.25265 0.26424
# Poissons Ratio (z) = 0.13805 0.23433
#
# Static dielectric constant tensor:
#      x y z
#    x 3.628730 0.000000 0.000000 
#    y 0.000000 2.167180 0.000000 
#    z 0.000000 0.000000 4.047550 
# 
# 
# High freq. dielectric constant tensor:
#      x y z
#    x 1.788180 0.000000 0.000000 
#    y 0.000000 1.822490 0.000000 
#    z 0.000000 0.000000 1.817020 
# 
# From -- ./inp_files/5037.got.cif
#   From: 2010.03.12/outbox.cif.g09.slc.cpg/sg57_3_cif.got.tgz:5037.got - 2010.04.16 15:48:40.
