data_PCOD8234611
_publ_section_title
;
Structure prediction by ZEFSAII (Michael W. Deem and Ramdas Pophale) SiO2 
 PCOD8234611
Probable space group: P B C M
;
_chemical_formula_sum "Si O2"
_cell_formula_units_Z 40
_cell_length_a 10.093887
_cell_length_b 22.540156
_cell_length_c 8.787143
_cell_angle_alpha 90.000000
_cell_angle_beta 90.000000
_cell_angle_gamma 90.000000
_cell_volume 1999.231335
_symmetry_space_group_name_H-M "P B C M"
_symmetry_group_IT_number 57
_symmetry_cell_setting 'orthorhombic'
loop_
_space_group_symop_operation_xyz
x,y,z
-x,-y,1/2+z
x,1/2-y,-z
-x,1/2+y,1/2-z
-x,-y,-z
x,y,1/2-z
-x,1/2+y,z
x,1/2-y,1/2+z
loop_
_atom_site_type_symbol
_atom_site_label
_atom_site_fract_x
_atom_site_fract_y
_atom_site_fract_z
Si Si1 0.237476 0.131786 0.430426
Si Si2 0.859425 0.513183 0.925084
Si Si3 0.010514 0.689603 0.928691
Si Si4 0.514359 0.185748 0.429092
Si Si5 0.228508 0.615057 0.076012
O O1 0.222785 0.132102 0.250000
O O2 0.216130 0.065480 0.489402
O O3 0.132613 0.176960 0.501177
O O4 0.380246 0.154630 0.486009
O O5 0.883102 0.531383 0.750000
O O6 0.764392 0.455951 0.938258
O O7 0.000000 0.500000 0.000000
O O8 0.997279 0.696382 0.750000
O O9 0.067953 0.750000 0.000000
O O10 0.109730 0.636695 0.969118
O O11 0.534113 0.250000 0.500000
O O12 0.511715 0.193866 0.250000
O O13 0.634140 0.143145 0.481037
O O14 0.197666 0.633766 0.250000
#
# Coordination Sequence:
#
# PCOD8234611 Si02
#       5
#     8   8   8   8   8
#     4  11  23  40  62  89 124 162 205 255 306 363
#     4  11  22  38  63  92 126 162 206 256 308 365
#     4  12  24  38  60  89 120 158 207 255 308 367
#     4  10  23  42  63  89 123 163 204 253 310 367
#     4  10  22  41  63  89 123 161 203 254 309 365
#
# _framework density 20.00769
#
# number of rings (size 3 to 8) (size 9 to 14) (size 15 to 20)
#    0.000    1.200    2.000    4.200    0.000    7.200 
#    0.000    0.000    0.000    0.000    0.000    0.000 
#    0.000    0.000    0.000    0.000    0.000    0.000 
#
# Total GULP energy -496240.114216 kJ/mol
# GULP energy per Si atom -12406.002855 kJ/mol
# Density = 1.996215 g / cm^3
# Si number density = 20.007690 Si / 1000 Ang^3
#
#
#
# Elastic Constant Matrix: (Units=GPa)
#
#
# Indices 1 2 3 4 5 6 
#
# 1 109.7890 24.0765 31.5436 0.0000 0.0000 0.0000
# 2 24.0765 102.2566 29.0312 0.0000 0.0000 0.0000
# 3 31.5436 29.0312 98.2360 0.0000 0.0000 0.0000
# 4 0.0000 0.0000 0.0000 38.0736 0.0000 0.0000
# 5 0.0000 0.0000 0.0000 0.0000 12.4797 0.0000
# 6 0.0000 0.0000 0.0000 0.0000 0.0000 33.0201
#
#
#
# Elastic Compliance Matrix: (Units=1/GPa)
#
#
# Indices 1 2 3 4 5 6 
#
# 1 0.010274 -0.001618 -0.002821 0.000000 0.000000 0.000000
# 2 -0.001618 0.010930 -0.002710 0.000000 0.000000 0.000000
# 3 -0.002821 -0.002710 0.011886 0.000000 0.000000 0.000000
# 4 0.000000 0.000000 0.000000 0.026265 0.000000 0.000000
# 5 0.000000 0.000000 0.000000 0.000000 0.080130 0.000000
# 6 0.000000 0.000000 0.000000 0.000000 0.000000 0.030285
#
#
# Mechanical properties :
#
#
# Convention : Reuss Voigt Hill
#
# Bulk Modulus (GPa) = 53.21630 53.28713 53.25172
# Shear Modulus (GPa) = 26.26996 31.75669 29.01333
#
# Velocity S-wave (km/s) = 3.62746 3.98832 3.81216
# Velocity P-wave (km/s) = 6.64833 6.92099 6.78603
#
# Compressibility (1/GPa) = 0.01879124
#
# Stress axis : x y z
#
# Youngs Moduli (GPa) = 97.33638 91.49273 84.13049
#
# Poissons Ratio (x) = 0.14805 0.23730
# Poissons Ratio (y) = 0.15750 0.22803
# Poissons Ratio (z) = 0.27455 0.24799
#
# Static dielectric constant tensor:
#      x y z
#    x 3.746400 0.000000 0.000000 
#    y 0.000000 3.823770 0.000000 
#    z 0.000000 0.000000 3.662540 
# 
# 
# High freq. dielectric constant tensor:
#      x y z
#    x 1.780620 0.000000 0.000000 
#    y 0.000000 1.797010 0.000000 
#    z 0.000000 0.000000 1.784970 
# 
# From -- ./inp_files/1509.got.cif
#   From: 2010.03.12/outbox.cif.g09.slc.cpg/sg57_1_cif.got.tgz:1509.got - 2010.04.16 15:48:40.
