data_PCOD8234753
_publ_section_title
;
Structure prediction by ZEFSAII (Michael W. Deem and Ramdas Pophale) SiO2 
 PCOD8234753
Probable space group: P B C M
;
_chemical_formula_sum "Si O2"
_cell_formula_units_Z 40
_cell_length_a 11.160966
_cell_length_b 10.014667
_cell_length_c 16.175517
_cell_angle_alpha 90.000000
_cell_angle_beta 90.000000
_cell_angle_gamma 90.000000
_cell_volume 1807.991851
_symmetry_space_group_name_H-M "P B C M"
_symmetry_group_IT_number 57
_symmetry_cell_setting 'orthorhombic'
loop_
_space_group_symop_operation_xyz
x,y,z
-x,-y,1/2+z
x,1/2-y,-z
-x,1/2+y,1/2-z
-x,-y,-z
x,y,1/2-z
-x,1/2+y,z
x,1/2-y,1/2+z
loop_
_atom_site_type_symbol
_atom_site_label
_atom_site_fract_x
_atom_site_fract_y
_atom_site_fract_z
Si Si1 0.631836 0.314721 0.588810
Si Si2 0.228407 0.910132 0.343099
Si Si3 0.624861 0.838363 0.653966
Si Si4 0.006008 0.125771 0.942589
Si Si5 0.238835 0.067140 0.653860
O O1 0.653975 0.250000 0.500000
O O2 0.667306 0.201600 0.655465
O O3 0.495038 0.358213 0.601257
O O4 0.715312 0.444454 0.598675
O O5 0.182481 0.930305 0.250000
O O6 0.120526 0.854592 0.397998
O O7 0.279453 0.051235 0.377077
O O8 0.595507 0.864350 0.750000
O O9 0.674636 0.691703 0.637696
O O10 0.105682 0.107548 0.872322
O O11 0.037687 0.250000 0.000000
O O12 0.000000 0.000000 0.000000
O O13 0.238169 0.026248 0.750000
#
# Coordination Sequence:
#
# PCOD8234753 Si02
#       5
#     8   8   8   8   8
#     4  12  25  40  63  96 131 168 212 268 330 386
#     4  11  23  42  66  92 126 169 218 266 322 391
#     4  10  23  42  65  93 125 166 216 267 319 386
#     4  12  25  42  65  94 130 164 208 268 326 380
#     4  11  24  44  68  93 127 173 221 265 321 394
#
# _framework density 22.123992000000001
#
# number of rings (size 3 to 8) (size 9 to 14) (size 15 to 20)
#    0.000    0.800    0.000    7.800    0.000    8.800 
#    0.000    6.000    0.000    0.000    0.000    0.000 
#    0.000    0.000    0.000    0.000    0.000    0.000 
#
# Total GULP energy -496293.699390 kJ/mol
# GULP energy per Si atom -12407.342485 kJ/mol
# Density = 2.207364 g / cm^3
# Si number density = 22.123992 Si / 1000 Ang^3
#
#
#
# Elastic Constant Matrix: (Units=GPa)
#
#
# Indices 1 2 3 4 5 6 
#
# 1 118.4753 35.2113 51.2969 0.0000 0.0000 0.0000
# 2 35.2113 144.1902 44.5906 0.0000 0.0000 0.0000
# 3 51.2969 44.5906 77.1788 0.0000 0.0000 0.0000
# 4 0.0000 0.0000 0.0000 38.0014 0.0000 0.0000
# 5 0.0000 0.0000 0.0000 0.0000 36.9661 0.0000
# 6 0.0000 0.0000 0.0000 0.0000 0.0000 37.7632
#
#
#
# Elastic Compliance Matrix: (Units=1/GPa)
#
#
# Indices 1 2 3 4 5 6 
#
# 1 0.011888 -0.000560 -0.007578 0.000000 0.000000 0.000000
# 2 -0.000560 0.008470 -0.004522 0.000000 0.000000 0.000000
# 3 -0.007578 -0.004522 0.020606 0.000000 0.000000 0.000000
# 4 0.000000 0.000000 0.000000 0.026315 0.000000 0.000000
# 5 0.000000 0.000000 0.000000 0.000000 0.027052 0.000000
# 6 0.000000 0.000000 0.000000 0.000000 0.000000 0.026481
#
#
# Mechanical properties :
#
#
# Convention : Reuss Voigt Hill
#
# Bulk Modulus (GPa) = 63.91595 66.89355 65.40475
# Shear Modulus (GPa) = 33.03684 36.46251 34.74967
#
# Velocity S-wave (km/s) = 3.86846 4.06408 3.96748
# Velocity P-wave (km/s) = 6.99328 7.23351 7.11441
#
# Compressibility (1/GPa) = 0.01564555
#
# Stress axis : x y z
#
# Youngs Moduli (GPa) = 84.11848 118.05947 48.52899
#
# Poissons Ratio (x) = 0.06606 0.36776
# Poissons Ratio (y) = 0.04707 0.21944
# Poissons Ratio (z) = 0.63746 0.53385
#
# Static dielectric constant tensor:
#      x y z
#    x 4.218290 0.000000 0.000000 
#    y 0.000000 4.125180 0.000000 
#    z 0.000000 0.000000 3.920240 
# 
# 
# High freq. dielectric constant tensor:
#      x y z
#    x 1.877550 0.000000 0.000000 
#    y 0.000000 1.887690 0.000000 
#    z 0.000000 0.000000 1.873580 
# 
# From -- ./inp_files/21578.got.cif
#   From: 2010.03.12/outbox.cif.g09.slc.cpg/sg57_11_cif.got.tgz:21578.got - 2010.04.16 15:48:40.
