data_PCOD8234911
_publ_section_title
;
Structure prediction by ZEFSAII (Michael W. Deem and Ramdas Pophale) SiO2 
 PCOD8234911
Probable space group: P B C M
;
_chemical_formula_sum "Si O2"
_cell_formula_units_Z 40
_cell_length_a 7.995921
_cell_length_b 15.678839
_cell_length_c 14.457882
_cell_angle_alpha 90.000000
_cell_angle_beta 90.000000
_cell_angle_gamma 90.000000
_cell_volume 1812.537794
_symmetry_space_group_name_H-M "P B C M"
_symmetry_group_IT_number 57
_symmetry_cell_setting 'orthorhombic'
loop_
_space_group_symop_operation_xyz
x,y,z
-x,-y,1/2+z
x,1/2-y,-z
-x,1/2+y,1/2-z
-x,-y,-z
x,y,1/2-z
-x,1/2+y,z
x,1/2-y,1/2+z
loop_
_atom_site_type_symbol
_atom_site_label
_atom_site_fract_x
_atom_site_fract_y
_atom_site_fract_z
Si Si1 0.461184 0.238944 0.607218
Si Si2 0.807315 0.175499 0.572287
Si Si3 0.861558 0.869451 0.350554
Si Si4 0.255436 0.500686 0.014146
Si Si5 0.541911 0.932313 0.855641
O O1 0.427582 0.250000 0.500000
O O2 0.628014 0.181376 0.625746
O O3 0.298824 0.192555 0.647225
O O4 0.491372 0.331303 0.652099
O O5 0.814502 0.250000 0.500000
O O6 0.965733 0.184247 0.640311
O O7 0.823420 0.089818 0.512821
O O8 0.862453 0.913656 0.250000
O O9 0.871730 0.940699 0.430167
O O10 0.403062 0.514540 0.088611
O O11 0.295877 0.450330 0.918619
O O12 0.559991 0.967160 0.750000
#
# Coordination Sequence:
#
# PCOD8234911 Si02
#       5
#     8   8   8   8   8
#     4  11  20  45  72  95 136 180 221 274 340 393
#     4  11  24  45  70  94 130 185 222 274 337 397
#     4  12  26  42  68 102 135 176 224 275 334 402
#     4  11  22  43  67  95 141 177 217 284 340 391
#     4  11  22  39  70 104 133 178 230 272 333 408
#
# _framework density 22.068505999999999
#
# number of rings (size 3 to 8) (size 9 to 14) (size 15 to 20)
#    0.000    0.800    6.000    3.600    0.000    2.400 
#    0.000    0.000    0.000    0.000    0.000    0.000 
#    0.000    0.000    0.000    0.000    0.000    0.000 
#
# Total GULP energy -495738.235149 kJ/mol
# GULP energy per Si atom -12393.455879 kJ/mol
# Density = 2.201828 g / cm^3
# Si number density = 22.068506 Si / 1000 Ang^3
#
#
#
# Elastic Constant Matrix: (Units=GPa)
#
#
# Indices 1 2 3 4 5 6 
#
# 1 143.5845 36.2191 52.7297 0.0000 0.0000 0.0000
# 2 36.2191 91.8180 25.8779 0.0000 0.0000 0.0000
# 3 52.7297 25.8779 158.1259 0.0000 0.0000 0.0000
# 4 0.0000 0.0000 0.0000 23.7352 0.0000 0.0000
# 5 0.0000 0.0000 0.0000 0.0000 48.6237 0.0000
# 6 0.0000 0.0000 0.0000 0.0000 0.0000 40.1905
#
#
#
# Elastic Compliance Matrix: (Units=1/GPa)
#
#
# Indices 1 2 3 4 5 6 
#
# 1 0.008524 -0.002685 -0.002403 0.000000 0.000000 0.000000
# 2 -0.002685 0.012264 -0.001112 0.000000 0.000000 0.000000
# 3 -0.002403 -0.001112 0.007307 0.000000 0.000000 0.000000
# 4 0.000000 0.000000 0.000000 0.042131 0.000000 0.000000
# 5 0.000000 0.000000 0.000000 0.000000 0.020566 0.000000
# 6 0.000000 0.000000 0.000000 0.000000 0.000000 0.024882
#
#
# Mechanical properties :
#
#
# Convention : Reuss Voigt Hill
#
# Bulk Modulus (GPa) = 63.71270 69.24242 66.47756
# Shear Modulus (GPa) = 37.50760 41.08999 39.29879
#
# Velocity S-wave (km/s) = 4.12709 4.31969 4.22449
# Velocity P-wave (km/s) = 7.18635 7.50492 7.34736
#
# Compressibility (1/GPa) = 0.01569546
#
# Stress axis : x y z
#
# Youngs Moduli (GPa) = 117.30985 81.54185 136.84844
#
# Poissons Ratio (x) = 0.21896 0.32887
# Poissons Ratio (y) = 0.31501 0.15211
# Poissons Ratio (z) = 0.28191 0.09064
#
# Static dielectric constant tensor:
#      x y z
#    x 4.249490 0.000000 0.000000 
#    y 0.000000 4.803240 0.000000 
#    z 0.000000 0.000000 3.954160 
# 
# 
# High freq. dielectric constant tensor:
#      x y z
#    x 1.867430 0.000000 0.000000 
#    y 0.000000 1.867520 0.000000 
#    z 0.000000 0.000000 1.868250 
# 
# From -- ./inp_files/15884.got.cif
#   From: 2010.03.12/outbox.cif.g09.slc.cpg/sg57_8_cif.got.tgz:15884.got - 2010.04.16 15:48:40.
