data_PCOD8234558
_publ_section_title
;
Structure prediction by ZEFSAII (Michael W. Deem and Ramdas Pophale) SiO2 
 PCOD8234558
Probable space group: P B C M
;
_chemical_formula_sum "Si O2"
_cell_formula_units_Z 64
_cell_length_a 17.689151
_cell_length_b 11.646161
_cell_length_c 14.881431
_cell_angle_alpha 90.000000
_cell_angle_beta 90.000000
_cell_angle_gamma 90.000000
_cell_volume 3065.734025
_symmetry_space_group_name_H-M "P B C M"
_symmetry_group_IT_number 57
_symmetry_cell_setting 'orthorhombic'
loop_
_space_group_symop_operation_xyz
x,y,z
-x,-y,1/2+z
x,1/2-y,-z
-x,1/2+y,1/2-z
-x,-y,-z
x,y,1/2-z
-x,1/2+y,z
x,1/2-y,1/2+z
loop_
_atom_site_type_symbol
_atom_site_label
_atom_site_fract_x
_atom_site_fract_y
_atom_site_fract_z
Si Si1 0.212991 0.764092 0.848503
Si Si2 0.162819 0.004275 0.898718
Si Si3 0.156700 0.116466 0.149421
Si Si4 0.286524 0.119349 0.489071
Si Si5 0.613077 0.246242 0.357711
Si Si6 0.948160 0.685132 0.650308
Si Si7 0.421089 0.562687 0.995738
Si Si8 0.900840 0.101396 0.573708
O O1 0.195567 0.713675 0.750000
O O2 0.198407 0.899703 0.844631
O O3 0.298419 0.738729 0.874969
O O4 0.160575 0.702803 0.921149
O O5 0.107095 0.076781 0.836569
O O6 0.109402 0.960623 0.979172
O O7 0.231736 0.085641 0.929097
O O8 0.174528 0.155734 0.250000
O O9 0.237156 0.108702 0.100926
O O10 0.099307 0.210037 0.106112
O O11 0.114620 0.993735 0.149970
O O12 0.316337 0.250000 0.500000
O O13 0.356215 0.032496 0.483827
O O14 0.593107 0.240664 0.250000
O O15 0.575951 0.355335 0.407678
O O16 0.587996 0.130977 0.409961
O O17 0.979004 0.718076 0.750000
O O18 0.017122 0.657662 0.584001
O O19 0.500000 0.500000 0.000000
#
# Coordination Sequence:
#
# PCOD8234558 Si02
#       8
#     8   8   8   8   8   8   8   8
#     4  11  22  40  66  93 120 163 216 268 322 378
#     4  11  22  40  61  88 120 165 214 261 314 389
#     4  10  22  40  61  86 121 167 218 268 321 388
#     4  11  22  42  66  91 130 165 218 262 319 394
#     4  10  23  45  72 102 139 176 224 278 325 393
#     4  11  23  39  55  83 125 166 213 268 328 383
#     4  11  25  43  74 105 138 178 217 265 341 401
#     4  11  24  37  60  86 122 161 215 273 327 377
#
# _framework density 20.875914999999999
#
# number of rings (size 3 to 8) (size 9 to 14) (size 15 to 20)
#    0.000    1.250    2.500    3.750    5.250    2.000 
#    4.500    0.625    0.000    0.000    0.000    0.000 
#    0.000    0.000    0.000    0.000    0.000    0.000 
#
# Total GULP energy -793549.551801 kJ/mol
# GULP energy per Si atom -12399.211747 kJ/mol
# Density = 2.082840 g / cm^3
# Si number density = 20.875915 Si / 1000 Ang^3
#
#
#
# Elastic Constant Matrix: (Units=GPa)
#
#
# Indices 1 2 3 4 5 6 
#
# 1 137.2018 61.4811 45.9567 0.0000 0.0000 0.0000
# 2 61.4811 141.5777 38.7527 0.0000 0.0000 0.0000
# 3 45.9567 38.7527 90.9047 0.0000 0.0000 0.0000
# 4 0.0000 0.0000 0.0000 27.4140 0.0000 0.0000
# 5 0.0000 0.0000 0.0000 0.0000 17.1674 0.0000
# 6 0.0000 0.0000 0.0000 0.0000 0.0000 35.4182
#
#
#
# Elastic Compliance Matrix: (Units=1/GPa)
#
#
# Indices 1 2 3 4 5 6 
#
# 1 0.010006 -0.003352 -0.003630 0.000000 0.000000 0.000000
# 2 -0.003352 0.009119 -0.002193 0.000000 0.000000 0.000000
# 3 -0.003630 -0.002193 0.013770 0.000000 0.000000 0.000000
# 4 0.000000 0.000000 0.000000 0.036478 0.000000 0.000000
# 5 0.000000 0.000000 0.000000 0.000000 0.058250 0.000000
# 6 0.000000 0.000000 0.000000 0.000000 0.000000 0.028234
#
#
# Mechanical properties :
#
#
# Convention : Reuss Voigt Hill
#
# Bulk Modulus (GPa) = 68.74409 73.56278 71.15343
# Shear Modulus (GPa) = 27.92430 30.89949 29.41190
#
# Velocity S-wave (km/s) = 3.66133 3.85145 3.75759
# Velocity P-wave (km/s) = 7.13268 7.42245 7.27901
#
# Compressibility (1/GPa) = 0.01454671
#
# Stress axis : x y z
#
# Youngs Moduli (GPa) = 99.93695 109.66063 72.61930
#
# Poissons Ratio (x) = 0.36756 0.26359
# Poissons Ratio (y) = 0.33496 0.15925
# Poissons Ratio (z) = 0.36275 0.24048
#
# Static dielectric constant tensor:
#      x y z
#    x 3.594290 0.000000 0.000000 
#    y 0.000000 3.996180 0.000000 
#    z 0.000000 0.000000 3.710220 
# 
# 
# High freq. dielectric constant tensor:
#      x y z
#    x 1.801080 0.000000 0.000000 
#    y 0.000000 1.835750 0.000000 
#    z 0.000000 0.000000 1.817160 
# 
# From -- ./inp_files/19115.got.cif
#   From: 2010.03.12/outbox.cif.g09.slc.cpg/sg57_10_cif.got.tgz:19115.got - 2010.04.16 15:48:40.
