data_PCOD8234709
_publ_section_title
;
Structure prediction by ZEFSAII (Michael W. Deem and Ramdas Pophale) SiO2 
 PCOD8234709
Probable space group: P B C M
;
_chemical_formula_sum "Si O2"
_cell_formula_units_Z 64
_cell_length_a 11.912240
_cell_length_b 9.101478
_cell_length_c 27.553588
_cell_angle_alpha 90.000000
_cell_angle_beta 90.000000
_cell_angle_gamma 90.000000
_cell_volume 2987.332190
_symmetry_space_group_name_H-M "P B C M"
_symmetry_group_IT_number 57
_symmetry_cell_setting 'orthorhombic'
loop_
_space_group_symop_operation_xyz
x,y,z
-x,-y,1/2+z
x,1/2-y,-z
-x,1/2+y,1/2-z
-x,-y,-z
x,y,1/2-z
-x,1/2+y,z
x,1/2-y,1/2+z
loop_
_atom_site_type_symbol
_atom_site_label
_atom_site_fract_x
_atom_site_fract_y
_atom_site_fract_z
Si Si1 0.702876 0.994209 0.803885
Si Si2 0.944564 0.033542 0.190993
Si Si3 0.548329 0.230366 0.397003
Si Si4 0.128029 0.661645 0.644550
Si Si5 0.596706 0.904429 0.973853
Si Si6 0.462351 0.477281 0.333587
Si Si7 0.243423 0.660682 0.953610
Si Si8 0.246646 0.179379 0.695518
O O1 0.753023 0.009872 0.750000
O O2 0.742277 0.839898 0.828949
O O3 0.745091 0.130803 0.836435
O O4 0.568922 0.998059 0.799298
O O5 0.950913 0.047711 0.250000
O O6 0.921936 0.190199 0.166554
O O7 0.847824 0.923283 0.171519
O O8 0.058674 0.974665 0.167131
O O9 0.447161 0.138591 0.420925
O O10 0.498669 0.385899 0.381116
O O11 0.650611 0.247666 0.434002
O O12 0.586993 0.133996 0.350776
O O13 0.140902 0.658387 0.585894
O O14 0.712461 0.997843 0.968374
O O15 0.623816 0.750000 0.000000
O O16 0.500000 0.000000 0.000000
O O17 0.366553 0.398464 0.303255
O O18 0.196464 0.750000 0.000000
O O19 0.206834 0.206673 0.750000
#
# Coordination Sequence:
#
# PCOD8234709 Si02
#       8
#     8   8   8   8   8   8   8   8
#     4  11  22  38  60  91 134 177 216 273 341 415
#     4  11  24  46  76 101 128 173 230 292 349 423
#     4  12  20  35  58  89 135 178 223 270 322 394
#     4  12  25  47  71 102 131 171 229 291 351 417
#     4  12  20  37  62  92 136 180 230 273 326 399
#     4  12  22  36  56  94 139 178 217 267 335 411
#     4  12  25  43  66 101 135 181 231 289 344 406
#     4  10  23  40  59  91 133 179 225 269 334 410
#
# _framework density 21.423798000000001
#
# number of rings (size 3 to 8) (size 9 to 14) (size 15 to 20)
#    0.000    0.500    6.250    3.000    0.000    1.000 
#    0.000    0.625    0.000    0.000    0.000    0.000 
#    0.000    0.000    0.000    0.000    0.000    0.000 
#
# Total GULP energy -793358.141238 kJ/mol
# GULP energy per Si atom -12396.220957 kJ/mol
# Density = 2.137504 g / cm^3
# Si number density = 21.423798 Si / 1000 Ang^3
#
#
#
# Elastic Constant Matrix: (Units=GPa)
#
#
# Indices 1 2 3 4 5 6 
#
# 1 70.0940 33.3449 28.5879 0.0000 0.0000 0.0000
# 2 33.3449 130.0929 49.3654 0.0000 0.0000 0.0000
# 3 28.5879 49.3654 102.2214 0.0000 0.0000 0.0000
# 4 0.0000 0.0000 0.0000 36.0774 0.0000 0.0000
# 5 0.0000 0.0000 0.0000 0.0000 37.5293 0.0000
# 6 0.0000 0.0000 0.0000 0.0000 0.0000 33.3569
#
#
#
# Elastic Compliance Matrix: (Units=1/GPa)
#
#
# Indices 1 2 3 4 5 6 
#
# 1 0.017092 -0.003143 -0.003262 0.000000 0.000000 0.000000
# 2 -0.003143 0.009989 -0.003945 0.000000 0.000000 0.000000
# 3 -0.003262 -0.003945 0.012600 0.000000 0.000000 0.000000
# 4 0.000000 0.000000 0.000000 0.027718 0.000000 0.000000
# 5 0.000000 0.000000 0.000000 0.000000 0.026646 0.000000
# 6 0.000000 0.000000 0.000000 0.000000 0.000000 0.029979
#
#
# Mechanical properties :
#
#
# Convention : Reuss Voigt Hill
#
# Bulk Modulus (GPa) = 52.68436 58.33387 55.50911
# Shear Modulus (GPa) = 33.10097 34.13339 33.61718
#
# Velocity S-wave (km/s) = 3.93498 3.99588 3.96555
# Velocity P-wave (km/s) = 6.72981 6.96972 6.85082
#
# Compressibility (1/GPa) = 0.01898097
#
# Stress axis : x y z
#
# Youngs Moduli (GPa) = 58.50590 100.10520 79.36348
#
# Poissons Ratio (x) = 0.31464 0.25890
# Poissons Ratio (y) = 0.18389 0.31310
# Poissons Ratio (z) = 0.19086 0.39493
#
# Static dielectric constant tensor:
#      x y z
#    x 3.700840 0.000000 0.000000 
#    y 0.000000 4.190560 0.000000 
#    z 0.000000 0.000000 3.719050 
# 
# 
# High freq. dielectric constant tensor:
#      x y z
#    x 1.817020 0.000000 0.000000 
#    y 0.000000 1.863650 0.000000 
#    z 0.000000 0.000000 1.827290 
# 
# From -- ./inp_files/29762.got.cif
#   From: 2010.03.12/outbox.cif.g09.slc.cpg/sg57_15_cif.got.tgz:29762.got - 2010.04.16 15:48:40.
