data_PCOD8234480
_publ_section_title
;
Structure prediction by ZEFSAII (Michael W. Deem and Ramdas Pophale) SiO2 
 PCOD8234480
Probable space group: P B C M
;
_chemical_formula_sum "Si O2"
_cell_formula_units_Z 36
_cell_length_a 13.481781
_cell_length_b 9.469426
_cell_length_c 14.032779
_cell_angle_alpha 90.000000
_cell_angle_beta 90.000000
_cell_angle_gamma 90.000000
_cell_volume 1791.490907
_symmetry_space_group_name_H-M "P B C M"
_symmetry_group_IT_number 57
_symmetry_cell_setting 'orthorhombic'
loop_
_space_group_symop_operation_xyz
x,y,z
-x,-y,1/2+z
x,1/2-y,-z
-x,1/2+y,1/2-z
-x,-y,-z
x,y,1/2-z
-x,1/2+y,z
x,1/2-y,1/2+z
loop_
_atom_site_type_symbol
_atom_site_label
_atom_site_fract_x
_atom_site_fract_y
_atom_site_fract_z
Si Si1 0.759652 0.750000 0.500000
Si Si2 0.595794 0.851061 0.363784
Si Si3 0.192393 0.736580 0.361496
Si Si4 0.412312 0.831063 0.861490
Si Si5 0.884308 0.025357 0.506327
O O1 0.693555 0.780767 0.407293
O O2 0.829153 0.619854 0.473124
O O3 0.606274 0.846133 0.250000
O O4 0.500741 0.764582 0.402675
O O5 0.585192 0.010556 0.403640
O O6 0.170613 0.730921 0.250000
O O7 0.309351 0.747202 0.385321
O O8 0.137998 0.870802 0.405847
O O9 0.151369 0.592140 0.406640
O O10 0.427454 0.845795 0.750000
O O11 0.000000 0.000000 0.500000
#
# Coordination Sequence:
#
# PCOD8234480 Si02
#       5
#     4   8   8   8   8
#     4  12  24  38  64  94 124 168 206 256 320 374
#     4  10  22  38  59  91 130 165 205 254 305 372
#     4  10  22  44  69  89 123 170 207 251 316 376
#     4   9  19  38  61  89 126 165 204 251 302 365
#     4  11  25  44  64  92 127 159 211 271 313 363
#
# _framework density 20.094994
#
# number of rings (size 3 to 8) (size 9 to 14) (size 15 to 20)
#    0.000    1.778    2.222    1.333    3.111    4.444 
#    0.000    2.222    0.000    0.000    0.000    0.000 
#    0.000    0.000    0.000    0.000    0.000    0.000 
#
# Total GULP energy -446501.488865 kJ/mol
# GULP energy per Si atom -12402.819135 kJ/mol
# Density = 2.004926 g / cm^3
# Si number density = 20.094994 Si / 1000 Ang^3
#
#
#
# Elastic Constant Matrix: (Units=GPa)
#
#
# Indices 1 2 3 4 5 6 
#
# 1 155.3885 66.0290 33.7505 0.0000 0.0000 0.0000
# 2 66.0290 144.2584 38.0836 0.0000 0.0000 0.0000
# 3 33.7505 38.0836 91.7381 0.0000 0.0000 0.0000
# 4 0.0000 0.0000 0.0000 28.4055 0.0000 0.0000
# 5 0.0000 0.0000 0.0000 0.0000 26.9227 0.0000
# 6 0.0000 0.0000 0.0000 0.0000 0.0000 31.7274
#
#
#
# Elastic Compliance Matrix: (Units=1/GPa)
#
#
# Indices 1 2 3 4 5 6 
#
# 1 0.008203 -0.003322 -0.001639 0.000000 0.000000 0.000000
# 2 -0.003322 0.009131 -0.002568 0.000000 0.000000 0.000000
# 3 -0.001639 -0.002568 0.012570 0.000000 0.000000 0.000000
# 4 0.000000 0.000000 0.000000 0.035204 0.000000 0.000000
# 5 0.000000 0.000000 0.000000 0.000000 0.037143 0.000000
# 6 0.000000 0.000000 0.000000 0.000000 0.000000 0.031518
#
#
# Mechanical properties :
#
#
# Convention : Reuss Voigt Hill
#
# Bulk Modulus (GPa) = 67.36209 74.12346 70.74278
# Shear Modulus (GPa) = 32.51481 34.31259 33.41370
#
# Velocity S-wave (km/s) = 4.02687 4.13670 4.08215
# Velocity P-wave (km/s) = 7.43071 7.73194 7.58282
#
# Compressibility (1/GPa) = 0.01484514
#
# Stress axis : x y z
#
# Youngs Moduli (GPa) = 121.90587 109.52265 79.55651
#
# Poissons Ratio (x) = 0.36383 0.13038
# Poissons Ratio (y) = 0.40497 0.20432
# Poissons Ratio (z) = 0.19978 0.28128
#
# Static dielectric constant tensor:
#      x y z
#    x 3.738920 0.000000 0.000000 
#    y 0.000000 3.930400 0.000000 
#    z 0.000000 0.000000 3.565990 
# 
# 
# High freq. dielectric constant tensor:
#      x y z
#    x 1.790960 0.000000 0.000000 
#    y 0.000000 1.795900 0.000000 
#    z 0.000000 0.000000 1.781100 
# 
# From -- ./inp_files/18137.got.cif
#   From: 2010.03.12/outbox.cif.g09.slc.cpg/sg57_10_cif.got.tgz:18137.got - 2010.04.16 15:48:40.
