data_PCOD8234890
_publ_section_title
;
Structure prediction by ZEFSAII (Michael W. Deem and Ramdas Pophale) SiO2 
 PCOD8234890
Probable space group: P B C M
;
_chemical_formula_sum "Si O2"
_cell_formula_units_Z 40
_cell_length_a 10.278232
_cell_length_b 20.305259
_cell_length_c 10.089134
_cell_angle_alpha 90.000000
_cell_angle_beta 90.000000
_cell_angle_gamma 90.000000
_cell_volume 2105.624087
_symmetry_space_group_name_H-M "P B C M"
_symmetry_group_IT_number 57
_symmetry_cell_setting 'orthorhombic'
loop_
_space_group_symop_operation_xyz
x,y,z
-x,-y,1/2+z
x,1/2-y,-z
-x,1/2+y,1/2-z
-x,-y,-z
x,y,1/2-z
-x,1/2+y,z
x,1/2-y,1/2+z
loop_
_atom_site_type_symbol
_atom_site_label
_atom_site_fract_x
_atom_site_fract_y
_atom_site_fract_z
Si Si1 0.666156 0.310663 0.594855
Si Si2 0.035368 0.822816 0.980570
Si Si3 0.940840 0.904353 0.750000
Si Si4 0.375876 0.953622 0.985262
Si Si5 0.767724 0.481541 0.250000
Si Si6 0.806000 0.004162 0.250000
Si Si7 0.993789 0.604268 0.750000
O O1 0.620623 0.250000 0.500000
O O2 0.639274 0.293638 0.750000
O O3 0.818637 0.324074 0.575724
O O4 0.589347 0.377959 0.555028
O O5 0.939729 0.859951 0.881069
O O6 0.981546 0.750000 0.000000
O O7 0.027441 0.853691 0.123595
O O8 0.798980 0.940302 0.750000
O O9 0.071682 0.947525 0.750000
O O10 0.279480 0.984707 0.879173
O O11 0.307001 0.953276 0.125566
O O12 0.500000 0.000000 0.000000
O O13 0.914519 0.458175 0.250000
O O14 0.849392 0.927255 0.250000
#
# Coordination Sequence:
#
# PCOD8234890 Si02
#       7
#     8   8   4   8   4   4   4
#     4  11  23  39  60  89 127 155 198 256 308 353
#     4  11  20  32  55  85 121 153 195 247 306 358
#     4  11  19  38  56  83 126 150 189 253 301 374
#     4  12  23  40  62  90 122 157 208 254 296 361
#     4  11  23  34  60  91 114 158 197 237 311 366
#     4  11  21  40  56  85 122 158 189 249 317 340
#     4  11  21  34  58  85 122 148 195 245 301 382
#
# _framework density 18.996744
#
# number of rings (size 3 to 8) (size 9 to 14) (size 15 to 20)
#    0.000    0.800    6.000    2.400    5.600    3.200 
#    0.000    0.000    0.000    7.200    0.000    0.000 
#    0.000    0.000    0.000    0.000    0.000    0.000 
#
# Total GULP energy -495851.024642 kJ/mol
# GULP energy per Si atom -12396.275616 kJ/mol
# Density = 1.895351 g / cm^3
# Si number density = 18.996744 Si / 1000 Ang^3
#
#
#
# Elastic Constant Matrix: (Units=GPa)
#
#
# Indices 1 2 3 4 5 6 
#
# 1 45.7956 37.6177 30.9067 0.0000 0.0000 0.0000
# 2 37.6177 130.4551 53.8376 0.0000 0.0000 0.0000
# 3 30.9067 53.8376 176.2799 0.0000 0.0000 0.0000
# 4 0.0000 0.0000 0.0000 33.8269 0.0000 0.0000
# 5 0.0000 0.0000 0.0000 0.0000 1031.1984 0.0000
# 6 0.0000 0.0000 0.0000 0.0000 0.0000 38.5237
#
#
#
# Elastic Compliance Matrix: (Units=1/GPa)
#
#
# Indices 1 2 3 4 5 6 
#
# 1 0.029929 -0.007397 -0.002988 0.000000 0.000000 0.000000
# 2 -0.007397 0.010599 -0.001940 0.000000 0.000000 0.000000
# 3 -0.002988 -0.001940 0.006789 0.000000 0.000000 0.000000
# 4 0.000000 0.000000 0.000000 0.029562 0.000000 0.000000
# 5 0.000000 0.000000 0.000000 0.000000 0.000970 0.000000
# 6 0.000000 0.000000 0.000000 0.000000 0.000000 0.025958
#
#
# Mechanical properties :
#
#
# Convention : Reuss Voigt Hill
#
# Bulk Modulus (GPa) = 44.11795 66.36160 55.23977
# Shear Modulus (GPa) = 36.76094 236.05437 136.40766
#
# Velocity S-wave (km/s) = 4.40377 11.15931 8.48302
# Velocity P-wave (km/s) = 7.00942 14.17918 11.18439
#
# Compressibility (1/GPa) = 0.02266651
#
# Stress axis : x y z
#
# Youngs Moduli (GPa) = 33.41239 94.34713 147.29125
#
# Poissons Ratio (x) = 0.69789 0.44014
# Poissons Ratio (y) = 0.24715 0.28577
# Poissons Ratio (z) = 0.09984 0.18305
#
# Static dielectric constant tensor:
#      x y z
#    x 3.318640 0.000000 0.000000 
#    y 0.000000 3.962400 0.000000 
#    z 0.000000 0.000000 3.715730 
# 
# 
# High freq. dielectric constant tensor:
#      x y z
#    x 1.691430 0.000000 0.000000 
#    y 0.000000 1.752240 0.000000 
#    z 0.000000 0.000000 1.764580 
# 
# From -- ./inp_files/2944.got.cif
#   From: 2010.03.12/outbox.cif.g09.slc.cpg/sg57_2_cif.got.tgz:2944.got - 2010.04.16 15:48:40.
