data_PCOD8234276
_publ_section_title
;
Structure prediction by ZEFSAII (Michael W. Deem and Ramdas Pophale) SiO2 
 PCOD8234276
Probable space group: P B C M
;
_chemical_formula_sum "Si O2"
_cell_formula_units_Z 64
_cell_length_a 6.915107
_cell_length_b 17.534977
_cell_length_c 25.832588
_cell_angle_alpha 90.000000
_cell_angle_beta 90.000000
_cell_angle_gamma 90.000000
_cell_volume 3132.362547
_symmetry_space_group_name_H-M "P B C M"
_symmetry_group_IT_number 57
_symmetry_cell_setting 'orthorhombic'
loop_
_space_group_symop_operation_xyz
x,y,z
-x,-y,1/2+z
x,1/2-y,-z
-x,1/2+y,1/2-z
-x,-y,-z
x,y,1/2-z
-x,1/2+y,z
x,1/2-y,1/2+z
loop_
_atom_site_type_symbol
_atom_site_label
_atom_site_fract_x
_atom_site_fract_y
_atom_site_fract_z
Si Si1 0.139388 0.856172 0.309659
Si Si2 0.799280 0.914389 0.865216
Si Si3 0.870302 0.526215 0.859335
Si Si4 0.539907 0.476806 0.190259
Si Si5 0.972701 0.762484 0.884752
Si Si6 0.112595 0.373454 0.045952
Si Si7 0.419940 0.072850 0.469882
Si Si8 0.778520 0.327258 0.526377
O O1 0.142197 0.832456 0.250000
O O2 0.959573 0.911936 0.320091
O O3 0.109947 0.778846 0.342519
O O4 0.336929 0.900840 0.325133
O O5 0.816905 0.822211 0.860513
O O6 0.704806 0.945644 0.918742
O O7 0.666535 0.947113 0.819101
O O8 0.015621 0.946853 0.856685
O O9 0.646968 0.516917 0.845563
O O10 0.889422 0.551792 0.918807
O O11 0.479119 0.473991 0.250000
O O12 0.855643 0.700769 0.918287
O O13 0.102919 0.812964 0.921959
O O14 0.290208 0.375357 0.007084
O O15 0.909768 0.371505 0.015560
O O16 0.602715 0.122563 0.453875
O O17 0.500000 0.000000 0.500000
O O18 0.702578 0.250000 0.500000
#
# Coordination Sequence:
#
# PCOD8234276 Si02
#       8
#     8   8   8   8   8   8   8   8
#     4   9  20  42  66  88 114 152 206 256 307 376
#     4  11  24  37  61  92 128 161 202 255 314 370
#     4  10  21  39  65  89 119 157 203 257 312 360
#     4  10  22  42  65  92 120 157 212 267 319 374
#     4  10  22  41  60  88 129 167 197 254 316 376
#     4  10  22  40  59  87 125 164 209 250 302 370
#     4  12  25  37  63  91 124 169 216 258 297 366
#     4  10  23  39  59  86 126 169 206 247 311 361
#
# _framework density 20.431861000000001
#
# number of rings (size 3 to 8) (size 9 to 14) (size 15 to 20)
#    0.000    1.750    1.250    1.875    5.250    6.000 
#    2.250    0.000    0.000    0.000    0.000    0.000 
#    0.000    0.000    0.000    0.000    0.000    0.000 
#
# Total GULP energy -793602.461381 kJ/mol
# GULP energy per Si atom -12400.038459 kJ/mol
# Density = 2.038536 g / cm^3
# Si number density = 20.431861 Si / 1000 Ang^3
#
#
#
# Elastic Constant Matrix: (Units=GPa)
#
#
# Indices 1 2 3 4 5 6 
#
# 1 103.2878 36.8328 26.9506 0.0000 0.0000 0.0000
# 2 36.8328 66.0925 21.8769 0.0000 0.0000 0.0000
# 3 26.9506 21.8769 84.0515 0.0000 0.0000 0.0000
# 4 0.0000 0.0000 0.0000 26.3500 0.0000 0.0000
# 5 0.0000 0.0000 0.0000 0.0000 26.5719 0.0000
# 6 0.0000 0.0000 0.0000 0.0000 0.0000 29.0618
#
#
#
# Elastic Compliance Matrix: (Units=1/GPa)
#
#
# Indices 1 2 3 4 5 6 
#
# 1 0.012512 -0.006177 -0.002404 0.000000 0.000000 0.000000
# 2 -0.006177 0.019606 -0.003123 0.000000 0.000000 0.000000
# 3 -0.002404 -0.003123 0.013481 0.000000 0.000000 0.000000
# 4 0.000000 0.000000 0.000000 0.037951 0.000000 0.000000
# 5 0.000000 0.000000 0.000000 0.000000 0.037634 0.000000
# 6 0.000000 0.000000 0.000000 0.000000 0.000000 0.034409
#
#
# Mechanical properties :
#
#
# Convention : Reuss Voigt Hill
#
# Bulk Modulus (GPa) = 45.06137 47.19473 46.12805
# Shear Modulus (GPa) = 26.82447 27.58152 27.20299
#
# Velocity S-wave (km/s) = 3.62729 3.67812 3.65279
# Velocity P-wave (km/s) = 6.29645 6.41770 6.35736
#
# Compressibility (1/GPa) = 0.02219196
#
# Stress axis : x y z
#
# Youngs Moduli (GPa) = 79.92529 51.00424 74.17821
#
# Poissons Ratio (x) = 0.31505 0.17833
# Poissons Ratio (y) = 0.49369 0.23162
# Poissons Ratio (z) = 0.19215 0.15926
#
# Static dielectric constant tensor:
#      x y z
#    x 3.678770 0.000000 0.000000 
#    y 0.000000 3.942710 0.000000 
#    z 0.000000 0.000000 3.703120 
# 
# 
# High freq. dielectric constant tensor:
#      x y z
#    x 1.796840 0.000000 0.000000 
#    y 0.000000 1.795040 0.000000 
#    z 0.000000 0.000000 1.797700 
# 
# From -- ./inp_files/29272.got.cif
#   From: 2010.03.12/outbox.cif.g09.slc.cpg/sg57_15_cif.got.tgz:29272.got - 2010.04.16 15:48:40.
