data_PCOD8234358
_publ_section_title
;
Structure prediction by ZEFSAII (Michael W. Deem and Ramdas Pophale) SiO2 
 PCOD8234358
Probable space group: P B C M
;
_chemical_formula_sum "Si O2"
_cell_formula_units_Z 56
_cell_length_a 7.733605
_cell_length_b 13.760082
_cell_length_c 22.744615
_cell_angle_alpha 90.000000
_cell_angle_beta 90.000000
_cell_angle_gamma 90.000000
_cell_volume 2420.369091
_symmetry_space_group_name_H-M "P B C M"
_symmetry_group_IT_number 57
_symmetry_cell_setting 'orthorhombic'
loop_
_space_group_symop_operation_xyz
x,y,z
-x,-y,1/2+z
x,1/2-y,-z
-x,1/2+y,1/2-z
-x,-y,-z
x,y,1/2-z
-x,1/2+y,z
x,1/2-y,1/2+z
loop_
_atom_site_type_symbol
_atom_site_label
_atom_site_fract_x
_atom_site_fract_y
_atom_site_fract_z
Si Si1 0.127412 0.706884 0.182462
Si Si2 0.688431 0.858678 0.518164
Si Si3 0.378181 0.216845 0.816804
Si Si4 0.912625 0.937971 0.617905
Si Si5 0.740521 0.559351 0.606017
Si Si6 0.448522 0.621904 0.378459
Si Si7 0.729309 0.097633 0.815246
O O1 0.178454 0.677347 0.250000
O O2 0.269930 0.676251 0.134480
O O3 0.112081 0.824083 0.178525
O O4 0.951914 0.650743 0.163739
O O5 0.730112 0.750000 0.500000
O O6 0.849965 0.894829 0.556642
O O7 0.677894 0.923809 0.460225
O O8 0.506694 0.864715 0.553581
O O9 0.312295 0.216710 0.750000
O O10 0.241154 0.159530 0.857344
O O11 0.400477 0.328892 0.838385
O O12 0.557227 0.159878 0.826475
O O13 0.757011 0.006562 0.641526
O O14 0.078608 0.004472 0.607254
O O15 0.589376 0.491669 0.635505
O O16 0.728454 0.053404 0.750000
#
# Coordination Sequence:
#
# PCOD8234358 Si02
#       7
#     8   8   8   8   8   8   8
#     4   9  20  40  65  96 132 168 213 267 327 392
#     4  12  25  44  65  91 133 170 223 273 320 385
#     4  10  21  40  66  96 127 165 214 273 327 387
#     4  11  24  40  63  92 130 175 215 265 327 394
#     4  11  24  43  64  95 129 172 216 266 331 391
#     4  10  21  41  67  93 126 167 217 271 324 381
#     4   9  19  37  62  92 128 164 208 264 326 390
#
# _framework density 23.136966999999999
#
# number of rings (size 3 to 8) (size 9 to 14) (size 15 to 20)
#    0.000    1.714    1.429    3.429    2.000    3.429 
#    0.000    5.714    0.000    0.000    0.000    0.000 
#    0.000    0.000    0.000    0.000    0.000    0.000 
#
# Total GULP energy -694085.887176 kJ/mol
# GULP energy per Si atom -12394.390842 kJ/mol
# Density = 2.308431 g / cm^3
# Si number density = 23.136967 Si / 1000 Ang^3
#
#
#
# Elastic Constant Matrix: (Units=GPa)
#
#
# Indices 1 2 3 4 5 6 
#
# 1 44.7537 -14.6553 -1.7804 0.0000 0.0000 0.0000
# 2 -14.6553 75.5872 14.5182 0.0000 0.0000 0.0000
# 3 -1.7804 14.5182 105.7428 0.0000 0.0000 0.0000
# 4 0.0000 0.0000 0.0000 42.0421 0.0000 0.0000
# 5 0.0000 0.0000 0.0000 0.0000 30.3987 0.0000
# 6 0.0000 0.0000 0.0000 0.0000 0.0000 18.8065
#
#
#
# Elastic Compliance Matrix: (Units=1/GPa)
#
#
# Indices 1 2 3 4 5 6 
#
# 1 0.023865 0.004673 -0.000240 0.000000 0.000000 0.000000
# 2 0.004673 0.014503 -0.001913 0.000000 0.000000 0.000000
# 3 -0.000240 -0.001913 0.009715 0.000000 0.000000 0.000000
# 4 0.000000 0.000000 0.000000 0.023786 0.000000 0.000000
# 5 0.000000 0.000000 0.000000 0.000000 0.032896 0.000000
# 6 0.000000 0.000000 0.000000 0.000000 0.000000 0.053173
#
#
# Mechanical properties :
#
#
# Convention : Reuss Voigt Hill
#
# Bulk Modulus (GPa) = 18.82330 24.69430 21.75880
# Shear Modulus (GPa) = 29.30734 33.44953 31.37844
#
# Velocity S-wave (km/s) = 3.56292 3.80638 3.68666
# Velocity P-wave (km/s) = 5.00790 5.47854 5.24850
#
# Compressibility (1/GPa) = 0.05312565
#
# Stress axis : x y z
#
# Youngs Moduli (GPa) = 41.90181 68.95036 102.92872
#
# Poissons Ratio (x) = -0.32222 0.02468
# Poissons Ratio (y) = -0.19582 0.19686
# Poissons Ratio (z) = 0.01005 0.13187
#
# Static dielectric constant tensor:
#      x y z
#    x 4.080890 0.000000 0.000000 
#    y 0.000000 4.595840 0.000000 
#    z 0.000000 0.000000 4.078860 
# 
# 
# High freq. dielectric constant tensor:
#      x y z
#    x 1.913230 0.000000 0.000000 
#    y 0.000000 1.936280 0.000000 
#    z 0.000000 0.000000 1.901550 
# 
# From -- ./inp_files/24424.got.cif
#   From: 2010.03.12/outbox.cif.g09.slc.cpg/sg57_13_cif.got.tgz:24424.got - 2010.04.16 15:48:40.
