data_PCOD8234751
_publ_section_title
;
Structure prediction by ZEFSAII (Michael W. Deem and Ramdas Pophale) SiO2 
 PCOD8234751
Probable space group: P B C M
;
_chemical_formula_sum "Si O2"
_cell_formula_units_Z 64
_cell_length_a 14.623098
_cell_length_b 24.770934
_cell_length_c 8.628570
_cell_angle_alpha 90.000000
_cell_angle_beta 90.000000
_cell_angle_gamma 90.000000
_cell_volume 3125.507889
_symmetry_space_group_name_H-M "P B C M"
_symmetry_group_IT_number 57
_symmetry_cell_setting 'orthorhombic'
loop_
_space_group_symop_operation_xyz
x,y,z
-x,-y,1/2+z
x,1/2-y,-z
-x,1/2+y,1/2-z
-x,-y,-z
x,y,1/2-z
-x,1/2+y,z
x,1/2-y,1/2+z
loop_
_atom_site_type_symbol
_atom_site_label
_atom_site_fract_x
_atom_site_fract_y
_atom_site_fract_z
Si Si1 0.015604 0.666149 0.926391
Si Si2 0.826360 0.804987 0.567784
Si Si3 0.519073 0.940791 0.567762
Si Si4 0.787683 0.306740 0.566562
Si Si5 0.274259 0.088024 0.431727
Si Si6 0.235957 0.979785 0.929642
Si Si7 0.350429 0.606325 0.931024
Si Si8 0.942821 0.047060 0.926386
O O1 0.014512 0.687219 0.750000
O O2 0.000200 0.601958 0.932877
O O3 0.112059 0.681966 0.999674
O O4 0.932096 0.692176 0.017909
O O5 0.783217 0.750000 0.500000
O O6 0.821375 0.802457 0.750000
O O7 0.765221 0.855025 0.506417
O O8 0.502110 0.943470 0.750000
O O9 0.619642 0.919083 0.526248
O O10 0.454263 0.894431 0.492747
O O11 0.500000 0.000000 0.500000
O O12 0.751757 0.250000 0.500000
O O13 0.793973 0.304575 0.750000
O O14 0.713361 0.351365 0.519425
O O15 0.255804 0.081747 0.250000
O O16 0.218527 0.041515 0.521491
O O17 0.260316 0.974684 0.750000
O O18 0.317411 0.954751 0.031775
O O19 0.146618 0.944764 0.968810
O O20 0.346381 0.618936 0.750000
O O21 0.915307 0.032670 0.750000
O O22 0.000000 0.000000 0.000000
#
# Coordination Sequence:
#
# PCOD8234751 Si02
#       8
#     8   8   8   8   8   8   8   8
#     4  11  23  40  62  90 124 166 212 261 310 369
#     4  11  24  43  65  90 122 165 212 263 313 365
#     4  11  22  39  65  97 129 166 209 258 318 382
#     4  12  25  43  67  94 126 167 214 263 316 377
#     4  10  23  42  65  92 127 165 208 259 316 380
#     4  12  23  36  60  91 126 164 205 254 317 378
#     4  12  24  41  63  92 130 167 208 259 313 375
#     4  11  23  37  56  84 125 167 210 257 313 376
#
# _framework density 20.476671
#
# number of rings (size 3 to 8) (size 9 to 14) (size 15 to 20)
#    0.000    0.750    2.500    6.000    0.000    5.000 
#    0.000    0.625    0.000    1.500    0.000    0.000 
#    0.000    0.000    0.000    0.000    0.000    0.000 
#
# Total GULP energy -793787.183229 kJ/mol
# GULP energy per Si atom -12402.924738 kJ/mol
# Density = 2.043006 g / cm^3
# Si number density = 20.476671 Si / 1000 Ang^3
#
#
#
# Elastic Constant Matrix: (Units=GPa)
#
#
# Indices 1 2 3 4 5 6 
#
# 1 83.7448 33.7842 15.0064 0.0000 0.0000 0.0000
# 2 33.7842 117.9090 30.0854 0.0000 0.0000 0.0000
# 3 15.0064 30.0854 87.8436 0.0000 0.0000 0.0000
# 4 0.0000 0.0000 0.0000 35.9192 0.0000 0.0000
# 5 0.0000 0.0000 0.0000 0.0000 31.2271 0.0000
# 6 0.0000 0.0000 0.0000 0.0000 0.0000 21.7508
#
#
#
# Elastic Compliance Matrix: (Units=1/GPa)
#
#
# Indices 1 2 3 4 5 6 
#
# 1 0.013595 -0.003619 -0.001083 0.000000 0.000000 0.000000
# 2 -0.003619 0.010257 -0.002895 0.000000 0.000000 0.000000
# 3 -0.001083 -0.002895 0.012560 0.000000 0.000000 0.000000
# 4 0.000000 0.000000 0.000000 0.027840 0.000000 0.000000
# 5 0.000000 0.000000 0.000000 0.000000 0.032023 0.000000
# 6 0.000000 0.000000 0.000000 0.000000 0.000000 0.045975
#
#
# Mechanical properties :
#
#
# Convention : Reuss Voigt Hill
#
# Bulk Modulus (GPa) = 47.12795 49.69438 48.41117
# Shear Modulus (GPa) = 30.39196 31.82083 31.10640
#
# Velocity S-wave (km/s) = 3.85674 3.94636 3.90181
# Velocity P-wave (km/s) = 6.54966 6.71465 6.63267
#
# Compressibility (1/GPa) = 0.02121883
#
# Stress axis : x y z
#
# Youngs Moduli (GPa) = 73.55595 97.49783 79.61644
#
# Poissons Ratio (x) = 0.35285 0.08622
# Poissons Ratio (y) = 0.26620 0.23045
# Poissons Ratio (z) = 0.07966 0.28221
#
# Static dielectric constant tensor:
#      x y z
#    x 3.893720 0.000000 0.000000 
#    y 0.000000 3.941060 0.000000 
#    z 0.000000 0.000000 3.719450 
# 
# 
# High freq. dielectric constant tensor:
#      x y z
#    x 1.798680 0.000000 0.000000 
#    y 0.000000 1.803490 0.000000 
#    z 0.000000 0.000000 1.811050 
# 
# From -- ./inp_files/5670.got.cif
#   From: 2010.03.12/outbox.cif.g09.slc.cpg/sg57_3_cif.got.tgz:5670.got - 2010.04.16 15:48:40.
