data_PCOD8234386
_publ_section_title
;
Structure prediction by ZEFSAII (Michael W. Deem and Ramdas Pophale) SiO2 
 PCOD8234386
Probable space group: P B C M
;
_chemical_formula_sum "Si O2"
_cell_formula_units_Z 40
_cell_length_a 12.141683
_cell_length_b 9.285243
_cell_length_c 16.349977
_cell_angle_alpha 90.000000
_cell_angle_beta 90.000000
_cell_angle_gamma 90.000000
_cell_volume 1843.271507
_symmetry_space_group_name_H-M "P B C M"
_symmetry_group_IT_number 57
_symmetry_cell_setting 'orthorhombic'
loop_
_space_group_symop_operation_xyz
x,y,z
-x,-y,1/2+z
x,1/2-y,-z
-x,1/2+y,1/2-z
-x,-y,-z
x,y,1/2-z
-x,1/2+y,z
x,1/2-y,1/2+z
loop_
_atom_site_type_symbol
_atom_site_label
_atom_site_fract_x
_atom_site_fract_y
_atom_site_fract_z
Si Si1 0.386175 0.820750 0.087573
Si Si2 0.166936 0.923829 0.157352
Si Si3 0.034795 0.125266 0.940366
Si Si4 0.221631 0.249820 0.156109
Si Si5 0.552641 0.881438 0.843552
O O1 0.256496 0.840301 0.102437
O O2 0.438204 0.703925 0.149801
O O3 0.444592 0.976598 0.099327
O O4 0.409027 0.750000 0.000000
O O5 0.197173 0.888000 0.250000
O O6 0.046068 0.865366 0.137432
O O7 0.165350 0.094786 0.141734
O O8 0.159958 0.134432 0.903548
O O9 0.008024 0.250000 0.000000
O O10 0.000000 0.000000 0.000000
O O11 0.209995 0.301579 0.250000
O O12 0.349935 0.231389 0.131655
O O13 0.572111 0.932850 0.750000
#
# Coordination Sequence:
#
# PCOD8234386 Si02
#       5
#     8   8   8   8   8
#     4  11  22  40  64  96 131 167 218 271 324 375
#     4  10  21  41  65  87 125 170 210 259 317 383
#     4  12  23  40  62  92 125 161 206 264 318 376
#     4   9  20  40  63  88 123 168 211 251 315 383
#     4  10  21  41  66  92 129 175 216 263 322 388
#
# _framework density 21.700547
#
# number of rings (size 3 to 8) (size 9 to 14) (size 15 to 20)
#    0.000    1.600    2.000    4.800    0.000    0.800 
#    7.200    0.000    0.000    0.000    0.000    0.000 
#    0.000    0.000    0.000    0.000    0.000    0.000 
#
# Total GULP energy -495655.497831 kJ/mol
# GULP energy per Si atom -12391.387446 kJ/mol
# Density = 2.165116 g / cm^3
# Si number density = 21.700547 Si / 1000 Ang^3
#
#
#
# Elastic Constant Matrix: (Units=GPa)
#
#
# Indices 1 2 3 4 5 6 
#
# 1 77.0964 37.7377 32.7434 0.0000 0.0000 0.0000
# 2 37.7377 88.5139 55.1396 0.0000 0.0000 0.0000
# 3 32.7434 55.1396 97.7306 0.0000 0.0000 0.0000
# 4 0.0000 0.0000 0.0000 39.8739 0.0000 0.0000
# 5 0.0000 0.0000 0.0000 0.0000 32.6559 0.0000
# 6 0.0000 0.0000 0.0000 0.0000 0.0000 38.7391
#
#
#
# Elastic Compliance Matrix: (Units=1/GPa)
#
#
# Indices 1 2 3 4 5 6 
#
# 1 0.016761 -0.005625 -0.002442 0.000000 0.000000 0.000000
# 2 -0.005625 0.019308 -0.009009 0.000000 0.000000 0.000000
# 3 -0.002442 -0.009009 0.016133 0.000000 0.000000 0.000000
# 4 0.000000 0.000000 0.000000 0.025079 0.000000 0.000000
# 5 0.000000 0.000000 0.000000 0.000000 0.030622 0.000000
# 6 0.000000 0.000000 0.000000 0.000000 0.000000 0.025814
#
#
# Mechanical properties :
#
#
# Convention : Reuss Voigt Hill
#
# Bulk Modulus (GPa) = 55.39985 57.17578 56.28782
# Shear Modulus (GPa) = 28.75441 31.43513 30.09477
#
# Velocity S-wave (km/s) = 3.64408 3.81016 3.72804
# Velocity P-wave (km/s) = 6.57955 6.76471 6.67277
#
# Compressibility (1/GPa) = 0.01805059
#
# Stress axis : x y z
#
# Youngs Moduli (GPa) = 59.66151 51.79215 61.98354
#
# Poissons Ratio (x) = 0.29132 0.15137
# Poissons Ratio (y) = 0.33558 0.55841
# Poissons Ratio (z) = 0.14570 0.46660
#
# Static dielectric constant tensor:
#      x y z
#    x 3.849640 0.000000 0.000000 
#    y 0.000000 3.708010 0.000000 
#    z 0.000000 0.000000 3.952530 
# 
# 
# High freq. dielectric constant tensor:
#      x y z
#    x 1.853080 0.000000 0.000000 
#    y 0.000000 1.837910 0.000000 
#    z 0.000000 0.000000 1.857920 
# 
# From -- ./inp_files/18230.got.cif
#   From: 2010.03.12/outbox.cif.g09.slc.cpg/sg57_10_cif.got.tgz:18230.got - 2010.04.16 15:48:40.
