data_PCOD8234049
_publ_section_title
;
Structure prediction by ZEFSAII (Michael W. Deem and Ramdas Pophale) SiO2 
 PCOD8234049
Probable space group: P B C M
;
_chemical_formula_sum "Si O2"
_cell_formula_units_Z 64
_cell_length_a 14.661327
_cell_length_b 9.607671
_cell_length_c 23.992557
_cell_angle_alpha 90.000000
_cell_angle_beta 90.000000
_cell_angle_gamma 90.000000
_cell_volume 3379.620520
_symmetry_space_group_name_H-M "P B C M"
_symmetry_group_IT_number 57
_symmetry_cell_setting 'orthorhombic'
loop_
_space_group_symop_operation_xyz
x,y,z
-x,-y,1/2+z
x,1/2-y,-z
-x,1/2+y,1/2-z
-x,-y,-z
x,y,1/2-z
-x,1/2+y,z
x,1/2-y,1/2+z
loop_
_atom_site_type_symbol
_atom_site_label
_atom_site_fract_x
_atom_site_fract_y
_atom_site_fract_z
Si Si1 0.744874 0.920093 0.400450
Si Si2 0.594013 0.892721 0.687354
Si Si3 0.234620 0.401185 0.611362
Si Si4 0.455402 0.622838 0.531892
Si Si5 0.755128 0.095519 0.990097
Si Si6 0.450278 0.403607 0.144183
Si Si7 0.064742 0.143730 0.186188
Si Si8 0.099671 0.042201 0.685870
O O1 0.754328 0.755314 0.412717
O O2 0.642566 0.962552 0.382941
O O3 0.809300 0.969098 0.350255
O O4 0.772480 0.003479 0.455419
O O5 0.630901 0.917018 0.750000
O O6 0.671195 0.940632 0.643142
O O7 0.571913 0.729536 0.681738
O O8 0.499879 0.977378 0.679993
O O9 0.206713 0.509192 0.562680
O O10 0.152334 0.412385 0.654255
O O11 0.500705 0.750000 0.500000
O O12 0.500000 0.500000 0.500000
O O13 0.348754 0.617977 0.524652
O O14 0.479345 0.637949 0.596174
O O15 0.799867 0.250000 0.000000
O O16 0.080208 0.101114 0.250000
O O17 0.052354 0.308127 0.178450
O O18 0.972506 0.071584 0.164030
O O19 0.128105 0.016352 0.750000
#
# Coordination Sequence:
#
# PCOD8234049 Si02
#       8
#     8   8   8   8   8   8   8   8
#     4  10  22  36  59  83 114 149 190 230 281 341
#     4  11  23  37  54  79 113 152 194 234 280 338
#     4  10  21  38  59  81 113 151 192 231 282 343
#     4  11  21  33  55  79 107 146 195 240 276 323
#     4  11  23  36  54  83 116 146 189 241 285 326
#     4  11  22  36  55  79 112 153 190 234 282 330
#     4   9  18  36  62  88 113 146 187 235 285 342
#     4   9  19  37  61  89 115 143 186 235 286 344
#
# _framework density 18.937035999999999
#
# number of rings (size 3 to 8) (size 9 to 14) (size 15 to 20)
#    0.000    1.750    2.500    1.875    3.500    4.500 
#    0.000    0.625    0.000    3.750    0.000    0.000 
#    0.000    0.000    0.000    0.000    0.000    0.000 
#
# Total GULP energy -793476.651985 kJ/mol
# GULP energy per Si atom -12398.072687 kJ/mol
# Density = 1.889393 g / cm^3
# Si number density = 18.937036 Si / 1000 Ang^3
#
#
#
# Elastic Constant Matrix: (Units=GPa)
#
#
# Indices 1 2 3 4 5 6 
#
# 1 58.9808 25.0257 23.9759 0.0000 0.0000 0.0000
# 2 25.0257 81.4379 44.9484 0.0000 0.0000 0.0000
# 3 23.9759 44.9484 100.5652 0.0000 0.0000 0.0000
# 4 0.0000 0.0000 0.0000 29.5814 0.0000 0.0000
# 5 0.0000 0.0000 0.0000 0.0000 27.3060 0.0000
# 6 0.0000 0.0000 0.0000 0.0000 0.0000 29.8562
#
#
#
# Elastic Compliance Matrix: (Units=1/GPa)
#
#
# Indices 1 2 3 4 5 6 
#
# 1 0.020029 -0.004672 -0.002687 0.000000 0.000000 0.000000
# 2 -0.004672 0.017390 -0.006659 0.000000 0.000000 0.000000
# 3 -0.002687 -0.006659 0.013561 0.000000 0.000000 0.000000
# 4 0.000000 0.000000 0.000000 0.033805 0.000000 0.000000
# 5 0.000000 0.000000 0.000000 0.000000 0.036622 0.000000
# 6 0.000000 0.000000 0.000000 0.000000 0.000000 0.033494
#
#
# Mechanical properties :
#
#
# Convention : Reuss Voigt Hill
#
# Bulk Modulus (GPa) = 43.58339 47.65376 45.61857
# Shear Modulus (GPa) = 26.23504 27.15098 26.69301
#
# Velocity S-wave (km/s) = 3.72611 3.79060 3.75849
# Velocity P-wave (km/s) = 6.44800 6.66162 6.55568
#
# Compressibility (1/GPa) = 0.02294452
#
# Stress axis : x y z
#
# Youngs Moduli (GPa) = 49.92692 57.50363 73.74274
#
# Poissons Ratio (x) = 0.26865 0.19815
# Poissons Ratio (y) = 0.23325 0.49104
# Poissons Ratio (z) = 0.13416 0.38291
#
# Static dielectric constant tensor:
#      x y z
#    x 3.288540 0.000000 0.000000 
#    y 0.000000 3.678840 0.000000 
#    z 0.000000 0.000000 3.511250 
# 
# 
# High freq. dielectric constant tensor:
#      x y z
#    x 1.720300 0.000000 0.000000 
#    y 0.000000 1.739990 0.000000 
#    z 0.000000 0.000000 1.740480 
# 
# From -- ./inp_files/27499.got.cif
#   From: 2010.03.12/outbox.cif.g09.slc.cpg/sg57_14_cif.got.tgz:27499.got - 2010.04.16 15:48:40.
