data_PCOD8234696
_publ_section_title
;
Structure prediction by ZEFSAII (Michael W. Deem and Ramdas Pophale) SiO2 
 PCOD8234696
Probable space group: P B C M
;
_chemical_formula_sum "Si O2"
_cell_formula_units_Z 40
_cell_length_a 11.870165
_cell_length_b 17.106493
_cell_length_c 9.631590
_cell_angle_alpha 90.000000
_cell_angle_beta 90.000000
_cell_angle_gamma 90.000000
_cell_volume 1955.760754
_symmetry_space_group_name_H-M "P B C M"
_symmetry_group_IT_number 57
_symmetry_cell_setting 'orthorhombic'
loop_
_space_group_symop_operation_xyz
x,y,z
-x,-y,1/2+z
x,1/2-y,-z
-x,1/2+y,1/2-z
-x,-y,-z
x,y,1/2-z
-x,1/2+y,z
x,1/2-y,1/2+z
loop_
_atom_site_type_symbol
_atom_site_label
_atom_site_fract_x
_atom_site_fract_y
_atom_site_fract_z
Si Si1 0.119178 0.125781 0.592910
Si Si2 0.701693 0.750000 0.000000
Si Si3 0.087757 0.822956 0.909008
Si Si4 0.432107 0.963640 0.750000
Si Si5 0.760589 0.466510 0.959005
Si Si6 0.675478 0.496768 0.250000
Si Si7 0.602290 0.662888 0.250000
O O1 0.073793 0.137753 0.750000
O O2 0.223585 0.183024 0.569391
O O3 0.024048 0.143465 0.480330
O O4 0.155217 0.036548 0.574746
O O5 0.618967 0.714436 0.114143
O O6 0.059686 0.798068 0.750000
O O7 0.185426 0.887037 0.904136
O O8 0.131011 0.750000 0.000000
O O9 0.358914 0.981332 0.614225
O O10 0.540750 0.021536 0.750000
O O11 0.476136 0.873522 0.750000
O O12 0.738082 0.458232 0.121194
O O13 0.693051 0.591158 0.250000
#
# Coordination Sequence:
#
# PCOD8234696 Si02
#       7
#     8   4   8   4   8   4   4
#     4  12  24  41  72 101 138 179 230 282 346 416
#     4  12  22  42  64 108 138 180 222 292 344 404
#     4  12  28  46  69 100 144 183 230 288 351 423
#     4  10  22  49  66 101 132 181 224 294 338 406
#     4  12  24  46  72 101 139 180 233 284 352 411
#     4  10  24  38  73 100 132 179 230 290 339 402
#     4  10  24  41  69 101 142 174 234 288 343 402
#
# _framework density 20.452399
#
# number of rings (size 3 to 8) (size 9 to 14) (size 15 to 20)
#    0.600    0.000    6.000    1.800    5.600    0.000 
#    1.800    1.000    0.000    0.000    0.000    0.000 
#    0.000    0.000    0.000    0.000    0.000    0.000 
#
# Total GULP energy -496078.931340 kJ/mol
# GULP energy per Si atom -12401.973284 kJ/mol
# Density = 2.040585 g / cm^3
# Si number density = 20.452399 Si / 1000 Ang^3
#
#
#
# Elastic Constant Matrix: (Units=GPa)
#
#
# Indices 1 2 3 4 5 6 
#
# 1 16.2220 12.6365 17.0912 0.0000 0.0000 0.0000
# 2 12.6365 95.5134 23.4308 0.0000 0.0000 0.0000
# 3 17.0912 23.4308 177.2519 0.0000 0.0000 0.0000
# 4 0.0000 0.0000 0.0000 27.9725 0.0000 0.0000
# 5 0.0000 0.0000 0.0000 0.0000 48.3363 0.0000
# 6 0.0000 0.0000 0.0000 0.0000 0.0000 39.6021
#
#
#
# Elastic Compliance Matrix: (Units=1/GPa)
#
#
# Indices 1 2 3 4 5 6 
#
# 1 0.074578 -0.008374 -0.006084 0.000000 0.000000 0.000000
# 2 -0.008374 0.011761 -0.000747 0.000000 0.000000 0.000000
# 3 -0.006084 -0.000747 0.006327 0.000000 0.000000 0.000000
# 4 0.000000 0.000000 0.000000 0.035749 0.000000 0.000000
# 5 0.000000 0.000000 0.000000 0.000000 0.020688 0.000000
# 6 0.000000 0.000000 0.000000 0.000000 0.000000 0.025251
#
#
# Mechanical properties :
#
#
# Convention : Reuss Voigt Hill
#
# Bulk Modulus (GPa) = 16.06292 43.92270 29.99281
# Shear Modulus (GPa) = 22.17117 38.90412 30.53765
#
# Velocity S-wave (km/s) = 3.29604 4.36613 3.86827
# Velocity P-wave (km/s) = 4.72822 6.85125 5.88624
#
# Compressibility (1/GPa) = 0.06225520
#
# Stress axis : x y z
#
# Youngs Moduli (GPa) = 13.40873 85.02708 158.05011
#
# Poissons Ratio (x) = 0.71204 0.96159
# Poissons Ratio (y) = 0.11229 0.11809
# Poissons Ratio (z) = 0.08158 0.06353
#
# Static dielectric constant tensor:
#      x y z
#    x 3.481830 0.000000 0.000000 
#    y 0.000000 3.768760 0.000000 
#    z 0.000000 0.000000 3.921350 
# 
# 
# High freq. dielectric constant tensor:
#      x y z
#    x 1.785720 0.000000 0.000000 
#    y 0.000000 1.797080 0.000000 
#    z 0.000000 0.000000 1.822600 
# 
# From -- ./inp_files/2768.got.cif
#   From: 2010.03.12/outbox.cif.g09.slc.cpg/sg57_2_cif.got.tgz:2768.got - 2010.04.16 15:48:40.
