data_PCOD8234134
_publ_section_title
;
Structure prediction by ZEFSAII (Michael W. Deem and Ramdas Pophale) SiO2 
 PCOD8234134
Probable space group: P B C M
;
_chemical_formula_sum "Si O2"
_cell_formula_units_Z 64
_cell_length_a 11.945903
_cell_length_b 30.663768
_cell_length_c 8.833413
_cell_angle_alpha 90.000000
_cell_angle_beta 90.000000
_cell_angle_gamma 90.000000
_cell_volume 3235.735699
_symmetry_space_group_name_H-M "P B C M"
_symmetry_group_IT_number 57
_symmetry_cell_setting 'orthorhombic'
loop_
_space_group_symop_operation_xyz
x,y,z
-x,-y,1/2+z
x,1/2-y,-z
-x,1/2+y,1/2-z
-x,-y,-z
x,y,1/2-z
-x,1/2+y,z
x,1/2-y,1/2+z
loop_
_atom_site_type_symbol
_atom_site_label
_atom_site_fract_x
_atom_site_fract_y
_atom_site_fract_z
Si Si1 0.024671 0.793526 0.071907
Si Si2 0.036498 0.955255 0.429176
Si Si3 0.522412 0.046594 0.927093
Si Si4 0.504214 0.295500 0.929267
Si Si5 0.112126 0.375868 0.070115
Si Si6 0.247071 0.818847 0.922323
Si Si7 0.633870 0.626654 0.926552
Si Si8 0.254184 0.578805 0.423253
O O1 0.014056 0.790865 0.250000
O O2 0.953063 0.833737 0.006145
O O3 0.972389 0.750000 0.000000
O O4 0.154913 0.796894 0.028180
O O5 0.032405 0.958188 0.250000
O O6 0.162104 0.946049 0.480085
O O7 0.952075 0.918354 0.491846
O O8 0.000000 0.000000 0.500000
O O9 0.545837 0.040583 0.750000
O O10 0.418638 0.079058 0.956504
O O11 0.626819 0.068392 0.007193
O O12 0.500000 0.000000 0.000000
O O13 0.494912 0.292950 0.750000
O O14 0.631596 0.304039 0.981881
O O15 0.461515 0.250000 0.000000
O O16 0.428822 0.335367 0.984387
O O17 0.108929 0.375967 0.250000
O O18 0.239332 0.375665 0.011632
O O19 0.228006 0.803455 0.750000
O O20 0.233817 0.870238 0.936109
O O21 0.629253 0.638654 0.750000
O O22 0.249998 0.562673 0.250000
#
# Coordination Sequence:
#
# PCOD8234134 Si02
#       8
#     8   8   8   8   8   8   8   8
#     4  11  22  38  61  88 120 157 199 248 301 364
#     4  11  23  41  64  94 126 163 207 253 308 368
#     4  11  24  40  64  94 126 164 208 256 310 372
#     4  11  23  40  61  90 122 158 200 251 305 364
#     4   9  21  41  62  85 120 160 201 248 302 360
#     4  10  21  38  61  90 123 157 199 250 305 358
#     4  10  22  42  64  87 119 162 205 251 305 361
#     4  11  22  40  65  92 127 163 203 258 309 362
#
# _framework density 19.779118
#
# number of rings (size 3 to 8) (size 9 to 14) (size 15 to 20)
#    0.000    1.500    2.500    2.250    1.750    3.500 
#    0.000    3.750    0.000    0.000    0.000    0.000 
#    0.000    0.000    0.000    0.000    0.000    0.000 
#
# Total GULP energy -793859.663022 kJ/mol
# GULP energy per Si atom -12404.057235 kJ/mol
# Density = 1.973410 g / cm^3
# Si number density = 19.779118 Si / 1000 Ang^3
#
#
#
# Elastic Constant Matrix: (Units=GPa)
#
#
# Indices 1 2 3 4 5 6 
#
# 1 120.5502 48.7983 33.5974 0.0000 0.0000 0.0000
# 2 48.7983 135.1019 49.6813 0.0000 0.0000 0.0000
# 3 33.5974 49.6813 79.7648 0.0000 0.0000 0.0000
# 4 0.0000 0.0000 0.0000 35.9063 0.0000 0.0000
# 5 0.0000 0.0000 0.0000 0.0000 26.3013 0.0000
# 6 0.0000 0.0000 0.0000 0.0000 0.0000 11.5075
#
#
#
# Elastic Compliance Matrix: (Units=1/GPa)
#
#
# Indices 1 2 3 4 5 6 
#
# 1 0.010107 -0.002705 -0.002573 0.000000 0.000000 0.000000
# 2 -0.002705 0.010325 -0.005291 0.000000 0.000000 0.000000
# 3 -0.002573 -0.005291 0.016916 0.000000 0.000000 0.000000
# 4 0.000000 0.000000 0.000000 0.027850 0.000000 0.000000
# 5 0.000000 0.000000 0.000000 0.000000 0.038021 0.000000
# 6 0.000000 0.000000 0.000000 0.000000 0.000000 0.086900
#
#
# Mechanical properties :
#
#
# Convention : Reuss Voigt Hill
#
# Bulk Modulus (GPa) = 61.68815 66.61898 64.15357
# Shear Modulus (GPa) = 23.07768 28.29901 25.68835
#
# Velocity S-wave (km/s) = 3.41951 3.78663 3.60774
# Velocity P-wave (km/s) = 6.84448 7.27136 7.06115
#
# Compressibility (1/GPa) = 0.01621057
#
# Stress axis : x y z
#
# Youngs Moduli (GPa) = 98.94022 96.85663 59.11499
#
# Poissons Ratio (x) = 0.26196 0.15208
# Poissons Ratio (y) = 0.26760 0.31280
# Poissons Ratio (z) = 0.25453 0.51251
#
# Static dielectric constant tensor:
#      x y z
#    x 3.704780 0.000000 0.000000 
#    y 0.000000 3.672000 0.000000 
#    z 0.000000 0.000000 3.545510 
# 
# 
# High freq. dielectric constant tensor:
#      x y z
#    x 1.775630 0.000000 0.000000 
#    y 0.000000 1.787990 0.000000 
#    z 0.000000 0.000000 1.765130 
# 
# From -- ./inp_files/3819.got.cif
#   From: 2010.03.12/outbox.cif.g09.slc.cpg/sg57_2_cif.got.tgz:3819.got - 2010.04.16 15:48:40.
