data_PCOD8234767
_publ_section_title
;
Structure prediction by ZEFSAII (Michael W. Deem and Ramdas Pophale) SiO2 
 PCOD8234767
Probable space group: P B C M
;
_chemical_formula_sum "Si O2"
_cell_formula_units_Z 48
_cell_length_a 5.401730
_cell_length_b 13.195489
_cell_length_c 28.161922
_cell_angle_alpha 90.000000
_cell_angle_beta 90.000000
_cell_angle_gamma 90.000000
_cell_volume 2007.338679
_symmetry_space_group_name_H-M "P B C M"
_symmetry_group_IT_number 57
_symmetry_cell_setting 'orthorhombic'
loop_
_space_group_symop_operation_xyz
x,y,z
-x,-y,1/2+z
x,1/2-y,-z
-x,1/2+y,1/2-z
-x,-y,-z
x,y,1/2-z
-x,1/2+y,z
x,1/2-y,1/2+z
loop_
_atom_site_type_symbol
_atom_site_label
_atom_site_fract_x
_atom_site_fract_y
_atom_site_fract_z
Si Si1 0.064549 0.102833 0.390849
Si Si2 0.251215 0.975226 0.027892
Si Si3 0.874668 0.516339 0.250000
Si Si4 0.227237 0.714174 0.586027
Si Si5 0.403892 0.244892 0.337910
Si Si6 0.061635 0.417840 0.339060
Si Si7 0.378247 0.854651 0.750000
O O1 0.257159 0.040878 0.423717
O O2 0.197473 0.157311 0.345849
O O3 0.917282 0.181078 0.424909
O O4 0.871444 0.022468 0.366960
O O5 0.258352 0.854601 0.039282
O O6 0.500000 0.000000 0.000000
O O7 0.000000 0.000000 0.000000
O O8 0.884710 0.443100 0.295238
O O9 0.114161 0.590850 0.250000
O O10 0.612470 0.571155 0.250000
O O11 0.489313 0.742536 0.608952
O O12 0.078902 0.655542 0.625890
O O13 0.299944 0.354760 0.321389
O O14 0.602204 0.212620 0.297934
#
# Coordination Sequence:
#
# PCOD8234767 Si02
#       7
#     8   8   4   8   8   8   4
#     4  10  23  46  71 100 143 188 237 293 363 429
#     4  11  28  49  73 108 143 181 241 301 362 436
#     4  12  25  43  68 101 146 190 238 294 353 406
#     4  10  25  44  75 101 141 190 238 293 368 423
#     4  11  24  43  72 105 144 196 240 296 355 431
#     4  10  23  42  69 100 143 191 239 291 353 421
#     4  12  27  43  70 109 142 190 242 292 343 428
#
# _framework density 23.912257
#
# number of rings (size 3 to 8) (size 9 to 14) (size 15 to 20)
#    0.000    1.333    1.667    1.500   14.000    2.667 
#    0.000    0.000    0.000    0.000    0.000    0.000 
#    0.000    0.000    0.000    0.000    0.000    0.000 
#
# Total GULP energy -595038.908352 kJ/mol
# GULP energy per Si atom -12396.643924 kJ/mol
# Density = 2.385783 g / cm^3
# Si number density = 23.912257 Si / 1000 Ang^3
#
#
#
# Elastic Constant Matrix: (Units=GPa)
#
#
# Indices 1 2 3 4 5 6 
#
# 1 60.1530 9.2847 -14.3046 0.0000 0.0000 0.0000
# 2 9.2847 116.7294 3.9301 0.0000 0.0000 0.0000
# 3 -14.3046 3.9301 43.8781 0.0000 0.0000 0.0000
# 4 0.0000 0.0000 0.0000 24.0637 0.0000 0.0000
# 5 0.0000 0.0000 0.0000 0.0000 22.0452 0.0000
# 6 0.0000 0.0000 0.0000 0.0000 0.0000 19.1703
#
#
#
# Elastic Compliance Matrix: (Units=1/GPa)
#
#
# Indices 1 2 3 4 5 6 
#
# 1 0.018338 -0.001665 0.006128 0.000000 0.000000 0.000000
# 2 -0.001665 0.008744 -0.001326 0.000000 0.000000 0.000000
# 3 0.006128 -0.001326 0.024907 0.000000 0.000000 0.000000
# 4 0.000000 0.000000 0.000000 0.041556 0.000000 0.000000
# 5 0.000000 0.000000 0.000000 0.000000 0.045361 0.000000
# 6 0.000000 0.000000 0.000000 0.000000 0.000000 0.052164
#
#
# Mechanical properties :
#
#
# Convention : Reuss Voigt Hill
#
# Bulk Modulus (GPa) = 17.16369 24.28676 20.72523
# Shear Modulus (GPa) = 24.48359 27.84585 26.16472
#
# Velocity S-wave (km/s) = 3.20330 3.41618 3.31145
# Velocity P-wave (km/s) = 4.56891 5.07337 4.82773
#
# Compressibility (1/GPa) = 0.05826252
#
# Stress axis : x y z
#
# Youngs Moduli (GPa) = 54.53027 114.36545 40.14965
#
# Poissons Ratio (x) = 0.19041 -0.24602
# Poissons Ratio (y) = 0.09079 0.05324
# Poissons Ratio (z) = -0.33414 0.15165
#
# Static dielectric constant tensor:
#      x y z
#    x 4.259440 0.000000 0.000000 
#    y 0.000000 4.941700 0.000000 
#    z 0.000000 0.000000 4.361700 
# 
# 
# High freq. dielectric constant tensor:
#      x y z
#    x 1.930490 0.000000 0.000000 
#    y 0.000000 1.971890 0.000000 
#    z 0.000000 0.000000 1.943990 
# 
# From -- ./inp_files/29129.got.cif
#   From: 2010.03.12/outbox.cif.g09.slc.cpg/sg57_15_cif.got.tgz:29129.got - 2010.04.16 15:48:40.
