data_PCOD8234901
_publ_section_title
;
Structure prediction by ZEFSAII (Michael W. Deem and Ramdas Pophale) SiO2 
 PCOD8234901
Probable space group: P B C M
;
_chemical_formula_sum "Si O2"
_cell_formula_units_Z 48
_cell_length_a 13.858899
_cell_length_b 19.042706
_cell_length_c 10.036303
_cell_angle_alpha 90.000000
_cell_angle_beta 90.000000
_cell_angle_gamma 90.000000
_cell_volume 2648.690150
_symmetry_space_group_name_H-M "P B C M"
_symmetry_group_IT_number 57
_symmetry_cell_setting 'orthorhombic'
loop_
_space_group_symop_operation_xyz
x,y,z
-x,-y,1/2+z
x,1/2-y,-z
-x,1/2+y,1/2-z
-x,-y,-z
x,y,1/2-z
-x,1/2+y,z
x,1/2-y,1/2+z
loop_
_atom_site_type_symbol
_atom_site_label
_atom_site_fract_x
_atom_site_fract_y
_atom_site_fract_z
Si Si1 0.453632 0.434464 0.750000
Si Si2 0.881530 0.553422 0.403657
Si Si3 0.376427 0.657321 0.750000
Si Si4 0.912425 0.423835 0.903189
Si Si5 0.318376 0.453074 0.501545
Si Si6 0.569686 0.932372 0.250000
Si Si7 0.281932 0.616730 0.480446
Si Si8 0.403639 0.818110 0.750000
O O1 0.392654 0.451060 0.620852
O O2 0.547562 0.484448 0.750000
O O3 0.490906 0.354339 0.750000
O O4 0.865937 0.530124 0.250000
O O5 0.902488 0.486402 0.492991
O O6 0.781271 0.587012 0.457491
O O7 0.976083 0.604541 0.414714
O O8 0.468169 0.606889 0.750000
O O9 0.306524 0.642821 0.626839
O O10 0.419034 0.735186 0.750000
O O11 0.894126 0.448705 0.750000
O O12 0.830972 0.366801 0.944803
O O13 0.366399 0.412333 0.378195
O O14 0.298376 0.533660 0.463175
O O15 0.347848 0.660294 0.381871
#
# Coordination Sequence:
#
# PCOD8234901 Si02
#       8
#     4   8   4   8   8   4   8   4
#     4  12  20  36  55  79 106 147 193 222 277 326
#     4   9  18  31  48  81 113 137 170 219 270 323
#     4  12  26  38  53  79 113 147 185 236 275 326
#     4   9  18  31  51  77 111 142 170 212 272 327
#     4  11  20  33  56  82 107 145 184 225 279 327
#     4  12  22  36  53  77 108 149 187 230 273 328
#     4  11  20  36  55  80 109 148 180 220 280 334
#     4  12  24  38  55  79 109 147 189 230 275 336
#
# _framework density 18.122164000000001
#
# number of rings (size 3 to 8) (size 9 to 14) (size 15 to 20)
#    0.000    1.333    5.000    2.000    7.000    0.000 
#    0.000    0.000    0.000    0.000    0.000    7.000 
#    0.000    0.000    0.000    0.000    0.000    0.000 
#
# Total GULP energy -594788.266916 kJ/mol
# GULP energy per Si atom -12391.422227 kJ/mol
# Density = 1.808092 g / cm^3
# Si number density = 18.122164 Si / 1000 Ang^3
#
#
#
# Elastic Constant Matrix: (Units=GPa)
#
#
# Indices 1 2 3 4 5 6 
#
# 1 142.7432 16.6143 62.6190 0.0000 0.0000 0.0000
# 2 16.6143 39.6210 4.4103 0.0000 0.0000 0.0000
# 3 62.6190 4.4103 147.0178 0.0000 0.0000 0.0000
# 4 0.0000 0.0000 0.0000 -10.3469 0.0000 0.0000
# 5 0.0000 0.0000 0.0000 0.0000 36.7319 0.0000
# 6 0.0000 0.0000 0.0000 0.0000 0.0000 9.6343
#
#
#
# Elastic Compliance Matrix: (Units=1/GPa)
#
#
# Indices 1 2 3 4 5 6 
#
# 1 0.009044 -0.003375 -0.003751 0.000000 0.000000 0.000000
# 2 -0.003375 0.026583 0.000640 0.000000 0.000000 0.000000
# 3 -0.003751 0.000640 0.008380 0.000000 0.000000 0.000000
# 4 0.000000 0.000000 0.000000 -0.096647 0.000000 0.000000
# 5 0.000000 0.000000 0.000000 0.000000 0.027224 0.000000
# 6 0.000000 0.000000 0.000000 0.000000 0.000000 0.103795
#
#
# Mechanical properties :
#
#
# Convention : Reuss Voigt Hill
#
# Bulk Modulus (GPa) = 32.22074 55.18547 43.70310
# Shear Modulus (GPa) = 49.16598 23.58640 36.37619
#
# Velocity S-wave (km/s) = 5.21433 3.61158 4.48512
# Velocity P-wave (km/s) = 7.35327 6.92166 7.14073
#
# Compressibility (1/GPa) = 0.03103591
#
# Stress axis : x y z
#
# Youngs Moduli (GPa) = 110.57301 37.61788 119.32804
#
# Poissons Ratio (x) = 0.12695 0.44757
# Poissons Ratio (y) = 0.37317 -0.07637
# Poissons Ratio (z) = 0.41473 -0.02408
#
# Static dielectric constant tensor:
#      x y z
#    x 4.251260 0.000000 0.000000 
#    y 0.000000 2.859620 0.000000 
#    z 0.000000 0.000000 3.799310 
# 
# 
# High freq. dielectric constant tensor:
#      x y z
#    x 1.729210 0.000000 0.000000 
#    y 0.000000 1.621930 0.000000 
#    z 0.000000 0.000000 1.730410 
# 
# From -- ./inp_files/4795.got.cif
#   From: 2010.03.12/outbox.cif.g09.slc.cpg/sg57_3_cif.got.tgz:4795.got - 2010.04.16 15:48:40.
