data_PCOD8234323
_publ_section_title
;
Structure prediction by ZEFSAII (Michael W. Deem and Ramdas Pophale) SiO2 
 PCOD8234323
Probable space group: P B C M
;
_chemical_formula_sum "Si O2"
_cell_formula_units_Z 48
_cell_length_a 15.008558
_cell_length_b 18.629988
_cell_length_c 8.620008
_cell_angle_alpha 90.000000
_cell_angle_beta 90.000000
_cell_angle_gamma 90.000000
_cell_volume 2410.234019
_symmetry_space_group_name_H-M "P B C M"
_symmetry_group_IT_number 57
_symmetry_cell_setting 'orthorhombic'
loop_
_space_group_symop_operation_xyz
x,y,z
-x,-y,1/2+z
x,1/2-y,-z
-x,1/2+y,1/2-z
-x,-y,-z
x,y,1/2-z
-x,1/2+y,z
x,1/2-y,1/2+z
loop_
_atom_site_type_symbol
_atom_site_label
_atom_site_fract_x
_atom_site_fract_y
_atom_site_fract_z
Si Si1 0.849475 0.935149 0.431471
Si Si2 0.510517 0.673686 0.430887
Si Si3 0.650924 0.098739 0.572155
Si Si4 0.659743 0.935367 0.567533
Si Si5 0.988459 0.826494 0.932794
Si Si6 0.853344 0.410790 0.068485
O O1 0.866491 0.923415 0.250000
O O2 0.748284 0.915612 0.473553
O O3 0.912435 0.883315 0.528626
O O4 0.873674 0.016579 0.475262
O O5 0.535275 0.750000 0.500000
O O6 0.520223 0.679946 0.250000
O O7 0.410325 0.650436 0.470545
O O8 0.581329 0.615718 0.494280
O O9 0.628273 0.114758 0.750000
O O10 0.753472 0.116448 0.534177
O O11 0.630071 0.016342 0.529845
O O12 0.680079 0.926945 0.750000
O O13 0.002221 0.821379 0.750000
O O14 0.958893 0.750000 0.000000
O O15 0.081165 0.848788 0.012419
O O16 0.865715 0.427455 0.250000
#
# Coordination Sequence:
#
# PCOD8234323 Si02
#       6
#     8   8   8   8   8   8
#     4  11  22  38  62  90 117 151 192 237 286 341
#     4  11  23  37  56  82 116 153 190 232 283 341
#     4   9  19  37  61  85 112 145 187 237 286 334
#     4   9  20  39  60  84 113 149 191 239 287 335
#     4  12  25  41  60  85 118 155 193 237 288 345
#     4  10  21  40  63  88 117 151 192 240 287 338
#
# _framework density 19.915078999999999
#
# number of rings (size 3 to 8) (size 9 to 14) (size 15 to 20)
#    0.000    1.667    0.000    6.000    0.000    6.000 
#    0.000    1.667    0.000    0.000    0.000    0.000 
#    0.000    0.000    0.000    0.000    0.000    0.000 
#
# Total GULP energy -595462.325660 kJ/mol
# GULP energy per Si atom -12405.465118 kJ/mol
# Density = 1.986975 g / cm^3
# Si number density = 19.915079 Si / 1000 Ang^3
#
#
#
# Elastic Constant Matrix: (Units=GPa)
#
#
# Indices 1 2 3 4 5 6 
#
# 1 73.3085 24.1410 21.3599 0.0000 0.0000 0.0000
# 2 24.1410 53.8993 15.2749 0.0000 0.0000 0.0000
# 3 21.3599 15.2749 58.5545 0.0000 0.0000 0.0000
# 4 0.0000 0.0000 0.0000 33.8936 0.0000 0.0000
# 5 0.0000 0.0000 0.0000 0.0000 34.7873 0.0000
# 6 0.0000 0.0000 0.0000 0.0000 0.0000 5.5568
#
#
#
# Elastic Compliance Matrix: (Units=1/GPa)
#
#
# Indices 1 2 3 4 5 6 
#
# 1 0.017062 -0.006347 -0.004568 0.000000 0.000000 0.000000
# 2 -0.006347 0.022396 -0.003527 0.000000 0.000000 0.000000
# 3 -0.004568 -0.003527 0.019665 0.000000 0.000000 0.000000
# 4 0.000000 0.000000 0.000000 0.029504 0.000000 0.000000
# 5 0.000000 0.000000 0.000000 0.000000 0.028746 0.000000
# 6 0.000000 0.000000 0.000000 0.000000 0.000000 0.179959
#
#
# Mechanical properties :
#
#
# Convention : Reuss Voigt Hill
#
# Bulk Modulus (GPa) = 33.07157 34.14599 33.60878
# Shear Modulus (GPa) = 14.86787 23.17997 19.02392
#
# Velocity S-wave (km/s) = 2.73530 3.41536 3.09407
# Velocity P-wave (km/s) = 5.15928 5.72153 5.44766
#
# Compressibility (1/GPa) = 0.03023745
#
# Stress axis : x y z
#
# Youngs Moduli (GPa) = 58.60884 44.65176 50.85283
#
# Poissons Ratio (x) = 0.28342 0.23231
# Poissons Ratio (y) = 0.37201 0.17935
# Poissons Ratio (z) = 0.26774 0.15748
#
# Static dielectric constant tensor:
#      x y z
#    x 3.732310 0.000000 0.000000 
#    y 0.000000 3.485370 0.000000 
#    z 0.000000 0.000000 3.582520 
# 
# 
# High freq. dielectric constant tensor:
#      x y z
#    x 1.786570 0.000000 0.000000 
#    y 0.000000 1.773960 0.000000 
#    z 0.000000 0.000000 1.781590 
# 
# From -- ./inp_files/4553.got.cif
#   From: 2010.03.12/outbox.cif.g09.slc.cpg/sg57_3_cif.got.tgz:4553.got - 2010.04.16 15:48:40.
