data_PCOD8234193
_publ_section_title
;
Structure prediction by ZEFSAII (Michael W. Deem and Ramdas Pophale) SiO2 
 PCOD8234193
Probable space group: P B C M
;
_chemical_formula_sum "Si O2"
_cell_formula_units_Z 56
_cell_length_a 6.394299
_cell_length_b 14.350085
_cell_length_c 27.308449
_cell_angle_alpha 90.000000
_cell_angle_beta 90.000000
_cell_angle_gamma 90.000000
_cell_volume 2505.788712
_symmetry_space_group_name_H-M "P B C M"
_symmetry_group_IT_number 57
_symmetry_cell_setting 'orthorhombic'
loop_
_space_group_symop_operation_xyz
x,y,z
-x,-y,1/2+z
x,1/2-y,-z
-x,1/2+y,1/2-z
-x,-y,-z
x,y,1/2-z
-x,1/2+y,z
x,1/2-y,1/2+z
loop_
_atom_site_type_symbol
_atom_site_label
_atom_site_fract_x
_atom_site_fract_y
_atom_site_fract_z
Si Si1 0.939925 0.916868 0.446627
Si Si2 0.072595 0.756470 0.120163
Si Si3 0.600722 0.322344 0.194461
Si Si4 0.316809 0.038280 0.467165
Si Si5 0.542113 0.475454 0.803942
Si Si6 0.320949 0.913336 0.597150
Si Si7 0.238921 0.322494 0.695925
O O1 0.840014 0.895443 0.500728
O O2 0.934184 0.823476 0.414395
O O3 0.802115 0.000637 0.425587
O O4 0.180929 0.950140 0.448732
O O5 0.211525 0.819543 0.155904
O O6 0.208142 0.685531 0.086388
O O7 0.924689 0.693138 0.153339
O O8 0.689194 0.322695 0.250000
O O9 0.471801 0.415878 0.183923
O O10 0.448391 0.236212 0.185402
O O11 0.436544 0.091011 0.422429
O O12 0.500000 0.000000 0.500000
O O13 0.643675 0.459280 0.750000
O O14 0.686784 0.426593 0.844249
O O15 0.309387 0.430533 0.805085
O O16 0.148275 0.296711 0.750000
#
# Coordination Sequence:
#
# PCOD8234193 Si02
#       7
#     8   8   8   8   8   8   8
#     4  10  23  44  68  96 127 168 221 271 328 395
#     4  12  24  36  65  98 128 168 212 269 329 386
#     4  10  21  39  60  88 130 175 217 264 318 378
#     4   9  21  47  71  89 126 166 211 277 329 386
#     4  10  21  40  65  91 128 175 214 257 316 380
#     4  11  23  40  68  96 131 174 215 267 330 389
#     4  10  22  40  59  91 134 172 219 266 311 381
#
# _framework density 22.348251999999999
#
# number of rings (size 3 to 8) (size 9 to 14) (size 15 to 20)
#    0.000    1.714    1.429    2.143    4.000    1.714 
#    0.000    8.571    0.000    0.000    0.000    0.000 
#    0.000    0.000    0.000    0.000    0.000    0.000 
#
# Total GULP energy -694198.195117 kJ/mol
# GULP energy per Si atom -12396.396341 kJ/mol
# Density = 2.229739 g / cm^3
# Si number density = 22.348252 Si / 1000 Ang^3
#
#
#
# Elastic Constant Matrix: (Units=GPa)
#
#
# Indices 1 2 3 4 5 6 
#
# 1 80.7598 21.1120 30.7529 0.0000 0.0000 0.0000
# 2 21.1120 90.6899 29.8401 0.0000 0.0000 0.0000
# 3 30.7529 29.8401 88.8629 0.0000 0.0000 0.0000
# 4 0.0000 0.0000 0.0000 19.0359 0.0000 0.0000
# 5 0.0000 0.0000 0.0000 0.0000 41.4688 0.0000
# 6 0.0000 0.0000 0.0000 0.0000 0.0000 27.6542
#
#
#
# Elastic Compliance Matrix: (Units=1/GPa)
#
#
# Indices 1 2 3 4 5 6 
#
# 1 0.014561 -0.001947 -0.004386 0.000000 0.000000 0.000000
# 2 -0.001947 0.012657 -0.003576 0.000000 0.000000 0.000000
# 3 -0.004386 -0.003576 0.013972 0.000000 0.000000 0.000000
# 4 0.000000 0.000000 0.000000 0.052532 0.000000 0.000000
# 5 0.000000 0.000000 0.000000 0.000000 0.024114 0.000000
# 6 0.000000 0.000000 0.000000 0.000000 0.000000 0.036161
#
#
# Mechanical properties :
#
#
# Convention : Reuss Voigt Hill
#
# Bulk Modulus (GPa) = 46.78913 47.08028 46.93471
# Shear Modulus (GPa) = 27.63364 29.53896 28.58630
#
# Velocity S-wave (km/s) = 3.52021 3.63954 3.58037
# Velocity P-wave (km/s) = 6.12408 6.22688 6.17569
#
# Compressibility (1/GPa) = 0.02137248
#
# Stress axis : x y z
#
# Youngs Moduli (GPa) = 68.67520 79.01067 71.57212
#
# Poissons Ratio (x) = 0.15382 0.31388
# Poissons Ratio (y) = 0.13370 0.25596
# Poissons Ratio (z) = 0.30118 0.28257
#
# Static dielectric constant tensor:
#      x y z
#    x 4.116440 0.000000 0.000000 
#    y 0.000000 3.854880 0.000000 
#    z 0.000000 0.000000 4.586280 
# 
# 
# High freq. dielectric constant tensor:
#      x y z
#    x 1.867920 0.000000 0.000000 
#    y 0.000000 1.869450 0.000000 
#    z 0.000000 0.000000 1.894010 
# 
# From -- ./inp_files/29154.got.cif
#   From: 2010.03.12/outbox.cif.g09.slc.cpg/sg57_15_cif.got.tgz:29154.got - 2010.04.16 15:48:40.
