data_PCOD8234082
_publ_section_title
;
Structure prediction by ZEFSAII (Michael W. Deem and Ramdas Pophale) SiO2 
 PCOD8234082
Probable space group: P B C M
;
_chemical_formula_sum "Si O2"
_cell_formula_units_Z 64
_cell_length_a 8.560948
_cell_length_b 11.577217
_cell_length_c 30.408217
_cell_angle_alpha 90.000000
_cell_angle_beta 90.000000
_cell_angle_gamma 90.000000
_cell_volume 3013.817766
_symmetry_space_group_name_H-M "P B C M"
_symmetry_group_IT_number 57
_symmetry_cell_setting 'orthorhombic'
loop_
_space_group_symop_operation_xyz
x,y,z
-x,-y,1/2+z
x,1/2-y,-z
-x,1/2+y,1/2-z
-x,-y,-z
x,y,1/2-z
-x,1/2+y,z
x,1/2-y,1/2+z
loop_
_atom_site_type_symbol
_atom_site_label
_atom_site_fract_x
_atom_site_fract_y
_atom_site_fract_z
Si Si1 0.495011 0.202164 0.700723
Si Si2 0.000785 0.195385 0.453512
Si Si3 0.028193 0.155829 0.870909
Si Si4 0.660667 0.272653 0.452270
Si Si5 0.802741 0.999629 0.919792
Si Si6 0.834059 0.222103 0.200666
Si Si7 0.532296 0.849869 0.881012
Si Si8 0.697444 0.994428 0.165167
O O1 0.459436 0.248517 0.750000
O O2 0.681678 0.198007 0.692836
O O3 0.420691 0.288928 0.664908
O O4 0.425414 0.074035 0.695732
O O5 0.048834 0.250000 0.500000
O O6 0.071679 0.273090 0.414484
O O7 0.813305 0.190827 0.447634
O O8 0.071694 0.066694 0.450483
O O9 0.185118 0.095675 0.855903
O O10 0.893170 0.062386 0.880188
O O11 0.968911 0.242087 0.832968
O O12 0.583548 0.250000 0.500000
O O13 0.711677 0.406583 0.449168
O O14 0.534255 0.244958 0.414987
O O15 0.686076 0.906810 0.899921
O O16 0.899193 0.237944 0.250000
O O17 0.789086 0.088072 0.194174
O O18 0.397738 0.944687 0.873966
#
# Coordination Sequence:
#
# PCOD8234082 Si02
#       8
#     8   8   8   8   8   8   8   8
#     4  10  21  38  60  85 114 151 195 238 285 345
#     4  10  22  39  61  87 117 154 199 244 293 353
#     4  11  22  39  60  87 118 152 195 241 289 347
#     4  10  23  40  59  87 120 155 198 244 292 351
#     4  11  22  39  61  85 119 155 192 242 298 346
#     4  10  22  39  58  85 119 151 191 240 286 342
#     4  11  22  39  60  88 120 154 197 243 291 350
#     4  11  21  37  62  85 117 158 194 237 295 346
#
# _framework density 21.235524999999999
#
# number of rings (size 3 to 8) (size 9 to 14) (size 15 to 20)
#    0.000    1.500    0.000    7.125    0.000    8.000 
#    0.000    0.625    0.000    0.000    0.000    0.000 
#    0.000    0.000    0.000    0.000    0.000    0.000 
#
# Total GULP energy -793776.164808 kJ/mol
# GULP energy per Si atom -12402.752575 kJ/mol
# Density = 2.118719 g / cm^3
# Si number density = 21.235525 Si / 1000 Ang^3
#
#
#
# Elastic Constant Matrix: (Units=GPa)
#
#
# Indices 1 2 3 4 5 6 
#
# 1 52.1268 41.8324 34.3857 0.0000 0.0000 0.0000
# 2 41.8324 106.7318 52.5161 0.0000 0.0000 0.0000
# 3 34.3857 52.5161 144.5060 0.0000 0.0000 0.0000
# 4 0.0000 0.0000 0.0000 24.0989 0.0000 0.0000
# 5 0.0000 0.0000 0.0000 0.0000 16.7648 0.0000
# 6 0.0000 0.0000 0.0000 0.0000 0.0000 46.6411
#
#
#
# Elastic Compliance Matrix: (Units=1/GPa)
#
#
# Indices 1 2 3 4 5 6 
#
# 1 0.029304 -0.009808 -0.003408 0.000000 0.000000 0.000000
# 2 -0.009808 0.014692 -0.003006 0.000000 0.000000 0.000000
# 3 -0.003408 -0.003006 0.008823 0.000000 0.000000 0.000000
# 4 0.000000 0.000000 0.000000 0.041496 0.000000 0.000000
# 5 0.000000 0.000000 0.000000 0.000000 0.059649 0.000000
# 6 0.000000 0.000000 0.000000 0.000000 0.000000 0.021440
#
#
# Mechanical properties :
#
#
# Convention : Reuss Voigt Hill
#
# Bulk Modulus (GPa) = 49.07967 62.31476 55.69722
# Shear Modulus (GPa) = 23.29480 29.14297 26.21889
#
# Velocity S-wave (km/s) = 3.31565 3.70857 3.51760
# Velocity P-wave (km/s) = 6.14982 6.90987 6.54089
#
# Compressibility (1/GPa) = 0.02037503
#
# Stress axis : x y z
#
# Youngs Moduli (GPa) = 34.12561 68.06269 113.33431
#
# Poissons Ratio (x) = 0.66757 0.38629
# Poissons Ratio (y) = 0.33471 0.34064
# Poissons Ratio (z) = 0.11631 0.20457
#
# Static dielectric constant tensor:
#      x y z
#    x 3.695380 0.000000 0.000000 
#    y 0.000000 3.879220 0.000000 
#    z 0.000000 0.000000 3.983320 
# 
# 
# High freq. dielectric constant tensor:
#      x y z
#    x 1.822560 0.000000 0.000000 
#    y 0.000000 1.834410 0.000000 
#    z 0.000000 0.000000 1.836890 
# 
# From -- ./inp_files/29623.got.cif
#   From: 2010.03.12/outbox.cif.g09.slc.cpg/sg57_15_cif.got.tgz:29623.got - 2010.04.16 15:48:40.
