data_PCOD8234350
_publ_section_title
;
Structure prediction by ZEFSAII (Michael W. Deem and Ramdas Pophale) SiO2 
 PCOD8234350
Probable space group: P B C M
;
_chemical_formula_sum "Si O2"
_cell_formula_units_Z 56
_cell_length_a 14.412370
_cell_length_b 11.276213
_cell_length_c 16.171078
_cell_angle_alpha 90.000000
_cell_angle_beta 90.000000
_cell_angle_gamma 90.000000
_cell_volume 2628.074339
_symmetry_space_group_name_H-M "P B C M"
_symmetry_group_IT_number 57
_symmetry_cell_setting 'orthorhombic'
loop_
_space_group_symop_operation_xyz
x,y,z
-x,-y,1/2+z
x,1/2-y,-z
-x,1/2+y,1/2-z
-x,-y,-z
x,y,1/2-z
-x,1/2+y,z
x,1/2-y,1/2+z
loop_
_atom_site_type_symbol
_atom_site_label
_atom_site_fract_x
_atom_site_fract_y
_atom_site_fract_z
Si Si1 0.194676 0.616752 0.341634
Si Si2 0.276335 0.386940 0.397492
Si Si3 0.014655 0.625197 0.450892
Si Si4 0.159639 0.170284 0.154739
Si Si5 0.356315 0.703007 0.845304
Si Si6 0.563555 0.727791 0.154697
Si Si7 0.685226 0.962673 0.919899
O O1 0.156067 0.647755 0.250000
O O2 0.239285 0.486667 0.335923
O O3 0.276038 0.705501 0.367471
O O4 0.115094 0.622452 0.409709
O O5 0.202961 0.279250 0.396881
O O6 0.378494 0.345882 0.368551
O O7 0.277870 0.441079 0.488529
O O8 0.006489 0.750000 0.500000
O O9 0.939217 0.629919 0.378830
O O10 0.000000 0.500000 0.500000
O O11 0.149140 0.205995 0.250000
O O12 0.231103 0.061550 0.144496
O O13 0.351730 0.660335 0.750000
O O14 0.455661 0.759881 0.863987
O O15 0.345817 0.596585 0.909138
O O16 0.582739 0.696672 0.250000
O O17 0.597228 0.620289 0.097856
#
# Coordination Sequence:
#
# PCOD8234350 Si02
#       7
#     8   8   8   8   8   8   8
#     4  11  25  45  66  98 134 176 218 273 335 404
#     4  11  23  41  67  96 133 171 221 276 336 399
#     4  12  27  46  71 103 138 176 222 280 347 404
#     4  11  22  42  71  98 127 176 224 272 327 408
#     4  10  24  41  63  92 130 176 224 273 334 400
#     4  10  21  40  65  92 126 175 224 271 322 395
#     4  11  22  40  63  97 131 169 218 279 338 393
#
# _framework density 21.308378000000001
#
# number of rings (size 3 to 8) (size 9 to 14) (size 15 to 20)
#    0.000    1.143    0.000    8.143    6.000    0.571 
#    2.571    1.429    0.000    0.000    0.000    0.000 
#    0.000    0.000    0.000    0.000    0.000    0.000 
#
# Total GULP energy -694472.191731 kJ/mol
# GULP energy per Si atom -12401.289138 kJ/mol
# Density = 2.125988 g / cm^3
# Si number density = 21.308378 Si / 1000 Ang^3
#
#
#
# Elastic Constant Matrix: (Units=GPa)
#
#
# Indices 1 2 3 4 5 6 
#
# 1 153.4443 48.1230 55.4282 0.0000 0.0000 0.0000
# 2 48.1230 82.1317 24.8777 0.0000 0.0000 0.0000
# 3 55.4282 24.8777 90.5257 0.0000 0.0000 0.0000
# 4 0.0000 0.0000 0.0000 29.4556 0.0000 0.0000
# 5 0.0000 0.0000 0.0000 0.0000 39.5954 0.0000
# 6 0.0000 0.0000 0.0000 0.0000 0.0000 21.3480
#
#
#
# Elastic Compliance Matrix: (Units=1/GPa)
#
#
# Indices 1 2 3 4 5 6 
#
# 1 0.009511 -0.004155 -0.004682 0.000000 0.000000 0.000000
# 2 -0.004155 0.015096 -0.001605 0.000000 0.000000 0.000000
# 3 -0.004682 -0.001605 0.014354 0.000000 0.000000 0.000000
# 4 0.000000 0.000000 0.000000 0.033949 0.000000 0.000000
# 5 0.000000 0.000000 0.000000 0.000000 0.025255 0.000000
# 6 0.000000 0.000000 0.000000 0.000000 0.000000 0.046843
#
#
# Mechanical properties :
#
#
# Convention : Reuss Voigt Hill
#
# Bulk Modulus (GPa) = 55.31308 64.77327 60.04318
# Shear Modulus (GPa) = 29.08362 31.25798 30.17080
#
# Velocity S-wave (km/s) = 3.69845 3.83421 3.76694
# Velocity P-wave (km/s) = 6.65228 7.07570 6.86726
#
# Compressibility (1/GPa) = 0.01807891
#
# Stress axis : x y z
#
# Youngs Moduli (GPa) = 105.13875 66.24280 69.66579
#
# Poissons Ratio (x) = 0.27522 0.32617
# Poissons Ratio (y) = 0.43682 0.11179
# Poissons Ratio (z) = 0.49225 0.10630
#
# Static dielectric constant tensor:
#      x y z
#    x 3.940220 0.000000 0.000000 
#    y 0.000000 3.921270 0.000000 
#    z 0.000000 0.000000 3.807690 
# 
# 
# High freq. dielectric constant tensor:
#      x y z
#    x 1.845850 0.000000 0.000000 
#    y 0.000000 1.836080 0.000000 
#    z 0.000000 0.000000 1.842390 
# 
# From -- ./inp_files/18491.got.cif
#   From: 2010.03.12/outbox.cif.g09.slc.cpg/sg57_10_cif.got.tgz:18491.got - 2010.04.16 15:48:40.
