data_PCOD8234785
_publ_section_title
;
Structure prediction by ZEFSAII (Michael W. Deem and Ramdas Pophale) SiO2 
 PCOD8234785
Probable space group: P B C M
;
_chemical_formula_sum "Si O2"
_cell_formula_units_Z 40
_cell_length_a 8.318768
_cell_length_b 12.101238
_cell_length_c 17.367101
_cell_angle_alpha 90.000000
_cell_angle_beta 90.000000
_cell_angle_gamma 90.000000
_cell_volume 1748.300754
_symmetry_space_group_name_H-M "P B C M"
_symmetry_group_IT_number 57
_symmetry_cell_setting 'orthorhombic'
loop_
_space_group_symop_operation_xyz
x,y,z
-x,-y,1/2+z
x,1/2-y,-z
-x,1/2+y,1/2-z
-x,-y,-z
x,y,1/2-z
-x,1/2+y,z
x,1/2-y,1/2+z
loop_
_atom_site_type_symbol
_atom_site_label
_atom_site_fract_x
_atom_site_fract_y
_atom_site_fract_z
Si Si1 0.239460 0.173412 0.334176
Si Si2 0.643317 0.896521 0.159927
Si Si3 0.701702 0.054318 0.602643
Si Si4 0.843536 0.461289 0.549581
Si Si5 0.890237 0.238518 0.164545
O O1 0.274549 0.123142 0.250000
O O2 0.375395 0.264138 0.356184
O O3 0.081743 0.250973 0.333276
O O4 0.222710 0.068891 0.389369
O O5 0.679568 0.920142 0.250000
O O6 0.476136 0.951482 0.136198
O O7 0.786567 0.942511 0.106694
O O8 0.704189 0.072896 0.511070
O O9 0.811580 0.143891 0.645238
O O10 0.857627 0.352115 0.600304
O O11 0.000000 0.500000 0.500000
O O12 0.827868 0.202326 0.250000
#
# Coordination Sequence:
#
# PCOD8234785 Si02
#       5
#     8   8   8   8   8
#     4  10  23  43  70 101 138 187 240 295 356 432
#     4  11  26  46  71 104 146 193 242 299 370 445
#     4  12  25  46  72 105 145 188 243 306 372 432
#     4  12  25  47  72 106 145 190 242 306 373 430
#     4  11  24  45  73 102 139 191 245 297 359 439
#
# _framework density 22.879358
#
# number of rings (size 3 to 8) (size 9 to 14) (size 15 to 20)
#    0.000    0.800    2.000    4.800    2.800    0.800 
#    3.600    0.000    0.000    0.000    0.000    0.000 
#    0.000    0.000    0.000    0.000    0.000    0.000 
#
# Total GULP energy -495748.119993 kJ/mol
# GULP energy per Si atom -12393.703000 kJ/mol
# Density = 2.282728 g / cm^3
# Si number density = 22.879358 Si / 1000 Ang^3
#
#
#
# Elastic Constant Matrix: (Units=GPa)
#
#
# Indices 1 2 3 4 5 6 
#
# 1 80.2426 47.2320 50.5558 0.0000 0.0000 0.0000
# 2 47.2320 125.9099 64.1590 0.0000 0.0000 0.0000
# 3 50.5558 64.1590 181.0225 0.0000 0.0000 0.0000
# 4 0.0000 0.0000 0.0000 32.6570 0.0000 0.0000
# 5 0.0000 0.0000 0.0000 0.0000 16.3252 0.0000
# 6 0.0000 0.0000 0.0000 0.0000 0.0000 36.6369
#
#
#
# Elastic Compliance Matrix: (Units=1/GPa)
#
#
# Indices 1 2 3 4 5 6 
#
# 1 0.017303 -0.004916 -0.003090 0.000000 0.000000 0.000000
# 2 -0.004916 0.011090 -0.002557 0.000000 0.000000 0.000000
# 3 -0.003090 -0.002557 0.007294 0.000000 0.000000 0.000000
# 4 0.000000 0.000000 0.000000 0.030621 0.000000 0.000000
# 5 0.000000 0.000000 0.000000 0.000000 0.061255 0.000000
# 6 0.000000 0.000000 0.000000 0.000000 0.000000 0.027295
#
#
# Mechanical properties :
#
#
# Convention : Reuss Voigt Hill
#
# Bulk Modulus (GPa) = 68.68701 79.00763 73.84732
# Shear Modulus (GPa) = 27.64924 32.13904 29.89414
#
# Velocity S-wave (km/s) = 3.48009 3.75202 3.61861
# Velocity P-wave (km/s) = 6.79960 7.30599 7.05734
#
# Compressibility (1/GPa) = 0.01455879
#
# Stress axis : x y z
#
# Youngs Moduli (GPa) = 57.79450 90.17498 137.10795
#
# Poissons Ratio (x) = 0.44332 0.42364
# Poissons Ratio (y) = 0.28413 0.35064
# Poissons Ratio (z) = 0.17858 0.23062
#
# Static dielectric constant tensor:
#      x y z
#    x 4.104390 0.000000 0.000000 
#    y 0.000000 3.940970 0.000000 
#    z 0.000000 0.000000 4.496040 
# 
# 
# High freq. dielectric constant tensor:
#      x y z
#    x 1.894970 0.000000 0.000000 
#    y 0.000000 1.908690 0.000000 
#    z 0.000000 0.000000 1.922180 
# 
# From -- ./inp_files/20553.got.cif
#   From: 2010.03.12/outbox.cif.g09.slc.cpg/sg57_11_cif.got.tgz:20553.got - 2010.04.16 15:48:40.
