data_PCOD8234957
_publ_section_title
;
Structure prediction by ZEFSAII (Michael W. Deem and Ramdas Pophale) SiO2 
 PCOD8234957
Probable space group: P B C M
;
_chemical_formula_sum "Si O2"
_cell_formula_units_Z 48
_cell_length_a 4.946736
_cell_length_b 16.431748
_cell_length_c 28.439394
_cell_angle_alpha 90.000000
_cell_angle_beta 90.000000
_cell_angle_gamma 90.000000
_cell_volume 2311.654033
_symmetry_space_group_name_H-M "P B C M"
_symmetry_group_IT_number 57
_symmetry_cell_setting 'orthorhombic'
loop_
_space_group_symop_operation_xyz
x,y,z
-x,-y,1/2+z
x,1/2-y,-z
-x,1/2+y,1/2-z
-x,-y,-z
x,y,1/2-z
-x,1/2+y,z
x,1/2-y,1/2+z
loop_
_atom_site_type_symbol
_atom_site_label
_atom_site_fract_x
_atom_site_fract_y
_atom_site_fract_z
Si Si1 0.250381 0.505265 0.966382
Si Si2 0.116916 0.878342 0.388588
Si Si3 0.648780 0.608417 0.119889
Si Si4 0.157850 0.705145 0.146656
Si Si5 0.610180 0.548963 0.655618
Si Si6 0.675306 0.876372 0.250000
Si Si7 0.824718 0.267614 0.250000
O O1 0.237003 0.591940 0.938782
O O2 0.275649 0.429519 0.930521
O O3 0.500000 0.500000 0.000000
O O4 0.000000 0.500000 0.000000
O O5 0.354953 0.891399 0.350836
O O6 0.042181 0.783759 0.381844
O O7 0.850614 0.934106 0.381527
O O8 0.927481 0.636506 0.143530
O O9 0.498604 0.542295 0.152428
O O10 0.430948 0.681415 0.118303
O O11 0.222827 0.716665 0.202066
O O12 0.738322 0.566141 0.706066
O O13 0.867015 0.797863 0.250000
O O14 0.369219 0.845408 0.250000
#
# Coordination Sequence:
#
# PCOD8234957 Si02
#       7
#     8   8   8   8   8   4   4
#     4  11  23  45  70  93 122 167 219 271 327 398
#     4  11  22  41  66  93 126 176 217 261 332 397
#     4  11  25  41  64  95 134 164 213 277 348 377
#     4  12  23  42  62  97 136 176 208 271 331 392
#     4  11  21  39  62  91 125 173 222 267 308 386
#     4  12  20  38  62  94 120 170 240 264 292 388
#     4  12  24  38  64  94 136 174 226 254 318 394
#
# _framework density 20.764353
#
# number of rings (size 3 to 8) (size 9 to 14) (size 15 to 20)
#    0.000    0.667    3.333    7.000    0.000    1.333 
#    0.000    5.000    0.000    0.000    0.000    0.000 
#    0.000    0.000    0.000    0.000    0.000    0.000 
#
# Total GULP energy -595100.577233 kJ/mol
# GULP energy per Si atom -12397.928692 kJ/mol
# Density = 2.071709 g / cm^3
# Si number density = 20.764353 Si / 1000 Ang^3
#
#
#
# Elastic Constant Matrix: (Units=GPa)
#
#
# Indices 1 2 3 4 5 6 
#
# 1 124.8620 25.9960 45.5499 0.0000 0.0000 0.0000
# 2 25.9960 84.7606 64.6982 0.0000 0.0000 0.0000
# 3 45.5499 64.6982 131.4359 0.0000 0.0000 0.0000
# 4 0.0000 0.0000 0.0000 35.4475 0.0000 0.0000
# 5 0.0000 0.0000 0.0000 0.0000 38.8188 0.0000
# 6 0.0000 0.0000 0.0000 0.0000 0.0000 42.6010
#
#
#
# Elastic Compliance Matrix: (Units=1/GPa)
#
#
# Indices 1 2 3 4 5 6 
#
# 1 0.009188 -0.000621 -0.002879 0.000000 0.000000 0.000000
# 2 -0.000621 0.018941 -0.009108 0.000000 0.000000 0.000000
# 3 -0.002879 -0.009108 0.013089 0.000000 0.000000 0.000000
# 4 0.000000 0.000000 0.000000 0.028211 0.000000 0.000000
# 5 0.000000 0.000000 0.000000 0.000000 0.025761 0.000000
# 6 0.000000 0.000000 0.000000 0.000000 0.000000 0.023474
#
#
# Mechanical properties :
#
#
# Convention : Reuss Voigt Hill
#
# Bulk Modulus (GPa) = 62.48854 68.17186 65.33020
# Shear Modulus (GPa) = 33.50911 37.02775 35.26843
#
# Velocity S-wave (km/s) = 4.02155 4.22742 4.12577
# Velocity P-wave (km/s) = 7.19189 7.53197 7.36389
#
# Compressibility (1/GPa) = 0.01600294
#
# Stress axis : x y z
#
# Youngs Moduli (GPa) = 108.83495 52.79630 76.39772
#
# Poissons Ratio (x) = 0.03277 0.21993
# Poissons Ratio (y) = 0.06755 0.69585
# Poissons Ratio (z) = 0.31330 0.48089
#
# Static dielectric constant tensor:
#      x y z
#    x 3.884590 0.000000 0.000000 
#    y 0.000000 3.682070 0.000000 
#    z 0.000000 0.000000 5.142460 
# 
# 
# High freq. dielectric constant tensor:
#      x y z
#    x 1.840020 0.000000 0.000000 
#    y 0.000000 1.803380 0.000000 
#    z 0.000000 0.000000 1.804440 
# 
# From -- ./inp_files/27988.got.cif
#   From: 2010.03.12/outbox.cif.g09.slc.cpg/sg57_14_cif.got.tgz:27988.got - 2010.04.16 15:48:40.
