data_PCOD8234607
_publ_section_title
;
Structure prediction by ZEFSAII (Michael W. Deem and Ramdas Pophale) SiO2 
 PCOD8234607
Probable space group: P B C M
;
_chemical_formula_sum "Si O2"
_cell_formula_units_Z 48
_cell_length_a 7.675936
_cell_length_b 20.499767
_cell_length_c 14.820878
_cell_angle_alpha 90.000000
_cell_angle_beta 90.000000
_cell_angle_gamma 90.000000
_cell_volume 2332.137768
_symmetry_space_group_name_H-M "P B C M"
_symmetry_group_IT_number 57
_symmetry_cell_setting 'orthorhombic'
loop_
_space_group_symop_operation_xyz
x,y,z
-x,-y,1/2+z
x,1/2-y,-z
-x,1/2+y,1/2-z
-x,-y,-z
x,y,1/2-z
-x,1/2+y,z
x,1/2-y,1/2+z
loop_
_atom_site_type_symbol
_atom_site_label
_atom_site_fract_x
_atom_site_fract_y
_atom_site_fract_z
Si Si1 0.356938 0.255684 0.250000
Si Si2 0.381571 0.538386 0.396655
Si Si3 0.857863 0.241902 0.750000
Si Si4 0.888636 0.785938 0.096464
Si Si5 0.410665 0.863827 0.250000
Si Si6 0.357574 0.855634 0.750000
Si Si7 0.709478 0.043523 0.904363
Si Si8 0.095770 0.069987 0.645074
O O1 0.253791 0.247648 0.343911
O O2 0.394649 0.335164 0.250000
O O3 0.489212 0.196320 0.250000
O O4 0.358301 0.600994 0.337465
O O5 0.324555 0.564688 0.493672
O O6 0.587402 0.520061 0.388784
O O7 0.258827 0.478411 0.366165
O O8 0.673769 0.207174 0.750000
O O9 0.828711 0.319387 0.750000
O O10 0.938212 0.220085 0.655359
O O11 0.863813 0.864736 0.086229
O O12 0.902523 0.750000 0.000000
O O13 0.364535 0.901272 0.339922
O O14 0.916409 0.033563 0.887265
O O15 0.070014 0.088953 0.750000
#
# Coordination Sequence:
#
# PCOD8234607 Si02
#       8
#     4   8   4   8   4   4   8   8
#     4  10  24  42  62  98 126 169 226 270 338 392
#     4  11  26  43  64 101 135 179 217 274 334 392
#     4  10  22  41  62  96 120 171 222 259 332 388
#     4  11  23  42  67  97 129 167 218 278 330 388
#     4  11  19  41  72  85 123 174 222 278 310 397
#     4  11  25  42  62  89 139 170 210 277 334 393
#     4  11  23  41  67  98 130 167 229 269 324 397
#     4  12  22  44  73  96 130 178 230 271 325 400
#
# _framework density 20.581975
#
# number of rings (size 3 to 8) (size 9 to 14) (size 15 to 20)
#    0.000    1.000    5.000    2.000    2.333    4.000 
#    6.000    3.333    0.000    0.000    0.000    0.000 
#    0.000    0.000    0.000    0.000    0.000    0.000 
#
# Total GULP energy -594657.683164 kJ/mol
# GULP energy per Si atom -12388.701733 kJ/mol
# Density = 2.053513 g / cm^3
# Si number density = 20.581975 Si / 1000 Ang^3
#
#
#
# Elastic Constant Matrix: (Units=GPa)
#
#
# Indices 1 2 3 4 5 6 
#
# 1 71.4528 24.0635 20.1096 0.0000 0.0000 0.0000
# 2 24.0635 97.7623 52.6993 0.0000 0.0000 0.0000
# 3 20.1096 52.6993 142.8568 0.0000 0.0000 0.0000
# 4 0.0000 0.0000 0.0000 -4.1187 0.0000 0.0000
# 5 0.0000 0.0000 0.0000 0.0000 24.6291 0.0000
# 6 0.0000 0.0000 0.0000 0.0000 0.0000 32.1218
#
#
#
# Elastic Compliance Matrix: (Units=1/GPa)
#
#
# Indices 1 2 3 4 5 6 
#
# 1 0.015365 -0.003265 -0.000958 0.000000 0.000000 0.000000
# 2 -0.003265 0.013462 -0.004506 0.000000 0.000000 0.000000
# 3 -0.000958 -0.004506 0.008797 0.000000 0.000000 0.000000
# 4 0.000000 0.000000 0.000000 -0.242797 0.000000 0.000000
# 5 0.000000 0.000000 0.000000 0.000000 0.040602 0.000000
# 6 0.000000 0.000000 0.000000 0.000000 0.000000 0.031132
#
#
# Mechanical properties :
#
#
# Convention : Reuss Voigt Hill
#
# Bulk Modulus (GPa) = 49.59382 56.20185 52.89783
# Shear Modulus (GPa) = -45.76329 24.87308 -10.44511
#
# Velocity S-wave (km/s) = -4.72048 3.48010 -2.25519
# Velocity P-wave (km/s) = 2.35849 6.59650 4.35610
#
# Compressibility (1/GPa) = 0.02016380
#
# Stress axis : x y z
#
# Youngs Moduli (GPa) = 65.08455 74.28424 113.67147
#
# Poissons Ratio (x) = 0.24256 0.10893
# Poissons Ratio (y) = 0.21252 0.51224
# Poissons Ratio (z) = 0.06237 0.33475
#
# Static dielectric constant tensor:
#      x y z
#    x 4.064650 0.000000 0.000000 
#    y 0.000000 3.676920 0.000000 
#    z 0.000000 0.000000 3.725970 
# 
# 
# High freq. dielectric constant tensor:
#      x y z
#    x 1.818540 0.000000 0.000000 
#    y 0.000000 1.803100 0.000000 
#    z 0.000000 0.000000 1.810580 
# 
# From -- ./inp_files/16429.got.cif
#   From: 2010.03.12/outbox.cif.g09.slc.cpg/sg57_9_cif.got.tgz:16429.got - 2010.04.16 15:48:40.
