data_PCOD8234612
_publ_section_title
;
Structure prediction by ZEFSAII (Michael W. Deem and Ramdas Pophale) SiO2 
 PCOD8234612
Probable space group: P B C M
;
_chemical_formula_sum "Si O2"
_cell_formula_units_Z 64
_cell_length_a 14.523692
_cell_length_b 25.115829
_cell_length_c 8.618982
_cell_angle_alpha 90.000000
_cell_angle_beta 90.000000
_cell_angle_gamma 90.000000
_cell_volume 3143.985407
_symmetry_space_group_name_H-M "P B C M"
_symmetry_group_IT_number 57
_symmetry_cell_setting 'orthorhombic'
loop_
_space_group_symop_operation_xyz
x,y,z
-x,-y,1/2+z
x,1/2-y,-z
-x,1/2+y,1/2-z
-x,-y,-z
x,y,1/2-z
-x,1/2+y,z
x,1/2-y,1/2+z
loop_
_atom_site_type_symbol
_atom_site_label
_atom_site_fract_x
_atom_site_fract_y
_atom_site_fract_z
Si Si1 0.345515 0.599077 0.933519
Si Si2 0.980575 0.161920 0.069065
Si Si3 0.213403 0.693956 0.567350
Si Si4 0.518000 0.558515 0.067289
Si Si5 0.819545 0.804367 0.568082
Si Si6 0.780018 0.018229 0.069050
Si Si7 0.041034 0.553008 0.931251
Si Si8 0.725744 0.588102 0.432350
O O1 0.337526 0.591894 0.750000
O O2 0.284273 0.648834 0.993599
O O3 0.451587 0.602942 0.987194
O O4 0.316365 0.544497 0.021195
O O5 0.958558 0.166331 0.250000
O O6 0.072467 0.193671 0.021818
O O7 0.892273 0.183419 0.977884
O O8 0.004228 0.101691 0.022291
O O9 0.247418 0.750000 0.500000
O O10 0.218352 0.696833 0.750000
O O11 0.501317 0.556814 0.250000
O O12 0.619199 0.580113 0.026710
O O13 0.500000 0.500000 0.000000
O O14 0.777238 0.750000 0.500000
O O15 0.807795 0.803095 0.750000
O O16 0.761535 0.854865 0.505006
O O17 0.802399 0.024648 0.250000
O O18 0.850587 0.052828 0.965843
O O19 0.784303 0.956408 0.023492
O O20 0.020983 0.558435 0.750000
O O21 0.000000 0.500000 0.000000
O O22 0.745279 0.581244 0.250000
#
# Coordination Sequence:
#
# PCOD8234612 Si02
#       8
#     8   8   8   8   8   8   8   8
#     4  11  23  40  61  88 125 163 201 253 312 367
#     4  11  22  38  62  90 121 160 208 256 306 369
#     4  11  24  41  63  89 122 165 209 257 311 367
#     4  11  22  37  63  93 124 161 204 253 311 374
#     4  10  23  42  63  88 119 160 205 252 306 356
#     4  12  23  36  60  91 123 161 202 248 308 371
#     4  12  24  38  56  84 124 166 208 254 309 368
#     4  10  22  41  63  89 125 163 201 252 312 371
#
# _framework density 20.356328000000001
#
# number of rings (size 3 to 8) (size 9 to 14) (size 15 to 20)
#    0.000    1.000    2.500    4.875    0.000    5.500 
#    0.000    0.625    0.000    3.000    0.000    0.000 
#    0.000    0.000    0.000    0.000    0.000    0.000 
#
# Total GULP energy -793724.215165 kJ/mol
# GULP energy per Si atom -12401.940862 kJ/mol
# Density = 2.031000 g / cm^3
# Si number density = 20.356328 Si / 1000 Ang^3
#
#
#
# Elastic Constant Matrix: (Units=GPa)
#
#
# Indices 1 2 3 4 5 6 
#
# 1 71.6111 36.2333 37.5127 0.0000 0.0000 0.0000
# 2 36.2333 138.1718 34.1444 0.0000 0.0000 0.0000
# 3 37.5127 34.1444 48.4696 0.0000 0.0000 0.0000
# 4 0.0000 0.0000 0.0000 36.4600 0.0000 0.0000
# 5 0.0000 0.0000 0.0000 0.0000 30.8395 0.0000
# 6 0.0000 0.0000 0.0000 0.0000 0.0000 25.0809
#
#
#
# Elastic Compliance Matrix: (Units=1/GPa)
#
#
# Indices 1 2 3 4 5 6 
#
# 1 0.023960 -0.002059 -0.017093 0.000000 0.000000 0.000000
# 2 -0.002059 0.008940 -0.004704 0.000000 0.000000 0.000000
# 3 -0.017093 -0.004704 0.037174 0.000000 0.000000 0.000000
# 4 0.000000 0.000000 0.000000 0.027427 0.000000 0.000000
# 5 0.000000 0.000000 0.000000 0.000000 0.032426 0.000000
# 6 0.000000 0.000000 0.000000 0.000000 0.000000 0.039871
#
#
# Mechanical properties :
#
#
# Convention : Reuss Voigt Hill
#
# Bulk Modulus (GPa) = 44.71940 52.67037 48.69489
# Shear Modulus (GPa) = 22.22562 28.50022 25.36292
#
# Velocity S-wave (km/s) = 3.30787 3.74581 3.53363
# Velocity P-wave (km/s) = 6.05023 6.68120 6.37353
#
# Compressibility (1/GPa) = 0.02236166
#
# Stress axis : x y z
#
# Youngs Moduli (GPa) = 41.73562 111.85969 26.90018
#
# Poissons Ratio (x) = 0.23034 0.45981
# Poissons Ratio (y) = 0.08594 0.12654
# Poissons Ratio (z) = 0.71340 0.52618
#
# Static dielectric constant tensor:
#      x y z
#    x 4.003360 0.000000 0.000000 
#    y 0.000000 3.987420 0.000000 
#    z 0.000000 0.000000 3.641030 
# 
# 
# High freq. dielectric constant tensor:
#      x y z
#    x 1.796850 0.000000 0.000000 
#    y 0.000000 1.796360 0.000000 
#    z 0.000000 0.000000 1.797380 
# 
# From -- ./inp_files/5551.got.cif
#   From: 2010.03.12/outbox.cif.g09.slc.cpg/sg57_3_cif.got.tgz:5551.got - 2010.04.16 15:48:40.
