data_PCOD8234255
_publ_section_title
;
Structure prediction by ZEFSAII (Michael W. Deem and Ramdas Pophale) SiO2 
 PCOD8234255
Probable space group: P B C M
;
_chemical_formula_sum "Si O2"
_cell_formula_units_Z 64
_cell_length_a 12.500777
_cell_length_b 28.619888
_cell_length_c 8.760719
_cell_angle_alpha 90.000000
_cell_angle_beta 90.000000
_cell_angle_gamma 90.000000
_cell_volume 3134.329775
_symmetry_space_group_name_H-M "P B C M"
_symmetry_group_IT_number 57
_symmetry_cell_setting 'orthorhombic'
loop_
_space_group_symop_operation_xyz
x,y,z
-x,-y,1/2+z
x,1/2-y,-z
-x,1/2+y,1/2-z
-x,-y,-z
x,y,1/2-z
-x,1/2+y,z
x,1/2-y,1/2+z
loop_
_atom_site_type_symbol
_atom_site_label
_atom_site_fract_x
_atom_site_fract_y
_atom_site_fract_z
Si Si1 0.893618 0.977994 0.930657
Si Si2 0.482656 0.548836 0.076556
Si Si3 0.160856 0.377952 0.431491
Si Si4 0.432949 0.800315 0.069112
Si Si5 0.785958 0.349588 0.071604
Si Si6 0.236916 0.943885 0.575387
Si Si7 0.610857 0.636882 0.432558
Si Si8 0.003560 0.701175 0.571990
O O1 0.904066 0.974118 0.750000
O O2 0.871879 0.927294 0.998230
O O3 0.795454 0.011696 0.974077
O O4 0.000000 0.000000 0.000000
O O5 0.514745 0.541838 0.250000
O O6 0.361957 0.565250 0.055632
O O7 0.558845 0.588587 0.006021
O O8 0.500000 0.500000 0.000000
O O9 0.167975 0.383145 0.250000
O O10 0.272124 0.359356 0.497626
O O11 0.073375 0.340268 0.484742
O O12 0.446813 0.797226 0.250000
O O13 0.330709 0.831576 0.023049
O O14 0.411395 0.750000 0.000000
O O15 0.540159 0.820543 0.994370
O O16 0.791191 0.361290 0.250000
O O17 0.874310 0.310995 0.026871
O O18 0.818938 0.396706 0.982966
O O19 0.203723 0.953488 0.750000
O O20 0.614537 0.639090 0.250000
O O21 0.968623 0.750000 0.500000
O O22 0.990350 0.707421 0.750000
#
# Coordination Sequence:
#
# PCOD8234255 Si02
#       8
#     8   8   8   8   8   8   8   8
#     4  12  25  42  64  94 128 170 218 265 322 383
#     4  10  22  37  57  86 120 160 206 254 308 367
#     4  11  24  43  65  93 130 170 215 267 321 384
#     4  11  23  39  63  93 126 167 214 267 328 390
#     4  10  21  39  63  94 128 165 208 261 323 387
#     4  11  22  38  61  91 126 167 211 260 316 379
#     4  11  23  42  63  89 126 168 215 264 317 382
#     4  10  23  42  65  92 123 158 204 259 319 383
#
# _framework density 20.419038
#
# number of rings (size 3 to 8) (size 9 to 14) (size 15 to 20)
#    0.000    1.250    1.250    4.500    0.000    7.500 
#    0.000    1.250    0.000    0.000    0.000    0.000 
#    0.000    0.000    0.000    0.000    0.000    0.000 
#
# Total GULP energy -793880.009231 kJ/mol
# GULP energy per Si atom -12404.375144 kJ/mol
# Density = 2.037256 g / cm^3
# Si number density = 20.419038 Si / 1000 Ang^3
#
#
#
# Elastic Constant Matrix: (Units=GPa)
#
#
# Indices 1 2 3 4 5 6 
#
# 1 112.1410 45.1703 49.5038 0.0000 0.0000 0.0000
# 2 45.1703 147.2862 55.1212 0.0000 0.0000 0.0000
# 3 49.5038 55.1212 93.2582 0.0000 0.0000 0.0000
# 4 0.0000 0.0000 0.0000 41.9422 0.0000 0.0000
# 5 0.0000 0.0000 0.0000 0.0000 31.8244 0.0000
# 6 0.0000 0.0000 0.0000 0.0000 0.0000 41.7772
#
#
#
# Elastic Compliance Matrix: (Units=1/GPa)
#
#
# Indices 1 2 3 4 5 6 
#
# 1 0.011954 -0.001658 -0.005365 0.000000 0.000000 0.000000
# 2 -0.001658 0.008948 -0.004409 0.000000 0.000000 0.000000
# 3 -0.005365 -0.004409 0.016177 0.000000 0.000000 0.000000
# 4 0.000000 0.000000 0.000000 0.023842 0.000000 0.000000
# 5 0.000000 0.000000 0.000000 0.000000 0.031422 0.000000
# 6 0.000000 0.000000 0.000000 0.000000 0.000000 0.023936
#
#
# Mechanical properties :
#
#
# Convention : Reuss Voigt Hill
#
# Bulk Modulus (GPa) = 70.35145 72.47512 71.41329
# Shear Modulus (GPa) = 34.75080 36.63477 35.69279
#
# Velocity S-wave (km/s) = 4.12986 4.24033 4.18546
# Velocity P-wave (km/s) = 7.56767 7.71653 7.64246
#
# Compressibility (1/GPa) = 0.01421435
#
# Stress axis : x y z
#
# Youngs Moduli (GPa) = 83.65626 111.75793 61.81730
#
# Poissons Ratio (x) = 0.18530 0.33167
# Poissons Ratio (y) = 0.13871 0.27253
# Poissons Ratio (z) = 0.44884 0.49270
#
# Static dielectric constant tensor:
#      x y z
#    x 3.803070 0.000000 0.000000 
#    y 0.000000 3.806790 0.000000 
#    z 0.000000 0.000000 3.831500 
# 
# 
# High freq. dielectric constant tensor:
#      x y z
#    x 1.808260 0.000000 0.000000 
#    y 0.000000 1.809560 0.000000 
#    z 0.000000 0.000000 1.801090 
# 
# From -- ./inp_files/3874.got.cif
#   From: 2010.03.12/outbox.cif.g09.slc.cpg/sg57_2_cif.got.tgz:3874.got - 2010.04.16 15:48:40.
