data_PCOD8234113
_publ_section_title
;
Structure prediction by ZEFSAII (Michael W. Deem and Ramdas Pophale) SiO2 
 PCOD8234113
Probable space group: P B C M
;
_chemical_formula_sum "Si O2"
_cell_formula_units_Z 32
_cell_length_a 17.714082
_cell_length_b 5.107863
_cell_length_c 16.858090
_cell_angle_alpha 90.000000
_cell_angle_beta 90.000000
_cell_angle_gamma 90.000000
_cell_volume 1525.338595
_symmetry_space_group_name_H-M "P B C M"
_symmetry_group_IT_number 57
_symmetry_cell_setting 'orthorhombic'
loop_
_space_group_symop_operation_xyz
x,y,z
-x,-y,1/2+z
x,1/2-y,-z
-x,1/2+y,1/2-z
-x,-y,-z
x,y,1/2-z
-x,1/2+y,z
x,1/2-y,1/2+z
loop_
_atom_site_type_symbol
_atom_site_label
_atom_site_fract_x
_atom_site_fract_y
_atom_site_fract_z
Si Si1 0.451517 0.246490 0.158627
Si Si2 0.955924 0.203715 0.844503
Si Si3 0.784935 0.191972 0.842380
Si Si4 0.709222 0.694134 0.909551
O O1 0.425436 0.267679 0.250000
O O2 0.485910 0.963896 0.139288
O O3 0.380108 0.288116 0.102837
O O4 0.956291 0.197457 0.750000
O O5 0.870226 0.201085 0.875438
O O6 0.001164 0.955944 0.878395
O O7 0.782009 0.262758 0.750000
O O8 0.752094 0.902391 0.854438
O O9 0.735282 0.401674 0.889329
O O10 0.729362 0.750000 0.000000
#
# Coordination Sequence:
#
# PCOD8234113 Si02
#       4
#     8   8   8   8
#     4  10  21  38  61  87 115 150 195 244 292 348
#     4   9  17  31  55  87 115 143 192 253 298 336
#     4  11  22  39  64  89 118 159 204 247 294 354
#     4  12  25  40  60  89 126 160 195 244 298 354
#
# _framework density 20.978949
#
# number of rings (size 3 to 8) (size 9 to 14) (size 15 to 20)
#    0.000    1.500    0.000    6.000    0.000    7.000 
#    0.000    0.000    0.000   15.000    0.000    0.000 
#    0.000    0.000    0.000    0.000    0.000    0.000 
#
# Total GULP energy -397017.339874 kJ/mol
# GULP energy per Si atom -12406.791871 kJ/mol
# Density = 2.093120 g / cm^3
# Si number density = 20.978949 Si / 1000 Ang^3
#
#
#
# Elastic Constant Matrix: (Units=GPa)
#
#
# Indices 1 2 3 4 5 6 
#
# 1 110.0560 17.3170 29.1197 0.0000 0.0000 0.0000
# 2 17.3170 103.6339 11.6986 0.0000 0.0000 0.0000
# 3 29.1197 11.6986 35.6000 0.0000 0.0000 0.0000
# 4 0.0000 0.0000 0.0000 19.8053 0.0000 0.0000
# 5 0.0000 0.0000 0.0000 0.0000 3.1021 0.0000
# 6 0.0000 0.0000 0.0000 0.0000 0.0000 36.5775
#
#
#
# Elastic Compliance Matrix: (Units=1/GPa)
#
#
# Indices 1 2 3 4 5 6 
#
# 1 0.011677 -0.000907 -0.009254 0.000000 0.000000 0.000000
# 2 -0.000907 0.010091 -0.002575 0.000000 0.000000 0.000000
# 3 -0.009254 -0.002575 0.036505 0.000000 0.000000 0.000000
# 4 0.000000 0.000000 0.000000 0.050492 0.000000 0.000000
# 5 0.000000 0.000000 0.000000 0.000000 0.322367 0.000000
# 6 0.000000 0.000000 0.000000 0.000000 0.000000 0.027339
#
#
# Mechanical properties :
#
#
# Convention : Reuss Voigt Hill
#
# Bulk Modulus (GPa) = 30.48404 40.61783 35.55093
# Shear Modulus (GPa) = 10.10352 24.64062 17.37207
#
# Velocity S-wave (km/s) = 2.19693 3.43087 2.88075
# Velocity P-wave (km/s) = 4.58232 5.92434 5.29601
#
# Compressibility (1/GPa) = 0.03280405
#
# Stress axis : x y z
#
# Youngs Moduli (GPa) = 85.63540 99.09353 27.39334
#
# Poissons Ratio (x) = 0.08984 0.25349
# Poissons Ratio (y) = 0.07764 0.07053
# Poissons Ratio (z) = 0.79245 0.25512
#
# Static dielectric constant tensor:
#      x y z
#    x 3.858800 0.000000 0.000000 
#    y 0.000000 3.917160 0.000000 
#    z 0.000000 0.000000 3.428530 
# 
# 
# High freq. dielectric constant tensor:
#      x y z
#    x 1.835340 0.000000 0.000000 
#    y 0.000000 1.839230 0.000000 
#    z 0.000000 0.000000 1.789860 
# 
# From -- ./inp_files/22265.got.cif
#   From: 2010.03.12/outbox.cif.g09.slc.cpg/sg57_12_cif.got.tgz:22265.got - 2010.04.16 15:48:40.
