data_PCOD8234273
_publ_section_title
;
Structure prediction by ZEFSAII (Michael W. Deem and Ramdas Pophale) SiO2 
 PCOD8234273
Probable space group: P B C M
;
_chemical_formula_sum "Si O2"
_cell_formula_units_Z 64
_cell_length_a 23.599934
_cell_length_b 15.045584
_cell_length_c 8.879859
_cell_angle_alpha 90.000000
_cell_angle_beta 90.000000
_cell_angle_gamma 90.000000
_cell_volume 3153.014064
_symmetry_space_group_name_H-M "P B C M"
_symmetry_group_IT_number 57
_symmetry_cell_setting 'orthorhombic'
loop_
_space_group_symop_operation_xyz
x,y,z
-x,-y,1/2+z
x,1/2-y,-z
-x,1/2+y,1/2-z
-x,-y,-z
x,y,1/2-z
-x,1/2+y,z
x,1/2-y,1/2+z
loop_
_atom_site_type_symbol
_atom_site_label
_atom_site_fract_x
_atom_site_fract_y
_atom_site_fract_z
Si Si1 0.510465 0.849844 0.071567
Si Si2 0.877471 0.614386 0.080716
Si Si3 0.419383 0.998362 0.073256
Si Si4 0.893127 0.088240 0.579988
Si Si5 0.234610 0.163336 0.926340
Si Si6 0.699232 0.009073 0.073448
Si Si7 0.213604 0.837346 0.926214
Si Si8 0.003000 0.658023 0.071097
O O1 0.517427 0.837341 0.250000
O O2 0.455717 0.910307 0.030088
O O3 0.507332 0.750000 0.000000
O O4 0.562444 0.909710 0.009449
O O5 0.870186 0.651891 0.250000
O O6 0.867988 0.509792 0.079236
O O7 0.939398 0.637826 0.015889
O O8 0.830878 0.657707 0.974353
O O9 0.423097 0.016809 0.250000
O O10 0.356472 0.973964 0.023115
O O11 0.901709 0.123017 0.750000
O O12 0.848609 0.149960 0.494929
O O13 0.953477 0.085611 0.494635
O O14 0.236579 0.171758 0.750000
O O15 0.272082 0.081593 0.982233
O O16 0.262786 0.250000 0.000000
O O17 0.684137 0.007985 0.250000
O O18 0.744033 0.084274 0.032517
O O19 0.206387 0.825341 0.750000
O O20 0.240846 0.750000 0.000000
O O21 0.006601 0.657848 0.250000
O O22 0.023734 0.750000 0.000000
#
# Coordination Sequence:
#
# PCOD8234273 Si02
#       8
#     8   8   8   8   8   8   8   8
#     4  10  21  39  64  95 131 170 211 253 304 358
#     4  10  22  39  60  85 112 147 192 243 301 364
#     4  10  22  39  63  94 128 168 210 256 306 356
#     4  11  22  38  60  85 112 147 192 244 303 365
#     4  11  23  40  62  88 118 157 201 248 304 362
#     4  10  23  42  62  87 124 165 206 253 304 358
#     4  11  23  41  62  87 118 158 203 250 306 363
#     4  11  23  38  55  80 112 146 188 239 298 365
#
# _framework density 20.298037999999998
#
# number of rings (size 3 to 8) (size 9 to 14) (size 15 to 20)
#    0.000    1.500    1.250    3.375    0.000    7.000 
#    0.000    3.750    0.000    0.000    0.000    0.000 
#    0.000    0.000    0.000    0.000    0.000    0.000 
#
# Total GULP energy -793691.696029 kJ/mol
# GULP energy per Si atom -12401.432750 kJ/mol
# Density = 2.025184 g / cm^3
# Si number density = 20.298038 Si / 1000 Ang^3
#
#
#
# Elastic Constant Matrix: (Units=GPa)
#
#
# Indices 1 2 3 4 5 6 
#
# 1 95.1292 25.6898 40.9745 0.0000 0.0000 0.0000
# 2 25.6898 119.8153 45.5687 0.0000 0.0000 0.0000
# 3 40.9745 45.5687 92.7838 0.0000 0.0000 0.0000
# 4 0.0000 0.0000 0.0000 35.4082 0.0000 0.0000
# 5 0.0000 0.0000 0.0000 0.0000 36.7971 0.0000
# 6 0.0000 0.0000 0.0000 0.0000 0.0000 -27.0250
#
#
#
# Elastic Compliance Matrix: (Units=1/GPa)
#
#
# Indices 1 2 3 4 5 6 
#
# 1 0.013035 -0.000745 -0.005391 0.000000 0.000000 0.000000
# 2 -0.000745 0.010306 -0.004733 0.000000 0.000000 0.000000
# 3 -0.005391 -0.004733 0.015483 0.000000 0.000000 0.000000
# 4 0.000000 0.000000 0.000000 0.028242 0.000000 0.000000
# 5 0.000000 0.000000 0.000000 0.000000 0.027176 0.000000
# 6 0.000000 0.000000 0.000000 0.000000 0.000000 -0.037003
#
#
# Mechanical properties :
#
#
# Convention : Reuss Voigt Hill
#
# Bulk Modulus (GPa) = 58.52220 59.13270 58.82745
# Shear Modulus (GPa) = 59.05244 22.06909 40.56076
#
# Velocity S-wave (km/s) = 5.39961 3.30093 4.47504
# Velocity P-wave (km/s) = 8.23216 6.61239 7.46633
#
# Compressibility (1/GPa) = 0.01708753
#
# Stress axis : x y z
#
# Youngs Moduli (GPa) = 76.71633 97.03307 64.58831
#
# Poissons Ratio (x) = 0.07225 0.34818
# Poissons Ratio (y) = 0.05713 0.30567
# Poissons Ratio (z) = 0.41356 0.45922
#
# Static dielectric constant tensor:
#      x y z
#    x 3.597790 0.000000 0.000000 
#    y 0.000000 3.221720 0.000000 
#    z 0.000000 0.000000 3.688470 
# 
# 
# High freq. dielectric constant tensor:
#      x y z
#    x 1.788000 0.000000 0.000000 
#    y 0.000000 1.805090 0.000000 
#    z 0.000000 0.000000 1.798950 
# 
# From -- ./inp_files/9397.got.cif
#   From: 2010.03.12/outbox.cif.g09.slc.cpg/sg57_5_cif.got.tgz:9397.got - 2010.04.16 15:48:40.
