data_PCOD8234819
_publ_section_title
;
Structure prediction by ZEFSAII (Michael W. Deem and Ramdas Pophale) SiO2 
 PCOD8234819
Probable space group: P B C M
;
_chemical_formula_sum "Si O2"
_cell_formula_units_Z 36
_cell_length_a 20.716022
_cell_length_b 9.015740
_cell_length_c 8.733112
_cell_angle_alpha 90.000000
_cell_angle_beta 90.000000
_cell_angle_gamma 90.000000
_cell_volume 1631.085670
_symmetry_space_group_name_H-M "P B C M"
_symmetry_group_IT_number 57
_symmetry_cell_setting 'orthorhombic'
loop_
_space_group_symop_operation_xyz
x,y,z
-x,-y,1/2+z
x,1/2-y,-z
-x,1/2+y,1/2-z
-x,-y,-z
x,y,1/2-z
-x,1/2+y,z
x,1/2-y,1/2+z
loop_
_atom_site_type_symbol
_atom_site_label
_atom_site_fract_x
_atom_site_fract_y
_atom_site_fract_z
Si Si1 0.911236 0.973331 0.089501
Si Si2 0.323011 0.589339 0.067431
Si Si3 0.786317 0.907216 0.928699
Si Si4 0.984415 0.250000 0.500000
Si Si5 0.440268 0.088181 0.066679
O O1 0.872851 0.951496 0.250000
O O2 0.937791 0.141085 0.094165
O O3 0.862757 0.939184 0.950333
O O4 0.970539 0.858233 0.098895
O O5 0.328955 0.592182 0.250000
O O6 0.337352 0.750000 0.000000
O O7 0.252261 0.536536 0.015302
O O8 0.373748 0.477715 0.993975
O O9 0.769824 0.908478 0.750000
O O10 0.766395 0.750000 0.000000
O O11 0.441559 0.088232 0.250000
O O12 0.446829 0.250000 0.000000
O O13 0.500000 0.000000 0.000000
#
# Coordination Sequence:
#
# PCOD8234819 Si02
#       5
#     8   8   8   4   8
#     4  11  23  42  66  95 129 171 220 274 336 407
#     4  12  26  47  72 102 139 181 229 283 340 402
#     4  12  26  45  68  96 131 176 226 279 340 407
#     4  10  24  40  66  96 132 166 220 270 344 400
#     4  12  25  45  72 107 147 190 236 284 339 398
#
# _framework density 22.071187999999999
#
# number of rings (size 3 to 8) (size 9 to 14) (size 15 to 20)
#    0.000    0.444    1.111    8.000    1.556    4.444 
#    0.000    0.000    0.000    0.000    0.000    0.000 
#    0.000    0.000    0.000    0.000    0.000    0.000 
#
# Total GULP energy -446390.410752 kJ/mol
# GULP energy per Si atom -12399.733632 kJ/mol
# Density = 2.202095 g / cm^3
# Si number density = 22.071188 Si / 1000 Ang^3
#
#
#
# Elastic Constant Matrix: (Units=GPa)
#
#
# Indices 1 2 3 4 5 6 
#
# 1 84.3126 35.2027 40.2375 0.0000 0.0000 0.0000
# 2 35.2027 161.7825 60.0492 0.0000 0.0000 0.0000
# 3 40.2375 60.0492 210.1363 0.0000 0.0000 0.0000
# 4 0.0000 0.0000 0.0000 30.3782 0.0000 0.0000
# 5 0.0000 0.0000 0.0000 0.0000 65.0498 0.0000
# 6 0.0000 0.0000 0.0000 0.0000 0.0000 39.0764
#
#
#
# Elastic Compliance Matrix: (Units=1/GPa)
#
#
# Indices 1 2 3 4 5 6 
#
# 1 0.013751 -0.002254 -0.001989 0.000000 0.000000 0.000000
# 2 -0.002254 0.007284 -0.001650 0.000000 0.000000 0.000000
# 3 -0.001989 -0.001650 0.005611 0.000000 0.000000 0.000000
# 4 0.000000 0.000000 0.000000 0.032918 0.000000 0.000000
# 5 0.000000 0.000000 0.000000 0.000000 0.015373 0.000000
# 6 0.000000 0.000000 0.000000 0.000000 0.000000 0.025591
#
#
# Mechanical properties :
#
#
# Convention : Reuss Voigt Hill
#
# Bulk Modulus (GPa) = 67.29239 80.80111 74.04675
# Shear Modulus (GPa) = 42.63772 48.28368 45.46070
#
# Velocity S-wave (km/s) = 4.40002 4.68229 4.54335
# Velocity P-wave (km/s) = 7.50790 8.11915 7.81950
#
# Compressibility (1/GPa) = 0.01486052
#
# Stress axis : x y z
#
# Youngs Moduli (GPa) = 72.72253 137.28792 178.21630
#
# Poissons Ratio (x) = 0.30942 0.35447
# Poissons Ratio (y) = 0.16390 0.29404
# Poissons Ratio (z) = 0.14464 0.22651
#
# Static dielectric constant tensor:
#      x y z
#    x 4.048040 0.000000 0.000000 
#    y 0.000000 4.195810 0.000000 
#    z 0.000000 0.000000 4.119810 
# 
# 
# High freq. dielectric constant tensor:
#      x y z
#    x 1.872220 0.000000 0.000000 
#    y 0.000000 1.887990 0.000000 
#    z 0.000000 0.000000 1.881820 
# 
# From -- ./inp_files/7648.got.cif
#   From: 2010.03.12/outbox.cif.g09.slc.cpg/sg57_4_cif.got.tgz:7648.got - 2010.04.16 15:48:40.
