data_PCOD8234345
_publ_section_title
;
Structure prediction by ZEFSAII (Michael W. Deem and Ramdas Pophale) SiO2 
 PCOD8234345
Probable space group: P B C M
;
_chemical_formula_sum "Si O2"
_cell_formula_units_Z 40
_cell_length_a 6.965639
_cell_length_b 13.423167
_cell_length_c 18.402506
_cell_angle_alpha 90.000000
_cell_angle_beta 90.000000
_cell_angle_gamma 90.000000
_cell_volume 1720.651528
_symmetry_space_group_name_H-M "P B C M"
_symmetry_group_IT_number 57
_symmetry_cell_setting 'orthorhombic'
loop_
_space_group_symop_operation_xyz
x,y,z
-x,-y,1/2+z
x,1/2-y,-z
-x,1/2+y,1/2-z
-x,-y,-z
x,y,1/2-z
-x,1/2+y,z
x,1/2-y,1/2+z
loop_
_atom_site_type_symbol
_atom_site_label
_atom_site_fract_x
_atom_site_fract_y
_atom_site_fract_z
Si Si1 0.117473 0.642892 0.833200
Si Si2 0.211235 0.022033 0.904850
Si Si3 0.594377 0.965033 0.667812
Si Si4 0.180059 0.813597 0.937530
Si Si5 0.613745 0.852865 0.529003
O O1 0.064060 0.659709 0.750000
O O2 0.290152 0.566587 0.843741
O O3 0.187942 0.748808 0.864427
O O4 0.926329 0.606086 0.873455
O O5 0.370676 0.989489 0.845832
O O6 0.083594 0.922018 0.923142
O O7 0.322025 0.058783 0.976190
O O8 0.620179 0.924534 0.750000
O O9 0.673762 0.880399 0.612108
O O10 0.385247 0.842315 0.971543
O O11 0.068759 0.750000 0.000000
O O12 0.708027 0.750000 0.500000
#
# Coordination Sequence:
#
# PCOD8234345 Si02
#       5
#     8   8   8   8   8
#     4  11  25  42  64  98 134 170 215 269 330 392
#     4  11  23  42  66  92 130 174 221 267 321 396
#     4  10  21  40  64  92 129 170 216 275 337 395
#     4  10  21  40  65  93 128 167 213 268 323 380
#     4  10  21  40  66  96 128 170 220 267 323 391
#
# _framework density 23.247008000000001
#
# number of rings (size 3 to 8) (size 9 to 14) (size 15 to 20)
#    0.000    1.600    0.000    6.600    0.000    9.600 
#    0.000    4.000    0.000    0.000    0.000    0.000 
#    0.000    0.000    0.000    0.000    0.000    0.000 
#
# Total GULP energy -495839.514104 kJ/mol
# GULP energy per Si atom -12395.987853 kJ/mol
# Density = 2.319410 g / cm^3
# Si number density = 23.247008 Si / 1000 Ang^3
#
#
#
# Elastic Constant Matrix: (Units=GPa)
#
#
# Indices 1 2 3 4 5 6 
#
# 1 67.2162 19.1511 21.6572 0.0000 0.0000 0.0000
# 2 19.1511 155.8382 73.8911 0.0000 0.0000 0.0000
# 3 21.6572 73.8911 151.6141 0.0000 0.0000 0.0000
# 4 0.0000 0.0000 0.0000 47.6670 0.0000 0.0000
# 5 0.0000 0.0000 0.0000 0.0000 25.0493 0.0000
# 6 0.0000 0.0000 0.0000 0.0000 0.0000 65.8051
#
#
#
# Elastic Compliance Matrix: (Units=1/GPa)
#
#
# Indices 1 2 3 4 5 6 
#
# 1 0.015747 -0.001130 -0.001699 0.000000 0.000000 0.000000
# 2 -0.001130 0.008426 -0.003945 0.000000 0.000000 0.000000
# 3 -0.001699 -0.003945 0.008761 0.000000 0.000000 0.000000
# 4 0.000000 0.000000 0.000000 0.020979 0.000000 0.000000
# 5 0.000000 0.000000 0.000000 0.000000 0.039921 0.000000
# 6 0.000000 0.000000 0.000000 0.000000 0.000000 0.015196
#
#
# Mechanical properties :
#
#
# Convention : Reuss Voigt Hill
#
# Bulk Modulus (GPa) = 51.58190 67.11857 59.35024
# Shear Modulus (GPa) = 38.74754 45.03556 41.89155
#
# Velocity S-wave (km/s) = 4.08704 4.40621 4.24962
# Velocity P-wave (km/s) = 6.67148 7.40411 7.04732
#
# Compressibility (1/GPa) = 0.01938664
#
# Stress axis : x y z
#
# Youngs Moduli (GPa) = 63.50588 118.67400 114.13986
#
# Poissons Ratio (x) = 0.13406 0.19390
# Poissons Ratio (y) = 0.07174 0.45032
# Poissons Ratio (z) = 0.10788 0.46821
#
# Static dielectric constant tensor:
#      x y z
#    x 3.928270 0.000000 0.000000 
#    y 0.000000 4.779820 0.000000 
#    z 0.000000 0.000000 4.377260 
# 
# 
# High freq. dielectric constant tensor:
#      x y z
#    x 1.910700 0.000000 0.000000 
#    y 0.000000 1.930130 0.000000 
#    z 0.000000 0.000000 1.921450 
# 
# From -- ./inp_files/20729.got.cif
#   From: 2010.03.12/outbox.cif.g09.slc.cpg/sg57_11_cif.got.tgz:20729.got - 2010.04.16 15:48:40.
