data_PCOD8234708
_publ_section_title
;
Structure prediction by ZEFSAII (Michael W. Deem and Ramdas Pophale) SiO2 
 PCOD8234708
Probable space group: P B C M
;
_chemical_formula_sum "Si O2"
_cell_formula_units_Z 52
_cell_length_a 24.833307
_cell_length_b 5.228445
_cell_length_c 23.653072
_cell_angle_alpha 90.000000
_cell_angle_beta 90.000000
_cell_angle_gamma 90.000000
_cell_volume 3071.104930
_symmetry_space_group_name_H-M "P B C M"
_symmetry_group_IT_number 57
_symmetry_cell_setting 'orthorhombic'
loop_
_space_group_symop_operation_xyz
x,y,z
-x,-y,1/2+z
x,1/2-y,-z
-x,1/2+y,1/2-z
-x,-y,-z
x,y,1/2-z
-x,1/2+y,z
x,1/2-y,1/2+z
loop_
_atom_site_type_symbol
_atom_site_label
_atom_site_fract_x
_atom_site_fract_y
_atom_site_fract_z
Si Si1 0.711974 0.967455 0.683139
Si Si2 0.347589 0.967487 0.682471
Si Si3 0.969743 0.508407 0.750000
Si Si4 0.104094 0.996621 0.852552
Si Si5 0.835704 0.008454 0.817704
Si Si6 0.530444 0.467378 0.682623
Si Si7 0.938894 0.999985 0.475603
O O1 0.706133 0.968909 0.750000
O O2 0.682852 0.218511 0.658279
O O3 0.774069 0.962748 0.665631
O O4 0.682802 0.716694 0.658278
O O5 0.346529 0.968023 0.750000
O O6 0.408610 0.967343 0.659793
O O7 0.937553 0.426611 0.695428
O O8 0.020145 0.313347 0.750000
O O9 0.131360 0.269365 0.841901
O O10 0.067256 0.000653 0.908420
O O11 0.147438 0.767389 0.850418
O O12 0.843576 0.033903 0.750000
O O13 0.530179 0.467338 0.750000
O O14 0.499996 0.217388 0.659251
O O15 0.908962 0.750000 0.500000
O O16 0.909030 0.250000 0.500000
O O17 0.000000 0.000000 0.500000
#
# Coordination Sequence:
#
# PCOD8234708 Si02
#       7
#     8   8   4   8   8   8   8
#     4   9  17  26  42  58  84 113 144 186 234 299
#     4   9  15  24  34  53  75 109 151 190 239 288
#     4  12  26  36  56  80 106 132 154 190 240 298
#     4  12  23  39  57  77 105 128 160 198 243 298
#     4  11  20  36  52  78 102 127 155 193 255 308
#     4   9  15  21  30  44  68 102 145 197 244 279
#     4  10  23  40  58  76  97 129 164 196 232 280
#
# _framework density 16.932016000000001
#
# number of rings (size 3 to 8) (size 9 to 14) (size 15 to 20)
#    0.000    1.846    1.538    3.692    4.308    6.154 
#    0.000    0.000    0.000    0.000    0.000    0.000 
#    0.000    0.000    0.000    0.000    0.000    0.000 
#
# Total GULP energy -644546.306121 kJ/mol
# GULP energy per Si atom -12395.121272 kJ/mol
# Density = 1.689348 g / cm^3
# Si number density = 16.932016 Si / 1000 Ang^3
#
#
#
# Elastic Constant Matrix: (Units=GPa)
#
#
# Indices 1 2 3 4 5 6 
#
# 1 102.0067 40.5034 28.2456 0.0000 0.0000 0.0000
# 2 40.5034 143.3203 20.1959 0.0000 0.0000 0.0000
# 3 28.2456 20.1959 66.5696 0.0000 0.0000 0.0000
# 4 0.0000 0.0000 0.0000 17.4957 0.0000 0.0000
# 5 0.0000 0.0000 0.0000 0.0000 7.2083 0.0000
# 6 0.0000 0.0000 0.0000 0.0000 0.0000 31.6320
#
#
#
# Elastic Compliance Matrix: (Units=1/GPa)
#
#
# Indices 1 2 3 4 5 6 
#
# 1 0.012108 -0.002818 -0.004282 0.000000 0.000000 0.000000
# 2 -0.002818 0.007945 -0.001215 0.000000 0.000000 0.000000
# 3 -0.004282 -0.001215 0.017207 0.000000 0.000000 0.000000
# 4 0.000000 0.000000 0.000000 0.057157 0.000000 0.000000
# 5 0.000000 0.000000 0.000000 0.000000 0.138729 0.000000
# 6 0.000000 0.000000 0.000000 0.000000 0.000000 0.031614
#
#
# Mechanical properties :
#
#
# Convention : Reuss Voigt Hill
#
# Bulk Modulus (GPa) = 48.47351 54.42072 51.44712
# Shear Modulus (GPa) = 17.34498 26.13064 21.73781
#
# Velocity S-wave (km/s) = 3.20408 3.93271 3.58694
# Velocity P-wave (km/s) = 6.50989 7.26857 6.89966
#
# Compressibility (1/GPa) = 0.02062982
#
# Stress axis : x y z
#
# Youngs Moduli (GPa) = 82.58879 125.86500 58.11450
#
# Poissons Ratio (x) = 0.35474 0.24887
# Poissons Ratio (y) = 0.23277 0.07058
# Poissons Ratio (z) = 0.35368 0.15286
#
# Static dielectric constant tensor:
#      x y z
#    x 3.218490 0.000000 0.000000 
#    y 0.000000 3.983610 0.000000 
#    z 0.000000 0.000000 2.600850 
# 
# 
# High freq. dielectric constant tensor:
#      x y z
#    x 1.651000 0.000000 0.000000 
#    y 0.000000 1.686990 0.000000 
#    z 0.000000 0.000000 1.574190 
# 
# From -- ./inp_files/25739.got.cif
#   From: 2010.03.12/outbox.cif.g09.slc.cpg/sg57_13_cif.got.tgz:25739.got - 2010.04.16 15:48:40.
