data_PCOD8234789
_publ_section_title
;
Structure prediction by ZEFSAII (Michael W. Deem and Ramdas Pophale) SiO2 
 PCOD8234789
Probable space group: P B C M
;
_chemical_formula_sum "Si O2"
_cell_formula_units_Z 64
_cell_length_a 9.904035
_cell_length_b 18.600106
_cell_length_c 16.230554
_cell_angle_alpha 90.000000
_cell_angle_beta 90.000000
_cell_angle_gamma 90.000000
_cell_volume 2989.929372
_symmetry_space_group_name_H-M "P B C M"
_symmetry_group_IT_number 57
_symmetry_cell_setting 'orthorhombic'
loop_
_space_group_symop_operation_xyz
x,y,z
-x,-y,1/2+z
x,1/2-y,-z
-x,1/2+y,1/2-z
-x,-y,-z
x,y,1/2-z
-x,1/2+y,z
x,1/2-y,1/2+z
loop_
_atom_site_type_symbol
_atom_site_label
_atom_site_fract_x
_atom_site_fract_y
_atom_site_fract_z
Si Si1 0.627395 0.675350 0.657056
Si Si2 0.860034 0.735239 0.409965
Si Si3 0.754406 0.577713 0.408531
Si Si4 0.093541 0.680289 0.844543
Si Si5 0.636290 0.249229 0.346524
Si Si6 0.724613 0.968571 0.403140
Si Si7 0.022162 0.972125 0.407841
Si Si8 0.544784 0.093839 0.346589
O O1 0.651812 0.703260 0.750000
O O2 0.723542 0.718870 0.596297
O O3 0.474338 0.691006 0.629955
O O4 0.651412 0.590538 0.652927
O O5 0.921036 0.750000 0.500000
O O6 0.830592 0.652382 0.394494
O O7 0.968939 0.764216 0.344796
O O8 0.729911 0.560890 0.504092
O O9 0.612809 0.578173 0.361274
O O10 0.856062 0.518673 0.368157
O O11 0.117272 0.655169 0.750000
O O12 0.222423 0.722144 0.882878
O O13 0.063193 0.611490 0.901963
O O14 0.654991 0.240294 0.250000
O O15 0.587165 0.172206 0.381140
O O16 0.874991 0.982202 0.365557
O O17 0.636689 0.040163 0.399278
O O18 0.000000 0.000000 0.500000
O O19 0.575008 0.085005 0.250000
#
# Coordination Sequence:
#
# PCOD8234789 Si02
#       8
#     8   8   8   8   8   8   8   8
#     4  11  21  40  68  94 127 172 221 274 328 394
#     4  12  22  41  66  97 129 171 217 275 332 396
#     4  11  24  42  66  93 134 172 218 271 334 402
#     4  11  24  44  70  98 131 176 227 276 331 400
#     4   9  22  42  63  95 134 166 217 281 332 388
#     4  11  23  42  66  91 130 172 222 272 336 401
#     4  10  23  44  65  95 134 173 216 274 331 394
#     4  11  24  42  63  94 133 174 220 274 333 397
#
# _framework density 21.405187000000002
#
# number of rings (size 3 to 8) (size 9 to 14) (size 15 to 20)
#    0.000    1.250    3.750    1.875    3.500    1.500 
#    0.000    0.625    0.000    0.000    0.000    0.000 
#    0.000    0.000    0.000    0.000    0.000    0.000 
#
# Total GULP energy -793602.695409 kJ/mol
# GULP energy per Si atom -12400.042116 kJ/mol
# Density = 2.135647 g / cm^3
# Si number density = 21.405187 Si / 1000 Ang^3
#
#
#
# Elastic Constant Matrix: (Units=GPa)
#
#
# Indices 1 2 3 4 5 6 
#
# 1 167.9491 98.8608 14.8306 0.0000 0.0000 0.0000
# 2 98.8608 159.3104 23.8406 0.0000 0.0000 0.0000
# 3 14.8306 23.8406 47.2086 0.0000 0.0000 0.0000
# 4 0.0000 0.0000 0.0000 28.5767 0.0000 0.0000
# 5 0.0000 0.0000 0.0000 0.0000 25.9695 0.0000
# 6 0.0000 0.0000 0.0000 0.0000 0.0000 50.2688
#
#
#
# Elastic Compliance Matrix: (Units=1/GPa)
#
#
# Indices 1 2 3 4 5 6 
#
# 1 0.009381 -0.005820 -0.000008 0.000000 0.000000 0.000000
# 2 -0.005820 0.010401 -0.003424 0.000000 0.000000 0.000000
# 3 -0.000008 -0.003424 0.022914 0.000000 0.000000 0.000000
# 4 0.000000 0.000000 0.000000 0.034994 0.000000 0.000000
# 5 0.000000 0.000000 0.000000 0.000000 0.038507 0.000000
# 6 0.000000 0.000000 0.000000 0.000000 0.000000 0.019893
#
#
# Mechanical properties :
#
#
# Convention : Reuss Voigt Hill
#
# Bulk Modulus (GPa) = 41.33609 72.17024 56.75317
# Shear Modulus (GPa) = 30.73934 36.75874 33.74904
#
# Velocity S-wave (km/s) = 3.79366 4.14851 3.97505
# Velocity P-wave (km/s) = 6.20825 7.53235 6.90212
#
# Compressibility (1/GPa) = 0.02419193
#
# Stress axis : x y z
#
# Youngs Moduli (GPa) = 106.60045 96.14254 43.64087
#
# Poissons Ratio (x) = 0.55956 0.00034
# Poissons Ratio (y) = 0.62043 0.14944
# Poissons Ratio (z) = 0.00083 0.32922
#
# Static dielectric constant tensor:
#      x y z
#    x 4.229530 0.000000 0.000000 
#    y 0.000000 4.025670 0.000000 
#    z 0.000000 0.000000 3.542910 
# 
# 
# High freq. dielectric constant tensor:
#      x y z
#    x 1.856810 0.000000 0.000000 
#    y 0.000000 1.847930 0.000000 
#    z 0.000000 0.000000 1.815210 
# 
# From -- ./inp_files/24591.got.cif
#   From: 2010.03.12/outbox.cif.g09.slc.cpg/sg57_13_cif.got.tgz:24591.got - 2010.04.16 15:48:40.
