data_PCOD8234999
_publ_section_title
;
Structure prediction by ZEFSAII (Michael W. Deem and Ramdas Pophale) SiO2 
 PCOD8234999
Probable space group: P B C M
;
_chemical_formula_sum "Si O2"
_cell_formula_units_Z 48
_cell_length_a 27.801764
_cell_length_b 9.360181
_cell_length_c 9.492497
_cell_angle_alpha 90.000000
_cell_angle_beta 90.000000
_cell_angle_gamma 90.000000
_cell_volume 2470.228158
_symmetry_space_group_name_H-M "P B C M"
_symmetry_group_IT_number 57
_symmetry_cell_setting 'orthorhombic'
loop_
_space_group_symop_operation_xyz
x,y,z
-x,-y,1/2+z
x,1/2-y,-z
-x,1/2+y,1/2-z
-x,-y,-z
x,y,1/2-z
-x,1/2+y,z
x,1/2-y,1/2+z
loop_
_atom_site_type_symbol
_atom_site_label
_atom_site_fract_x
_atom_site_fract_y
_atom_site_fract_z
Si Si1 0.617938 0.750000 0.000000
Si Si2 0.326637 0.985843 0.592060
Si Si3 0.962584 0.400328 0.918698
Si Si4 0.541753 0.193509 0.750000
Si Si5 0.230279 0.388653 0.086525
Si Si6 0.122297 0.111150 0.911544
Si Si7 0.555556 0.861990 0.750000
Si Si8 0.391583 0.750000 0.000000
O O1 0.585692 0.661437 0.108726
O O2 0.651707 0.855822 0.087536
O O3 0.331686 0.924670 0.750000
O O4 0.356254 0.885697 0.486851
O O5 0.269950 0.990347 0.548862
O O6 0.974486 0.382665 0.750000
O O7 0.911061 0.474949 0.939975
O O8 0.961797 0.250000 0.000000
O O9 0.000000 0.500000 0.000000
O O10 0.488174 0.252245 0.750000
O O11 0.571893 0.259649 0.625604
O O12 0.536640 0.023341 0.750000
O O13 0.234404 0.348260 0.250000
O O14 0.176287 0.439663 0.048026
O O15 0.244029 0.250000 0.000000
O O16 0.118958 0.160221 0.750000
O O17 0.105922 0.250000 0.000000
#
# Coordination Sequence:
#
# PCOD8234999 Si02
#       8
#     4   8   8   4   8   8   4   4
#     4  12  23  40  64  90 116 148 191 234 288 346
#     4  11  22  39  64  90 117 153 193 240 291 344
#     4  11  23  39  60  89 122 166 213 263 314 370
#     4  12  28  44  64  86 118 150 192 232 291 348
#     4   9  18  35  59  89 120 155 195 243 293 353
#     4   9  19  36  59  86 122 159 201 249 301 356
#     4  12  28  42  62  90 116 152 188 238 285 352
#     4  12  25  44  62  86 118 152 189 240 286 346
#
# _framework density 19.431403
#
# number of rings (size 3 to 8) (size 9 to 14) (size 15 to 20)
#    0.000    1.333    4.167    1.500    2.333    4.000 
#    3.000    0.000    0.000    0.000    0.000    0.000 
#    0.000    0.000    0.000    0.000    0.000    0.000 
#
# Total GULP energy -595050.992981 kJ/mol
# GULP energy per Si atom -12396.895687 kJ/mol
# Density = 1.938718 g / cm^3
# Si number density = 19.431403 Si / 1000 Ang^3
#
#
#
# Elastic Constant Matrix: (Units=GPa)
#
#
# Indices 1 2 3 4 5 6 
#
# 1 110.9412 46.7928 40.6281 0.0000 0.0000 0.0000
# 2 46.7928 101.2500 27.8596 0.0000 0.0000 0.0000
# 3 40.6281 27.8596 92.8785 0.0000 0.0000 0.0000
# 4 0.0000 0.0000 0.0000 27.5358 0.0000 0.0000
# 5 0.0000 0.0000 0.0000 0.0000 25.2679 0.0000
# 6 0.0000 0.0000 0.0000 0.0000 0.0000 32.0290
#
#
#
# Elastic Compliance Matrix: (Units=1/GPa)
#
#
# Indices 1 2 3 4 5 6 
#
# 1 0.012457 -0.004641 -0.004057 0.000000 0.000000 0.000000
# 2 -0.004641 0.012494 -0.001718 0.000000 0.000000 0.000000
# 3 -0.004057 -0.001718 0.013057 0.000000 0.000000 0.000000
# 4 0.000000 0.000000 0.000000 0.036316 0.000000 0.000000
# 5 0.000000 0.000000 0.000000 0.000000 0.039576 0.000000
# 6 0.000000 0.000000 0.000000 0.000000 0.000000 0.031222
#
#
# Mechanical properties :
#
#
# Convention : Reuss Voigt Hill
#
# Bulk Modulus (GPa) = 58.21842 59.51453 58.86648
# Shear Modulus (GPa) = 29.12437 29.61915 29.37176
#
# Velocity S-wave (km/s) = 3.87567 3.90846 3.89210
# Velocity P-wave (km/s) = 7.07487 7.14581 7.11043
#
# Compressibility (1/GPa) = 0.01717669
#
# Stress axis : x y z
#
# Youngs Moduli (GPa) = 80.27706 80.03942 76.58927
#
# Poissons Ratio (x) = 0.37143 0.31073
# Poissons Ratio (y) = 0.37254 0.13155
# Poissons Ratio (z) = 0.32569 0.13748
#
# Static dielectric constant tensor:
#      x y z
#    x 3.869140 0.000000 0.000000 
#    y 0.000000 3.390350 0.000000 
#    z 0.000000 0.000000 3.624000 
# 
# 
# High freq. dielectric constant tensor:
#      x y z
#    x 1.775690 0.000000 0.000000 
#    y 0.000000 1.741800 0.000000 
#    z 0.000000 0.000000 1.763250 
# 
# From -- ./inp_files/10222.got.cif
#   From: 2010.03.12/outbox.cif.g09.slc.cpg/sg57_6_cif.got.tgz:10222.got - 2010.04.16 15:48:40.
