data_PCOD8234308
_publ_section_title
;
Structure prediction by ZEFSAII (Michael W. Deem and Ramdas Pophale) SiO2 
 PCOD8234308
Probable space group: P B C M
;
_chemical_formula_sum "Si O2"
_cell_formula_units_Z 48
_cell_length_a 10.988909
_cell_length_b 9.093475
_cell_length_c 24.339932
_cell_angle_alpha 90.000000
_cell_angle_beta 90.000000
_cell_angle_gamma 90.000000
_cell_volume 2432.225373
_symmetry_space_group_name_H-M "P B C M"
_symmetry_group_IT_number 57
_symmetry_cell_setting 'orthorhombic'
loop_
_space_group_symop_operation_xyz
x,y,z
-x,-y,1/2+z
x,1/2-y,-z
-x,1/2+y,1/2-z
-x,-y,-z
x,y,1/2-z
-x,1/2+y,z
x,1/2-y,1/2+z
loop_
_atom_site_type_symbol
_atom_site_label
_atom_site_fract_x
_atom_site_fract_y
_atom_site_fract_z
Si Si1 0.292288 0.940881 0.433889
Si Si2 0.496835 0.625175 0.636597
Si Si3 0.940841 0.616557 0.039195
Si Si4 0.187421 0.866316 0.589558
Si Si5 0.644190 0.382385 0.686937
Si Si6 0.659136 0.604945 0.532608
O O1 0.370869 0.960402 0.377899
O O2 0.250734 0.771533 0.441191
O O3 0.177538 0.051524 0.430271
O O4 0.379127 0.985848 0.485709
O O5 0.585747 0.542849 0.678477
O O6 0.462662 0.777364 0.665017
O O7 0.559020 0.650721 0.577119
O O8 0.041813 0.656014 0.085797
O O9 0.903766 0.750000 0.000000
O O10 0.000000 0.500000 0.000000
O O11 0.230385 0.865506 0.653180
O O12 0.226826 0.022114 0.562322
O O13 0.675811 0.352953 0.750000
O O14 0.702214 0.750000 0.500000
#
# Coordination Sequence:
#
# PCOD8234308 Si02
#       6
#     8   8   8   8   8   8
#     4  11  21  34  53  79 118 154 180 217 276 345
#     4  10  22  36  55  86 113 145 188 231 280 344
#     4  12  21  35  55  82 117 154 183 222 273 339
#     4  10  22  37  54  80 110 150 194 230 272 338
#     4  10  21  40  62  79 106 144 190 243 289 326
#     4  11  20  32  52  82 119 148 178 219 276 345
#
# _framework density 19.735014
#
# number of rings (size 3 to 8) (size 9 to 14) (size 15 to 20)
#    0.000    1.333    3.333    3.000    0.000    2.667 
#    0.000    1.667    0.000    5.000    0.000    0.000 
#    0.000    0.000    0.000    0.000    0.000    0.000 
#
# Total GULP energy -594641.205737 kJ/mol
# GULP energy per Si atom -12388.358453 kJ/mol
# Density = 1.969010 g / cm^3
# Si number density = 19.735014 Si / 1000 Ang^3
#
#
#
# Elastic Constant Matrix: (Units=GPa)
#
#
# Indices 1 2 3 4 5 6 
#
# 1 83.4816 29.9625 40.0035 0.0000 0.0000 0.0000
# 2 29.9625 94.4739 43.9702 0.0000 0.0000 0.0000
# 3 40.0035 43.9702 110.5653 0.0000 0.0000 0.0000
# 4 0.0000 0.0000 0.0000 22.2469 0.0000 0.0000
# 5 0.0000 0.0000 0.0000 0.0000 21.3052 0.0000
# 6 0.0000 0.0000 0.0000 0.0000 0.0000 25.3457
#
#
#
# Elastic Compliance Matrix: (Units=1/GPa)
#
#
# Indices 1 2 3 4 5 6 
#
# 1 0.015051 -0.002747 -0.004353 0.000000 0.000000 0.000000
# 2 -0.002747 0.013491 -0.004371 0.000000 0.000000 0.000000
# 3 -0.004353 -0.004371 0.012358 0.000000 0.000000 0.000000
# 4 0.000000 0.000000 0.000000 0.044950 0.000000 0.000000
# 5 0.000000 0.000000 0.000000 0.000000 0.046937 0.000000
# 6 0.000000 0.000000 0.000000 0.000000 0.000000 0.039454
#
#
# Mechanical properties :
#
#
# Convention : Reuss Voigt Hill
#
# Bulk Modulus (GPa) = 55.69059 57.37705 56.53382
# Shear Modulus (GPa) = 24.85484 25.41854 25.13669
#
# Velocity S-wave (km/s) = 3.55269 3.59275 3.57278
# Velocity P-wave (km/s) = 6.71634 6.80789 6.76227
#
# Compressibility (1/GPa) = 0.01795636
#
# Stress axis : x y z
#
# Youngs Moduli (GPa) = 66.44255 74.12551 80.92181
#
# Poissons Ratio (x) = 0.20365 0.35224
# Poissons Ratio (y) = 0.18254 0.35371
# Poissons Ratio (z) = 0.28921 0.32400
#
# Static dielectric constant tensor:
#      x y z
#    x 4.655760 0.000000 0.000000 
#    y 0.000000 3.694760 0.000000 
#    z 0.000000 0.000000 3.454510 
# 
# 
# High freq. dielectric constant tensor:
#      x y z
#    x 1.771520 0.000000 0.000000 
#    y 0.000000 1.782990 0.000000 
#    z 0.000000 0.000000 1.727060 
# 
# From -- ./inp_files/27087.got.cif
#   From: 2010.03.12/outbox.cif.g09.slc.cpg/sg57_14_cif.got.tgz:27087.got - 2010.04.16 15:48:40.
