data_PCOD8234269
_publ_section_title
;
Structure prediction by ZEFSAII (Michael W. Deem and Ramdas Pophale) SiO2 
 PCOD8234269
Probable space group: P B C M
;
_chemical_formula_sum "Si O2"
_cell_formula_units_Z 64
_cell_length_a 15.207069
_cell_length_b 8.934914
_cell_length_c 24.149516
_cell_angle_alpha 90.000000
_cell_angle_beta 90.000000
_cell_angle_gamma 90.000000
_cell_volume 3281.287804
_symmetry_space_group_name_H-M "P B C M"
_symmetry_group_IT_number 57
_symmetry_cell_setting 'orthorhombic'
loop_
_space_group_symop_operation_xyz
x,y,z
-x,-y,1/2+z
x,1/2-y,-z
-x,1/2+y,1/2-z
-x,-y,-z
x,y,1/2-z
-x,1/2+y,z
x,1/2-y,1/2+z
loop_
_atom_site_type_symbol
_atom_site_label
_atom_site_fract_x
_atom_site_fract_y
_atom_site_fract_z
Si Si1 0.095227 0.239081 0.687572
Si Si2 0.289709 0.876821 0.112679
Si Si3 0.894183 0.286227 0.436352
Si Si4 0.546586 0.117772 0.960748
Si Si5 0.395400 0.829826 0.687270
Si Si6 0.285971 0.158781 0.186876
Si Si7 0.553315 0.655098 0.647770
Si Si8 0.989492 0.022828 0.122036
O O1 0.060349 0.253696 0.750000
O O2 0.200434 0.237060 0.685156
O O3 0.062457 0.082387 0.664055
O O4 0.062165 0.382756 0.654334
O O5 0.204249 0.834959 0.077936
O O6 0.366018 0.938357 0.071459
O O7 0.319163 0.729905 0.146877
O O8 0.266436 0.002836 0.157198
O O9 0.901608 0.250000 0.500000
O O10 0.961487 0.421123 0.423454
O O11 0.918859 0.134689 0.404349
O O12 0.474849 0.171912 0.916119
O O13 0.578747 0.250000 0.000000
O O14 0.500000 0.000000 0.000000
O O15 0.360145 0.849227 0.750000
O O16 0.475812 0.712779 0.687602
O O17 0.429645 0.984760 0.663089
O O18 0.314792 0.125789 0.250000
O O19 0.360796 0.246257 0.154572
#
# Coordination Sequence:
#
# PCOD8234269 Si02
#       8
#     8   8   8   8   8   8   8   8
#     4  10  21  39  64  94 128 162 200 253 314 378
#     4  11  23  40  60  92 121 159 206 251 304 367
#     4  11  23  42  67  90 124 164 209 265 312 364
#     4  11  22  40  61  84 118 160 201 250 299 350
#     4  11  22  38  60  89 121 160 196 242 304 363
#     4  11  22  39  60  88 125 160 196 249 305 366
#     4  11  23  38  61  87 122 157 206 247 296 365
#     4  10  22  42  65  93 123 162 211 252 319 377
#
# _framework density 19.504536999999999
#
# number of rings (size 3 to 8) (size 9 to 14) (size 15 to 20)
#    0.000    1.250    1.250    6.375    1.750    0.000 
#    0.000    1.250    0.000    0.000    0.000    0.000 
#    0.000    0.000    0.000    0.000    0.000    0.000 
#
# Total GULP energy -793790.491466 kJ/mol
# GULP energy per Si atom -12402.976429 kJ/mol
# Density = 1.946014 g / cm^3
# Si number density = 19.504537 Si / 1000 Ang^3
#
#
#
# Elastic Constant Matrix: (Units=GPa)
#
#
# Indices 1 2 3 4 5 6 
#
# 1 91.8677 24.4790 44.5362 0.0000 0.0000 0.0000
# 2 24.4790 89.0292 28.7978 0.0000 0.0000 0.0000
# 3 44.5362 28.7978 124.2737 0.0000 0.0000 0.0000
# 4 0.0000 0.0000 0.0000 29.3002 0.0000 0.0000
# 5 0.0000 0.0000 0.0000 0.0000 27.4498 0.0000
# 6 0.0000 0.0000 0.0000 0.0000 0.0000 29.4768
#
#
#
# Elastic Compliance Matrix: (Units=1/GPa)
#
#
# Indices 1 2 3 4 5 6 
#
# 1 0.013610 -0.002340 -0.004335 0.000000 0.000000 0.000000
# 2 -0.002340 0.012545 -0.002068 0.000000 0.000000 0.000000
# 3 -0.004335 -0.002068 0.010080 0.000000 0.000000 0.000000
# 4 0.000000 0.000000 0.000000 0.034129 0.000000 0.000000
# 5 0.000000 0.000000 0.000000 0.000000 0.036430 0.000000
# 6 0.000000 0.000000 0.000000 0.000000 0.000000 0.033925
#
#
# Mechanical properties :
#
#
# Convention : Reuss Voigt Hill
#
# Bulk Modulus (GPa) = 53.34051 55.64409 54.49230
# Shear Modulus (GPa) = 30.40326 31.06920 30.73623
#
# Velocity S-wave (km/s) = 3.95242 3.99547 3.97400
# Velocity P-wave (km/s) = 6.94521 7.06228 7.00399
#
# Compressibility (1/GPa) = 0.01874748
#
# Stress axis : x y z
#
# Youngs Moduli (GPa) = 73.47298 79.71491 99.20887
#
# Poissons Ratio (x) = 0.18653 0.43011
# Poissons Ratio (y) = 0.17192 0.20520
# Poissons Ratio (z) = 0.31853 0.16488
#
# Static dielectric constant tensor:
#      x y z
#    x 3.537410 0.000000 0.000000 
#    y 0.000000 3.649920 0.000000 
#    z 0.000000 0.000000 3.722220 
# 
# 
# High freq. dielectric constant tensor:
#      x y z
#    x 1.760310 0.000000 0.000000 
#    y 0.000000 1.768380 0.000000 
#    z 0.000000 0.000000 1.771210 
# 
# From -- ./inp_files/27458.got.cif
#   From: 2010.03.12/outbox.cif.g09.slc.cpg/sg57_14_cif.got.tgz:27458.got - 2010.04.16 15:48:40.
