data_PCOD8234462
_publ_section_title
;
Structure prediction by ZEFSAII (Michael W. Deem and Ramdas Pophale) SiO2 
 PCOD8234462
Probable space group: P B C M
;
_chemical_formula_sum "Si O2"
_cell_formula_units_Z 48
_cell_length_a 15.262921
_cell_length_b 20.012337
_cell_length_c 9.284234
_cell_angle_alpha 90.000000
_cell_angle_beta 90.000000
_cell_angle_gamma 90.000000
_cell_volume 2835.838811
_symmetry_space_group_name_H-M "P B C M"
_symmetry_group_IT_number 57
_symmetry_cell_setting 'orthorhombic'
loop_
_space_group_symop_operation_xyz
x,y,z
-x,-y,1/2+z
x,1/2-y,-z
-x,1/2+y,1/2-z
-x,-y,-z
x,y,1/2-z
-x,1/2+y,z
x,1/2-y,1/2+z
loop_
_atom_site_type_symbol
_atom_site_label
_atom_site_fract_x
_atom_site_fract_y
_atom_site_fract_z
Si Si1 0.543401 0.438275 0.419159
Si Si2 0.711568 0.043594 0.087285
Si Si3 0.098638 0.550641 0.085876
Si Si4 0.417468 0.183204 0.581493
Si Si5 0.914900 0.582901 0.414935
Si Si6 0.244879 0.389330 0.083880
O O1 0.500000 0.500000 0.500000
O O2 0.544143 0.453617 0.250000
O O3 0.641907 0.426720 0.475790
O O4 0.489562 0.372078 0.455554
O O5 0.675801 0.052461 0.250000
O O6 0.804437 0.082975 0.066631
O O7 0.726936 0.965434 0.055014
O O8 0.093237 0.520870 0.250000
O O9 0.018214 0.603711 0.064772
O O10 0.089970 0.493020 0.968283
O O11 0.444561 0.250000 0.500000
O O12 0.414918 0.198035 0.750000
O O13 0.322484 0.158048 0.526727
O O14 0.885930 0.586600 0.250000
O O15 0.846001 0.628646 0.502135
O O16 0.227041 0.376107 0.250000
#
# Coordination Sequence:
#
# PCOD8234462 Si02
#       6
#     8   8   8   8   8   8
#     4  11  21  34  51  73  99 128 164 207 250 298
#     4   9  16  29  47  68  96 129 161 196 244 292
#     4   8  15  26  38  58  95 129 152 190 239 278
#     4  10  22  38  52  70  98 130 165 205 251 299
#     4   9  15  23  39  64  90 122 161 192 225 279
#     4   9  17  31  46  64  96 130 155 193 245 289
#
# _framework density 16.926209
#
# number of rings (size 3 to 8) (size 9 to 14) (size 15 to 20)
#    0.000    2.667    1.667    2.000    0.000    5.333 
#    0.000    0.000    0.000    0.000    0.000    1.167 
#    0.000    0.000    0.000    0.000    0.000    0.000 
#
# Total GULP energy -594768.847465 kJ/mol
# GULP energy per Si atom -12391.017656 kJ/mol
# Density = 1.688768 g / cm^3
# Si number density = 16.926209 Si / 1000 Ang^3
#
#
#
# Elastic Constant Matrix: (Units=GPa)
#
#
# Indices 1 2 3 4 5 6 
#
# 1 157.3217 45.9283 66.7483 0.0000 0.0000 0.0000
# 2 45.9283 56.7814 37.2566 0.0000 0.0000 0.0000
# 3 66.7483 37.2566 78.1758 0.0000 0.0000 0.0000
# 4 0.0000 0.0000 0.0000 19.6018 0.0000 0.0000
# 5 0.0000 0.0000 0.0000 0.0000 33.9296 0.0000
# 6 0.0000 0.0000 0.0000 0.0000 0.0000 15.1110
#
#
#
# Elastic Compliance Matrix: (Units=1/GPa)
#
#
# Indices 1 2 3 4 5 6 
#
# 1 0.010502 -0.003799 -0.007156 0.000000 0.000000 0.000000
# 2 -0.003799 0.026998 -0.009623 0.000000 0.000000 0.000000
# 3 -0.007156 -0.009623 0.023488 0.000000 0.000000 0.000000
# 4 0.000000 0.000000 0.000000 0.051016 0.000000 0.000000
# 5 0.000000 0.000000 0.000000 0.000000 0.029473 0.000000
# 6 0.000000 0.000000 0.000000 0.000000 0.000000 0.066177
#
#
# Mechanical properties :
#
#
# Convention : Reuss Voigt Hill
#
# Bulk Modulus (GPa) = 50.42461 65.79394 58.10927
# Shear Modulus (GPa) = 19.57559 23.21818 21.39689
#
# Velocity S-wave (km/s) = 3.40446 3.70770 3.55931
# Velocity P-wave (km/s) = 6.73122 7.56868 7.16220
#
# Compressibility (1/GPa) = 0.01983159
#
# Stress axis : x y z
#
# Youngs Moduli (GPa) = 95.22330 37.03922 42.57534
#
# Poissons Ratio (x) = 0.14071 0.30467
# Poissons Ratio (y) = 0.36176 0.40971
# Poissons Ratio (z) = 0.68142 0.35643
#
# Static dielectric constant tensor:
#      x y z
#    x 3.864920 0.000000 0.000000 
#    y 0.000000 2.628820 0.000000 
#    z 0.000000 0.000000 3.242470 
# 
# 
# High freq. dielectric constant tensor:
#      x y z
#    x 1.679040 0.000000 0.000000 
#    y 0.000000 1.577040 0.000000 
#    z 0.000000 0.000000 1.658990 
# 
# From -- ./inp_files/4899.got.cif
#   From: 2010.03.12/outbox.cif.g09.slc.cpg/sg57_3_cif.got.tgz:4899.got - 2010.04.16 15:48:40.
