data_PCOD8234671
_publ_section_title
;
Structure prediction by ZEFSAII (Michael W. Deem and Ramdas Pophale) SiO2 
 PCOD8234671
Probable space group: P B C M
;
_chemical_formula_sum "Si O2"
_cell_formula_units_Z 48
_cell_length_a 11.483497
_cell_length_b 11.260821
_cell_length_c 18.162890
_cell_angle_alpha 90.000000
_cell_angle_beta 90.000000
_cell_angle_gamma 90.000000
_cell_volume 2348.708768
_symmetry_space_group_name_H-M "P B C M"
_symmetry_group_IT_number 57
_symmetry_cell_setting 'orthorhombic'
loop_
_space_group_symop_operation_xyz
x,y,z
-x,-y,1/2+z
x,1/2-y,-z
-x,1/2+y,1/2-z
-x,-y,-z
x,y,1/2-z
-x,1/2+y,z
x,1/2-y,1/2+z
loop_
_atom_site_type_symbol
_atom_site_label
_atom_site_fract_x
_atom_site_fract_y
_atom_site_fract_z
Si Si1 0.411971 0.933486 0.093120
Si Si2 0.279168 0.773377 0.835249
Si Si3 0.763457 0.896816 0.664376
Si Si4 0.337726 0.988027 0.565317
Si Si5 0.148966 0.317436 0.072452
Si Si6 0.935714 0.107938 0.833755
O O1 0.379651 0.814464 0.136498
O O2 0.550023 0.948939 0.100615
O O3 0.351987 0.049520 0.127763
O O4 0.373438 0.918306 0.008435
O O5 0.302129 0.798213 0.750000
O O6 0.153066 0.715582 0.848216
O O7 0.281759 0.897222 0.877294
O O8 0.737703 0.880645 0.750000
O O9 0.791338 0.769773 0.630591
O O10 0.872738 0.983403 0.650971
O O11 0.242631 0.086675 0.545747
O O12 0.041286 0.383600 0.109950
O O13 0.103767 0.250000 0.000000
O O14 0.982367 0.113289 0.750000
#
# Coordination Sequence:
#
# PCOD8234671 Si02
#       6
#     8   8   8   8   8   8
#     4  10  22  44  66  90 128 171 208 266 330 379
#     4  10  23  43  66  94 126 168 219 263 321 383
#     4  10  22  43  66  89 126 172 215 264 325 376
#     4  11  25  40  67  94 130 166 213 267 320 386
#     4  12  25  40  63  99 131 163 215 262 314 382
#     4   9  22  43  64  88 127 173 210 261 321 373
#
# _framework density 20.43676
#
# number of rings (size 3 to 8) (size 9 to 14) (size 15 to 20)
#    0.000    1.667    1.667    2.500    4.667    6.000 
#    0.000    0.000    0.000    0.000    0.000    0.000 
#    0.000    0.000    0.000    0.000    0.000    0.000 
#
# Total GULP energy -595524.814246 kJ/mol
# GULP energy per Si atom -12406.766963 kJ/mol
# Density = 2.039024 g / cm^3
# Si number density = 20.436760 Si / 1000 Ang^3
#
#
#
# Elastic Constant Matrix: (Units=GPa)
#
#
# Indices 1 2 3 4 5 6 
#
# 1 81.3855 6.9238 19.3895 0.0000 0.0000 0.0000
# 2 6.9238 66.5055 13.0223 0.0000 0.0000 0.0000
# 3 19.3895 13.0223 76.2459 0.0000 0.0000 0.0000
# 4 0.0000 0.0000 0.0000 38.2140 0.0000 0.0000
# 5 0.0000 0.0000 0.0000 0.0000 28.4820 0.0000
# 6 0.0000 0.0000 0.0000 0.0000 0.0000 16.3831
#
#
#
# Elastic Compliance Matrix: (Units=1/GPa)
#
#
# Indices 1 2 3 4 5 6 
#
# 1 0.013114 -0.000737 -0.003209 0.000000 0.000000 0.000000
# 2 -0.000737 0.015598 -0.002477 0.000000 0.000000 0.000000
# 3 -0.003209 -0.002477 0.014355 0.000000 0.000000 0.000000
# 4 0.000000 0.000000 0.000000 0.026168 0.000000 0.000000
# 5 0.000000 0.000000 0.000000 0.000000 0.035110 0.000000
# 6 0.000000 0.000000 0.000000 0.000000 0.000000 0.061039
#
#
# Mechanical properties :
#
#
# Convention : Reuss Voigt Hill
#
# Bulk Modulus (GPa) = 33.08901 33.64535 33.36718
# Shear Modulus (GPa) = 26.55292 28.93591 27.74442
#
# Velocity S-wave (km/s) = 3.60845 3.76689 3.68852
# Velocity P-wave (km/s) = 5.79546 5.95132 5.87391
#
# Compressibility (1/GPa) = 0.03022152
#
# Stress axis : x y z
#
# Youngs Moduli (GPa) = 76.25168 64.11069 69.66425
#
# Poissons Ratio (x) = 0.04725 0.22357
# Poissons Ratio (y) = 0.05619 0.17253
# Poissons Ratio (z) = 0.24471 0.15878
#
# Static dielectric constant tensor:
#      x y z
#    x 3.640120 0.000000 0.000000 
#    y 0.000000 3.600500 0.000000 
#    z 0.000000 0.000000 3.805410 
# 
# 
# High freq. dielectric constant tensor:
#      x y z
#    x 1.795530 0.000000 0.000000 
#    y 0.000000 1.798350 0.000000 
#    z 0.000000 0.000000 1.812960 
# 
# From -- ./inp_files/21846.got.cif
#   From: 2010.03.12/outbox.cif.g09.slc.cpg/sg57_11_cif.got.tgz:21846.got - 2010.04.16 15:48:40.
