data_PCOD8234151
_publ_section_title
;
Structure prediction by ZEFSAII (Michael W. Deem and Ramdas Pophale) SiO2 
 PCOD8234151
Probable space group: P B C M
;
_chemical_formula_sum "Si O2"
_cell_formula_units_Z 48
_cell_length_a 11.393360
_cell_length_b 11.321654
_cell_length_c 18.576052
_cell_angle_alpha 90.000000
_cell_angle_beta 90.000000
_cell_angle_gamma 90.000000
_cell_volume 2396.156152
_symmetry_space_group_name_H-M "P B C M"
_symmetry_group_IT_number 57
_symmetry_cell_setting 'orthorhombic'
loop_
_space_group_symop_operation_xyz
x,y,z
-x,-y,1/2+z
x,1/2-y,-z
-x,1/2+y,1/2-z
-x,-y,-z
x,y,1/2-z
-x,1/2+y,z
x,1/2-y,1/2+z
loop_
_atom_site_type_symbol
_atom_site_label
_atom_site_fract_x
_atom_site_fract_y
_atom_site_fract_z
Si Si1 0.341695 0.474020 0.578149
Si Si2 0.383500 0.499347 0.085175
Si Si3 0.259621 0.224533 0.921590
Si Si4 0.824091 0.114625 0.669496
Si Si5 0.045126 0.051532 0.924218
Si Si6 0.800021 0.112051 0.170301
O O1 0.481089 0.469928 0.585607
O O2 0.318693 0.501344 0.493538
O O3 0.274050 0.357026 0.611131
O O4 0.293860 0.579920 0.626905
O O5 0.348261 0.368990 0.116691
O O6 0.330385 0.597556 0.138002
O O7 0.126630 0.170821 0.927326
O O8 0.312706 0.250000 0.000000
O O9 0.825234 0.059286 0.750000
O O10 0.831673 0.253248 0.675860
O O11 0.934241 0.073576 0.624596
O O12 0.114100 0.948174 0.885694
O O13 0.000000 0.000000 0.000000
O O14 0.808242 0.054139 0.250000
#
# Coordination Sequence:
#
# PCOD8234151 Si02
#       6
#     8   8   8   8   8   8
#     4  10  21  38  62  93 122 154 204 257 301 359
#     4   9  20  38  64  90 119 159 199 253 306 355
#     4   9  19  36  58  91 120 148 198 250 304 360
#     4  11  25  40  59  88 126 163 202 247 304 371
#     4  11  23  39  65  89 118 163 205 259 305 358
#     4  10  23  42  60  86 124 163 203 247 303 370
#
# _framework density 20.032083
#
# number of rings (size 3 to 8) (size 9 to 14) (size 15 to 20)
#    0.000    2.000    0.000    3.500    7.000    2.667 
#    0.000    3.333    0.000    0.000    0.000    0.000 
#    0.000    0.000    0.000    0.000    0.000    0.000 
#
# Total GULP energy -594658.352969 kJ/mol
# GULP energy per Si atom -12388.715687 kJ/mol
# Density = 1.998649 g / cm^3
# Si number density = 20.032083 Si / 1000 Ang^3
#
#
#
# Elastic Constant Matrix: (Units=GPa)
#
#
# Indices 1 2 3 4 5 6 
#
# 1 100.6792 36.0641 62.9736 0.0000 0.0000 0.0000
# 2 36.0641 65.1146 45.1034 0.0000 0.0000 0.0000
# 3 62.9736 45.1034 125.6904 0.0000 0.0000 0.0000
# 4 0.0000 0.0000 0.0000 28.4752 0.0000 0.0000
# 5 0.0000 0.0000 0.0000 0.0000 -6.4171 0.0000
# 6 0.0000 0.0000 0.0000 0.0000 0.0000 26.0673
#
#
#
# Elastic Compliance Matrix: (Units=1/GPa)
#
#
# Indices 1 2 3 4 5 6 
#
# 1 0.015285 -0.004207 -0.006149 0.000000 0.000000 0.000000
# 2 -0.004207 0.021595 -0.005642 0.000000 0.000000 0.000000
# 3 -0.006149 -0.005642 0.013061 0.000000 0.000000 0.000000
# 4 0.000000 0.000000 0.000000 0.035118 0.000000 0.000000
# 5 0.000000 0.000000 0.000000 0.000000 -0.155833 0.000000
# 6 0.000000 0.000000 0.000000 0.000000 0.000000 0.038362
#
#
# Mechanical properties :
#
#
# Convention : Reuss Voigt Hill
#
# Bulk Modulus (GPa) = 55.71808 64.41851 60.06830
# Shear Modulus (GPa) = 898.17221 19.44795 458.81008
#
# Velocity S-wave (km/s) = 21.19765 3.11921 15.15041
# Velocity P-wave (km/s) = 25.03987 6.72310 18.33297
#
# Compressibility (1/GPa) = 0.01794750
#
# Stress axis : x y z
#
# Youngs Moduli (GPa) = 65.42189 46.30621 76.56273
#
# Poissons Ratio (x) = 0.19480 0.47076
# Poissons Ratio (y) = 0.27522 0.43194
# Poissons Ratio (z) = 0.40226 0.26125
#
# Static dielectric constant tensor:
#      x y z
#    x -10.622440 0.000000 0.000000 
#    y 0.000000 4.164040 0.000000 
#    z 0.000000 0.000000 4.258070 
# 
# 
# High freq. dielectric constant tensor:
#      x y z
#    x 1.786020 0.000000 0.000000 
#    y 0.000000 1.784720 0.000000 
#    z 0.000000 0.000000 1.771270 
# 
# From -- ./inp_files/21848.got.cif
#   From: 2010.03.12/outbox.cif.g09.slc.cpg/sg57_11_cif.got.tgz:21848.got - 2010.04.16 15:48:40.
