data_PCOD8234680
_publ_section_title
;
Structure prediction by ZEFSAII (Michael W. Deem and Ramdas Pophale) SiO2 
 PCOD8234680
Probable space group: P B C M
;
_chemical_formula_sum "Si O2"
_cell_formula_units_Z 32
_cell_length_a 5.455414
_cell_length_b 18.218421
_cell_length_c 13.743839
_cell_angle_alpha 90.000000
_cell_angle_beta 90.000000
_cell_angle_gamma 90.000000
_cell_volume 1365.986813
_symmetry_space_group_name_H-M "P B C M"
_symmetry_group_IT_number 57
_symmetry_cell_setting 'orthorhombic'
loop_
_space_group_symop_operation_xyz
x,y,z
-x,-y,1/2+z
x,1/2-y,-z
-x,1/2+y,1/2-z
-x,-y,-z
x,y,1/2-z
-x,1/2+y,z
x,1/2-y,1/2+z
loop_
_atom_site_type_symbol
_atom_site_label
_atom_site_fract_x
_atom_site_fract_y
_atom_site_fract_z
Si Si1 0.993498 0.431268 0.860412
Si Si2 0.298693 0.445289 0.037372
Si Si3 0.828064 0.274004 0.860169
Si Si4 0.664752 0.795078 0.365334
O O1 0.096427 0.440177 0.750000
O O2 0.886849 0.508622 0.895612
O O3 0.809655 0.362427 0.865271
O O4 0.200516 0.409870 0.937628
O O5 0.382079 0.379411 0.105976
O O6 0.500000 0.500000 0.000000
O O7 0.830900 0.246215 0.750000
O O8 0.575604 0.246077 0.909534
O O9 0.078352 0.238993 0.907605
O O10 0.668564 0.786230 0.250000
#
# Coordination Sequence:
#
# PCOD8234680 Si02
#       4
#     8   8   8   8
#     4  10  24  46  68  97 140 182 230 287 346 418
#     4  11  26  43  65 105 133 181 233 279 353 412
#     4   9  21  42  70 100 133 182 228 276 342 404
#     4  10  22  43  70 101 138 177 227 283 341 408
#
# _framework density 23.426285
#
# number of rings (size 3 to 8) (size 9 to 14) (size 15 to 20)
#    0.000    2.000    0.000    0.750   10.500    3.000 
#    0.000    0.000    0.000    0.000    0.000    0.000 
#    0.000    0.000    0.000    0.000    0.000    0.000 
#
# Total GULP energy -396429.177693 kJ/mol
# GULP energy per Si atom -12388.411803 kJ/mol
# Density = 2.337297 g / cm^3
# Si number density = 23.426285 Si / 1000 Ang^3
#
#
#
# Elastic Constant Matrix: (Units=GPa)
#
#
# Indices 1 2 3 4 5 6 
#
# 1 153.4932 40.6200 21.0898 0.0000 0.0000 0.0000
# 2 40.6200 114.4328 33.0967 0.0000 0.0000 0.0000
# 3 21.0898 33.0967 89.1583 0.0000 0.0000 0.0000
# 4 0.0000 0.0000 0.0000 41.2714 0.0000 0.0000
# 5 0.0000 0.0000 0.0000 0.0000 -2.3305 0.0000
# 6 0.0000 0.0000 0.0000 0.0000 0.0000 43.2877
#
#
#
# Elastic Compliance Matrix: (Units=1/GPa)
#
#
# Indices 1 2 3 4 5 6 
#
# 1 0.007248 -0.002327 -0.000851 0.000000 0.000000 0.000000
# 2 -0.002327 0.010537 -0.003361 0.000000 0.000000 0.000000
# 3 -0.000851 -0.003361 0.012665 0.000000 0.000000 0.000000
# 4 0.000000 0.000000 0.000000 0.024230 0.000000 0.000000
# 5 0.000000 0.000000 0.000000 0.000000 -0.429088 0.000000
# 6 0.000000 0.000000 0.000000 0.000000 0.000000 0.023101
#
#
# Mechanical properties :
#
#
# Convention : Reuss Voigt Hill
#
# Bulk Modulus (GPa) = 57.56224 60.74416 59.15320
# Shear Modulus (GPa) = -15.04030 33.93090 9.44530
#
# Velocity S-wave (km/s) = -2.53657 3.80993 2.01014
# Velocity P-wave (km/s) = 4.00575 6.73352 5.54014
#
# Compressibility (1/GPa) = 0.01737250
#
# Stress axis : x y z
#
# Youngs Moduli (GPa) = 137.97788 94.90626 78.95847
#
# Poissons Ratio (x) = 0.22081 0.06717
# Poissons Ratio (y) = 0.32102 0.26538
# Poissons Ratio (z) = 0.11738 0.31898
#
# Static dielectric constant tensor:
#      x y z
#    x 4.440770 0.000000 0.000000 
#    y 0.000000 4.646100 0.000000 
#    z 0.000000 0.000000 4.224630 
# 
# 
# High freq. dielectric constant tensor:
#      x y z
#    x 1.914450 0.000000 0.000000 
#    y 0.000000 1.934480 0.000000 
#    z 0.000000 0.000000 1.940610 
# 
# From -- ./inp_files/14695.got.cif
#   From: 2010.03.12/outbox.cif.g09.slc.cpg/sg57_8_cif.got.tgz:14695.got - 2010.04.16 15:48:40.
