data_PCOD8234444
_publ_section_title
;
Structure prediction by ZEFSAII (Michael W. Deem and Ramdas Pophale) SiO2 
 PCOD8234444
Probable space group: P B C M
;
_chemical_formula_sum "Si O2"
_cell_formula_units_Z 44
_cell_length_a 11.829094
_cell_length_b 17.772076
_cell_length_c 10.470271
_cell_angle_alpha 90.000000
_cell_angle_beta 90.000000
_cell_angle_gamma 90.000000
_cell_volume 2201.139500
_symmetry_space_group_name_H-M "P B C M"
_symmetry_group_IT_number 57
_symmetry_cell_setting 'orthorhombic'
loop_
_space_group_symop_operation_xyz
x,y,z
-x,-y,1/2+z
x,1/2-y,-z
-x,1/2+y,1/2-z
-x,-y,-z
x,y,1/2-z
-x,1/2+y,z
x,1/2-y,1/2+z
loop_
_atom_site_type_symbol
_atom_site_label
_atom_site_fract_x
_atom_site_fract_y
_atom_site_fract_z
Si Si1 0.373387 0.906496 0.995192
Si Si2 0.870466 0.828801 0.250000
Si Si3 0.258803 0.844804 0.750000
Si Si4 0.624014 0.578444 0.013947
Si Si5 0.619827 0.313428 0.250000
Si Si6 0.625194 0.850540 0.250000
Si Si7 0.993603 0.824551 0.750000
Si Si8 0.844766 0.660453 0.478414
O O1 0.289115 0.888698 0.879417
O O2 0.355824 0.991280 0.044659
O O3 0.500278 0.894690 0.937799
O O4 0.346097 0.856221 0.119649
O O5 0.738448 0.798773 0.250000
O O6 0.882231 0.875590 0.383161
O O7 0.961880 0.763142 0.250000
O O8 0.317141 0.764633 0.750000
O O9 0.125461 0.834595 0.750000
O O10 0.623447 0.590054 0.863374
O O11 0.725530 0.628012 0.073709
O O12 0.484903 0.297406 0.250000
O O13 0.940344 0.861819 0.623187
O O14 0.832869 0.750000 0.500000
#
# Coordination Sequence:
#
# PCOD8234444 Si02
#       8
#     8   4   4   8   4   4   4   8
#     4  10  22  37  58  86 117 151 178 219 290 345
#     4   8  16  31  54  79 103 138 179 226 280 321
#     4  12  25  40  55  77 114 156 192 229 272 326
#     4   9  18  35  60  88 118 142 177 228 282 345
#     4  10  22  37  56  84 115 148 189 229 273 343
#     4   8  15  32  56  86 115 138 175 232 290 336
#     4  10  22  36  51  78 111 144 191 240 275 314
#     4   9  18  33  57  84 108 140 185 236 280 322
#
# _framework density 19.989646
#
# number of rings (size 3 to 8) (size 9 to 14) (size 15 to 20)
#    0.000    2.545    0.000    1.091    0.000   13.818 
#    0.000    0.909    0.000    6.545    0.000    0.000 
#    0.000    0.000    0.000    0.000    0.000    0.000 
#
# Total GULP energy -545131.904048 kJ/mol
# GULP energy per Si atom -12389.361456 kJ/mol
# Density = 1.994415 g / cm^3
# Si number density = 19.989646 Si / 1000 Ang^3
#
#
#
# Elastic Constant Matrix: (Units=GPa)
#
#
# Indices 1 2 3 4 5 6 
#
# 1 129.3401 19.4578 47.2342 0.0000 0.0000 0.0000
# 2 19.4578 46.9205 5.3000 0.0000 0.0000 0.0000
# 3 47.2342 5.3000 111.3939 0.0000 0.0000 0.0000
# 4 0.0000 0.0000 0.0000 15.1147 0.0000 0.0000
# 5 0.0000 0.0000 0.0000 0.0000 28.0987 0.0000
# 6 0.0000 0.0000 0.0000 0.0000 0.0000 11.1069
#
#
#
# Elastic Compliance Matrix: (Units=1/GPa)
#
#
# Indices 1 2 3 4 5 6 
#
# 1 0.009712 -0.003582 -0.003948 0.000000 0.000000 0.000000
# 2 -0.003582 0.022749 0.000436 0.000000 0.000000 0.000000
# 3 -0.003948 0.000436 0.010630 0.000000 0.000000 0.000000
# 4 0.000000 0.000000 0.000000 0.066161 0.000000 0.000000
# 5 0.000000 0.000000 0.000000 0.000000 0.035589 0.000000
# 6 0.000000 0.000000 0.000000 0.000000 0.000000 0.090034
#
#
# Mechanical properties :
#
#
# Convention : Reuss Voigt Hill
#
# Bulk Modulus (GPa) = 34.59613 47.95985 41.27799
# Shear Modulus (GPa) = 19.32771 25.24155 22.28463
#
# Velocity S-wave (km/s) = 3.11285 3.55735 3.34250
# Velocity P-wave (km/s) = 5.50131 6.39667 5.96581
#
# Compressibility (1/GPa) = 0.02890496
#
# Stress axis : x y z
#
# Youngs Moduli (GPa) = 102.96455 43.95862 94.07011
#
# Poissons Ratio (x) = 0.15744 0.37137
# Poissons Ratio (y) = 0.36878 -0.04105
# Poissons Ratio (z) = 0.40648 -0.01918
#
# Static dielectric constant tensor:
#      x y z
#    x 3.652160 0.000000 0.000000 
#    y 0.000000 3.259630 0.000000 
#    z 0.000000 0.000000 4.138960 
# 
# 
# High freq. dielectric constant tensor:
#      x y z
#    x 1.770730 0.000000 0.000000 
#    y 0.000000 1.744140 0.000000 
#    z 0.000000 0.000000 1.796380 
# 
# From -- ./inp_files/12893.got.cif
#   From: 2010.03.12/outbox.cif.g09.slc.cpg/sg57_7_cif.got.tgz:12893.got - 2010.04.16 15:48:40.
