data_PCOD8234623
_publ_section_title
;
Structure prediction by ZEFSAII (Michael W. Deem and Ramdas Pophale) SiO2 
 PCOD8234623
Probable space group: P B C M
;
_chemical_formula_sum "Si O2"
_cell_formula_units_Z 48
_cell_length_a 9.789124
_cell_length_b 29.070723
_cell_length_c 8.379260
_cell_angle_alpha 90.000000
_cell_angle_beta 90.000000
_cell_angle_gamma 90.000000
_cell_volume 2384.543937
_symmetry_space_group_name_H-M "P B C M"
_symmetry_group_IT_number 57
_symmetry_cell_setting 'orthorhombic'
loop_
_space_group_symop_operation_xyz
x,y,z
-x,-y,1/2+z
x,1/2-y,-z
-x,1/2+y,1/2-z
-x,-y,-z
x,y,1/2-z
-x,1/2+y,z
x,1/2-y,1/2+z
loop_
_atom_site_type_symbol
_atom_site_label
_atom_site_fract_x
_atom_site_fract_y
_atom_site_fract_z
Si Si1 0.139090 0.979711 0.562718
Si Si2 0.612964 0.966648 0.565100
Si Si3 0.783649 0.382381 0.437620
Si Si4 0.032973 0.800397 0.560096
Si Si5 0.471066 0.127031 0.934315
Si Si6 0.726689 0.701798 0.434620
O O1 0.158843 0.988860 0.750000
O O2 0.150532 0.925374 0.529870
O O3 0.245314 0.008139 0.458451
O O4 0.000000 0.000000 0.500000
O O5 0.588655 0.955071 0.750000
O O6 0.607377 0.920419 0.463026
O O7 0.500000 0.000000 0.500000
O O8 0.787882 0.392676 0.250000
O O9 0.867840 0.336938 0.477975
O O10 0.627145 0.375772 0.495401
O O11 0.077740 0.750000 0.500000
O O12 0.048249 0.803831 0.750000
O O13 0.878021 0.810951 0.498606
O O14 0.466005 0.140357 0.750000
O O15 0.389008 0.165026 0.030592
O O16 0.673031 0.750000 0.500000
O O17 0.746731 0.707635 0.250000
#
# Coordination Sequence:
#
# PCOD8234623 Si02
#       6
#     8   8   8   8   8   8
#     4  12  26  44  66  93 128 168 212 263 316 374
#     4  12  24  42  66  93 128 168 212 258 313 374
#     4  11  24  42  64  92 127 165 211 259 312 375
#     4  10  22  41  65  92 124 162 207 257 316 377
#     4  11  24  41  64  93 126 166 211 257 313 374
#     4  10  22  41  65  93 125 161 207 258 314 377
#
# _framework density 20.129636999999999
#
# number of rings (size 3 to 8) (size 9 to 14) (size 15 to 20)
#    0.000    1.000    1.667    5.000    2.333    4.667 
#    0.000    0.000    0.000    0.000    0.000    0.000 
#    0.000    0.000    0.000    0.000    0.000    0.000 
#
# Total GULP energy -595381.723900 kJ/mol
# GULP energy per Si atom -12403.785915 kJ/mol
# Density = 2.008382 g / cm^3
# Si number density = 20.129637 Si / 1000 Ang^3
#
#
#
# Elastic Constant Matrix: (Units=GPa)
#
#
# Indices 1 2 3 4 5 6 
#
# 1 123.4875 64.6144 16.3545 0.0000 0.0000 0.0000
# 2 64.6144 134.1500 6.1000 0.0000 0.0000 0.0000
# 3 16.3545 6.1000 61.3685 0.0000 0.0000 0.0000
# 4 0.0000 0.0000 0.0000 40.0743 0.0000 0.0000
# 5 0.0000 0.0000 0.0000 0.0000 31.1551 0.0000
# 6 0.0000 0.0000 0.0000 0.0000 0.0000 46.6589
#
#
#
# Elastic Compliance Matrix: (Units=1/GPa)
#
#
# Indices 1 2 3 4 5 6 
#
# 1 0.011183 -0.005275 -0.002456 0.000000 0.000000 0.000000
# 2 -0.005275 0.009976 0.000414 0.000000 0.000000 0.000000
# 3 -0.002456 0.000414 0.016908 0.000000 0.000000 0.000000
# 4 0.000000 0.000000 0.000000 0.024954 0.000000 0.000000
# 5 0.000000 0.000000 0.000000 0.000000 0.032097 0.000000
# 6 0.000000 0.000000 0.000000 0.000000 0.000000 0.021432
#
#
# Mechanical properties :
#
#
# Convention : Reuss Voigt Hill
#
# Bulk Modulus (GPa) = 42.67237 54.79376 48.73307
# Shear Modulus (GPa) = 35.97224 39.04012 37.50618
#
# Velocity S-wave (km/s) = 4.23191 4.40868 4.32120
# Velocity P-wave (km/s) = 6.71741 7.29348 7.01136
#
# Compressibility (1/GPa) = 0.02343437
#
# Stress axis : x y z
#
# Youngs Moduli (GPa) = 89.41903 100.23871 59.14230
#
# Poissons Ratio (x) = 0.52874 0.14525
# Poissons Ratio (y) = 0.47167 -0.02449
# Poissons Ratio (z) = 0.21961 -0.04151
#
# Static dielectric constant tensor:
#      x y z
#    x 3.759610 0.000000 0.000000 
#    y 0.000000 3.615360 0.000000 
#    z 0.000000 0.000000 3.662520 
# 
# 
# High freq. dielectric constant tensor:
#      x y z
#    x 1.795320 0.000000 0.000000 
#    y 0.000000 1.795220 0.000000 
#    z 0.000000 0.000000 1.798560 
# 
# From -- ./inp_files/2077.got.cif
#   From: 2010.03.12/outbox.cif.g09.slc.cpg/sg57_2_cif.got.tgz:2077.got - 2010.04.16 15:48:40.
