data_PCOD8234694
_publ_section_title
;
Structure prediction by ZEFSAII (Michael W. Deem and Ramdas Pophale) SiO2 
 PCOD8234694
Probable space group: P B C M
;
_chemical_formula_sum "Si O2"
_cell_formula_units_Z 40
_cell_length_a 16.157260
_cell_length_b 8.735566
_cell_length_c 13.380915
_cell_angle_alpha 90.000000
_cell_angle_beta 90.000000
_cell_angle_gamma 90.000000
_cell_volume 1888.619958
_symmetry_space_group_name_H-M "P B C M"
_symmetry_group_IT_number 57
_symmetry_cell_setting 'orthorhombic'
loop_
_space_group_symop_operation_xyz
x,y,z
-x,-y,1/2+z
x,1/2-y,-z
-x,1/2+y,1/2-z
-x,-y,-z
x,y,1/2-z
-x,1/2+y,z
x,1/2-y,1/2+z
loop_
_atom_site_type_symbol
_atom_site_label
_atom_site_fract_x
_atom_site_fract_y
_atom_site_fract_z
Si Si1 0.416980 0.079464 0.537482
Si Si2 0.103337 0.026207 0.067318
Si Si3 0.458054 0.502139 0.250000
Si Si4 0.950530 0.642965 0.865284
Si Si5 0.724910 0.107252 0.563171
Si Si6 0.616713 0.171446 0.750000
O O1 0.416640 0.250000 0.500000
O O2 0.415173 0.079059 0.656572
O O3 0.500000 0.000000 0.500000
O O4 0.334971 0.996344 0.502054
O O5 0.070238 0.179054 0.120700
O O6 0.197361 0.993414 0.099695
O O7 0.101353 0.042066 0.945772
O O8 0.046888 0.886336 0.107201
O O9 0.444266 0.683619 0.250000
O O10 0.557651 0.477742 0.250000
O O11 0.931207 0.595410 0.750000
O O12 0.759016 0.250000 0.500000
O O13 0.674842 0.175480 0.654949
#
# Coordination Sequence:
#
# PCOD8234694 Si02
#       6
#     8   8   4   8   8   4
#     4  12  25  45  71 100 142 183 230 288 345 414
#     4  10  25  44  69 103 141 181 232 288 344 418
#     4  12  24  46  72 102 132 189 235 275 350 419
#     4  10  22  45  71 100 136 182 235 276 351 418
#     4  12  27  47  67 104 144 185 233 293 348 411
#     4  12  26  44  74 102 138 185 239 283 352 421
#
# _framework density 21.179485
#
# number of rings (size 3 to 8) (size 9 to 14) (size 15 to 20)
#    0.000    0.800    4.000    2.400   11.200    0.000 
#    3.600    0.000    0.000    0.000    0.000    0.000 
#    0.000    0.000    0.000    0.000    0.000    0.000 
#
# Total GULP energy -496089.921844 kJ/mol
# GULP energy per Si atom -12402.248046 kJ/mol
# Density = 2.113128 g / cm^3
# Si number density = 21.179485 Si / 1000 Ang^3
#
#
#
# Elastic Constant Matrix: (Units=GPa)
#
#
# Indices 1 2 3 4 5 6 
#
# 1 132.2090 63.4114 21.9966 0.0000 0.0000 0.0000
# 2 63.4114 126.5893 48.4791 0.0000 0.0000 0.0000
# 3 21.9966 48.4791 154.0625 0.0000 0.0000 0.0000
# 4 0.0000 0.0000 0.0000 34.1530 0.0000 0.0000
# 5 0.0000 0.0000 0.0000 0.0000 23.3717 0.0000
# 6 0.0000 0.0000 0.0000 0.0000 0.0000 34.0613
#
#
#
# Elastic Compliance Matrix: (Units=1/GPa)
#
#
# Indices 1 2 3 4 5 6 
#
# 1 0.009960 -0.005053 0.000168 0.000000 0.000000 0.000000
# 2 -0.005053 0.011546 -0.002912 0.000000 0.000000 0.000000
# 3 0.000168 -0.002912 0.007383 0.000000 0.000000 0.000000
# 4 0.000000 0.000000 0.000000 0.029280 0.000000 0.000000
# 5 0.000000 0.000000 0.000000 0.000000 0.042787 0.000000
# 6 0.000000 0.000000 0.000000 0.000000 0.000000 0.029359
#
#
# Mechanical properties :
#
#
# Convention : Reuss Voigt Hill
#
# Bulk Modulus (GPa) = 75.21722 75.62611 75.42167
# Shear Modulus (GPa) = 33.25804 36.91545 35.08675
#
# Velocity S-wave (km/s) = 3.96699 4.17943 4.07460
# Velocity P-wave (km/s) = 7.52157 7.68602 7.60424
#
# Compressibility (1/GPa) = 0.01329483
#
# Stress axis : x y z
#
# Youngs Moduli (GPa) = 100.40622 86.61032 135.44468
#
# Poissons Ratio (x) = 0.43767 -0.02278
# Poissons Ratio (y) = 0.50739 0.39437
# Poissons Ratio (z) = -0.01688 0.25218
#
# Static dielectric constant tensor:
#      x y z
#    x 3.749490 0.000000 0.000000 
#    y 0.000000 3.765920 0.000000 
#    z 0.000000 0.000000 4.159240 
# 
# 
# High freq. dielectric constant tensor:
#      x y z
#    x 1.823740 0.000000 0.000000 
#    y 0.000000 1.834590 0.000000 
#    z 0.000000 0.000000 1.845470 
# 
# From -- ./inp_files/18296.got.cif
#   From: 2010.03.12/outbox.cif.g09.slc.cpg/sg57_10_cif.got.tgz:18296.got - 2010.04.16 15:48:40.
