data_PCOD8234998
_publ_section_title
;
Structure prediction by ZEFSAII (Michael W. Deem and Ramdas Pophale) SiO2 
 PCOD8234998
Probable space group: P B C M
;
_chemical_formula_sum "Si O2"
_cell_formula_units_Z 32
_cell_length_a 9.276415
_cell_length_b 9.054071
_cell_length_c 16.871088
_cell_angle_alpha 90.000000
_cell_angle_beta 90.000000
_cell_angle_gamma 90.000000
_cell_volume 1416.991209
_symmetry_space_group_name_H-M "P B C M"
_symmetry_group_IT_number 57
_symmetry_cell_setting 'orthorhombic'
loop_
_space_group_symop_operation_xyz
x,y,z
-x,-y,1/2+z
x,1/2-y,-z
-x,1/2+y,1/2-z
-x,-y,-z
x,y,1/2-z
-x,1/2+y,z
x,1/2-y,1/2+z
loop_
_atom_site_type_symbol
_atom_site_label
_atom_site_fract_x
_atom_site_fract_y
_atom_site_fract_z
Si Si1 0.343372 0.807501 0.914957
Si Si2 0.454065 0.102879 0.659310
Si Si3 0.046536 0.546702 0.413509
Si Si4 0.810533 0.744328 0.904457
O O1 0.388577 0.675744 0.854540
O O2 0.171004 0.827578 0.913941
O O3 0.422981 0.962170 0.895905
O O4 0.396604 0.750000 0.000000
O O5 0.435565 0.054542 0.750000
O O6 0.346068 0.238658 0.635633
O O7 0.106999 0.401585 0.371060
O O8 0.000000 0.500000 0.500000
O O9 0.903804 0.616520 0.372615
O O10 0.798052 0.750000 0.000000
#
# Coordination Sequence:
#
# PCOD8234998 Si02
#       4
#     8   8   8   8
#     4  11  22  39  64  89 117 160 210 255 304 366
#     4  11  24  40  56  85 125 160 196 251 309 368
#     4   9  18  34  59  90 116 145 195 255 299 349
#     4   9  18  35  58  84 115 151 196 245 297 359
#
# _framework density 22.58306
#
# number of rings (size 3 to 8) (size 9 to 14) (size 15 to 20)
#    0.000    2.000    0.000    4.500    0.000    6.000 
#    0.000    6.250    0.000    0.000    0.000    0.000 
#    0.000    0.000    0.000    0.000    0.000    0.000 
#
# Total GULP energy -396540.402966 kJ/mol
# GULP energy per Si atom -12391.887593 kJ/mol
# Density = 2.253166 g / cm^3
# Si number density = 22.583060 Si / 1000 Ang^3
#
#
#
# Elastic Constant Matrix: (Units=GPa)
#
#
# Indices 1 2 3 4 5 6 
#
# 1 84.2102 32.7706 34.1961 0.0000 0.0000 0.0000
# 2 32.7706 70.9134 32.9106 0.0000 0.0000 0.0000
# 3 34.1961 32.9106 78.0583 0.0000 0.0000 0.0000
# 4 0.0000 0.0000 0.0000 24.1049 0.0000 0.0000
# 5 0.0000 0.0000 0.0000 0.0000 12.8804 0.0000
# 6 0.0000 0.0000 0.0000 0.0000 0.0000 45.8898
#
#
#
# Elastic Compliance Matrix: (Units=1/GPa)
#
#
# Indices 1 2 3 4 5 6 
#
# 1 0.015792 -0.005081 -0.004776 0.000000 0.000000 0.000000
# 2 -0.005081 0.019167 -0.005855 0.000000 0.000000 0.000000
# 3 -0.004776 -0.005855 0.017372 0.000000 0.000000 0.000000
# 4 0.000000 0.000000 0.000000 0.041485 0.000000 0.000000
# 5 0.000000 0.000000 0.000000 0.000000 0.077638 0.000000
# 6 0.000000 0.000000 0.000000 0.000000 0.000000 0.021791
#
#
# Mechanical properties :
#
#
# Convention : Reuss Voigt Hill
#
# Bulk Modulus (GPa) = 47.83247 48.10404 47.96825
# Shear Modulus (GPa) = 21.58538 25.46199 23.52369
#
# Velocity S-wave (km/s) = 3.09499 3.36144 3.23096
# Velocity P-wave (km/s) = 5.83083 6.03431 5.93344
#
# Compressibility (1/GPa) = 0.02090630
#
# Stress axis : x y z
#
# Youngs Moduli (GPa) = 63.32406 52.17233 57.56476
#
# Poissons Ratio (x) = 0.26510 0.27492
# Poissons Ratio (y) = 0.32177 0.33705
# Poissons Ratio (z) = 0.30242 0.30548
#
# Static dielectric constant tensor:
#      x y z
#    x 4.519840 0.000000 0.000000 
#    y 0.000000 4.488310 0.000000 
#    z 0.000000 0.000000 3.501190 
# 
# 
# High freq. dielectric constant tensor:
#      x y z
#    x 1.898910 0.000000 0.000000 
#    y 0.000000 1.902000 0.000000 
#    z 0.000000 0.000000 1.834700 
# 
# From -- ./inp_files/23941.got.cif
#   From: 2010.03.12/outbox.cif.g09.slc.cpg/sg57_12_cif.got.tgz:23941.got - 2010.04.16 15:48:40.
