data_PCOD8234093
_publ_section_title
;
Structure prediction by ZEFSAII (Michael W. Deem and Ramdas Pophale) SiO2 
 PCOD8234093
Probable space group: P B C M
;
_chemical_formula_sum "Si O2"
_cell_formula_units_Z 40
_cell_length_a 25.250136
_cell_length_b 9.194789
_cell_length_c 8.701305
_cell_angle_alpha 90.000000
_cell_angle_beta 90.000000
_cell_angle_gamma 90.000000
_cell_volume 2020.179134
_symmetry_space_group_name_H-M "P B C M"
_symmetry_group_IT_number 57
_symmetry_cell_setting 'orthorhombic'
loop_
_space_group_symop_operation_xyz
x,y,z
-x,-y,1/2+z
x,1/2-y,-z
-x,1/2+y,1/2-z
-x,-y,-z
x,y,1/2-z
-x,1/2+y,z
x,1/2-y,1/2+z
loop_
_atom_site_type_symbol
_atom_site_label
_atom_site_fract_x
_atom_site_fract_y
_atom_site_fract_z
Si Si1 0.650223 0.906158 0.430478
Si Si2 0.146720 0.598877 0.069814
Si Si3 0.046547 0.092713 0.571100
Si Si4 0.259130 0.594207 0.932149
Si Si5 0.452712 0.908822 0.929739
O O1 0.636537 0.750000 0.500000
O O2 0.660079 0.891680 0.250000
O O3 0.702459 0.968452 0.509809
O O4 0.601992 0.012363 0.469496
O O5 0.157631 0.619337 0.250000
O O6 0.103088 0.478251 0.034798
O O7 0.125758 0.750000 0.000000
O O8 0.200588 0.550560 0.987076
O O9 0.046493 0.250000 0.500000
O O10 0.035673 0.104630 0.750000
O O11 0.000000 0.000000 0.500000
O O12 0.261080 0.604071 0.750000
O O13 0.276502 0.750000 0.000000
O O14 0.462368 0.895249 0.750000
O O15 0.451040 0.750000 0.000000
O O16 0.500000 0.000000 0.000000
#
# Coordination Sequence:
#
# PCOD8234093 Si02
#       5
#     8   8   8   8   8
#     4  11  24  41  61  88 121 158 199 245 295 350
#     4  10  21  38  60  87 118 154 196 243 294 351
#     4  11  24  40  61  87 118 155 196 242 293 349
#     4  11  22  38  62  89 119 157 198 244 294 349
#     4  11  24  41  64  91 122 158 198 244 295 351
#
# _framework density 19.800222999999999
#
# number of rings (size 3 to 8) (size 9 to 14) (size 15 to 20)
#    0.000    1.200    0.000    7.200    0.000   12.000 
#    0.000    2.000    0.000    0.000    0.000    0.000 
#    0.000    0.000    0.000    0.000    0.000    0.000 
#
# Total GULP energy -496251.382016 kJ/mol
# GULP energy per Si atom -12406.284550 kJ/mol
# Density = 1.975516 g / cm^3
# Si number density = 19.800223 Si / 1000 Ang^3
#
#
#
# Elastic Constant Matrix: (Units=GPa)
#
#
# Indices 1 2 3 4 5 6 
#
# 1 115.3906 88.9001 87.3052 0.0000 0.0000 0.0000
# 2 88.9001 178.3304 90.6822 0.0000 0.0000 0.0000
# 3 87.3052 90.6822 146.2517 0.0000 0.0000 0.0000
# 4 0.0000 0.0000 0.0000 41.4910 0.0000 0.0000
# 5 0.0000 0.0000 0.0000 0.0000 32.5838 0.0000
# 6 0.0000 0.0000 0.0000 0.0000 0.0000 -178.4207
#
#
#
# Elastic Compliance Matrix: (Units=1/GPa)
#
#
# Indices 1 2 3 4 5 6 
#
# 1 0.018736 -0.005335 -0.007877 0.000000 0.000000 0.000000
# 2 -0.005335 0.009709 -0.002835 0.000000 0.000000 0.000000
# 3 -0.007877 -0.002835 0.013297 0.000000 0.000000 0.000000
# 4 0.000000 0.000000 0.000000 0.024102 0.000000 0.000000
# 5 0.000000 0.000000 0.000000 0.000000 0.030690 0.000000
# 6 0.000000 0.000000 0.000000 0.000000 0.000000 -0.005605
#
#
# Mechanical properties :
#
#
# Convention : Reuss Voigt Hill
#
# Bulk Modulus (GPa) = 103.63985 108.19422 105.91703
# Shear Modulus (GPa) = 39.60768 -9.33016 15.13876
#
# Velocity S-wave (km/s) = 4.47740 -2.17310 2.76810
# Velocity P-wave (km/s) = 8.89864 6.96168 7.98908
#
# Compressibility (1/GPa) = 0.00964880
#
# Stress axis : x y z
#
# Youngs Moduli (GPa) = 53.37415 102.99995 75.20250
#
# Poissons Ratio (x) = 0.54947 0.59234
# Poissons Ratio (y) = 0.28474 0.21322
# Poissons Ratio (z) = 0.42040 0.29203
#
# Static dielectric constant tensor:
#      x y z
#    x 4.282990 0.000000 0.000000 
#    y 0.000000 3.858090 0.000000 
#    z 0.000000 0.000000 3.845180 
# 
# 
# High freq. dielectric constant tensor:
#      x y z
#    x 1.787260 0.000000 0.000000 
#    y 0.000000 1.781040 0.000000 
#    z 0.000000 0.000000 1.793560 
# 
# From -- ./inp_files/8880.got.cif
#   From: 2010.03.12/outbox.cif.g09.slc.cpg/sg57_5_cif.got.tgz:8880.got - 2010.04.16 15:48:40.
