data_PCOD8234841
_publ_section_title
;
Structure prediction by ZEFSAII (Michael W. Deem and Ramdas Pophale) SiO2 
 PCOD8234841
Probable space group: P B C M
;
_chemical_formula_sum "Si O2"
_cell_formula_units_Z 48
_cell_length_a 8.587276
_cell_length_b 15.046713
_cell_length_c 17.611013
_cell_angle_alpha 90.000000
_cell_angle_beta 90.000000
_cell_angle_gamma 90.000000
_cell_volume 2275.523875
_symmetry_space_group_name_H-M "P B C M"
_symmetry_group_IT_number 57
_symmetry_cell_setting 'orthorhombic'
loop_
_space_group_symop_operation_xyz
x,y,z
-x,-y,1/2+z
x,1/2-y,-z
-x,1/2+y,1/2-z
-x,-y,-z
x,y,1/2-z
-x,1/2+y,z
x,1/2-y,1/2+z
loop_
_atom_site_type_symbol
_atom_site_label
_atom_site_fract_x
_atom_site_fract_y
_atom_site_fract_z
Si Si1 0.918923 0.192745 0.162935
Si Si2 0.412013 0.428573 0.588466
Si Si3 0.563711 0.230834 0.336492
Si Si4 0.573093 0.606102 0.584305
Si Si5 0.944508 0.972325 0.583529
Si Si6 0.897217 0.871266 0.337402
O O1 0.953601 0.165023 0.250000
O O2 0.735700 0.195501 0.147607
O O3 0.986180 0.123172 0.103405
O O4 0.997522 0.286508 0.144057
O O5 0.437875 0.345914 0.644732
O O6 0.527579 0.507979 0.614037
O O7 0.449524 0.391483 0.505539
O O8 0.239961 0.467733 0.590253
O O9 0.538238 0.258418 0.250000
O O10 0.542524 0.319542 0.384735
O O11 0.747874 0.629650 0.608404
O O12 0.000000 0.000000 0.500000
O O13 0.000386 0.042455 0.645880
O O14 0.842706 0.872852 0.250000
#
# Coordination Sequence:
#
# PCOD8234841 Si02
#       6
#     8   8   8   8   8   8
#     4  10  24  44  66  95 131 171 218 270 326 390
#     4  11  25  42  64  96 135 169 218 268 332 389
#     4  11  24  43  68  97 129 171 218 270 331 390
#     4  11  23  43  65  96 132 171 214 269 325 394
#     4  12  24  42  64  95 133 172 214 267 323 392
#     4  11  23  43  70  97 129 173 220 269 325 389
#
# _framework density 21.094042000000002
#
# number of rings (size 3 to 8) (size 9 to 14) (size 15 to 20)
#    0.000    1.000    1.667    4.500    2.333    6.000 
#    3.000    0.000    0.000    0.000    0.000    0.000 
#    0.000    0.000    0.000    0.000    0.000    0.000 
#
# Total GULP energy -595509.407498 kJ/mol
# GULP energy per Si atom -12406.445990 kJ/mol
# Density = 2.104603 g / cm^3
# Si number density = 21.094042 Si / 1000 Ang^3
#
#
#
# Elastic Constant Matrix: (Units=GPa)
#
#
# Indices 1 2 3 4 5 6 
#
# 1 90.6731 10.4191 19.5555 0.0000 0.0000 0.0000
# 2 10.4191 77.3659 10.7501 0.0000 0.0000 0.0000
# 3 19.5555 10.7501 26.1446 0.0000 0.0000 0.0000
# 4 0.0000 0.0000 0.0000 37.9559 0.0000 0.0000
# 5 0.0000 0.0000 0.0000 0.0000 33.0908 0.0000
# 6 0.0000 0.0000 0.0000 0.0000 0.0000 42.5232
#
#
#
# Elastic Compliance Matrix: (Units=1/GPa)
#
#
# Indices 1 2 3 4 5 6 
#
# 1 0.013163 -0.000429 -0.009669 0.000000 0.000000 0.000000
# 2 -0.000429 0.013723 -0.005322 0.000000 0.000000 0.000000
# 3 -0.009669 -0.005322 0.047669 0.000000 0.000000 0.000000
# 4 0.000000 0.000000 0.000000 0.026346 0.000000 0.000000
# 5 0.000000 0.000000 0.000000 0.000000 0.030220 0.000000
# 6 0.000000 0.000000 0.000000 0.000000 0.000000 0.023517
#
#
# Mechanical properties :
#
#
# Convention : Reuss Voigt Hill
#
# Bulk Modulus (GPa) = 22.87523 30.62587 26.75055
# Shear Modulus (GPa) = 24.99371 32.94457 28.96914
#
# Velocity S-wave (km/s) = 3.44593 3.95624 3.70987
# Velocity P-wave (km/s) = 5.16725 5.95142 5.57315
#
# Compressibility (1/GPa) = 0.04371541
#
# Stress axis : x y z
#
# Youngs Moduli (GPa) = 75.96848 72.87131 20.97782
#
# Poissons Ratio (x) = 0.03127 0.20284
# Poissons Ratio (y) = 0.03260 0.11163
# Poissons Ratio (z) = 0.73457 0.38779
#
# Static dielectric constant tensor:
#      x y z
#    x 3.874720 0.000000 0.000000 
#    y 0.000000 3.936270 0.000000 
#    z 0.000000 0.000000 3.821010 
# 
# 
# High freq. dielectric constant tensor:
#      x y z
#    x 1.838130 0.000000 0.000000 
#    y 0.000000 1.842980 0.000000 
#    z 0.000000 0.000000 1.828790 
# 
# From -- ./inp_files/20920.got.cif
#   From: 2010.03.12/outbox.cif.g09.slc.cpg/sg57_11_cif.got.tgz:20920.got - 2010.04.16 15:48:40.
