data_PCOD8234651
_publ_section_title
;
Structure prediction by ZEFSAII (Michael W. Deem and Ramdas Pophale) SiO2 
 PCOD8234651
Probable space group: P B C M
;
_chemical_formula_sum "Si O2"
_cell_formula_units_Z 32
_cell_length_a 11.639015
_cell_length_b 12.582150
_cell_length_c 10.031993
_cell_angle_alpha 90.000000
_cell_angle_beta 90.000000
_cell_angle_gamma 90.000000
_cell_volume 1469.123503
_symmetry_space_group_name_H-M "P B C M"
_symmetry_group_IT_number 57
_symmetry_cell_setting 'orthorhombic'
loop_
_space_group_symop_operation_xyz
x,y,z
-x,-y,1/2+z
x,1/2-y,-z
-x,1/2+y,1/2-z
-x,-y,-z
x,y,1/2-z
-x,1/2+y,z
x,1/2-y,1/2+z
loop_
_atom_site_type_symbol
_atom_site_label
_atom_site_fract_x
_atom_site_fract_y
_atom_site_fract_z
Si Si1 0.998475 0.750000 0.000000
Si Si2 0.473129 0.121382 0.250000
Si Si3 0.153257 0.738624 0.750000
Si Si4 0.608881 0.750000 0.000000
Si Si5 0.802495 0.590220 0.971097
Si Si6 0.242422 0.499459 0.750000
Si Si7 0.276348 0.940704 0.750000
O O1 0.920546 0.847434 0.053045
O O2 0.079100 0.726837 0.123727
O O3 0.466868 0.196092 0.382523
O O4 0.377658 0.028124 0.250000
O O5 0.586159 0.047706 0.250000
O O6 0.209492 0.622616 0.750000
O O7 0.263288 0.814318 0.750000
O O8 0.692327 0.662315 0.934986
O O9 0.788328 0.488368 0.878219
O O10 0.812812 0.555796 0.123185
#
# Coordination Sequence:
#
# PCOD8234651 Si02
#       7
#     4   4   4   4   8   4   4
#     4  11  24  43  66  90 122 163 206 265 320 364
#     4  10  23  41  66  93 128 169 205 260 316 358
#     4  12  26  39  60  95 128 161 206 258 314 372
#     4   9  20  41  68  94 120 161 214 259 304 372
#     4  10  22  42  66  91 121 164 214 253 308 383
#     4  10  23  42  63  94 129 162 209 258 310 378
#     4  12  26  40  61  94 127 166 210 254 312 376
#
# _framework density 21.781694999999999
#
# number of rings (size 3 to 8) (size 9 to 14) (size 15 to 20)
#    0.000    1.500    0.000    3.750    0.000   19.000 
#    0.000    0.000    0.000    0.000    0.000    0.000 
#    0.000    0.000    0.000    0.000    0.000    0.000 
#
# Total GULP energy -396683.729815 kJ/mol
# GULP energy per Si atom -12396.366557 kJ/mol
# Density = 2.173212 g / cm^3
# Si number density = 21.781695 Si / 1000 Ang^3
#
#
#
# Elastic Constant Matrix: (Units=GPa)
#
#
# Indices 1 2 3 4 5 6 
#
# 1 93.9049 42.6864 37.7138 0.0000 0.0000 0.0000
# 2 42.6864 110.9973 17.7120 0.0000 0.0000 0.0000
# 3 37.7138 17.7120 127.0018 0.0000 0.0000 0.0000
# 4 0.0000 0.0000 0.0000 24.3947 0.0000 0.0000
# 5 0.0000 0.0000 0.0000 0.0000 23.2910 0.0000
# 6 0.0000 0.0000 0.0000 0.0000 0.0000 38.4921
#
#
#
# Elastic Compliance Matrix: (Units=1/GPa)
#
#
# Indices 1 2 3 4 5 6 
#
# 1 0.014327 -0.004941 -0.003565 0.000000 0.000000 0.000000
# 2 -0.004941 0.010918 -0.000055 0.000000 0.000000 0.000000
# 3 -0.003565 -0.000055 0.008940 0.000000 0.000000 0.000000
# 4 0.000000 0.000000 0.000000 0.040992 0.000000 0.000000
# 5 0.000000 0.000000 0.000000 0.000000 0.042935 0.000000
# 6 0.000000 0.000000 0.000000 0.000000 0.000000 0.025979
#
#
# Mechanical properties :
#
#
# Convention : Reuss Voigt Hill
#
# Bulk Modulus (GPa) = 58.60923 58.68093 58.64508
# Shear Modulus (GPa) = 29.95750 32.82169 31.38959
#
# Velocity S-wave (km/s) = 3.71260 3.88602 3.80030
# Velocity P-wave (km/s) = 6.73378 6.86541 6.79992
#
# Compressibility (1/GPa) = 0.01706216
#
# Stress axis : x y z
#
# Youngs Moduli (GPa) = 69.79857 91.59046 111.85169
#
# Poissons Ratio (x) = 0.45253 0.39880
# Poissons Ratio (y) = 0.34486 0.00621
# Poissons Ratio (z) = 0.24886 0.00508
#
# Static dielectric constant tensor:
#      x y z
#    x 3.765680 0.000000 0.000000 
#    y 0.000000 3.927210 0.000000 
#    z 0.000000 0.000000 3.875970 
# 
# 
# High freq. dielectric constant tensor:
#      x y z
#    x 1.853740 0.000000 0.000000 
#    y 0.000000 1.861260 0.000000 
#    z 0.000000 0.000000 1.866880 
# 
# From -- ./inp_files/2479.got.cif
#   From: 2010.03.12/outbox.cif.g09.slc.cpg/sg57_2_cif.got.tgz:2479.got - 2010.04.16 15:48:40.
