data_PCOD8234332
_publ_section_title
;
Structure prediction by ZEFSAII (Michael W. Deem and Ramdas Pophale) SiO2 
 PCOD8234332
Probable space group: P B C M
;
_chemical_formula_sum "Si O2"
_cell_formula_units_Z 48
_cell_length_a 9.336820
_cell_length_b 14.685006
_cell_length_c 17.144180
_cell_angle_alpha 90.000000
_cell_angle_beta 90.000000
_cell_angle_gamma 90.000000
_cell_volume 2350.660082
_symmetry_space_group_name_H-M "P B C M"
_symmetry_group_IT_number 57
_symmetry_cell_setting 'orthorhombic'
loop_
_space_group_symop_operation_xyz
x,y,z
-x,-y,1/2+z
x,1/2-y,-z
-x,1/2+y,1/2-z
-x,-y,-z
x,y,1/2-z
-x,1/2+y,z
x,1/2-y,1/2+z
loop_
_atom_site_type_symbol
_atom_site_label
_atom_site_fract_x
_atom_site_fract_y
_atom_site_fract_z
Si Si1 0.717512 0.159584 0.033864
Si Si2 0.050833 0.428509 0.339887
Si Si3 0.601887 0.481204 0.427825
Si Si4 0.824530 0.914499 0.839250
Si Si5 0.345972 0.982962 0.659348
Si Si6 0.978620 0.740836 0.417875
O O1 0.642744 0.110717 0.108245
O O2 0.875886 0.186716 0.061798
O O3 0.637398 0.250000 0.000000
O O4 0.714086 0.095325 0.956297
O O5 0.055450 0.401685 0.250000
O O6 0.208902 0.458551 0.368570
O O7 0.991882 0.341094 0.385175
O O8 0.946915 0.512215 0.356130
O O9 0.500000 0.500000 0.500000
O O10 0.692516 0.567194 0.397074
O O11 0.489718 0.457023 0.357499
O O12 0.771959 0.918844 0.750000
O O13 0.885388 0.814396 0.855725
O O14 0.333294 0.956336 0.750000
O O15 0.893603 0.750000 0.500000
#
# Coordination Sequence:
#
# PCOD8234332 Si02
#       6
#     8   8   8   8   8   8
#     4  10  21  40  63  95 126 166 212 266 325 379
#     4  10  22  40  65  93 123 164 210 267 324 378
#     4  10  23  41  63  87 127 168 208 254 310 387
#     4  11  22  40  65  91 125 165 211 263 316 378
#     4  10  21  42  65  88 128 175 213 262 325 381
#     4  11  23  35  63  96 125 161 210 265 321 381
#
# _framework density 20.419796000000002
#
# number of rings (size 3 to 8) (size 9 to 14) (size 15 to 20)
#    0.000    1.667    1.667    3.000    4.667    2.000 
#    6.000    1.667    0.000    0.000    0.000    0.000 
#    0.000    0.000    0.000    0.000    0.000    0.000 
#
# Total GULP energy -594638.060833 kJ/mol
# GULP energy per Si atom -12388.292934 kJ/mol
# Density = 2.037332 g / cm^3
# Si number density = 20.419796 Si / 1000 Ang^3
#
#
#
# Elastic Constant Matrix: (Units=GPa)
#
#
# Indices 1 2 3 4 5 6 
#
# 1 82.9778 23.9104 39.1776 0.0000 0.0000 0.0000
# 2 23.9104 97.4079 55.5282 0.0000 0.0000 0.0000
# 3 39.1776 55.5282 108.0395 0.0000 0.0000 0.0000
# 4 0.0000 0.0000 0.0000 43.4910 0.0000 0.0000
# 5 0.0000 0.0000 0.0000 0.0000 40.3882 0.0000
# 6 0.0000 0.0000 0.0000 0.0000 0.0000 18.8229
#
#
#
# Elastic Compliance Matrix: (Units=1/GPa)
#
#
# Indices 1 2 3 4 5 6 
#
# 1 0.014585 -0.000799 -0.004878 0.000000 0.000000 0.000000
# 2 -0.000799 0.014564 -0.007196 0.000000 0.000000 0.000000
# 3 -0.004878 -0.007196 0.014723 0.000000 0.000000 0.000000
# 4 0.000000 0.000000 0.000000 0.022993 0.000000 0.000000
# 5 0.000000 0.000000 0.000000 0.000000 0.024760 0.000000
# 6 0.000000 0.000000 0.000000 0.000000 0.000000 0.053127
#
#
# Mechanical properties :
#
#
# Convention : Reuss Voigt Hill
#
# Bulk Modulus (GPa) = 55.16861 58.40638 56.78750
# Shear Modulus (GPa) = 28.32222 31.86101 30.09162
#
# Velocity S-wave (km/s) = 3.72828 3.95435 3.84298
# Velocity P-wave (km/s) = 6.75347 7.03662 6.89650
#
# Compressibility (1/GPa) = 0.01812625
#
# Stress axis : x y z
#
# Youngs Moduli (GPa) = 68.56424 68.66134 67.92101
#
# Poissons Ratio (x) = 0.05489 0.33132
# Poissons Ratio (y) = 0.05481 0.48873
# Poissons Ratio (z) = 0.33445 0.49406
#
# Static dielectric constant tensor:
#      x y z
#    x 3.875560 0.000000 0.000000 
#    y 0.000000 3.908160 0.000000 
#    z 0.000000 0.000000 4.029420 
# 
# 
# High freq. dielectric constant tensor:
#      x y z
#    x 1.793090 0.000000 0.000000 
#    y 0.000000 1.783660 0.000000 
#    z 0.000000 0.000000 1.812100 
# 
# From -- ./inp_files/20922.got.cif
#   From: 2010.03.12/outbox.cif.g09.slc.cpg/sg57_11_cif.got.tgz:20922.got - 2010.04.16 15:48:40.
