data_PCOD8234896
_publ_section_title
;
Structure prediction by ZEFSAII (Michael W. Deem and Ramdas Pophale) SiO2 
 PCOD8234896
Probable space group: P B C M
;
_chemical_formula_sum "Si O2"
_cell_formula_units_Z 48
_cell_length_a 9.712468
_cell_length_b 30.505752
_cell_length_c 8.888461
_cell_angle_alpha 90.000000
_cell_angle_beta 90.000000
_cell_angle_gamma 90.000000
_cell_volume 2633.527801
_symmetry_space_group_name_H-M "P B C M"
_symmetry_group_IT_number 57
_symmetry_cell_setting 'orthorhombic'
loop_
_space_group_symop_operation_xyz
x,y,z
-x,-y,1/2+z
x,1/2-y,-z
-x,1/2+y,1/2-z
-x,-y,-z
x,y,1/2-z
-x,1/2+y,z
x,1/2-y,1/2+z
loop_
_atom_site_type_symbol
_atom_site_label
_atom_site_fract_x
_atom_site_fract_y
_atom_site_fract_z
Si Si1 0.993289 0.135406 0.926860
Si Si2 0.793857 0.202854 0.427550
Si Si3 0.225903 0.564770 0.920717
Si Si4 0.356402 0.487332 0.072609
Si Si5 0.576073 0.355552 0.423617
Si Si6 0.709770 0.891188 0.428168
O O1 0.984015 0.146594 0.750000
O O2 0.149005 0.130422 0.987093
O O3 0.915388 0.089735 0.959961
O O4 0.923443 0.174539 0.017698
O O5 0.806758 0.250000 0.500000
O O6 0.797858 0.207126 0.250000
O O7 0.649505 0.181006 0.475766
O O8 0.224626 0.547648 0.750000
O O9 0.354051 0.597278 0.946024
O O10 0.240921 0.523128 0.029442
O O11 0.376001 0.485834 0.250000
O O12 0.308016 0.440313 0.008066
O O13 0.500000 0.500000 0.000000
O O14 0.588069 0.340825 0.250000
O O15 0.417780 0.360278 0.476974
O O16 0.716048 0.894583 0.250000
#
# Coordination Sequence:
#
# PCOD8234896 Si02
#       6
#     8   8   8   8   8   8
#     4   9  19  37  58  78 107 145 181 220 271 323
#     4  11  22  38  60  85 108 134 173 215 264 324
#     4   9  17  31  50  75 106 143 183 222 265 311
#     4  11  20  31  49  75 106 145 190 230 267 311
#     4   9  17  34  57  79 107 140 177 218 264 314
#     4   9  18  34  55  78 107 146 184 220 269 320
#
# _framework density 18.226502
#
# number of rings (size 3 to 8) (size 9 to 14) (size 15 to 20)
#    0.000    2.333    1.667    3.000    0.000    3.333 
#    0.000    3.333    0.000    0.000    0.000    0.000 
#    0.000    0.000    0.000    0.000    0.000    0.000 
#
# Total GULP energy -595199.861412 kJ/mol
# GULP energy per Si atom -12399.997113 kJ/mol
# Density = 1.818502 g / cm^3
# Si number density = 18.226502 Si / 1000 Ang^3
#
#
#
# Elastic Constant Matrix: (Units=GPa)
#
#
# Indices 1 2 3 4 5 6 
#
# 1 159.7482 61.5310 42.8459 0.0000 0.0000 0.0000
# 2 61.5310 115.9779 56.0252 0.0000 0.0000 0.0000
# 3 42.8459 56.0252 85.9548 0.0000 0.0000 0.0000
# 4 0.0000 0.0000 0.0000 31.5607 0.0000 0.0000
# 5 0.0000 0.0000 0.0000 0.0000 21.9625 0.0000
# 6 0.0000 0.0000 0.0000 0.0000 0.0000 12.7113
#
#
#
# Elastic Compliance Matrix: (Units=1/GPa)
#
#
# Indices 1 2 3 4 5 6 
#
# 1 0.008053 -0.003406 -0.001794 0.000000 0.000000 0.000000
# 2 -0.003406 0.014025 -0.007444 0.000000 0.000000 0.000000
# 3 -0.001794 -0.007444 0.017380 0.000000 0.000000 0.000000
# 4 0.000000 0.000000 0.000000 0.031685 0.000000 0.000000
# 5 0.000000 0.000000 0.000000 0.000000 0.045532 0.000000
# 6 0.000000 0.000000 0.000000 0.000000 0.000000 0.078670
#
#
# Mechanical properties :
#
#
# Convention : Reuss Voigt Hill
#
# Bulk Modulus (GPa) = 70.56874 75.83168 73.20021
# Shear Modulus (GPa) = 22.18703 26.66550 24.42627
#
# Velocity S-wave (km/s) = 3.49276 3.82908 3.66478
# Velocity P-wave (km/s) = 7.42075 7.82589 7.62601
#
# Compressibility (1/GPa) = 0.01417058
#
# Stress axis : x y z
#
# Youngs Moduli (GPa) = 124.17954 71.30100 57.53610
#
# Poissons Ratio (x) = 0.24282 0.10324
# Poissons Ratio (y) = 0.42290 0.42829
# Poissons Ratio (z) = 0.22282 0.53076
#
# Static dielectric constant tensor:
#      x y z
#    x 3.698560 0.000000 0.000000 
#    y 0.000000 3.318240 0.000000 
#    z 0.000000 0.000000 3.228800 
# 
# 
# High freq. dielectric constant tensor:
#      x y z
#    x 1.709600 0.000000 0.000000 
#    y 0.000000 1.696140 0.000000 
#    z 0.000000 0.000000 1.687110 
# 
# From -- ./inp_files/2112.got.cif
#   From: 2010.03.12/outbox.cif.g09.slc.cpg/sg57_2_cif.got.tgz:2112.got - 2010.04.16 15:48:40.
