data_PCOD8234390
_publ_section_title
;
Structure prediction by ZEFSAII (Michael W. Deem and Ramdas Pophale) SiO2 
 PCOD8234390
Probable space group: P B C M
;
_chemical_formula_sum "Si O2"
_cell_formula_units_Z 48
_cell_length_a 9.683628
_cell_length_b 29.228681
_cell_length_c 8.696926
_cell_angle_alpha 90.000000
_cell_angle_beta 90.000000
_cell_angle_gamma 90.000000
_cell_volume 2461.575098
_symmetry_space_group_name_H-M "P B C M"
_symmetry_group_IT_number 57
_symmetry_cell_setting 'orthorhombic'
loop_
_space_group_symop_operation_xyz
x,y,z
-x,-y,1/2+z
x,1/2-y,-z
-x,1/2+y,1/2-z
-x,-y,-z
x,y,1/2-z
-x,1/2+y,z
x,1/2-y,1/2+z
loop_
_atom_site_type_symbol
_atom_site_label
_atom_site_fract_x
_atom_site_fract_y
_atom_site_fract_z
Si Si1 0.228713 0.202487 0.431047
Si Si2 0.722952 0.120462 0.931554
Si Si3 0.025984 0.376708 0.568689
Si Si4 0.892269 0.533130 0.923962
Si Si5 0.541742 0.298650 0.932227
Si Si6 0.376140 0.526767 0.075732
O O1 0.177222 0.250000 0.500000
O O2 0.225939 0.206308 0.250000
O O3 0.120278 0.164992 0.489156
O O4 0.384465 0.190764 0.485948
O O5 0.712817 0.124231 0.750000
O O6 0.638945 0.161803 0.005161
O O7 0.658920 0.072356 0.982624
O O8 0.881004 0.124095 0.982454
O O9 0.997966 0.375711 0.750000
O O10 0.113546 0.421265 0.524850
O O11 0.938216 0.544680 0.750000
O O12 0.746210 0.509214 0.927432
O O13 0.000000 0.500000 0.000000
O O14 0.555023 0.296582 0.750000
O O15 0.590539 0.250000 0.000000
O O16 0.412265 0.541148 0.250000
O O17 0.500000 0.500000 0.000000
#
# Coordination Sequence:
#
# PCOD8234390 Si02
#       6
#     8   8   8   8   8   8
#     4   9  21  40  64  92 121 156 198 247 303 361
#     4  12  25  41  62  91 124 164 208 254 307 366
#     4  11  23  40  62  91 124 162 205 254 307 365
#     4  11  23  40  63  90 122 163 205 249 304 363
#     4  10  21  41  65  92 123 160 202 253 309 368
#     4  11  25  43  63  91 125 162 206 255 306 366
#
# _framework density 19.499711999999999
#
# number of rings (size 3 to 8) (size 9 to 14) (size 15 to 20)
#    0.000    1.333    1.667    3.500    2.333    4.667 
#    0.000    1.667    0.000    0.000    0.000    0.000 
#    0.000    0.000    0.000    0.000    0.000    0.000 
#
# Total GULP energy -595353.139019 kJ/mol
# GULP energy per Si atom -12403.190396 kJ/mol
# Density = 1.945533 g / cm^3
# Si number density = 19.499712 Si / 1000 Ang^3
#
#
#
# Elastic Constant Matrix: (Units=GPa)
#
#
# Indices 1 2 3 4 5 6 
#
# 1 90.1429 62.4365 39.4689 0.0000 0.0000 0.0000
# 2 62.4365 157.6728 41.5115 0.0000 0.0000 0.0000
# 3 39.4689 41.5115 86.0473 0.0000 0.0000 0.0000
# 4 0.0000 0.0000 0.0000 38.9512 0.0000 0.0000
# 5 0.0000 0.0000 0.0000 0.0000 29.7206 0.0000
# 6 0.0000 0.0000 0.0000 0.0000 0.0000 42.7487
#
#
#
# Elastic Compliance Matrix: (Units=1/GPa)
#
#
# Indices 1 2 3 4 5 6 
#
# 1 0.017136 -0.005402 -0.005254 0.000000 0.000000 0.000000
# 2 -0.005402 0.008968 -0.001848 0.000000 0.000000 0.000000
# 3 -0.005254 -0.001848 0.014923 0.000000 0.000000 0.000000
# 4 0.000000 0.000000 0.000000 0.025673 0.000000 0.000000
# 5 0.000000 0.000000 0.000000 0.000000 0.033647 0.000000
# 6 0.000000 0.000000 0.000000 0.000000 0.000000 0.023393
#
#
# Mechanical properties :
#
#
# Convention : Reuss Voigt Hill
#
# Bulk Modulus (GPa) = 62.43029 68.96630 65.69829
# Shear Modulus (GPa) = 32.44904 34.98050 33.71477
#
# Velocity S-wave (km/s) = 4.08374 4.24004 4.16262
# Velocity P-wave (km/s) = 7.37030 7.70813 7.54111
#
# Compressibility (1/GPa) = 0.01601787
#
# Stress axis : x y z
#
# Youngs Moduli (GPa) = 58.35770 111.50542 67.01025
#
# Poissons Ratio (x) = 0.60239 0.35205
# Poissons Ratio (y) = 0.31527 0.12387
# Poissons Ratio (z) = 0.30659 0.20612
#
# Static dielectric constant tensor:
#      x y z
#    x 3.554290 0.000000 0.000000 
#    y 0.000000 3.667000 0.000000 
#    z 0.000000 0.000000 3.833120 
# 
# 
# High freq. dielectric constant tensor:
#      x y z
#    x 1.766370 0.000000 0.000000 
#    y 0.000000 1.773070 0.000000 
#    z 0.000000 0.000000 1.773620 
# 
# From -- ./inp_files/2011.got.cif
#   From: 2010.03.12/outbox.cif.g09.slc.cpg/sg57_2_cif.got.tgz:2011.got - 2010.04.16 15:48:40.
