data_PCOD8234425
_publ_section_title
;
Structure prediction by ZEFSAII (Michael W. Deem and Ramdas Pophale) SiO2 
 PCOD8234425
Probable space group: P B C M
;
_chemical_formula_sum "Si O2"
_cell_formula_units_Z 40
_cell_length_a 15.858192
_cell_length_b 9.584789
_cell_length_c 12.936589
_cell_angle_alpha 90.000000
_cell_angle_beta 90.000000
_cell_angle_gamma 90.000000
_cell_volume 1966.328206
_symmetry_space_group_name_H-M "P B C M"
_symmetry_group_IT_number 57
_symmetry_cell_setting 'orthorhombic'
loop_
_space_group_symop_operation_xyz
x,y,z
-x,-y,1/2+z
x,1/2-y,-z
-x,1/2+y,1/2-z
-x,-y,-z
x,y,1/2-z
-x,1/2+y,z
x,1/2-y,1/2+z
loop_
_atom_site_type_symbol
_atom_site_label
_atom_site_fract_x
_atom_site_fract_y
_atom_site_fract_z
Si Si1 0.104585 0.797017 0.250000
Si Si2 0.729529 0.468193 0.250000
Si Si3 0.429138 0.132944 0.922264
Si Si4 0.145016 0.475420 0.250000
Si Si5 0.025096 0.373967 0.426119
Si Si6 0.696186 0.713528 0.750000
Si Si7 0.387097 0.609566 0.562764
O O1 0.176056 0.912965 0.250000
O O2 0.144958 0.643014 0.250000
O O3 0.051057 0.820077 0.145790
O O4 0.739791 0.635678 0.250000
O O5 0.684124 0.410931 0.148214
O O6 0.365614 0.204471 0.845523
O O7 0.521836 0.090258 0.878633
O O8 0.458808 0.250000 0.000000
O O9 0.379506 0.007193 0.974734
O O10 0.239130 0.414790 0.250000
O O11 0.101447 0.420145 0.353592
O O12 0.056775 0.250000 0.500000
O O13 0.000000 0.500000 0.500000
O O14 0.369355 0.750000 0.500000
#
# Coordination Sequence:
#
# PCOD8234425 Si02
#       7
#     4   4   8   4   8   4   8
#     4  11  27  44  65 103 133 159 217 262 309 396
#     4  12  26  42  61  96 136 169 208 269 328 371
#     4  10  21  43  63  89 125 170 227 264 312 375
#     4  11  27  44  65 103 131 161 217 260 313 394
#     4  11  24  47  74  93 126 173 209 258 318 379
#     4  12  26  40  65  94 136 171 208 269 320 377
#     4  10  23  41  66  90 124 174 221 270 315 376
#
# _framework density 20.342483999999999
#
# number of rings (size 3 to 8) (size 9 to 14) (size 15 to 20)
#    0.000    1.200    4.000    0.600    5.600    3.200 
#    0.000    0.000    0.000    0.000    0.000    0.000 
#    0.000    0.000    0.000    0.000    0.000    0.000 
#
# Total GULP energy -495894.934723 kJ/mol
# GULP energy per Si atom -12397.373368 kJ/mol
# Density = 2.029618 g / cm^3
# Si number density = 20.342484 Si / 1000 Ang^3
#
#
#
# Elastic Constant Matrix: (Units=GPa)
#
#
# Indices 1 2 3 4 5 6 
#
# 1 78.4800 8.7838 22.9494 0.0000 0.0000 0.0000
# 2 8.7838 129.1002 31.7664 0.0000 0.0000 0.0000
# 3 22.9494 31.7664 87.0035 0.0000 0.0000 0.0000
# 4 0.0000 0.0000 0.0000 41.1540 0.0000 0.0000
# 5 0.0000 0.0000 0.0000 0.0000 9.0856 0.0000
# 6 0.0000 0.0000 0.0000 0.0000 0.0000 37.8149
#
#
#
# Elastic Compliance Matrix: (Units=1/GPa)
#
#
# Indices 1 2 3 4 5 6 
#
# 1 0.013807 -0.000048 -0.003625 0.000000 0.000000 0.000000
# 2 -0.000048 0.008511 -0.003095 0.000000 0.000000 0.000000
# 3 -0.003625 -0.003095 0.013580 0.000000 0.000000 0.000000
# 4 0.000000 0.000000 0.000000 0.024299 0.000000 0.000000
# 5 0.000000 0.000000 0.000000 0.000000 0.110064 0.000000
# 6 0.000000 0.000000 0.000000 0.000000 0.000000 0.026445
#
#
# Mechanical properties :
#
#
# Convention : Reuss Voigt Hill
#
# Bulk Modulus (GPa) = 44.71518 46.84253 45.77885
# Shear Modulus (GPa) = 22.96796 33.01651 27.99224
#
# Velocity S-wave (km/s) = 3.36380 4.03306 3.71354
# Velocity P-wave (km/s) = 6.09227 6.69062 6.39844
#
# Compressibility (1/GPa) = 0.02236377
#
# Stress axis : x y z
#
# Youngs Moduli (GPa) = 72.42509 117.49947 73.63835
#
# Poissons Ratio (x) = 0.00559 0.26692
# Poissons Ratio (y) = 0.00344 0.22790
# Poissons Ratio (z) = 0.26252 0.36364
#
# Static dielectric constant tensor:
#      x y z
#    x 3.593310 0.000000 0.000000 
#    y 0.000000 3.736220 0.000000 
#    z 0.000000 0.000000 -4.799530 
# 
# 
# High freq. dielectric constant tensor:
#      x y z
#    x 1.790570 0.000000 0.000000 
#    y 0.000000 1.816130 0.000000 
#    z 0.000000 0.000000 1.800860 
# 
# From -- ./inp_files/18304.got.cif
#   From: 2010.03.12/outbox.cif.g09.slc.cpg/sg57_10_cif.got.tgz:18304.got - 2010.04.16 15:48:40.
