data_PCOD8234346
_publ_section_title
;
Structure prediction by ZEFSAII (Michael W. Deem and Ramdas Pophale) SiO2 
 PCOD8234346
Probable space group: P B C M
;
_chemical_formula_sum "Si O2"
_cell_formula_units_Z 56
_cell_length_a 5.068070
_cell_length_b 30.771247
_cell_length_c 15.050798
_cell_angle_alpha 90.000000
_cell_angle_beta 90.000000
_cell_angle_gamma 90.000000
_cell_volume 2347.184497
_symmetry_space_group_name_H-M "P B C M"
_symmetry_group_IT_number 57
_symmetry_cell_setting 'orthorhombic'
loop_
_space_group_symop_operation_xyz
x,y,z
-x,-y,1/2+z
x,1/2-y,-z
-x,1/2+y,1/2-z
-x,-y,-z
x,y,1/2-z
-x,1/2+y,z
x,1/2-y,1/2+z
loop_
_atom_site_type_symbol
_atom_site_label
_atom_site_fract_x
_atom_site_fract_y
_atom_site_fract_z
Si Si1 0.183038 0.361111 0.538017
Si Si2 0.255499 0.545417 0.595315
Si Si3 0.753962 0.000629 0.153569
Si Si4 0.930819 0.364269 0.351353
Si Si5 0.322688 0.776589 0.352715
Si Si6 0.700944 0.087518 0.082805
Si Si7 0.171237 0.275532 0.644249
O O1 0.152268 0.362737 0.429888
O O2 0.413692 0.393985 0.563888
O O3 0.255727 0.314803 0.580146
O O4 0.915012 0.374152 0.591015
O O5 0.549996 0.526334 0.593931
O O6 0.189432 0.556285 0.494617
O O7 0.054971 0.508393 0.626610
O O8 0.224016 0.590093 0.651366
O O9 0.705360 0.980675 0.250000
O O10 0.698833 0.052681 0.162309
O O11 0.045370 0.355978 0.250000
O O12 0.724226 0.326594 0.381114
O O13 0.265743 0.772926 0.250000
O O14 0.105779 0.743174 0.392408
O O15 0.617476 0.762508 0.376727
O O16 0.175529 0.288342 0.750000
#
# Coordination Sequence:
#
# PCOD8234346 Si02
#       7
#     8   8   8   8   8   8   8
#     4  11  24  41  65  93 124 169 209 251 314 369
#     4  11  23  41  63  88 123 164 202 251 311 371
#     4  12  24  40  64  93 121 158 207 255 311 371
#     4  10  22  42  64  92 127 162 209 260 308 368
#     4   9  20  38  63  91 123 162 202 255 312 361
#     4  11  24  42  62  89 126 162 205 256 309 368
#     4  10  21  40  64  93 126 162 207 253 306 371
#
# _framework density 23.858370000000001
#
# number of rings (size 3 to 8) (size 9 to 14) (size 15 to 20)
#    0.000    1.429    0.000    5.571    0.000    5.143 
#    0.000   10.714    0.000    0.000    0.000    0.000 
#    0.000    0.000    0.000    0.000    0.000    0.000 
#
# Total GULP energy -694025.641369 kJ/mol
# GULP energy per Si atom -12393.315024 kJ/mol
# Density = 2.380407 g / cm^3
# Si number density = 23.858370 Si / 1000 Ang^3
#
#
#
# Elastic Constant Matrix: (Units=GPa)
#
#
# Indices 1 2 3 4 5 6 
#
# 1 96.4789 21.3853 14.9984 0.0000 0.0000 0.0000
# 2 21.3853 84.4414 11.9832 0.0000 0.0000 0.0000
# 3 14.9984 11.9832 55.2381 0.0000 0.0000 0.0000
# 4 0.0000 0.0000 0.0000 33.3242 0.0000 0.0000
# 5 0.0000 0.0000 0.0000 0.0000 15.3786 0.0000
# 6 0.0000 0.0000 0.0000 0.0000 0.0000 43.6377
#
#
#
# Elastic Compliance Matrix: (Units=1/GPa)
#
#
# Indices 1 2 3 4 5 6 
#
# 1 0.011314 -0.002506 -0.002528 0.000000 0.000000 0.000000
# 2 -0.002506 0.012774 -0.002091 0.000000 0.000000 0.000000
# 3 -0.002528 -0.002091 0.019243 0.000000 0.000000 0.000000
# 4 0.000000 0.000000 0.000000 0.030008 0.000000 0.000000
# 5 0.000000 0.000000 0.000000 0.000000 0.065025 0.000000
# 6 0.000000 0.000000 0.000000 0.000000 0.000000 0.022916
#
#
# Mechanical properties :
#
#
# Convention : Reuss Voigt Hill
#
# Bulk Modulus (GPa) = 34.38719 36.98802 35.68761
# Shear Modulus (GPa) = 26.99426 30.98753 28.99090
#
# Velocity S-wave (km/s) = 3.36733 3.60781 3.48965
# Velocity P-wave (km/s) = 5.43718 5.73515 5.58815
#
# Compressibility (1/GPa) = 0.02908059
#
# Stress axis : x y z
#
# Youngs Moduli (GPa) = 88.38958 78.28414 51.96579
#
# Poissons Ratio (x) = 0.19622 0.13138
# Poissons Ratio (y) = 0.22154 0.10864
# Poissons Ratio (z) = 0.22346 0.16366
#
# Static dielectric constant tensor:
#      x y z
#    x 4.098930 0.000000 0.000000 
#    y 0.000000 4.555270 0.000000 
#    z 0.000000 0.000000 4.377750 
# 
# 
# High freq. dielectric constant tensor:
#      x y z
#    x 1.941390 0.000000 0.000000 
#    y 0.000000 1.957510 0.000000 
#    z 0.000000 0.000000 1.935500 
# 
# From -- ./inp_files/15280.got.cif
#   From: 2010.03.12/outbox.cif.g09.slc.cpg/sg57_8_cif.got.tgz:15280.got - 2010.04.16 15:48:40.
