data_PCOD8234634
_publ_section_title
;
Structure prediction by ZEFSAII (Michael W. Deem and Ramdas Pophale) SiO2 
 PCOD8234634
Probable space group: P B C M
;
_chemical_formula_sum "Si O2"
_cell_formula_units_Z 60
_cell_length_a 5.236107
_cell_length_b 23.030782
_cell_length_c 22.771689
_cell_angle_alpha 90.000000
_cell_angle_beta 90.000000
_cell_angle_gamma 90.000000
_cell_volume 2746.075296
_symmetry_space_group_name_H-M "P B C M"
_symmetry_group_IT_number 57
_symmetry_cell_setting 'orthorhombic'
loop_
_space_group_symop_operation_xyz
x,y,z
-x,-y,1/2+z
x,1/2-y,-z
-x,1/2+y,1/2-z
-x,-y,-z
x,y,1/2-z
-x,1/2+y,z
x,1/2-y,1/2+z
loop_
_atom_site_type_symbol
_atom_site_label
_atom_site_fract_x
_atom_site_fract_y
_atom_site_fract_z
Si Si1 0.815457 0.311243 0.902345
Si Si2 0.235288 0.901508 0.087483
Si Si3 0.808697 0.970974 0.601595
Si Si4 0.189468 0.371800 0.684851
Si Si5 0.143667 0.250000 0.000000
Si Si6 0.485423 0.242955 0.184399
Si Si7 0.672889 0.076302 0.046674
Si Si8 0.271137 0.171853 0.898483
O O1 0.700606 0.256011 0.866876
O O2 0.615566 0.358559 0.928146
O O3 0.974575 0.346748 0.855959
O O4 0.973277 0.288585 0.957266
O O5 0.498785 0.873189 0.108979
O O6 0.000784 0.859142 0.100826
O O7 0.194564 0.962012 0.121969
O O8 0.242862 0.918593 0.019948
O O9 0.720658 0.933158 0.658038
O O10 0.590529 0.959765 0.551944
O O11 0.091076 0.955018 0.579213
O O12 0.079816 0.382797 0.750000
O O13 0.414002 0.324650 0.688183
O O14 0.316335 0.208140 0.959168
O O15 0.569979 0.263857 0.250000
O O16 0.265727 0.285200 0.158528
#
# Coordination Sequence:
#
# PCOD8234634 Si02
#       8
#     8   8   8   8   4   8   8   8
#     4  11  22  40  65  99 139 174 221 283 354 412
#     4  12  25  43  65  95 140 178 220 268 335 420
#     4  11  23  43  64  95 131 174 225 272 336 401
#     4  10  22  41  66  96 128 172 230 288 340 394
#     4  12  24  42  64 102 144 184 226 282 354 432
#     4  11  24  43  67  95 134 179 233 289 342 407
#     4  11  22  38  64  98 131 170 215 269 340 407
#     4  12  27  42  66  99 135 182 223 273 343 410
#
# _framework density 21.849366
#
# number of rings (size 3 to 8) (size 9 to 14) (size 15 to 20)
#    0.000    0.800    4.000    3.600    3.733    0.533 
#    0.000    1.333    0.000    0.000    0.000    0.000 
#    0.000    0.000    0.000    0.000    0.000    0.000 
#
# Total GULP energy -743758.172888 kJ/mol
# GULP energy per Si atom -12395.969548 kJ/mol
# Density = 2.179964 g / cm^3
# Si number density = 21.849366 Si / 1000 Ang^3
#
#
#
# Elastic Constant Matrix: (Units=GPa)
#
#
# Indices 1 2 3 4 5 6 
#
# 1 84.0145 26.2787 10.3067 0.0000 0.0000 0.0000
# 2 26.2787 120.5494 47.9497 0.0000 0.0000 0.0000
# 3 10.3067 47.9497 114.9827 0.0000 0.0000 0.0000
# 4 0.0000 0.0000 0.0000 24.3147 0.0000 0.0000
# 5 0.0000 0.0000 0.0000 0.0000 35.5435 0.0000
# 6 0.0000 0.0000 0.0000 0.0000 0.0000 31.8102
#
#
#
# Elastic Compliance Matrix: (Units=1/GPa)
#
#
# Indices 1 2 3 4 5 6 
#
# 1 0.012774 -0.002792 0.000019 0.000000 0.000000 0.000000
# 2 -0.002792 0.010555 -0.004151 0.000000 0.000000 0.000000
# 3 0.000019 -0.004151 0.010426 0.000000 0.000000 0.000000
# 4 0.000000 0.000000 0.000000 0.041127 0.000000 0.000000
# 5 0.000000 0.000000 0.000000 0.000000 0.028135 0.000000
# 6 0.000000 0.000000 0.000000 0.000000 0.000000 0.031436
#
#
# Mechanical properties :
#
#
# Convention : Reuss Voigt Hill
#
# Bulk Modulus (GPa) = 50.23389 54.29075 52.26232
# Shear Modulus (GPa) = 32.27093 34.00110 33.13601
#
# Velocity S-wave (km/s) = 3.84731 3.94910 3.89854
# Velocity P-wave (km/s) = 6.54039 6.75985 6.65102
#
# Compressibility (1/GPa) = 0.01990688
#
# Stress axis : x y z
#
# Youngs Moduli (GPa) = 78.28572 94.73889 95.90994
#
# Poissons Ratio (x) = 0.26454 -0.00186
# Poissons Ratio (y) = 0.21860 0.39817
# Poissons Ratio (z) = -0.00152 0.39330
#
# Static dielectric constant tensor:
#      x y z
#    x 3.783250 0.000000 0.000000 
#    y 0.000000 4.488700 0.000000 
#    z 0.000000 0.000000 4.146840 
# 
# 
# High freq. dielectric constant tensor:
#      x y z
#    x 1.853680 0.000000 0.000000 
#    y 0.000000 1.866610 0.000000 
#    z 0.000000 0.000000 1.847700 
# 
# From -- ./inp_files/23814.got.cif
#   From: 2010.03.12/outbox.cif.g09.slc.cpg/sg57_12_cif.got.tgz:23814.got - 2010.04.16 15:48:40.
