data_PCOD8234706
_publ_section_title
;
Structure prediction by ZEFSAII (Michael W. Deem and Ramdas Pophale) SiO2 
 PCOD8234706
Probable space group: P B C M
;
_chemical_formula_sum "Si O2"
_cell_formula_units_Z 36
_cell_length_a 11.081871
_cell_length_b 17.867991
_cell_length_c 9.013392
_cell_angle_alpha 90.000000
_cell_angle_beta 90.000000
_cell_angle_gamma 90.000000
_cell_volume 1784.748702
_symmetry_space_group_name_H-M "P B C M"
_symmetry_group_IT_number 57
_symmetry_cell_setting 'orthorhombic'
loop_
_space_group_symop_operation_xyz
x,y,z
-x,-y,1/2+z
x,1/2-y,-z
-x,1/2+y,1/2-z
-x,-y,-z
x,y,1/2-z
-x,1/2+y,z
x,1/2-y,1/2+z
loop_
_atom_site_type_symbol
_atom_site_label
_atom_site_fract_x
_atom_site_fract_y
_atom_site_fract_z
Si Si1 0.735377 0.250000 0.000000
Si Si2 0.285654 0.416336 0.994294
Si Si3 0.738082 0.020510 0.250000
Si Si4 0.662508 0.803090 0.250000
Si Si5 0.125187 0.830031 0.750000
Si Si6 0.592981 0.168505 0.750000
Si Si7 0.154306 0.164989 0.250000
Si Si8 0.547272 0.511600 0.250000
O O1 0.822093 0.296715 0.897864
O O2 0.661110 0.190564 0.901245
O O3 0.178771 0.385101 0.893493
O O4 0.393904 0.451609 0.896550
O O5 0.226969 0.477917 0.099783
O O6 0.331806 0.350150 0.098868
O O7 0.834219 0.085372 0.250000
O O8 0.593366 0.035556 0.250000
O O9 0.523970 0.776687 0.250000
O O10 0.758316 0.736807 0.250000
O O11 0.983796 0.812393 0.750000
O O12 0.562871 0.079045 0.750000
#
# Coordination Sequence:
#
# PCOD8234706 Si02
#       8
#     4   8   4   4   4   4   4   4
#     4  10  26  42  62  98 126 174 212 262 334 392
#     4  10  23  39  64  98 126 168 215 266 324 379
#     4  11  22  39  66  96 132 166 213 258 335 388
#     4  11  24  37  66  98 124 170 207 274 323 380
#     4  11  26  45  66  88 130 179 218 267 310 386
#     4  11  23  40  67  96 136 159 211 266 336 393
#     4  11  26  43  64  90 130 175 228 265 312 370
#     4  11  21  38  67  96 134 167 201 270 334 395
#
# _framework density 20.170907
#
# number of rings (size 3 to 8) (size 9 to 14) (size 15 to 20)
#    0.000    1.333    2.222    2.667    9.333    2.667 
#    0.000    0.000    0.000    0.000    0.000    0.000 
#    0.000    0.000    0.000    0.000    0.000    0.000 
#
# Total GULP energy -446144.651557 kJ/mol
# GULP energy per Si atom -12392.906988 kJ/mol
# Density = 2.012500 g / cm^3
# Si number density = 20.170907 Si / 1000 Ang^3
#
#
#
# Elastic Constant Matrix: (Units=GPa)
#
#
# Indices 1 2 3 4 5 6 
#
# 1 148.9245 59.1956 57.0210 0.0000 0.0000 0.0000
# 2 59.1956 107.4592 52.4972 0.0000 0.0000 0.0000
# 3 57.0210 52.4972 159.0798 0.0000 0.0000 0.0000
# 4 0.0000 0.0000 0.0000 -54.6765 0.0000 0.0000
# 5 0.0000 0.0000 0.0000 0.0000 17.0174 0.0000
# 6 0.0000 0.0000 0.0000 0.0000 0.0000 23.9571
#
#
#
# Elastic Compliance Matrix: (Units=1/GPa)
#
#
# Indices 1 2 3 4 5 6 
#
# 1 0.009058 -0.004058 -0.001908 0.000000 0.000000 0.000000
# 2 -0.004058 0.012912 -0.002807 0.000000 0.000000 0.000000
# 3 -0.001908 -0.002807 0.007896 0.000000 0.000000 0.000000
# 4 0.000000 0.000000 0.000000 -0.018289 0.000000 0.000000
# 5 0.000000 0.000000 0.000000 0.000000 0.058763 0.000000
# 6 0.000000 0.000000 0.000000 0.000000 0.000000 0.041741
#
#
# Mechanical properties :
#
#
# Convention : Reuss Voigt Hill
#
# Bulk Modulus (GPa) = 81.15403 83.65460 82.40431
# Shear Modulus (GPa) = 37.38771 13.70958 25.54865
#
# Velocity S-wave (km/s) = 4.30995 2.60988 3.56281
# Velocity P-wave (km/s) = 8.06772 7.11652 7.60700
#
# Compressibility (1/GPa) = 0.01232225
#
# Stress axis : x y z
#
# Youngs Moduli (GPa) = 110.39711 77.44539 126.64374
#
# Poissons Ratio (x) = 0.31426 0.24160
# Poissons Ratio (y) = 0.44798 0.35544
# Poissons Ratio (z) = 0.21061 0.21736
#
# Static dielectric constant tensor:
#      x y z
#    x 3.470650 0.000000 0.000000 
#    y 0.000000 3.853830 0.000000 
#    z 0.000000 0.000000 4.626910 
# 
# 
# High freq. dielectric constant tensor:
#      x y z
#    x 1.771730 0.000000 0.000000 
#    y 0.000000 1.792210 0.000000 
#    z 0.000000 0.000000 1.821530 
# 
# From -- ./inp_files/1405.got.cif
#   From: 2010.03.12/outbox.cif.g09.slc.cpg/sg57_1_cif.got.tgz:1405.got - 2010.04.16 15:48:40.
