data_PCOD8234044
_publ_section_title
;
Structure prediction by ZEFSAII (Michael W. Deem and Ramdas Pophale) SiO2 
 PCOD8234044
Probable space group: P B C M
;
_chemical_formula_sum "Si O2"
_cell_formula_units_Z 48
_cell_length_a 31.028877
_cell_length_b 8.967006
_cell_length_c 8.651755
_cell_angle_alpha 90.000000
_cell_angle_beta 90.000000
_cell_angle_gamma 90.000000
_cell_volume 2407.230796
_symmetry_space_group_name_H-M "P B C M"
_symmetry_group_IT_number 57
_symmetry_cell_setting 'orthorhombic'
loop_
_space_group_symop_operation_xyz
x,y,z
-x,-y,1/2+z
x,1/2-y,-z
-x,1/2+y,1/2-z
-x,-y,-z
x,y,1/2-z
-x,1/2+y,z
x,1/2-y,1/2+z
loop_
_atom_site_type_symbol
_atom_site_label
_atom_site_fract_x
_atom_site_fract_y
_atom_site_fract_z
Si Si1 0.040514 0.585908 0.066641
Si Si2 0.625571 0.086246 0.567487
Si Si3 0.206765 0.587429 0.931385
Si Si4 0.879124 0.585843 0.432995
Si Si5 0.459522 0.085815 0.433207
Si Si6 0.709755 0.585861 0.066530
O O1 0.037496 0.591062 0.250000
O O2 0.040389 0.750000 0.000000
O O3 0.083900 0.506351 0.015591
O O4 0.000000 0.500000 0.000000
O O5 0.625558 0.250000 0.500000
O O6 0.626865 0.099119 0.750000
O O7 0.583157 0.999905 0.511070
O O8 0.666956 0.996444 0.505380
O O9 0.210404 0.605258 0.750000
O O10 0.165938 0.488820 0.978884
O O11 0.249373 0.506666 0.996946
O O12 0.201674 0.750000 0.000000
O O13 0.879281 0.750000 0.500000
O O14 0.886998 0.588292 0.250000
O O15 0.457979 0.250000 0.500000
O O16 0.463076 0.093189 0.250000
O O17 0.500000 0.000000 0.500000
O O18 0.710354 0.596533 0.250000
O O19 0.711424 0.750000 0.000000
#
# Coordination Sequence:
#
# PCOD8234044 Si02
#       6
#     8   8   8   8   8   8
#     4  12  25  43  65  91 122 158 198 244 294 348
#     4  10  22  38  58  84 115 149 191 237 287 343
#     4  10  22  38  59  86 118 153 194 239 288 343
#     4  11  23  40  61  89 121 157 198 242 291 347
#     4  11  23  39  59  85 115 151 192 239 290 347
#     4  10  21  38  58  85 116 150 191 237 286 342
#
# _framework density 19.939924000000001
#
# number of rings (size 3 to 8) (size 9 to 14) (size 15 to 20)
#    0.000    1.333    0.000    5.500    0.000    6.667 
#    0.000    0.000    0.000    0.000    0.000    0.000 
#    0.000    0.000    0.000    0.000    0.000    0.000 
#
# Total GULP energy -595445.088256 kJ/mol
# GULP energy per Si atom -12405.106005 kJ/mol
# Density = 1.989454 g / cm^3
# Si number density = 19.939924 Si / 1000 Ang^3
#
#
#
# Elastic Constant Matrix: (Units=GPa)
#
#
# Indices 1 2 3 4 5 6 
#
# 1 181.3666 88.6996 65.7095 0.0000 0.0000 0.0000
# 2 88.6996 196.5348 61.6465 0.0000 0.0000 0.0000
# 3 65.7095 61.6465 81.0208 0.0000 0.0000 0.0000
# 4 0.0000 0.0000 0.0000 43.1622 0.0000 0.0000
# 5 0.0000 0.0000 0.0000 0.0000 28.6148 0.0000
# 6 0.0000 0.0000 0.0000 0.0000 0.0000 55.0122
#
#
#
# Elastic Compliance Matrix: (Units=1/GPa)
#
#
# Indices 1 2 3 4 5 6 
#
# 1 0.008470 -0.002191 -0.005202 0.000000 0.000000 0.000000
# 2 -0.002191 0.007250 -0.003739 0.000000 0.000000 0.000000
# 3 -0.005202 -0.003739 0.019407 0.000000 0.000000 0.000000
# 4 0.000000 0.000000 0.000000 0.023168 0.000000 0.000000
# 5 0.000000 0.000000 0.000000 0.000000 0.034947 0.000000
# 6 0.000000 0.000000 0.000000 0.000000 0.000000 0.018178
#
#
# Mechanical properties :
#
#
# Convention : Reuss Voigt Hill
#
# Bulk Modulus (GPa) = 77.75108 99.00370 88.37739
# Shear Modulus (GPa) = 36.23912 41.54893 38.89403
#
# Velocity S-wave (km/s) = 4.26774 4.56971 4.42131
# Velocity P-wave (km/s) = 7.96003 8.80919 8.39535
#
# Compressibility (1/GPa) = 0.01286156
#
# Stress axis : x y z
#
# Youngs Moduli (GPa) = 118.06394 137.93394 51.52790
#
# Poissons Ratio (x) = 0.30219 0.26807
# Poissons Ratio (y) = 0.25866 0.19268
# Poissons Ratio (z) = 0.61421 0.51579
#
# Static dielectric constant tensor:
#      x y z
#    x 4.135140 0.000000 0.000000 
#    y 0.000000 3.750960 0.000000 
#    z 0.000000 0.000000 3.668410 
# 
# 
# High freq. dielectric constant tensor:
#      x y z
#    x 1.802940 0.000000 0.000000 
#    y 0.000000 1.799980 0.000000 
#    z 0.000000 0.000000 1.778680 
# 
# From -- ./inp_files/9977.got.cif
#   From: 2010.03.12/outbox.cif.g09.slc.cpg/sg57_5_cif.got.tgz:9977.got - 2010.04.16 15:48:40.
