data_PCOD8234261
_publ_section_title
;
Structure prediction by ZEFSAII (Michael W. Deem and Ramdas Pophale) SiO2 
 PCOD8234261
Probable space group: P B C M
;
_chemical_formula_sum "Si O2"
_cell_formula_units_Z 48
_cell_length_a 31.291434
_cell_length_b 5.130280
_cell_length_c 13.991429
_cell_angle_alpha 90.000000
_cell_angle_beta 90.000000
_cell_angle_gamma 90.000000
_cell_volume 2246.097517
_symmetry_space_group_name_H-M "P B C M"
_symmetry_group_IT_number 57
_symmetry_cell_setting 'orthorhombic'
loop_
_space_group_symop_operation_xyz
x,y,z
-x,-y,1/2+z
x,1/2-y,-z
-x,1/2+y,1/2-z
-x,-y,-z
x,y,1/2-z
-x,1/2+y,z
x,1/2-y,1/2+z
loop_
_atom_site_type_symbol
_atom_site_label
_atom_site_fract_x
_atom_site_fract_y
_atom_site_fract_z
Si Si1 0.973579 0.362662 0.862227
Si Si2 0.409042 0.367507 0.250000
Si Si3 0.481617 0.017721 0.610637
Si Si4 0.100621 0.750000 0.500000
Si Si5 0.353259 0.635595 0.750000
Si Si6 0.771851 0.827588 0.357887
Si Si7 0.844682 0.750000 0.000000
Si Si8 0.281269 0.665971 0.601864
O O1 0.965449 0.356479 0.750000
O O2 0.995914 0.628261 0.895754
O O3 0.927644 0.338705 0.910389
O O4 0.434004 0.406197 0.352953
O O5 0.370905 0.572261 0.250000
O O6 0.390981 0.075682 0.250000
O O7 0.510515 0.240337 0.659403
O O8 0.500000 0.000000 0.500000
O O9 0.127959 0.499642 0.533158
O O10 0.323602 0.595398 0.658962
O O11 0.780778 0.738084 0.250000
O O12 0.816613 0.856904 0.411887
O O13 0.746281 0.595862 0.410020
O O14 0.746682 0.100876 0.353934
O O15 0.298595 0.750000 0.500000
#
# Coordination Sequence:
#
# PCOD8234261 Si02
#       8
#     8   4   8   4   4   8   4   8
#     4  10  21  39  64  89 120 171 221 258 323 414
#     4  12  24  43  66 100 138 162 218 280 318 387
#     4  10  21  41  68  91 123 176 219 251 308 384
#     4  12  24  39  60  92 134 164 204 290 342 379
#     4  12  26  43  68 106 134 170 210 278 354 369
#     4  12  23  43  71  93 125 178 231 267 320 418
#     4  12  26  39  62  96 130 166 220 280 338 379
#     4  12  23  45  71  94 131 173 220 272 331 406
#
# _framework density 21.370398000000002
#
# number of rings (size 3 to 8) (size 9 to 14) (size 15 to 20)
#    0.000    0.667    3.333    5.000    0.000    1.333 
#    9.000    0.000    0.000    0.000    0.000    0.000 
#    0.000    0.000    0.000    0.000    0.000    0.000 
#
# Total GULP energy -594759.860337 kJ/mol
# GULP energy per Si atom -12390.830424 kJ/mol
# Density = 2.132176 g / cm^3
# Si number density = 21.370398 Si / 1000 Ang^3
#
#
#
# Elastic Constant Matrix: (Units=GPa)
#
#
# Indices 1 2 3 4 5 6 
#
# 1 106.7072 36.2181 39.1939 0.0000 0.0000 0.0000
# 2 36.2181 146.4413 9.4813 0.0000 0.0000 0.0000
# 3 39.1939 9.4813 98.2685 0.0000 0.0000 0.0000
# 4 0.0000 0.0000 0.0000 20.1575 0.0000 0.0000
# 5 0.0000 0.0000 0.0000 0.0000 28.1328 0.0000
# 6 0.0000 0.0000 0.0000 0.0000 0.0000 46.1693
#
#
#
# Elastic Compliance Matrix: (Units=1/GPa)
#
#
# Indices 1 2 3 4 5 6 
#
# 1 0.011927 -0.002658 -0.004500 0.000000 0.000000 0.000000
# 2 -0.002658 0.007464 0.000340 0.000000 0.000000 0.000000
# 3 -0.004500 0.000340 0.011938 0.000000 0.000000 0.000000
# 4 0.000000 0.000000 0.000000 0.049609 0.000000 0.000000
# 5 0.000000 0.000000 0.000000 0.000000 0.035546 0.000000
# 6 0.000000 0.000000 0.000000 0.000000 0.000000 0.021659
#
#
# Mechanical properties :
#
#
# Convention : Reuss Voigt Hill
#
# Bulk Modulus (GPa) = 56.52316 57.91149 57.21732
# Shear Modulus (GPa) = 31.71014 36.66017 34.18515
#
# Velocity S-wave (km/s) = 3.85624 4.14631 4.00390
# Velocity P-wave (km/s) = 6.80692 7.07674 6.94314
#
# Compressibility (1/GPa) = 0.01769186
#
# Stress axis : x y z
#
# Youngs Moduli (GPa) = 83.84511 133.97412 83.76356
#
# Poissons Ratio (x) = 0.35615 0.37697
# Poissons Ratio (y) = 0.22289 -0.02849
# Poissons Ratio (z) = 0.37734 -0.04557
#
# Static dielectric constant tensor:
#      x y z
#    x 3.761580 0.000000 0.000000 
#    y 0.000000 4.668080 0.000000 
#    z 0.000000 0.000000 4.741040 
# 
# 
# High freq. dielectric constant tensor:
#      x y z
#    x 1.826540 0.000000 0.000000 
#    y 0.000000 1.869970 0.000000 
#    z 0.000000 0.000000 1.846810 
# 
# From -- ./inp_files/19614.got.cif
#   From: 2010.03.12/outbox.cif.g09.slc.cpg/sg57_10_cif.got.tgz:19614.got - 2010.04.16 15:48:40.
