data_PCOD8234758
_publ_section_title
;
Structure prediction by ZEFSAII (Michael W. Deem and Ramdas Pophale) SiO2 
 PCOD8234758
Probable space group: P B C M
;
_chemical_formula_sum "Si O2"
_cell_formula_units_Z 40
_cell_length_a 12.188631
_cell_length_b 18.548057
_cell_length_c 8.668646
_cell_angle_alpha 90.000000
_cell_angle_beta 90.000000
_cell_angle_gamma 90.000000
_cell_volume 1959.767807
_symmetry_space_group_name_H-M "P B C M"
_symmetry_group_IT_number 57
_symmetry_cell_setting 'orthorhombic'
loop_
_space_group_symop_operation_xyz
x,y,z
-x,-y,1/2+z
x,1/2-y,-z
-x,1/2+y,1/2-z
-x,-y,-z
x,y,1/2-z
-x,1/2+y,z
x,1/2-y,1/2+z
loop_
_atom_site_type_symbol
_atom_site_label
_atom_site_fract_x
_atom_site_fract_y
_atom_site_fract_z
Si Si1 0.708309 0.940868 0.427075
Si Si2 0.106803 0.827735 0.431712
Si Si3 0.314723 0.895881 0.927929
Si Si4 0.526339 0.826144 0.067737
Si Si5 0.941352 0.569340 0.430701
O O1 0.743739 0.928275 0.250000
O O2 0.616916 0.884394 0.480951
O O3 0.812846 0.930339 0.534916
O O4 0.656394 0.020060 0.448597
O O5 0.132369 0.750000 0.500000
O O6 0.097664 0.822490 0.250000
O O7 0.204020 0.881536 0.478232
O O8 0.993003 0.858260 0.498184
O O9 0.295655 0.875417 0.750000
O O10 0.410981 0.847065 0.993906
O O11 0.511951 0.821452 0.250000
O O12 0.565266 0.750000 0.000000
O O13 0.962067 0.568840 0.250000
O O14 0.000000 0.500000 0.500000
#
# Coordination Sequence:
#
# PCOD8234758 Si02
#       5
#     8   8   8   8   8
#     4  10  23  42  66  93 126 167 215 265 317 380
#     4  12  25  42  65  95 130 169 213 265 322 382
#     4  11  22  40  66  94 126 165 212 266 321 380
#     4  11  24  42  63  91 128 169 212 262 318 380
#     4  12  24  41  66  95 129 169 212 261 316 379
#
# _framework density 20.410578999999998
#
# number of rings (size 3 to 8) (size 9 to 14) (size 15 to 20)
#    0.000    0.800    2.000    6.000    0.000    3.200 
#    0.000    2.000    0.000    0.000    0.000    0.000 
#    0.000    0.000    0.000    0.000    0.000    0.000 
#
# Total GULP energy -496340.953348 kJ/mol
# GULP energy per Si atom -12408.523834 kJ/mol
# Density = 2.036412 g / cm^3
# Si number density = 20.410579 Si / 1000 Ang^3
#
#
#
# Elastic Constant Matrix: (Units=GPa)
#
#
# Indices 1 2 3 4 5 6 
#
# 1 77.8009 24.7063 36.0107 0.0000 0.0000 0.0000
# 2 24.7063 111.3901 39.8813 0.0000 0.0000 0.0000
# 3 36.0107 39.8813 147.6094 0.0000 0.0000 0.0000
# 4 0.0000 0.0000 0.0000 32.6436 0.0000 0.0000
# 5 0.0000 0.0000 0.0000 0.0000 37.8988 0.0000
# 6 0.0000 0.0000 0.0000 0.0000 0.0000 38.5267
#
#
#
# Elastic Compliance Matrix: (Units=1/GPa)
#
#
# Indices 1 2 3 4 5 6 
#
# 1 0.014973 -0.002229 -0.003051 0.000000 0.000000 0.000000
# 2 -0.002229 0.010271 -0.002231 0.000000 0.000000 0.000000
# 3 -0.003051 -0.002231 0.008122 0.000000 0.000000 0.000000
# 4 0.000000 0.000000 0.000000 0.030634 0.000000 0.000000
# 5 0.000000 0.000000 0.000000 0.000000 0.026386 0.000000
# 6 0.000000 0.000000 0.000000 0.000000 0.000000 0.025956
#
#
# Mechanical properties :
#
#
# Convention : Reuss Voigt Hill
#
# Bulk Modulus (GPa) = 54.51327 59.77745 57.14536
# Shear Modulus (GPa) = 36.36959 37.56062 36.96511
#
# Velocity S-wave (km/s) = 4.22583 4.29447 4.26029
# Velocity P-wave (km/s) = 7.11172 7.34446 7.22902
#
# Compressibility (1/GPa) = 0.01834416
#
# Stress axis : x y z
#
# Youngs Moduli (GPa) = 66.78632 97.36480 123.12692
#
# Poissons Ratio (x) = 0.21701 0.37562
# Poissons Ratio (y) = 0.14885 0.27472
# Poissons Ratio (z) = 0.20374 0.21724
#
# Static dielectric constant tensor:
#      x y z
#    x 3.751060 0.000000 0.000000 
#    y 0.000000 3.853090 0.000000 
#    z 0.000000 0.000000 3.804740 
# 
# 
# High freq. dielectric constant tensor:
#      x y z
#    x 1.800520 0.000000 0.000000 
#    y 0.000000 1.809930 0.000000 
#    z 0.000000 0.000000 1.810500 
# 
# From -- ./inp_files/2637.got.cif
#   From: 2010.03.12/outbox.cif.g09.slc.cpg/sg57_2_cif.got.tgz:2637.got - 2010.04.16 15:48:40.
