data_PCOD8234578
_publ_section_title
;
Structure prediction by ZEFSAII (Michael W. Deem and Ramdas Pophale) SiO2 
 PCOD8234578
Probable space group: P B C M
;
_chemical_formula_sum "Si O2"
_cell_formula_units_Z 32
_cell_length_a 15.094984
_cell_length_b 9.313356
_cell_length_c 10.399206
_cell_angle_alpha 90.000000
_cell_angle_beta 90.000000
_cell_angle_gamma 90.000000
_cell_volume 1461.971958
_symmetry_space_group_name_H-M "P B C M"
_symmetry_group_IT_number 57
_symmetry_cell_setting 'orthorhombic'
loop_
_space_group_symop_operation_xyz
x,y,z
-x,-y,1/2+z
x,1/2-y,-z
-x,1/2+y,1/2-z
-x,-y,-z
x,y,1/2-z
-x,1/2+y,z
x,1/2-y,1/2+z
loop_
_atom_site_type_symbol
_atom_site_label
_atom_site_fract_x
_atom_site_fract_y
_atom_site_fract_z
Si Si1 0.358335 0.911123 0.972675
Si Si2 0.454818 0.138260 0.386651
Si Si3 0.933941 0.869137 0.250000
Si Si4 0.807658 0.913907 0.018649
Si Si5 0.108644 0.458149 0.750000
O O1 0.442078 0.908353 0.876751
O O2 0.326478 0.750000 0.000000
O O3 0.394596 0.995961 0.098323
O O4 0.273598 0.997227 0.919531
O O5 0.436465 0.250000 0.500000
O O6 0.429000 0.209066 0.250000
O O7 0.887447 0.925980 0.379801
O O8 0.936758 0.697381 0.250000
O O9 0.034301 0.920446 0.250000
O O10 0.833477 0.979225 0.879351
O O11 0.776778 0.750000 0.000000
#
# Coordination Sequence:
#
# PCOD8234578 Si02
#       5
#     8   8   4   8   4
#     4  10  23  39  60  93 127 166 211 263 309 366
#     4  10  23  44  67  92 128 173 216 263 320 379
#     4  10  22  40  64  91 120 157 202 251 314 379
#     4  10  22  41  61  90 124 163 206 251 311 380
#     4  10  22  40  64  89 122 157 200 255 312 377
#
# _framework density 21.888245000000001
#
# number of rings (size 3 to 8) (size 9 to 14) (size 15 to 20)
#    0.000    2.000    0.000    1.500    3.500   12.000 
#    4.500    0.000    0.000    0.000    0.000    0.000 
#    0.000    0.000    0.000    0.000    0.000    0.000 
#
# Total GULP energy -396614.488707 kJ/mol
# GULP energy per Si atom -12394.202772 kJ/mol
# Density = 2.183843 g / cm^3
# Si number density = 21.888245 Si / 1000 Ang^3
#
#
#
# Elastic Constant Matrix: (Units=GPa)
#
#
# Indices 1 2 3 4 5 6 
#
# 1 77.1660 47.0043 3.9949 0.0000 0.0000 0.0000
# 2 47.0043 106.6045 35.2629 0.0000 0.0000 0.0000
# 3 3.9949 35.2629 149.9233 0.0000 0.0000 0.0000
# 4 0.0000 0.0000 0.0000 21.6592 0.0000 0.0000
# 5 0.0000 0.0000 0.0000 0.0000 -173.3349 0.0000
# 6 0.0000 0.0000 0.0000 0.0000 0.0000 42.9384
#
#
#
# Elastic Compliance Matrix: (Units=1/GPa)
#
#
# Indices 1 2 3 4 5 6 
#
# 1 0.018026 -0.008446 0.001506 0.000000 0.000000 0.000000
# 2 -0.008446 0.014129 -0.003098 0.000000 0.000000 0.000000
# 3 0.001506 -0.003098 0.007359 0.000000 0.000000 0.000000
# 4 0.000000 0.000000 0.000000 0.046170 0.000000 0.000000
# 5 0.000000 0.000000 0.000000 0.000000 -0.005769 0.000000
# 6 0.000000 0.000000 0.000000 0.000000 0.000000 0.023289
#
#
# Mechanical properties :
#
#
# Convention : Reuss Voigt Hill
#
# Bulk Modulus (GPa) = 51.44675 56.24644 53.84659
# Shear Modulus (GPa) = 38.53274 -5.25201 16.64037
#
# Velocity S-wave (km/s) = 4.20030 -1.55070 2.76024
# Velocity P-wave (km/s) = 6.86139 4.74833 5.90023
#
# Compressibility (1/GPa) = 0.01943758
#
# Stress axis : x y z
#
# Youngs Moduli (GPa) = 55.47538 70.77396 135.89406
#
# Poissons Ratio (x) = 0.59778 -0.20470
# Poissons Ratio (y) = 0.46856 0.42104
# Poissons Ratio (z) = -0.08356 0.21928
#
# Static dielectric constant tensor:
#      x y z
#    x 3.788150 0.000000 0.000000 
#    y 0.000000 3.908060 0.000000 
#    z 0.000000 0.000000 3.873230 
# 
# 
# High freq. dielectric constant tensor:
#      x y z
#    x 1.856640 0.000000 0.000000 
#    y 0.000000 1.857620 0.000000 
#    z 0.000000 0.000000 1.853920 
# 
# From -- ./inp_files/13454.got.cif
#   From: 2010.03.12/outbox.cif.g09.slc.cpg/sg57_7_cif.got.tgz:13454.got - 2010.04.16 15:48:40.
