data_PCOD8234160
_publ_section_title
;
Structure prediction by ZEFSAII (Michael W. Deem and Ramdas Pophale) SiO2 
 PCOD8234160
Probable space group: P B C M
;
_chemical_formula_sum "Si O2"
_cell_formula_units_Z 32
_cell_length_a 6.569141
_cell_length_b 16.933376
_cell_length_c 12.896367
_cell_angle_alpha 90.000000
_cell_angle_beta 90.000000
_cell_angle_gamma 90.000000
_cell_volume 1434.562649
_symmetry_space_group_name_H-M "P B C M"
_symmetry_group_IT_number 57
_symmetry_cell_setting 'orthorhombic'
loop_
_space_group_symop_operation_xyz
x,y,z
-x,-y,1/2+z
x,1/2-y,-z
-x,1/2+y,1/2-z
-x,-y,-z
x,y,1/2-z
-x,1/2+y,z
x,1/2-y,1/2+z
loop_
_atom_site_type_symbol
_atom_site_label
_atom_site_fract_x
_atom_site_fract_y
_atom_site_fract_z
Si Si1 0.250053 0.202510 0.370530
Si Si2 0.696824 0.526658 0.869982
Si Si3 0.028493 0.355872 0.449775
Si Si4 0.405245 0.872338 0.510624
O O1 0.258060 0.181228 0.250000
O O2 0.157397 0.289045 0.388879
O O3 0.105702 0.139929 0.430258
O O4 0.476457 0.194233 0.421492
O O5 0.644734 0.525540 0.750000
O O6 0.924678 0.560596 0.893327
O O7 0.678804 0.438836 0.911948
O O8 0.546390 0.588676 0.924224
O O9 0.789014 0.335419 0.450399
#
# Coordination Sequence:
#
# PCOD8234160 Si02
#       4
#     8   8   8   8
#     4  10  22  39  60  89 123 160 204 251 304 366
#     4  10  21  38  63  92 121 159 206 253 308 368
#     4  10  22  39  60  90 124 159 205 256 304 363
#     4  10  22  41  61  89 127 161 201 256 308 361
#
# _framework density 22.306450999999999
#
# number of rings (size 3 to 8) (size 9 to 14) (size 15 to 20)
#    0.000    2.000    0.000    2.250    0.000   12.000 
#    0.000    0.000    0.000    0.000    0.000    0.000 
#    0.000    0.000    0.000    0.000    0.000    0.000 
#
# Total GULP energy -396612.697694 kJ/mol
# GULP energy per Si atom -12394.146803 kJ/mol
# Density = 2.225568 g / cm^3
# Si number density = 22.306451 Si / 1000 Ang^3
#
#
#
# Elastic Constant Matrix: (Units=GPa)
#
#
# Indices 1 2 3 4 5 6 
#
# 1 107.1310 23.8954 -9.8050 0.0000 0.0000 0.0000
# 2 23.8954 70.5974 17.5547 0.0000 0.0000 0.0000
# 3 -9.8050 17.5547 100.7456 0.0000 0.0000 0.0000
# 4 0.0000 0.0000 0.0000 23.5068 0.0000 0.0000
# 5 0.0000 0.0000 0.0000 0.0000 13.4468 0.0000
# 6 0.0000 0.0000 0.0000 0.0000 0.0000 30.6208
#
#
#
# Elastic Compliance Matrix: (Units=1/GPa)
#
#
# Indices 1 2 3 4 5 6 
#
# 1 0.010366 -0.003930 0.001694 0.000000 0.000000 0.000000
# 2 -0.003930 0.016296 -0.003222 0.000000 0.000000 0.000000
# 3 0.001694 -0.003222 0.010652 0.000000 0.000000 0.000000
# 4 0.000000 0.000000 0.000000 0.042541 0.000000 0.000000
# 5 0.000000 0.000000 0.000000 0.000000 0.074367 0.000000
# 6 0.000000 0.000000 0.000000 0.000000 0.000000 0.032658
#
#
# Mechanical properties :
#
#
# Convention : Reuss Voigt Hill
#
# Bulk Modulus (GPa) = 37.88165 37.97377 37.92771
# Shear Modulus (GPa) = 24.20189 29.97013 27.08601
#
# Velocity S-wave (km/s) = 3.29747 3.66944 3.48842
# Velocity P-wave (km/s) = 5.61400 5.91724 5.76761
#
# Compressibility (1/GPa) = 0.02639801
#
# Stress axis : x y z
#
# Youngs Moduli (GPa) = 96.47026 61.36432 93.87687
#
# Poissons Ratio (x) = 0.24114 -0.15899
# Poissons Ratio (y) = 0.37910 0.30247
# Poissons Ratio (z) = -0.16338 0.19772
#
# Static dielectric constant tensor:
#      x y z
#    x 4.234340 0.000000 0.000000 
#    y 0.000000 3.971950 0.000000 
#    z 0.000000 0.000000 3.933500 
# 
# 
# High freq. dielectric constant tensor:
#      x y z
#    x 1.880580 0.000000 0.000000 
#    y 0.000000 1.878280 0.000000 
#    z 0.000000 0.000000 1.866870 
# 
# From -- ./inp_files/10665.got.cif
#   From: 2010.03.12/outbox.cif.g09.slc.cpg/sg57_6_cif.got.tgz:10665.got - 2010.04.16 15:48:40.
