data_PCOD8234121
_publ_section_title
;
Structure prediction by ZEFSAII (Michael W. Deem and Ramdas Pophale) SiO2 
 PCOD8234121
Probable space group: P B C M
;
_chemical_formula_sum "Si O2"
_cell_formula_units_Z 40
_cell_length_a 23.779613
_cell_length_b 10.009614
_cell_length_c 8.197171
_cell_angle_alpha 90.000000
_cell_angle_beta 90.000000
_cell_angle_gamma 90.000000
_cell_volume 1951.129555
_symmetry_space_group_name_H-M "P B C M"
_symmetry_group_IT_number 57
_symmetry_cell_setting 'orthorhombic'
loop_
_space_group_symop_operation_xyz
x,y,z
-x,-y,1/2+z
x,1/2-y,-z
-x,1/2+y,1/2-z
-x,-y,-z
x,y,1/2-z
-x,1/2+y,z
x,1/2-y,1/2+z
loop_
_atom_site_type_symbol
_atom_site_label
_atom_site_fract_x
_atom_site_fract_y
_atom_site_fract_z
Si Si1 0.043465 0.108013 0.441042
Si Si2 0.379415 0.969763 0.933661
Si Si3 0.559197 0.528973 0.250000
Si Si4 0.830379 0.894344 0.942724
Si Si5 0.742575 0.107016 0.438512
Si Si6 0.451297 0.785160 0.750000
O O1 0.020406 0.250000 0.500000
O O2 0.046650 0.106744 0.250000
O O3 0.106231 0.081276 0.510198
O O4 0.000000 0.000000 0.500000
O O5 0.377079 0.041267 0.750000
O O6 0.317938 0.936650 0.008339
O O7 0.415635 0.833458 0.909307
O O8 0.406908 0.056687 0.080500
O O9 0.538436 0.373891 0.250000
O O10 0.509621 0.634962 0.250000
O O11 0.827123 0.905908 0.750000
O O12 0.808796 0.750000 0.000000
O O13 0.790771 0.003091 0.021369
O O14 0.762898 0.250000 0.500000
O O15 0.733228 0.119331 0.250000
#
# Coordination Sequence:
#
# PCOD8234121 Si02
#       6
#     8   8   4   8   8   4
#     4  10  21  38  61  88 120 159 201 244 294 351
#     4   9  23  37  60  87 113 151 196 237 296 356
#     4  12  20  40  60  82 116 154 183 244 293 346
#     4  10  22  40  61  87 121 160 197 241 300 356
#     4  11  22  38  61  89 117 151 201 251 293 352
#     4  10  22  38  58  84 116 146 193 234 291 354
#
# _framework density 20.500945999999999
#
# number of rings (size 3 to 8) (size 9 to 14) (size 15 to 20)
#    0.600    1.200    0.000    4.200    2.800    3.200 
#    0.000    2.000    0.000    0.000    0.000    0.000 
#    0.000    0.000    0.000    0.000    0.000    0.000 
#
# Total GULP energy -495649.195899 kJ/mol
# GULP energy per Si atom -12391.229897 kJ/mol
# Density = 2.045429 g / cm^3
# Si number density = 20.500946 Si / 1000 Ang^3
#
#
#
# Elastic Constant Matrix: (Units=GPa)
#
#
# Indices 1 2 3 4 5 6 
#
# 1 127.1218 77.0633 20.7284 0.0000 0.0000 0.0000
# 2 77.0633 90.5469 6.8012 0.0000 0.0000 0.0000
# 3 20.7284 6.8012 63.1798 0.0000 0.0000 0.0000
# 4 0.0000 0.0000 0.0000 27.7181 0.0000 0.0000
# 5 0.0000 0.0000 0.0000 0.0000 12.2742 0.0000
# 6 0.0000 0.0000 0.0000 0.0000 0.0000 11.4809
#
#
#
# Elastic Compliance Matrix: (Units=1/GPa)
#
#
# Indices 1 2 3 4 5 6 
#
# 1 0.017250 -0.014372 -0.004112 0.000000 0.000000 0.000000
# 2 -0.014372 0.023108 0.002228 0.000000 0.000000 0.000000
# 3 -0.004112 0.002228 0.016937 0.000000 0.000000 0.000000
# 4 0.000000 0.000000 0.000000 0.036078 0.000000 0.000000
# 5 0.000000 0.000000 0.000000 0.000000 0.081472 0.000000
# 6 0.000000 0.000000 0.000000 0.000000 0.000000 0.087101
#
#
# Mechanical properties :
#
#
# Convention : Reuss Voigt Hill
#
# Bulk Modulus (GPa) = 40.35160 54.44823 47.39991
# Shear Modulus (GPa) = 16.51696 22.04502 19.28099
#
# Velocity S-wave (km/s) = 2.84151 3.28276 3.07007
# Velocity P-wave (km/s) = 5.52187 6.40197 5.97814
#
# Compressibility (1/GPa) = 0.02478217
#
# Stress axis : x y z
#
# Youngs Moduli (GPa) = 57.97261 43.27419 59.04160
#
# Poissons Ratio (x) = 0.62194 0.24279
# Poissons Ratio (y) = 0.83318 -0.13152
# Poissons Ratio (z) = 0.23840 -0.09640
#
# Static dielectric constant tensor:
#      x y z
#    x 3.573890 0.000000 0.000000 
#    y 0.000000 3.319400 0.000000 
#    z 0.000000 0.000000 3.870970 
# 
# 
# High freq. dielectric constant tensor:
#      x y z
#    x 1.805550 0.000000 0.000000 
#    y 0.000000 1.777300 0.000000 
#    z 0.000000 0.000000 1.819600 
# 
# From -- ./inp_files/9009.got.cif
#   From: 2010.03.12/outbox.cif.g09.slc.cpg/sg57_5_cif.got.tgz:9009.got - 2010.04.16 15:48:40.
