data_PCOD8234544
_publ_section_title
;
Structure prediction by ZEFSAII (Michael W. Deem and Ramdas Pophale) SiO2 
 PCOD8234544
Probable space group: P B C M
;
_chemical_formula_sum "Si O2"
_cell_formula_units_Z 64
_cell_length_a 13.822105
_cell_length_b 9.188958
_cell_length_c 22.651090
_cell_angle_alpha 90.000000
_cell_angle_beta 90.000000
_cell_angle_gamma 90.000000
_cell_volume 2876.931755
_symmetry_space_group_name_H-M "P B C M"
_symmetry_group_IT_number 57
_symmetry_cell_setting 'orthorhombic'
loop_
_space_group_symop_operation_xyz
x,y,z
-x,-y,1/2+z
x,1/2-y,-z
-x,1/2+y,1/2-z
-x,-y,-z
x,y,1/2-z
-x,1/2+y,z
x,1/2-y,1/2+z
loop_
_atom_site_type_symbol
_atom_site_label
_atom_site_fract_x
_atom_site_fract_y
_atom_site_fract_z
Si Si1 0.067323 0.473020 0.649786
Si Si2 0.260557 0.310673 0.407031
Si Si3 0.577792 0.859216 0.317521
Si Si4 0.788758 0.305333 0.394269
Si Si5 0.947689 0.376309 0.955854
Si Si6 0.789658 0.961901 0.982181
Si Si7 0.109926 0.342417 0.186503
Si Si8 0.616255 0.193842 0.183180
O O1 0.163655 0.571472 0.647241
O O2 0.087241 0.328654 0.686342
O O3 0.036958 0.435531 0.582527
O O4 0.986909 0.566030 0.682519
O O5 0.354603 0.281737 0.366741
O O6 0.214045 0.160776 0.431118
O O7 0.280185 0.415973 0.463217
O O8 0.182446 0.389380 0.365078
O O9 0.608974 0.818199 0.250000
O O10 0.469905 0.805379 0.329871
O O11 0.578399 0.031397 0.327581
O O12 0.867444 0.184549 0.410653
O O13 0.752033 0.386012 0.454542
O O14 0.701813 0.226410 0.361780
O O15 0.983972 0.250000 0.000000
O O16 0.899678 0.512106 0.992192
O O17 0.158431 0.377240 0.250000
O O18 0.654238 0.212852 0.250000
#
# Coordination Sequence:
#
# PCOD8234544 Si02
#       8
#     8   8   8   8   8   8   8   8
#     4  12  24  43  62  96 134 184 230 284 335 406
#     4  11  22  42  67  96 132 171 226 284 336 409
#     4  10  23  45  75 105 134 175 224 279 345 416
#     4  11  23  42  66  98 139 181 225 284 344 397
#     4  10  22  40  64  93 134 185 233 281 334 403
#     4  10  22  39  67  95 133 175 226 276 337 407
#     4  12  26  42  62  93 133 179 230 283 344 405
#     4  10  24  44  72 104 136 177 225 282 342 415
#
# _framework density 22.245923999999999
#
# number of rings (size 3 to 8) (size 9 to 14) (size 15 to 20)
#    0.000    1.250    3.750    1.500    1.750    4.000 
#    0.000    0.625    8.250    0.000    0.000    0.000 
#    0.000    0.000    0.000    0.000    0.000    0.000 
#
# Total GULP energy -793581.488544 kJ/mol
# GULP energy per Si atom -12399.710758 kJ/mol
# Density = 2.219529 g / cm^3
# Si number density = 22.245924 Si / 1000 Ang^3
#
#
#
# Elastic Constant Matrix: (Units=GPa)
#
#
# Indices 1 2 3 4 5 6 
#
# 1 47.0933 3.3702 18.5131 0.0000 0.0000 0.0000
# 2 3.3702 71.5935 14.1748 0.0000 0.0000 0.0000
# 3 18.5131 14.1748 114.4549 0.0000 0.0000 0.0000
# 4 0.0000 0.0000 0.0000 22.9377 0.0000 0.0000
# 5 0.0000 0.0000 0.0000 0.0000 35.5537 0.0000
# 6 0.0000 0.0000 0.0000 0.0000 0.0000 35.8526
#
#
#
# Elastic Compliance Matrix: (Units=1/GPa)
#
#
# Indices 1 2 3 4 5 6 
#
# 1 0.022685 -0.000350 -0.003626 0.000000 0.000000 0.000000
# 2 -0.000350 0.014324 -0.001717 0.000000 0.000000 0.000000
# 3 -0.003626 -0.001717 0.009536 0.000000 0.000000 0.000000
# 4 0.000000 0.000000 0.000000 0.043596 0.000000 0.000000
# 5 0.000000 0.000000 0.000000 0.000000 0.028126 0.000000
# 6 0.000000 0.000000 0.000000 0.000000 0.000000 0.027892
#
#
# Mechanical properties :
#
#
# Convention : Reuss Voigt Hill
#
# Bulk Modulus (GPa) = 28.44241 33.91757 31.17999
# Shear Modulus (GPa) = 29.53922 32.00770 30.77346
#
# Velocity S-wave (km/s) = 3.64792 3.79728 3.72335
# Velocity P-wave (km/s) = 5.52777 5.87414 5.70359
#
# Compressibility (1/GPa) = 0.03515876
#
# Stress axis : x y z
#
# Youngs Moduli (GPa) = 44.08220 69.81165 104.86298
#
# Poissons Ratio (x) = 0.02443 0.38023
# Poissons Ratio (y) = 0.01543 0.18009
# Poissons Ratio (z) = 0.15984 0.11989
#
# Static dielectric constant tensor:
#      x y z
#    x 3.656070 0.000000 0.000000 
#    y 0.000000 4.161890 0.000000 
#    z 0.000000 0.000000 4.276680 
# 
# 
# High freq. dielectric constant tensor:
#      x y z
#    x 1.840780 0.000000 0.000000 
#    y 0.000000 1.890480 0.000000 
#    z 0.000000 0.000000 1.891930 
# 
# From -- ./inp_files/27456.got.cif
#   From: 2010.03.12/outbox.cif.g09.slc.cpg/sg57_14_cif.got.tgz:27456.got - 2010.04.16 15:48:40.
