data_PCOD8234992
_publ_section_title
;
Structure prediction by ZEFSAII (Michael W. Deem and Ramdas Pophale) SiO2 
 PCOD8234992
Probable space group: P B C M
;
_chemical_formula_sum "Si O2"
_cell_formula_units_Z 40
_cell_length_a 25.503577
_cell_length_b 9.088380
_cell_length_c 8.560830
_cell_angle_alpha 90.000000
_cell_angle_beta 90.000000
_cell_angle_gamma 90.000000
_cell_volume 1984.282247
_symmetry_space_group_name_H-M "P B C M"
_symmetry_group_IT_number 57
_symmetry_cell_setting 'orthorhombic'
loop_
_space_group_symop_operation_xyz
x,y,z
-x,-y,1/2+z
x,1/2-y,-z
-x,1/2+y,1/2-z
-x,-y,-z
x,y,1/2-z
-x,1/2+y,z
x,1/2-y,1/2+z
loop_
_atom_site_type_symbol
_atom_site_label
_atom_site_fract_x
_atom_site_fract_y
_atom_site_fract_z
Si Si1 0.342686 0.411016 0.433896
Si Si2 0.451716 0.088643 0.065283
Si Si3 0.951188 0.087470 0.433444
Si Si4 0.144242 0.088147 0.068887
Si Si5 0.249151 0.591704 0.568827
O O1 0.328845 0.250000 0.500000
O O2 0.349242 0.396387 0.250000
O O3 0.396364 0.476311 0.506079
O O4 0.297649 0.525789 0.474626
O O5 0.452796 0.087743 0.250000
O O6 0.457648 0.250000 0.000000
O O7 0.500000 0.000000 0.000000
O O8 0.950239 0.250000 0.500000
O O9 0.957102 0.097266 0.250000
O O10 0.897861 0.006136 0.475945
O O11 0.000000 0.000000 0.500000
O O12 0.128265 0.093921 0.250000
O O13 0.200321 0.014949 0.043316
O O14 0.146407 0.250000 0.000000
O O15 0.234543 0.750000 0.500000
O O16 0.264063 0.605645 0.750000
#
# Coordination Sequence:
#
# PCOD8234992 Si02
#       5
#     8   8   8   8   8
#     4  11  22  39  62  88 119 157 200 246 298 357
#     4  11  22  39  61  88 120 156 199 246 299 357
#     4  12  25  43  66  93 127 164 206 253 305 360
#     4  11  24  42  65  93 125 162 205 250 302 360
#     4  11  24  41  62  90 123 159 200 249 302 358
#
# _framework density 20.158422000000002
#
# number of rings (size 3 to 8) (size 9 to 14) (size 15 to 20)
#    0.000    0.800    0.000    9.600    0.000    7.200 
#    0.000    4.000    0.000    0.000    0.000    0.000 
#    0.000    0.000    0.000    0.000    0.000    0.000 
#
# Total GULP energy -496242.137042 kJ/mol
# GULP energy per Si atom -12406.053426 kJ/mol
# Density = 2.011254 g / cm^3
# Si number density = 20.158422 Si / 1000 Ang^3
#
#
#
# Elastic Constant Matrix: (Units=GPa)
#
#
# Indices 1 2 3 4 5 6 
#
# 1 122.3137 57.5483 65.2070 0.0000 0.0000 0.0000
# 2 57.5483 132.4263 61.2547 0.0000 0.0000 0.0000
# 3 65.2070 61.2547 197.8811 0.0000 0.0000 0.0000
# 4 0.0000 0.0000 0.0000 38.2216 0.0000 0.0000
# 5 0.0000 0.0000 0.0000 0.0000 35.6038 0.0000
# 6 0.0000 0.0000 0.0000 0.0000 0.0000 41.6964
#
#
#
# Elastic Compliance Matrix: (Units=1/GPa)
#
#
# Indices 1 2 3 4 5 6 
#
# 1 0.011297 -0.003720 -0.002571 0.000000 0.000000 0.000000
# 2 -0.003720 0.010038 -0.001882 0.000000 0.000000 0.000000
# 3 -0.002571 -0.001882 0.006483 0.000000 0.000000 0.000000
# 4 0.000000 0.000000 0.000000 0.026163 0.000000 0.000000
# 5 0.000000 0.000000 0.000000 0.000000 0.028087 0.000000
# 6 0.000000 0.000000 0.000000 0.000000 0.000000 0.023983
#
#
# Mechanical properties :
#
#
# Convention : Reuss Voigt Hill
#
# Bulk Modulus (GPa) = 87.16068 91.18236 89.17152
# Shear Modulus (GPa) = 39.61330 41.01177 40.31253
#
# Velocity S-wave (km/s) = 4.43775 4.51541 4.47675
# Velocity P-wave (km/s) = 8.34206 8.51565 8.42930
#
# Compressibility (1/GPa) = 0.01147306
#
# Stress axis : x y z
#
# Youngs Moduli (GPa) = 88.52278 99.61898 154.24488
#
# Poissons Ratio (x) = 0.37057 0.39656
# Poissons Ratio (y) = 0.32929 0.29022
# Poissons Ratio (z) = 0.22759 0.18744
#
# Static dielectric constant tensor:
#      x y z
#    x 3.949870 0.000000 0.000000 
#    y 0.000000 3.742850 0.000000 
#    z 0.000000 0.000000 4.023550 
# 
# 
# High freq. dielectric constant tensor:
#      x y z
#    x 1.806570 0.000000 0.000000 
#    y 0.000000 1.795150 0.000000 
#    z 0.000000 0.000000 1.812280 
# 
# From -- ./inp_files/8917.got.cif
#   From: 2010.03.12/outbox.cif.g09.slc.cpg/sg57_5_cif.got.tgz:8917.got - 2010.04.16 15:48:40.
