data_PCOD8234876
_publ_section_title
;
Structure prediction by ZEFSAII (Michael W. Deem and Ramdas Pophale) SiO2 
 PCOD8234876
Probable space group: P B C M
;
_chemical_formula_sum "Si O2"
_cell_formula_units_Z 32
_cell_length_a 4.776801
_cell_length_b 21.032866
_cell_length_c 12.028802
_cell_angle_alpha 90.000000
_cell_angle_beta 90.000000
_cell_angle_gamma 90.000000
_cell_volume 1208.531516
_symmetry_space_group_name_H-M "P B C M"
_symmetry_group_IT_number 57
_symmetry_cell_setting 'orthorhombic'
loop_
_space_group_symop_operation_xyz
x,y,z
-x,-y,1/2+z
x,1/2-y,-z
-x,1/2+y,1/2-z
-x,-y,-z
x,y,1/2-z
-x,1/2+y,z
x,1/2-y,1/2+z
loop_
_atom_site_type_symbol
_atom_site_label
_atom_site_fract_x
_atom_site_fract_y
_atom_site_fract_z
Si Si1 0.191589 0.646961 0.873365
Si Si2 0.661269 0.970805 0.750000
Si Si3 0.918871 0.287706 0.874641
Si Si4 0.578884 0.868327 0.567527
Si Si5 0.159946 0.056950 0.750000
O O1 0.322251 0.660403 0.750000
O O2 0.928535 0.598082 0.860146
O O3 0.093915 0.715565 0.924626
O O4 0.435802 0.616528 0.948539
O O5 0.593621 0.932599 0.638404
O O6 0.985950 0.990692 0.750000
O O7 0.485457 0.037365 0.750000
O O8 0.043493 0.284296 0.750000
O O9 0.113543 0.337038 0.945391
O O10 0.608398 0.316128 0.869255
#
# Coordination Sequence:
#
# PCOD8234876 Si02
#       5
#     8   4   8   8   4
#     4   9  25  48  67 104 145 187 226 285 352 424
#     4  12  24  42  72 102 138 184 246 280 334 402
#     4  11  22  44  71 104 137 178 224 292 357 417
#     4  12  24  43  75 106 138 178 233 291 351 408
#     4  10  26  46  66 100 140 194 236 276 340 408
#
# _framework density 26.478415999999999
#
# number of rings (size 3 to 8) (size 9 to 14) (size 15 to 20)
#    0.750    0.500    2.500    2.250    0.000   10.000 
#    0.000    0.000    2.750    0.000    0.000    0.000 
#    0.000    0.000    0.000    0.000    0.000    0.000 
#
# Total GULP energy -396886.464215 kJ/mol
# GULP energy per Si atom -12402.702007 kJ/mol
# Density = 2.641815 g / cm^3
# Si number density = 26.478416 Si / 1000 Ang^3
#
#
#
# Elastic Constant Matrix: (Units=GPa)
#
#
# Indices 1 2 3 4 5 6 
#
# 1 54.4691 -1.8675 -24.3286 0.0000 0.0000 0.0000
# 2 -1.8675 121.0969 16.3729 0.0000 0.0000 0.0000
# 3 -24.3286 16.3729 83.1884 0.0000 0.0000 0.0000
# 4 0.0000 0.0000 0.0000 46.4445 0.0000 0.0000
# 5 0.0000 0.0000 0.0000 0.0000 10.0438 0.0000
# 6 0.0000 0.0000 0.0000 0.0000 0.0000 47.2864
#
#
#
# Elastic Compliance Matrix: (Units=1/GPa)
#
#
# Indices 1 2 3 4 5 6 
#
# 1 0.021150 -0.000524 0.006288 0.000000 0.000000 0.000000
# 2 -0.000524 0.008497 -0.001826 0.000000 0.000000 0.000000
# 3 0.006288 -0.001826 0.014219 0.000000 0.000000 0.000000
# 4 0.000000 0.000000 0.000000 0.021531 0.000000 0.000000
# 5 0.000000 0.000000 0.000000 0.000000 0.099564 0.000000
# 6 0.000000 0.000000 0.000000 0.000000 0.000000 0.021148
#
#
# Mechanical properties :
#
#
# Convention : Reuss Voigt Hill
#
# Bulk Modulus (GPa) = 19.32616 26.56756 22.94686
# Shear Modulus (GPa) = 25.57823 38.66010 32.11916
#
# Velocity S-wave (km/s) = 3.11143 3.82522 3.48664
# Velocity P-wave (km/s) = 4.49696 5.43739 4.98938
#
# Compressibility (1/GPa) = 0.05174333
#
# Stress axis : x y z
#
# Youngs Moduli (GPa) = 47.28176 117.69429 70.32715
#
# Poissons Ratio (x) = 0.06168 -0.44225
# Poissons Ratio (y) = 0.02478 0.12838
# Poissons Ratio (z) = -0.29733 0.21486
#
# Static dielectric constant tensor:
#      x y z
#    x 4.351670 0.000000 0.000000 
#    y 0.000000 4.562340 0.000000 
#    z 0.000000 0.000000 4.947040 
# 
# 
# High freq. dielectric constant tensor:
#      x y z
#    x 2.056290 0.000000 0.000000 
#    y 0.000000 2.059860 0.000000 
#    z 0.000000 0.000000 2.099190 
# 
# From -- ./inp_files/14798.got.cif
#   From: 2010.03.12/outbox.cif.g09.slc.cpg/sg57_8_cif.got.tgz:14798.got - 2010.04.16 15:48:40.
