data_PCOD8234912
_publ_section_title
;
Structure prediction by ZEFSAII (Michael W. Deem and Ramdas Pophale) SiO2 
 PCOD8234912
Probable space group: P B C M
;
_chemical_formula_sum "Si O2"
_cell_formula_units_Z 64
_cell_length_a 23.252223
_cell_length_b 17.528251
_cell_length_c 9.183955
_cell_angle_alpha 90.000000
_cell_angle_beta 90.000000
_cell_angle_gamma 90.000000
_cell_volume 3743.111896
_symmetry_space_group_name_H-M "P B C M"
_symmetry_group_IT_number 57
_symmetry_cell_setting 'orthorhombic'
loop_
_space_group_symop_operation_xyz
x,y,z
-x,-y,1/2+z
x,1/2-y,-z
-x,1/2+y,1/2-z
-x,-y,-z
x,y,1/2-z
-x,1/2+y,z
x,1/2-y,1/2+z
loop_
_atom_site_type_symbol
_atom_site_label
_atom_site_fract_x
_atom_site_fract_y
_atom_site_fract_z
Si Si1 0.629661 0.048221 0.079485
Si Si2 0.940563 0.670984 0.581942
Si Si3 0.541592 0.170352 0.079188
Si Si4 0.677854 0.675667 0.915752
Si Si5 0.038212 0.561659 0.579417
Si Si6 0.740690 0.526497 0.922864
Si Si7 0.130187 0.020583 0.577005
Si Si8 0.438663 0.095861 0.917733
O O1 0.631699 0.030744 0.250000
O O2 0.603351 0.131028 0.045008
O O3 0.695660 0.039509 0.021902
O O4 0.587173 0.982891 0.017895
O O5 0.927954 0.750000 0.500000
O O6 0.929520 0.688441 0.750000
O O7 0.897619 0.602444 0.531838
O O8 0.006993 0.643708 0.555907
O O9 0.532313 0.182880 0.250000
O O10 0.540958 0.250000 0.000000
O O11 0.491671 0.116431 0.020080
O O12 0.694954 0.688848 0.750000
O O13 0.714740 0.605912 0.980303
O O14 0.609831 0.660952 0.931642
O O15 0.697033 0.750000 0.000000
O O16 0.042786 0.542924 0.750000
O O17 0.100198 0.552160 0.502652
O O18 0.000000 0.500000 0.500000
O O19 0.744353 0.526888 0.750000
O O20 0.804740 0.515798 0.983643
O O21 0.124889 0.009127 0.750000
O O22 0.459366 0.088762 0.750000
#
# Coordination Sequence:
#
# PCOD8234912 Si02
#       8
#     8   8   8   8   8   8   8   8
#     4   8  16  31  50  69  89 118 155 192 229 274
#     4   9  18  29  43  68  98 124 148 178 218 264
#     4  11  21  31  46  69  93 117 149 190 238 287
#     4   9  17  28  43  63  90 122 152 185 224 270
#     4   9  17  30  47  68  94 122 154 188 221 259
#     4   8  15  30  49  66  87 119 157 190 221 266
#     4   9  17  30  49  71  92 119 157 193 226 267
#     4   9  17  31  49  68  90 117 151 190 234 281
#
# _framework density 17.098072999999999
#
# number of rings (size 3 to 8) (size 9 to 14) (size 15 to 20)
#    0.000    3.000    0.000    3.750    0.000    4.500 
#    0.000    1.250    0.000    4.500    0.000    3.500 
#    0.000    0.000    0.000    0.000    0.000    0.000 
#
# Total GULP energy -792972.183562 kJ/mol
# GULP energy per Si atom -12390.190368 kJ/mol
# Density = 1.705916 g / cm^3
# Si number density = 17.098073 Si / 1000 Ang^3
#
#
#
# Elastic Constant Matrix: (Units=GPa)
#
#
# Indices 1 2 3 4 5 6 
#
# 1 129.4470 38.5538 33.0114 0.0000 0.0000 0.0000
# 2 38.5538 46.0124 19.7748 0.0000 0.0000 0.0000
# 3 33.0114 19.7748 50.3296 0.0000 0.0000 0.0000
# 4 0.0000 0.0000 0.0000 21.3505 0.0000 0.0000
# 5 0.0000 0.0000 0.0000 0.0000 18.6794 0.0000
# 6 0.0000 0.0000 0.0000 0.0000 0.0000 15.7801
#
#
#
# Elastic Compliance Matrix: (Units=1/GPa)
#
#
# Indices 1 2 3 4 5 6 
#
# 1 0.011028 -0.007377 -0.004335 0.000000 0.000000 0.000000
# 2 -0.007377 0.031084 -0.007374 0.000000 0.000000 0.000000
# 3 -0.004335 -0.007374 0.025609 0.000000 0.000000 0.000000
# 4 0.000000 0.000000 0.000000 0.046837 0.000000 0.000000
# 5 0.000000 0.000000 0.000000 0.000000 0.053535 0.000000
# 6 0.000000 0.000000 0.000000 0.000000 0.000000 0.063371
#
#
# Mechanical properties :
#
#
# Convention : Reuss Voigt Hill
#
# Bulk Modulus (GPa) = 33.84218 45.38545 39.61382
# Shear Modulus (GPa) = 17.88997 20.12527 19.00762
#
# Velocity S-wave (km/s) = 3.23819 3.43454 3.33781
# Velocity P-wave (km/s) = 5.81525 6.50614 6.17037
#
# Compressibility (1/GPa) = 0.02954892
#
# Stress axis : x y z
#
# Youngs Moduli (GPa) = 90.68003 32.17098 39.04804
#
# Poissons Ratio (x) = 0.23733 0.16926
# Poissons Ratio (y) = 0.66897 0.28795
# Poissons Ratio (z) = 0.39306 0.23724
#
# Static dielectric constant tensor:
#      x y z
#    x 3.359450 0.000000 0.000000 
#    y 0.000000 3.082170 0.000000 
#    z 0.000000 0.000000 3.043980 
# 
# 
# High freq. dielectric constant tensor:
#      x y z
#    x 1.657740 0.000000 0.000000 
#    y 0.000000 1.640870 0.000000 
#    z 0.000000 0.000000 1.637780 
# 
# From -- ./inp_files/9548.got.cif
#   From: 2010.03.12/outbox.cif.g09.slc.cpg/sg57_5_cif.got.tgz:9548.got - 2010.04.16 15:48:40.
