data_PCOD8234017
_publ_section_title
;
Structure prediction by ZEFSAII (Michael W. Deem and Ramdas Pophale) SiO2 
 PCOD8234017
Probable space group: P B C M
;
_chemical_formula_sum "Si O2"
_cell_formula_units_Z 36
_cell_length_a 11.064976
_cell_length_b 11.222267
_cell_length_c 14.995306
_cell_angle_alpha 90.000000
_cell_angle_beta 90.000000
_cell_angle_gamma 90.000000
_cell_volume 1862.028852
_symmetry_space_group_name_H-M "P B C M"
_symmetry_group_IT_number 57
_symmetry_cell_setting 'orthorhombic'
loop_
_space_group_symop_operation_xyz
x,y,z
-x,-y,1/2+z
x,1/2-y,-z
-x,1/2+y,1/2-z
-x,-y,-z
x,y,1/2-z
-x,1/2+y,z
x,1/2-y,1/2+z
loop_
_atom_site_type_symbol
_atom_site_label
_atom_site_fract_x
_atom_site_fract_y
_atom_site_fract_z
Si Si1 0.299073 0.363982 0.750000
Si Si2 0.270897 0.755059 0.897871
Si Si3 0.266194 0.094264 0.750000
Si Si4 0.574392 0.133722 0.250000
Si Si5 0.156283 0.997684 0.395687
Si Si6 0.124165 0.512427 0.400826
O O1 0.321316 0.223893 0.750000
O O2 0.436198 0.407789 0.750000
O O3 0.227938 0.404496 0.661395
O O4 0.385841 0.789692 0.836953
O O5 0.213094 0.629671 0.869310
O O6 0.165071 0.851817 0.883382
O O7 0.316118 0.750000 0.000000
O O8 0.368610 0.995902 0.750000
O O9 0.187383 0.082404 0.661675
O O10 0.164463 0.026317 0.500356
O O11 0.015175 0.002053 0.374327
#
# Coordination Sequence:
#
# PCOD8234017 Si02
#       6
#     4   8   4   4   8   8
#     4  12  26  37  59  92 116 161 202 237 293 351
#     4   9  19  39  64  86 115 160 199 240 303 351
#     4  10  23  40  57  85 124 154 198 244 301 341
#     4  10  23  43  58  81 122 163 202 251 284 346
#     4  10  21  37  64  91 119 151 201 241 302 363
#     4   9  20  40  62  91 121 152 187 253 304 357
#
# _framework density 19.333749999999998
#
# number of rings (size 3 to 8) (size 9 to 14) (size 15 to 20)
#    0.000    2.222    0.000    1.333    6.222    0.889 
#    4.000    3.333    0.000    0.000    0.000    0.000 
#    0.000    0.000    0.000    0.000    0.000    0.000 
#
# Total GULP energy -446301.242862 kJ/mol
# GULP energy per Si atom -12397.256746 kJ/mol
# Density = 1.928975 g / cm^3
# Si number density = 19.333750 Si / 1000 Ang^3
#
#
#
# Elastic Constant Matrix: (Units=GPa)
#
#
# Indices 1 2 3 4 5 6 
#
# 1 127.3539 29.6112 68.2543 0.0000 0.0000 0.0000
# 2 29.6112 90.4206 42.0204 0.0000 0.0000 0.0000
# 3 68.2543 42.0204 106.0749 0.0000 0.0000 0.0000
# 4 0.0000 0.0000 0.0000 23.2972 0.0000 0.0000
# 5 0.0000 0.0000 0.0000 0.0000 24.9445 0.0000
# 6 0.0000 0.0000 0.0000 0.0000 0.0000 22.0622
#
#
#
# Elastic Compliance Matrix: (Units=1/GPa)
#
#
# Indices 1 2 3 4 5 6 
#
# 1 0.011998 -0.000418 -0.007555 0.000000 0.000000 0.000000
# 2 -0.000418 0.013569 -0.005106 0.000000 0.000000 0.000000
# 3 -0.007555 -0.005106 0.016311 0.000000 0.000000 0.000000
# 4 0.000000 0.000000 0.000000 0.042924 0.000000 0.000000
# 5 0.000000 0.000000 0.000000 0.000000 0.040089 0.000000
# 6 0.000000 0.000000 0.000000 0.000000 0.000000 0.045326
#
#
# Mechanical properties :
#
#
# Convention : Reuss Voigt Hill
#
# Bulk Modulus (GPa) = 63.61147 67.06901 65.34024
# Shear Modulus (GPa) = 24.79963 26.32502 25.56232
#
# Velocity S-wave (km/s) = 3.58538 3.69400 3.64010
# Velocity P-wave (km/s) = 7.07906 7.27734 7.17889
#
# Compressibility (1/GPa) = 0.01572044
#
# Stress axis : x y z
#
# Youngs Moduli (GPa) = 83.34572 73.69533 61.30826
#
# Poissons Ratio (x) = 0.03084 0.46315
# Poissons Ratio (y) = 0.03488 0.31305
# Poissons Ratio (z) = 0.62964 0.37630
#
# Static dielectric constant tensor:
#      x y z
#    x 3.379090 0.000000 0.000000 
#    y 0.000000 3.470880 0.000000 
#    z 0.000000 0.000000 3.747290 
# 
# 
# High freq. dielectric constant tensor:
#      x y z
#    x 1.743590 0.000000 0.000000 
#    y 0.000000 1.753560 0.000000 
#    z 0.000000 0.000000 1.767300 
# 
# From -- ./inp_files/17358.got.cif
#   From: 2010.03.12/outbox.cif.g09.slc.cpg/sg57_9_cif.got.tgz:17358.got - 2010.04.16 15:48:40.
