data_PCOD8234227
_publ_section_title
;
Structure prediction by ZEFSAII (Michael W. Deem and Ramdas Pophale) SiO2 
 PCOD8234227
Probable space group: P B C M
;
_chemical_formula_sum "Si O2"
_cell_formula_units_Z 64
_cell_length_a 11.385699
_cell_length_b 14.750301
_cell_length_c 18.087508
_cell_angle_alpha 90.000000
_cell_angle_beta 90.000000
_cell_angle_gamma 90.000000
_cell_volume 3037.661083
_symmetry_space_group_name_H-M "P B C M"
_symmetry_group_IT_number 57
_symmetry_cell_setting 'orthorhombic'
loop_
_space_group_symop_operation_xyz
x,y,z
-x,-y,1/2+z
x,1/2-y,-z
-x,1/2+y,1/2-z
-x,-y,-z
x,y,1/2-z
-x,1/2+y,z
x,1/2-y,1/2+z
loop_
_atom_site_type_symbol
_atom_site_label
_atom_site_fract_x
_atom_site_fract_y
_atom_site_fract_z
Si Si1 0.780817 0.281084 0.917384
Si Si2 0.147856 0.351513 0.835902
Si Si3 0.593855 0.902190 0.833928
Si Si4 0.513986 0.930003 0.082535
Si Si5 0.015845 0.806865 0.336330
Si Si6 0.921745 0.483999 0.428704
Si Si7 0.561533 0.270586 0.166138
Si Si8 0.309019 0.950619 0.983907
O O1 0.887086 0.266211 0.861420
O O2 0.674541 0.221013 0.886044
O O3 0.747275 0.387276 0.920191
O O4 0.814388 0.250000 0.000000
O O5 0.131252 0.374040 0.750000
O O6 0.283134 0.359528 0.860944
O O7 0.070805 0.425818 0.879505
O O8 0.105531 0.247885 0.851616
O O9 0.605483 0.936037 0.750000
O O10 0.556345 0.986328 0.882461
O O11 0.494884 0.826940 0.841871
O O12 0.645110 0.956401 0.054896
O O13 0.529801 0.847931 0.139823
O O14 0.427740 0.901730 0.014910
O O15 0.031172 0.831014 0.250000
O O16 0.025803 0.898566 0.383762
O O17 0.786672 0.467132 0.451969
O O18 0.000000 0.500000 0.500000
O O19 0.599038 0.290229 0.250000
#
# Coordination Sequence:
#
# PCOD8234227 Si02
#       8
#     8   8   8   8   8   8   8   8
#     4  12  21  39  63  92 129 160 207 273 317 379
#     4  10  23  43  65  90 126 172 217 265 326 394
#     4  10  21  39  62  87 122 165 212 261 311 383
#     4  11  21  39  60  86 130 165 207 262 316 382
#     4  11  25  44  67  94 128 171 215 270 330 390
#     4  12  24  41  67  97 128 167 218 273 326 393
#     4  11  23  38  62  94 125 169 216 259 319 382
#     4  11  23  37  59  94 126 164 207 260 324 377
#
# _framework density 21.068840999999999
#
# number of rings (size 3 to 8) (size 9 to 14) (size 15 to 20)
#    0.000    1.000    5.000    1.875    0.000    1.000 
#    0.000    0.000    0.000    1.500    0.000    0.000 
#    0.000    0.000    0.000    0.000    0.000    0.000 
#
# Total GULP energy -793477.250053 kJ/mol
# GULP energy per Si atom -12398.082032 kJ/mol
# Density = 2.102089 g / cm^3
# Si number density = 21.068841 Si / 1000 Ang^3
#
#
#
# Elastic Constant Matrix: (Units=GPa)
#
#
# Indices 1 2 3 4 5 6 
#
# 1 50.1658 3.5898 20.1554 0.0000 0.0000 0.0000
# 2 3.5898 66.4268 35.2304 0.0000 0.0000 0.0000
# 3 20.1554 35.2304 90.4951 0.0000 0.0000 0.0000
# 4 0.0000 0.0000 0.0000 42.1889 0.0000 0.0000
# 5 0.0000 0.0000 0.0000 0.0000 33.4890 0.0000
# 6 0.0000 0.0000 0.0000 0.0000 0.0000 22.9842
#
#
#
# Elastic Compliance Matrix: (Units=1/GPa)
#
#
# Indices 1 2 3 4 5 6 
#
# 1 0.022059 0.001781 -0.005607 0.000000 0.000000 0.000000
# 2 0.001781 0.019115 -0.007838 0.000000 0.000000 0.000000
# 3 -0.005607 -0.007838 0.015351 0.000000 0.000000 0.000000
# 4 0.000000 0.000000 0.000000 0.023703 0.000000 0.000000
# 5 0.000000 0.000000 0.000000 0.000000 0.029861 0.000000
# 6 0.000000 0.000000 0.000000 0.000000 0.000000 0.043508
#
#
# Mechanical properties :
#
#
# Convention : Reuss Voigt Hill
#
# Bulk Modulus (GPa) = 30.12270 36.11543 33.11907
# Shear Modulus (GPa) = 26.59725 29.60654 28.10189
#
# Velocity S-wave (km/s) = 3.55688 3.75271 3.65610
# Velocity P-wave (km/s) = 5.58541 5.99632 5.79451
#
# Compressibility (1/GPa) = 0.03319756
#
# Stress axis : x y z
#
# Youngs Moduli (GPa) = 45.33294 52.31469 65.14412
#
# Poissons Ratio (x) = -0.09319 0.36524
# Poissons Ratio (y) = -0.08076 0.51063
# Poissons Ratio (z) = 0.25416 0.41006
#
# Static dielectric constant tensor:
#      x y z
#    x 3.814920 0.000000 0.000000 
#    y 0.000000 3.878000 0.000000 
#    z 0.000000 0.000000 3.932040 
# 
# 
# High freq. dielectric constant tensor:
#      x y z
#    x 1.818560 0.000000 0.000000 
#    y 0.000000 1.824120 0.000000 
#    z 0.000000 0.000000 1.831690 
# 
# From -- ./inp_files/22082.got.cif
#   From: 2010.03.12/outbox.cif.g09.slc.cpg/sg57_12_cif.got.tgz:22082.got - 2010.04.16 15:48:40.
