data_PCOD8234572
_publ_section_title
;
Structure prediction by ZEFSAII (Michael W. Deem and Ramdas Pophale) SiO2 
 PCOD8234572
Probable space group: P B C M
;
_chemical_formula_sum "Si O2"
_cell_formula_units_Z 40
_cell_length_a 5.217393
_cell_length_b 26.380813
_cell_length_c 14.964810
_cell_angle_alpha 90.000000
_cell_angle_beta 90.000000
_cell_angle_gamma 90.000000
_cell_volume 2059.742517
_symmetry_space_group_name_H-M "P B C M"
_symmetry_group_IT_number 57
_symmetry_cell_setting 'orthorhombic'
loop_
_space_group_symop_operation_xyz
x,y,z
-x,-y,1/2+z
x,1/2-y,-z
-x,1/2+y,1/2-z
-x,-y,-z
x,y,1/2-z
-x,1/2+y,z
x,1/2-y,1/2+z
loop_
_atom_site_type_symbol
_atom_site_label
_atom_site_fract_x
_atom_site_fract_y
_atom_site_fract_z
Si Si1 0.957247 0.636081 0.518044
Si Si2 0.985729 0.954736 0.152590
Si Si3 0.341274 0.121706 0.354038
Si Si4 0.533433 0.309604 0.992588
Si Si5 0.486311 0.012155 0.103636
O O1 0.003546 0.586322 0.575339
O O2 0.921160 0.619585 0.413540
O O3 0.697575 0.664886 0.550403
O O4 0.194965 0.673520 0.532279
O O5 0.006734 0.928464 0.250000
O O6 0.720188 0.984785 0.151592
O O7 0.216526 0.994023 0.142505
O O8 0.274652 0.127882 0.250000
O O9 0.504836 0.170466 0.389736
O O10 0.508384 0.071836 0.375694
O O11 0.508578 0.250000 0.000000
O O12 0.500000 0.000000 0.000000
#
# Coordination Sequence:
#
# PCOD8234572 Si02
#       5
#     8   8   8   8   8
#     4  10  22  40  63  90 122 164 202 257 310 367
#     4  12  24  40  61  94 132 171 210 250 305 380
#     4  10  23  39  63  95 124 159 209 256 306 370
#     4  10  22  42  65  85 119 160 204 260 324 362
#     4  12  23  40  62  92 130 174 207 251 313 369
#
# _framework density 19.419903000000001
#
# number of rings (size 3 to 8) (size 9 to 14) (size 15 to 20)
#    1.200    0.000    2.000    5.400    2.800    0.800 
#    0.000    2.000    0.000    0.000    0.000    0.000 
#    0.000    0.000    0.000    0.000    0.000    0.000 
#
# Total GULP energy -495752.984224 kJ/mol
# GULP energy per Si atom -12393.824606 kJ/mol
# Density = 1.937570 g / cm^3
# Si number density = 19.419903 Si / 1000 Ang^3
#
#
#
# Elastic Constant Matrix: (Units=GPa)
#
#
# Indices 1 2 3 4 5 6 
#
# 1 109.7286 26.7091 22.3589 0.0000 0.0000 0.0000
# 2 26.7091 131.4007 47.9435 0.0000 0.0000 0.0000
# 3 22.3589 47.9435 122.2486 0.0000 0.0000 0.0000
# 4 0.0000 0.0000 0.0000 72.3590 0.0000 0.0000
# 5 0.0000 0.0000 0.0000 0.0000 13.4908 0.0000
# 6 0.0000 0.0000 0.0000 0.0000 0.0000 24.0008
#
#
#
# Elastic Compliance Matrix: (Units=1/GPa)
#
#
# Indices 1 2 3 4 5 6 
#
# 1 0.009729 -0.001550 -0.001172 0.000000 0.000000 0.000000
# 2 -0.001550 0.009128 -0.003296 0.000000 0.000000 0.000000
# 3 -0.001172 -0.003296 0.009687 0.000000 0.000000 0.000000
# 4 0.000000 0.000000 0.000000 0.013820 0.000000 0.000000
# 5 0.000000 0.000000 0.000000 0.000000 0.074125 0.000000
# 6 0.000000 0.000000 0.000000 0.000000 0.000000 0.041665
#
#
# Mechanical properties :
#
#
# Convention : Reuss Voigt Hill
#
# Bulk Modulus (GPa) = 60.57484 61.93344 61.25414
# Shear Modulus (GPa) = 28.45863 39.72787 34.09325
#
# Velocity S-wave (km/s) = 3.83225 4.52788 4.19451
# Velocity P-wave (km/s) = 7.13032 7.70043 7.42085
#
# Compressibility (1/GPa) = 0.01650851
#
# Stress axis : x y z
#
# Youngs Moduli (GPa) = 102.78080 109.55142 103.23023
#
# Poissons Ratio (x) = 0.16983 0.12094
# Poissons Ratio (y) = 0.15933 0.34028
# Poissons Ratio (z) = 0.12041 0.36112
#
# Static dielectric constant tensor:
#      x y z
#    x 3.753240 0.000000 0.000000 
#    y 0.000000 3.405990 0.000000 
#    z 0.000000 0.000000 3.499070 
# 
# 
# High freq. dielectric constant tensor:
#      x y z
#    x 1.770170 0.000000 0.000000 
#    y 0.000000 1.746130 0.000000 
#    z 0.000000 0.000000 1.740510 
# 
# From -- ./inp_files/14944.got.cif
#   From: 2010.03.12/outbox.cif.g09.slc.cpg/sg57_8_cif.got.tgz:14944.got - 2010.04.16 15:48:40.
