data_PCOD8234407
_publ_section_title
;
Structure prediction by ZEFSAII (Michael W. Deem and Ramdas Pophale) SiO2 
 PCOD8234407
Probable space group: P B C M
;
_chemical_formula_sum "Si O2"
_cell_formula_units_Z 56
_cell_length_a 14.452922
_cell_length_b 9.294061
_cell_length_c 19.810475
_cell_angle_alpha 90.000000
_cell_angle_beta 90.000000
_cell_angle_gamma 90.000000
_cell_volume 2661.068575
_symmetry_space_group_name_H-M "P B C M"
_symmetry_group_IT_number 57
_symmetry_cell_setting 'orthorhombic'
loop_
_space_group_symop_operation_xyz
x,y,z
-x,-y,1/2+z
x,1/2-y,-z
-x,1/2+y,1/2-z
-x,-y,-z
x,y,1/2-z
-x,1/2+y,z
x,1/2-y,1/2+z
loop_
_atom_site_type_symbol
_atom_site_label
_atom_site_fract_x
_atom_site_fract_y
_atom_site_fract_z
Si Si1 0.044499 0.433075 0.566086
Si Si2 0.771958 0.005295 0.630813
Si Si3 0.130140 0.636569 0.750000
Si Si4 0.728700 0.692943 0.828124
Si Si5 0.619281 0.116705 0.964605
Si Si6 0.977092 0.843651 0.750000
Si Si7 0.587229 0.642287 0.942985
Si Si8 0.079278 0.152790 0.627061
O O1 0.150499 0.483179 0.573111
O O2 0.045778 0.257566 0.565050
O O3 0.000000 0.500000 0.500000
O O4 0.982388 0.506679 0.627105
O O5 0.806920 0.124687 0.683646
O O6 0.678408 0.054196 0.595926
O O7 0.750231 0.862048 0.672411
O O8 0.047124 0.514478 0.750000
O O9 0.085834 0.797602 0.750000
O O10 0.717492 0.641313 0.750000
O O11 0.636068 0.661316 0.870533
O O12 0.812313 0.609997 0.868327
O O13 0.522049 0.167797 0.931777
O O14 0.671144 0.250000 0.000000
O O15 0.603390 0.014531 0.028120
O O16 0.930570 0.767091 0.813152
O O17 0.627936 0.750000 0.000000
#
# Coordination Sequence:
#
# PCOD8234407 Si02
#       8
#     8   8   4   8   8   4   8   8
#     4  11  24  36  55  87 121 158 204 251 302 351
#     4  11  21  40  63  88 123 169 207 254 321 383
#     4  12  22  40  66  87 125 171 217 250 316 373
#     4  11  21  38  66  97 122 162 219 263 311 385
#     4  10  23  42  66  93 127 160 210 264 327 386
#     4  12  18  40  58  87 115 167 213 246 286 383
#     4  10  21  41  71  95 116 165 217 260 318 391
#     4  11  21  38  59  82 120 159 201 247 301 368
#
# _framework density 21.044179
#
# number of rings (size 3 to 8) (size 9 to 14) (size 15 to 20)
#    0.000    1.143    7.143    0.429    2.000    1.143 
#    1.286    0.000    1.571    0.000    0.000    0.000 
#    0.000    0.000    0.000    0.000    0.000    0.000 
#
# Total GULP energy -693937.494161 kJ/mol
# GULP energy per Si atom -12391.740967 kJ/mol
# Density = 2.099628 g / cm^3
# Si number density = 21.044179 Si / 1000 Ang^3
#
#
#
# Elastic Constant Matrix: (Units=GPa)
#
#
# Indices 1 2 3 4 5 6 
#
# 1 108.4601 22.0337 42.5580 0.0000 0.0000 0.0000
# 2 22.0337 51.6750 2.1412 0.0000 0.0000 0.0000
# 3 42.5580 2.1412 91.8995 0.0000 0.0000 0.0000
# 4 0.0000 0.0000 0.0000 21.6287 0.0000 0.0000
# 5 0.0000 0.0000 0.0000 0.0000 17.3732 0.0000
# 6 0.0000 0.0000 0.0000 0.0000 0.0000 27.8887
#
#
#
# Elastic Compliance Matrix: (Units=1/GPa)
#
#
# Indices 1 2 3 4 5 6 
#
# 1 0.012473 -0.005084 -0.005658 0.000000 0.000000 0.000000
# 2 -0.005084 0.021443 0.001855 0.000000 0.000000 0.000000
# 3 -0.005658 0.001855 0.013458 0.000000 0.000000 0.000000
# 4 0.000000 0.000000 0.000000 0.046235 0.000000 0.000000
# 5 0.000000 0.000000 0.000000 0.000000 0.057560 0.000000
# 6 0.000000 0.000000 0.000000 0.000000 0.000000 0.035857
#
#
# Mechanical properties :
#
#
# Convention : Reuss Voigt Hill
#
# Bulk Modulus (GPa) = 33.78370 42.83337 38.30853
# Shear Modulus (GPa) = 23.29210 25.73157 24.51183
#
# Velocity S-wave (km/s) = 3.33050 3.50056 3.41659
# Velocity P-wave (km/s) = 5.55681 6.06109 5.81442
#
# Compressibility (1/GPa) = 0.02960007
#
# Stress axis : x y z
#
# Youngs Moduli (GPa) = 80.17516 46.63622 74.30405
#
# Poissons Ratio (x) = 0.23709 0.42038
# Poissons Ratio (y) = 0.40759 -0.13781
# Poissons Ratio (z) = 0.45360 -0.08649
#
# Static dielectric constant tensor:
#      x y z
#    x 3.980420 0.000000 0.000000 
#    y 0.000000 3.943960 0.000000 
#    z 0.000000 0.000000 3.645950 
# 
# 
# High freq. dielectric constant tensor:
#      x y z
#    x 1.814630 0.000000 0.000000 
#    y 0.000000 1.816910 0.000000 
#    z 0.000000 0.000000 1.826890 
# 
# From -- ./inp_files/25434.got.cif
#   From: 2010.03.12/outbox.cif.g09.slc.cpg/sg57_13_cif.got.tgz:25434.got - 2010.04.16 15:48:40.
