data_PCOD8234465
_publ_section_title
;
Structure prediction by ZEFSAII (Michael W. Deem and Ramdas Pophale) SiO2 
 PCOD8234465
Probable space group: P B C M
;
_chemical_formula_sum "Si O2"
_cell_formula_units_Z 40
_cell_length_a 26.105715
_cell_length_b 9.154688
_cell_length_c 8.726127
_cell_angle_alpha 90.000000
_cell_angle_beta 90.000000
_cell_angle_gamma 90.000000
_cell_volume 2085.454263
_symmetry_space_group_name_H-M "P B C M"
_symmetry_group_IT_number 57
_symmetry_cell_setting 'orthorhombic'
loop_
_space_group_symop_operation_xyz
x,y,z
-x,-y,1/2+z
x,1/2-y,-z
-x,1/2+y,1/2-z
-x,-y,-z
x,y,1/2-z
-x,1/2+y,z
x,1/2-y,1/2+z
loop_
_atom_site_type_symbol
_atom_site_label
_atom_site_fract_x
_atom_site_fract_y
_atom_site_fract_z
Si Si1 0.453640 0.910045 0.568952
Si Si2 0.852347 0.091218 0.070641
Si Si3 0.260043 0.591189 0.071094
Si Si4 0.046568 0.911545 0.431628
Si Si5 0.354577 0.092199 0.930340
O O1 0.453140 0.750000 0.500000
O O2 0.460238 0.900133 0.750000
O O3 0.500000 0.000000 0.500000
O O4 0.401291 0.989163 0.520688
O O5 0.865202 0.099798 0.250000
O O6 0.796432 0.019723 0.039929
O O7 0.848091 0.250000 0.000000
O O8 0.899775 0.010954 0.984625
O O9 0.268753 0.614079 0.250000
O O10 0.302324 0.480168 0.004180
O O11 0.266984 0.750000 0.000000
O O12 0.044705 0.750000 0.500000
O O13 0.042702 0.907835 0.250000
O O14 0.000000 0.000000 0.500000
O O15 0.351446 0.111035 0.750000
O O16 0.363127 0.250000 0.000000
#
# Coordination Sequence:
#
# PCOD8234465 Si02
#       5
#     8   8   8   8   8
#     4  11  23  39  60  85 114 146 185 228 274 324
#     4   9  16  29  50  75 103 135 172 217 265 317
#     4   9  18  33  54  79 105 134 174 220 266 316
#     4  11  21  35  54  78 107 140 179 222 269 322
#     4  10  22  38  55  79 110 145 181 221 267 319
#
# _framework density 19.180472999999999
#
# number of rings (size 3 to 8) (size 9 to 14) (size 15 to 20)
#    0.000    2.000    0.000    5.400    0.000    4.800 
#    0.000    1.000    0.000    2.400    0.000    0.000 
#    0.000    0.000    0.000    0.000    0.000    0.000 
#
# Total GULP energy -495819.091578 kJ/mol
# GULP energy per Si atom -12395.477289 kJ/mol
# Density = 1.913682 g / cm^3
# Si number density = 19.180473 Si / 1000 Ang^3
#
#
#
# Elastic Constant Matrix: (Units=GPa)
#
#
# Indices 1 2 3 4 5 6 
#
# 1 202.3663 80.6247 73.2269 0.0000 0.0000 0.0000
# 2 80.6247 114.2342 45.3360 0.0000 0.0000 0.0000
# 3 73.2269 45.3360 102.5925 0.0000 0.0000 0.0000
# 4 0.0000 0.0000 0.0000 30.4334 0.0000 0.0000
# 5 0.0000 0.0000 0.0000 0.0000 31.6016 0.0000
# 6 0.0000 0.0000 0.0000 0.0000 0.0000 32.9082
#
#
#
# Elastic Compliance Matrix: (Units=1/GPa)
#
#
# Indices 1 2 3 4 5 6 
#
# 1 0.007976 -0.004087 -0.003887 0.000000 0.000000 0.000000
# 2 -0.004087 0.012710 -0.002699 0.000000 0.000000 0.000000
# 3 -0.003887 -0.002699 0.013715 0.000000 0.000000 0.000000
# 4 0.000000 0.000000 0.000000 0.032859 0.000000 0.000000
# 5 0.000000 0.000000 0.000000 0.000000 0.031644 0.000000
# 6 0.000000 0.000000 0.000000 0.000000 0.000000 0.030388
#
#
# Mechanical properties :
#
#
# Convention : Reuss Voigt Hill
#
# Bulk Modulus (GPa) = 76.60610 90.84091 83.72350
# Shear Modulus (GPa) = 32.26028 33.65568 32.95798
#
# Velocity S-wave (km/s) = 4.10559 4.19344 4.14975
# Velocity P-wave (km/s) = 7.90574 8.42084 8.16735
#
# Compressibility (1/GPa) = 0.01305379
#
# Stress axis : x y z
#
# Youngs Moduli (GPa) = 125.36969 78.68002 72.91411
#
# Poissons Ratio (x) = 0.32156 0.28344
# Poissons Ratio (y) = 0.51237 0.19682
# Poissons Ratio (z) = 0.48735 0.21239
#
# Static dielectric constant tensor:
#      x y z
#    x 4.721380 0.000000 0.000000 
#    y 0.000000 3.279140 0.000000 
#    z 0.000000 0.000000 3.581030 
# 
# 
# High freq. dielectric constant tensor:
#      x y z
#    x 1.777930 0.000000 0.000000 
#    y 0.000000 1.715480 0.000000 
#    z 0.000000 0.000000 1.753080 
# 
# From -- ./inp_files/8924.got.cif
#   From: 2010.03.12/outbox.cif.g09.slc.cpg/sg57_5_cif.got.tgz:8924.got - 2010.04.16 15:48:40.
