data_PCOD8234787
_publ_section_title
;
Structure prediction by ZEFSAII (Michael W. Deem and Ramdas Pophale) SiO2 
 PCOD8234787
Probable space group: P B C M
;
_chemical_formula_sum "Si O2"
_cell_formula_units_Z 56
_cell_length_a 7.708570
_cell_length_b 23.752342
_cell_length_c 12.501952
_cell_angle_alpha 90.000000
_cell_angle_beta 90.000000
_cell_angle_gamma 90.000000
_cell_volume 2289.064792
_symmetry_space_group_name_H-M "P B C M"
_symmetry_group_IT_number 57
_symmetry_cell_setting 'orthorhombic'
loop_
_space_group_symop_operation_xyz
x,y,z
-x,-y,1/2+z
x,1/2-y,-z
-x,1/2+y,1/2-z
-x,-y,-z
x,y,1/2-z
-x,1/2+y,z
x,1/2-y,1/2+z
loop_
_atom_site_type_symbol
_atom_site_label
_atom_site_fract_x
_atom_site_fract_y
_atom_site_fract_z
Si Si1 0.512327 0.414486 0.625446
Si Si2 0.273913 0.211421 0.873347
Si Si3 0.889483 0.594441 0.874071
Si Si4 0.134919 0.875541 0.964405
Si Si5 0.464377 0.038176 0.625225
Si Si6 0.371925 0.845302 0.127402
Si Si7 0.211816 0.165801 0.373937
O O1 0.479588 0.420277 0.750000
O O2 0.711789 0.396366 0.611367
O O3 0.483513 0.477170 0.574057
O O4 0.362311 0.374414 0.575809
O O5 0.216663 0.213365 0.750000
O O6 0.171078 0.156970 0.921354
O O7 0.479343 0.200878 0.880823
O O8 0.234756 0.272322 0.928377
O O9 0.945944 0.598562 0.750000
O O10 0.741405 0.548052 0.887398
O O11 0.050097 0.578339 0.951923
O O12 0.985640 0.854150 0.885887
O O13 0.214443 0.828451 0.048125
O O14 0.510159 0.038437 0.750000
O O15 0.566997 0.092723 0.577820
O O16 0.309495 0.850857 0.250000
O O17 0.254642 0.172028 0.250000
#
# Coordination Sequence:
#
# PCOD8234787 Si02
#       7
#     8   8   8   8   8   8   8
#     4  10  23  44  63  87 127 170 214 256 303 370
#     4   8  17  40  68  83 116 166 201 251 311 363
#     4   9  19  38  62  92 124 155 200 260 321 367
#     4  12  24  37  63  98 123 161 205 258 311 377
#     4   8  17  39  67  87 122 170 206 257 313 367
#     4   9  19  39  66  98 125 159 208 257 319 368
#     4  10  23  45  64  85 124 171 213 252 306 369
#
# _framework density 24.464137999999998
#
# number of rings (size 3 to 8) (size 9 to 14) (size 15 to 20)
#    0.000    2.571    0.000    2.571    4.000    1.714 
#    7.714    0.000    0.000    0.000    0.000    0.000 
#    0.000    0.000    0.000    0.000    0.000    0.000 
#
# Total GULP energy -693920.903100 kJ/mol
# GULP energy per Si atom -12391.444698 kJ/mol
# Density = 2.440846 g / cm^3
# Si number density = 24.464138 Si / 1000 Ang^3
#
#
#
# Elastic Constant Matrix: (Units=GPa)
#
#
# Indices 1 2 3 4 5 6 
#
# 1 127.7671 41.0661 17.6233 0.0000 0.0000 0.0000
# 2 41.0661 119.7350 33.3969 0.0000 0.0000 0.0000
# 3 17.6233 33.3969 47.0355 0.0000 0.0000 0.0000
# 4 0.0000 0.0000 0.0000 3.4357 0.0000 0.0000
# 5 0.0000 0.0000 0.0000 0.0000 41.0993 0.0000
# 6 0.0000 0.0000 0.0000 0.0000 0.0000 21.7327
#
#
#
# Elastic Compliance Matrix: (Units=1/GPa)
#
#
# Indices 1 2 3 4 5 6 
#
# 1 0.008875 -0.002639 -0.001451 0.000000 0.000000 0.000000
# 2 -0.002639 0.011199 -0.006963 0.000000 0.000000 0.000000
# 3 -0.001451 -0.006963 0.026748 0.000000 0.000000 0.000000
# 4 0.000000 0.000000 0.000000 0.291058 0.000000 0.000000
# 5 0.000000 0.000000 0.000000 0.000000 0.024331 0.000000
# 6 0.000000 0.000000 0.000000 0.000000 0.000000 0.046014
#
#
# Mechanical properties :
#
#
# Convention : Reuss Voigt Hill
#
# Bulk Modulus (GPa) = 40.46040 53.19000 46.82520
# Shear Modulus (GPa) = 11.40066 26.75029 19.07548
#
# Velocity S-wave (km/s) = 2.16108 3.31032 2.79540
# Velocity P-wave (km/s) = 4.77510 6.03326 5.44067
#
# Compressibility (1/GPa) = 0.02471552
#
# Stress axis : x y z
#
# Youngs Moduli (GPa) = 112.67356 89.29331 37.38553
#
# Poissons Ratio (x) = 0.23565 0.05427
# Poissons Ratio (y) = 0.29736 0.26031
# Poissons Ratio (z) = 0.16355 0.62174
#
# Static dielectric constant tensor:
#      x y z
#    x 4.196480 0.000000 0.000000 
#    y 0.000000 4.549490 0.000000 
#    z 0.000000 0.000000 4.816340 
# 
# 
# High freq. dielectric constant tensor:
#      x y z
#    x 1.961860 0.000000 0.000000 
#    y 0.000000 1.940310 0.000000 
#    z 0.000000 0.000000 2.033950 
# 
# From -- ./inp_files/16734.got.cif
#   From: 2010.03.12/outbox.cif.g09.slc.cpg/sg57_9_cif.got.tgz:16734.got - 2010.04.16 15:48:40.
