data_PCOD8234438
_publ_section_title
;
Structure prediction by ZEFSAII (Michael W. Deem and Ramdas Pophale) SiO2 
 PCOD8234438
Probable space group: P B C M
;
_chemical_formula_sum "Si O2"
_cell_formula_units_Z 48
_cell_length_a 13.217720
_cell_length_b 9.758802
_cell_length_c 16.729931
_cell_angle_alpha 90.000000
_cell_angle_beta 90.000000
_cell_angle_gamma 90.000000
_cell_volume 2157.978950
_symmetry_space_group_name_H-M "P B C M"
_symmetry_group_IT_number 57
_symmetry_cell_setting 'orthorhombic'
loop_
_space_group_symop_operation_xyz
x,y,z
-x,-y,1/2+z
x,1/2-y,-z
-x,1/2+y,1/2-z
-x,-y,-z
x,y,1/2-z
-x,1/2+y,z
x,1/2-y,1/2+z
loop_
_atom_site_type_symbol
_atom_site_label
_atom_site_fract_x
_atom_site_fract_y
_atom_site_fract_z
Si Si1 0.716880 0.488141 0.418344
Si Si2 0.652286 0.222101 0.160414
Si Si3 0.731677 0.556009 0.899514
Si Si4 0.075732 0.024597 0.341309
Si Si5 0.061861 0.196917 0.590284
Si Si6 0.436743 0.279040 0.909760
O O1 0.697201 0.328585 0.402981
O O2 0.746594 0.511448 0.509412
O O3 0.806299 0.539656 0.361570
O O4 0.616427 0.574201 0.399848
O O5 0.670697 0.276349 0.250000
O O6 0.532665 0.209324 0.147181
O O7 0.710228 0.078187 0.152440
O O8 0.835309 0.630465 0.874438
O O9 0.639174 0.658917 0.884183
O O10 0.058537 0.979039 0.250000
O O11 0.028040 0.174346 0.355653
O O12 0.026777 0.914588 0.401827
O O13 0.076598 0.250000 0.500000
O O14 0.473576 0.250000 0.000000
#
# Coordination Sequence:
#
# PCOD8234438 Si02
#       6
#     8   8   8   8   8   8
#     4  11  23  45  69  98 134 176 233 281 338 399
#     4  12  27  40  62 103 142 181 222 276 346 408
#     4  11  23  45  73  99 129 180 236 282 330 401
#     4  12  27  45  71 104 143 178 217 287 356 405
#     4  12  25  49  74 104 133 180 237 280 334 417
#     4  10  21  44  70  97 130 175 235 283 333 399
#
# _framework density 22.243033
#
# number of rings (size 3 to 8) (size 9 to 14) (size 15 to 20)
#    0.000    0.667    3.333    4.500    2.333    7.333 
#    0.000    0.000    0.000    0.000    0.000    0.000 
#    0.000    0.000    0.000    0.000    0.000    0.000 
#
# Total GULP energy -595439.065468 kJ/mol
# GULP energy per Si atom -12404.980531 kJ/mol
# Density = 2.219241 g / cm^3
# Si number density = 22.243033 Si / 1000 Ang^3
#
#
#
# Elastic Constant Matrix: (Units=GPa)
#
#
# Indices 1 2 3 4 5 6 
#
# 1 73.7920 29.1045 32.4695 0.0000 0.0000 0.0000
# 2 29.1045 127.2571 36.4301 0.0000 0.0000 0.0000
# 3 32.4695 36.4301 65.8218 0.0000 0.0000 0.0000
# 4 0.0000 0.0000 0.0000 30.5553 0.0000 0.0000
# 5 0.0000 0.0000 0.0000 0.0000 13.1863 0.0000
# 6 0.0000 0.0000 0.0000 0.0000 0.0000 33.4563
#
#
#
# Elastic Compliance Matrix: (Units=1/GPa)
#
#
# Indices 1 2 3 4 5 6 
#
# 1 0.017662 -0.001836 -0.007696 0.000000 0.000000 0.000000
# 2 -0.001836 0.009528 -0.004368 0.000000 0.000000 0.000000
# 3 -0.007696 -0.004368 0.021407 0.000000 0.000000 0.000000
# 4 0.000000 0.000000 0.000000 0.032727 0.000000 0.000000
# 5 0.000000 0.000000 0.000000 0.000000 0.075836 0.000000
# 6 0.000000 0.000000 0.000000 0.000000 0.000000 0.029890
#
#
# Mechanical properties :
#
#
# Convention : Reuss Voigt Hill
#
# Bulk Modulus (GPa) = 48.08537 51.43102 49.75820
# Shear Modulus (GPa) = 22.54445 26.69738 24.62091
#
# Velocity S-wave (km/s) = 3.18709 3.46823 3.33063
# Velocity P-wave (km/s) = 5.93367 6.26184 6.09996
#
# Compressibility (1/GPa) = 0.02079635
#
# Stress axis : x y z
#
# Youngs Moduli (GPa) = 56.61750 104.94868 46.71446
#
# Poissons Ratio (x) = 0.19271 0.35954
# Poissons Ratio (y) = 0.10396 0.20404
# Poissons Ratio (z) = 0.43575 0.45840
#
# Static dielectric constant tensor:
#      x y z
#    x 3.929340 0.000000 0.000000 
#    y 0.000000 4.249110 0.000000 
#    z 0.000000 0.000000 3.837500 
# 
# 
# High freq. dielectric constant tensor:
#      x y z
#    x 1.877720 0.000000 0.000000 
#    y 0.000000 1.894900 0.000000 
#    z 0.000000 0.000000 1.861790 
# 
# From -- ./inp_files/22432.got.cif
#   From: 2010.03.12/outbox.cif.g09.slc.cpg/sg57_12_cif.got.tgz:22432.got - 2010.04.16 15:48:40.
