data_PCOD8234336
_publ_section_title
;
Structure prediction by ZEFSAII (Michael W. Deem and Ramdas Pophale) SiO2 
 PCOD8234336
Probable space group: P B C M
;
_chemical_formula_sum "Si O2"
_cell_formula_units_Z 48
_cell_length_a 9.820076
_cell_length_b 29.222641
_cell_length_c 8.462498
_cell_angle_alpha 90.000000
_cell_angle_beta 90.000000
_cell_angle_gamma 90.000000
_cell_volume 2428.470827
_symmetry_space_group_name_H-M "P B C M"
_symmetry_group_IT_number 57
_symmetry_cell_setting 'orthorhombic'
loop_
_space_group_symop_operation_xyz
x,y,z
-x,-y,1/2+z
x,1/2-y,-z
-x,1/2+y,1/2-z
-x,-y,-z
x,y,1/2-z
-x,1/2+y,z
x,1/2-y,1/2+z
loop_
_atom_site_type_symbol
_atom_site_label
_atom_site_fract_x
_atom_site_fract_y
_atom_site_fract_z
Si Si1 0.140463 0.981197 0.437488
Si Si2 0.610589 0.966063 0.434808
Si Si3 0.786721 0.378188 0.433844
Si Si4 0.027030 0.798659 0.564593
Si Si5 0.486894 0.125979 0.065133
Si Si6 0.721594 0.701592 0.437029
O O1 0.157606 0.987642 0.250000
O O2 0.161104 0.928284 0.486555
O O3 0.244017 0.012476 0.533118
O O4 0.000000 0.000000 0.500000
O O5 0.587971 0.956719 0.250000
O O6 0.596345 0.919817 0.532443
O O7 0.500000 0.000000 0.500000
O O8 0.809822 0.371043 0.250000
O O9 0.872858 0.339641 0.521433
O O10 0.628199 0.372780 0.472178
O O11 0.081551 0.750000 0.500000
O O12 0.022052 0.794014 0.750000
O O13 0.874448 0.809024 0.498295
O O14 0.518382 0.131019 0.250000
O O15 0.388279 0.165532 0.999135
O O16 0.670426 0.750000 0.500000
O O17 0.722939 0.701012 0.250000
#
# Coordination Sequence:
#
# PCOD8234336 Si02
#       6
#     8   8   8   8   8   8
#     4  11  25  43  63  91 126 164 209 257 307 367
#     4  12  24  41  64  91 124 165 207 253 308 366
#     4  11  24  41  61  90 124 162 206 252 306 368
#     4  10  21  40  64  90 121 159 200 252 308 366
#     4  11  23  40  63  92 124 163 206 253 307 366
#     4   9  21  40  63  92 121 155 199 247 302 362
#
# _framework density 19.765525
#
# number of rings (size 3 to 8) (size 9 to 14) (size 15 to 20)
#    0.000    1.333    1.667    3.500    2.333    4.667 
#    0.000    1.667    0.000    0.000    0.000    0.000 
#    0.000    0.000    0.000    0.000    0.000    0.000 
#
# Total GULP energy -595316.014221 kJ/mol
# GULP energy per Si atom -12402.416963 kJ/mol
# Density = 1.972054 g / cm^3
# Si number density = 19.765525 Si / 1000 Ang^3
#
#
#
# Elastic Constant Matrix: (Units=GPa)
#
#
# Indices 1 2 3 4 5 6 
#
# 1 126.2796 71.5837 9.9269 0.0000 0.0000 0.0000
# 2 71.5837 150.5447 11.0951 0.0000 0.0000 0.0000
# 3 9.9269 11.0951 35.3546 0.0000 0.0000 0.0000
# 4 0.0000 0.0000 0.0000 32.1404 0.0000 0.0000
# 5 0.0000 0.0000 0.0000 0.0000 32.5725 0.0000
# 6 0.0000 0.0000 0.0000 0.0000 0.0000 44.0075
#
#
#
# Elastic Compliance Matrix: (Units=1/GPa)
#
#
# Indices 1 2 3 4 5 6 
#
# 1 0.010915 -0.005082 -0.001470 0.000000 0.000000 0.000000
# 2 -0.005082 0.009166 -0.001450 0.000000 0.000000 0.000000
# 3 -0.001470 -0.001450 0.029152 0.000000 0.000000 0.000000
# 4 0.000000 0.000000 0.000000 0.031113 0.000000 0.000000
# 5 0.000000 0.000000 0.000000 0.000000 0.030701 0.000000
# 6 0.000000 0.000000 0.000000 0.000000 0.000000 0.022723
#
#
# Mechanical properties :
#
#
# Convention : Reuss Voigt Hill
#
# Bulk Modulus (GPa) = 30.09262 55.26558 42.67910
# Shear Modulus (GPa) = 31.08474 36.38232 33.73353
#
# Velocity S-wave (km/s) = 3.97000 4.29499 4.13569
# Velocity P-wave (km/s) = 6.02265 7.25377 6.66669
#
# Compressibility (1/GPa) = 0.03323074
#
# Stress axis : x y z
#
# Youngs Moduli (GPa) = 91.61539 109.10154 34.30239
#
# Poissons Ratio (x) = 0.55443 0.05042
# Poissons Ratio (y) = 0.46557 0.04972
# Poissons Ratio (z) = 0.13467 0.15815
#
# Static dielectric constant tensor:
#      x y z
#    x 3.681680 0.000000 0.000000 
#    y 0.000000 3.639500 0.000000 
#    z 0.000000 0.000000 3.554820 
# 
# 
# High freq. dielectric constant tensor:
#      x y z
#    x 1.780950 0.000000 0.000000 
#    y 0.000000 1.782090 0.000000 
#    z 0.000000 0.000000 1.777270 
# 
# From -- ./inp_files/2076.got.cif
#   From: 2010.03.12/outbox.cif.g09.slc.cpg/sg57_2_cif.got.tgz:2076.got - 2010.04.16 15:48:40.
