data_PCOD8234007
_publ_section_title
;
Structure prediction by ZEFSAII (Michael W. Deem and Ramdas Pophale) SiO2 
 PCOD8234007
Probable space group: P B C M
;
_chemical_formula_sum "Si O2"
_cell_formula_units_Z 64
_cell_length_a 14.801497
_cell_length_b 12.099094
_cell_length_c 17.746555
_cell_angle_alpha 90.000000
_cell_angle_beta 90.000000
_cell_angle_gamma 90.000000
_cell_volume 3178.136541
_symmetry_space_group_name_H-M "P B C M"
_symmetry_group_IT_number 57
_symmetry_cell_setting 'orthorhombic'
loop_
_space_group_symop_operation_xyz
x,y,z
-x,-y,1/2+z
x,1/2-y,-z
-x,1/2+y,1/2-z
-x,-y,-z
x,y,1/2-z
-x,1/2+y,z
x,1/2-y,1/2+z
loop_
_atom_site_type_symbol
_atom_site_label
_atom_site_fract_x
_atom_site_fract_y
_atom_site_fract_z
Si Si1 0.253660 0.138217 0.660649
Si Si2 0.869667 0.588712 0.534303
Si Si3 0.173392 0.571410 0.833302
Si Si4 0.446166 0.504917 0.921896
Si Si5 0.266381 0.372039 0.906109
Si Si6 0.384215 0.944356 0.837837
Si Si7 0.644897 0.198291 0.837346
Si Si8 0.074081 0.633098 0.524815
O O1 0.239519 0.133813 0.750000
O O2 0.157207 0.116634 0.620250
O O3 0.290343 0.257780 0.635477
O O4 0.322672 0.044092 0.629495
O O5 0.795466 0.645174 0.479855
O O6 0.873260 0.456219 0.525802
O O7 0.967014 0.635755 0.511610
O O8 0.131978 0.573241 0.750000
O O9 0.211936 0.449306 0.848303
O O10 0.252559 0.659671 0.842620
O O11 0.092135 0.605270 0.887986
O O12 0.360032 0.426759 0.930811
O O13 0.511162 0.459412 0.857149
O O14 0.416944 0.627457 0.894808
O O15 0.500000 0.500000 0.000000
O O16 0.371335 0.947939 0.750000
O O17 0.354655 0.823915 0.867679
O O18 0.610044 0.188332 0.750000
O O19 0.115076 0.750000 0.500000
#
# Coordination Sequence:
#
# PCOD8234007 Si02
#       8
#     8   8   8   8   8   8   8   8
#     4  11  23  38  61  89 119 157 201 248 301 358
#     4  10  22  41  60  86 123 158 197 242 301 363
#     4   9  19  37  62  91 117 154 203 244 292 353
#     4  11  23  38  59  89 113 149 203 252 292 343
#     4  10  21  40  63  84 120 164 199 243 301 361
#     4  10  23  39  57  83 118 157 196 240 299 355
#     4   9  20  40  59  80 119 159 189 240 300 355
#     4  10  21  37  62  90 119 159 197 241 300 364
#
# _framework density 20.137588000000001
#
# number of rings (size 3 to 8) (size 9 to 14) (size 15 to 20)
#    0.000    2.000    0.000    2.625    3.500    2.500 
#    0.000    0.000    0.000    0.750    0.000    0.000 
#    0.000    0.000    0.000    0.000    0.000    0.000 
#
# Total GULP energy -793551.891403 kJ/mol
# GULP energy per Si atom -12399.248303 kJ/mol
# Density = 2.009175 g / cm^3
# Si number density = 20.137588 Si / 1000 Ang^3
#
#
#
# Elastic Constant Matrix: (Units=GPa)
#
#
# Indices 1 2 3 4 5 6 
#
# 1 69.5287 36.2599 36.9344 0.0000 0.0000 0.0000
# 2 36.2599 162.6148 56.3662 0.0000 0.0000 0.0000
# 3 36.9344 56.3662 90.7801 0.0000 0.0000 0.0000
# 4 0.0000 0.0000 0.0000 27.1791 0.0000 0.0000
# 5 0.0000 0.0000 0.0000 0.0000 32.2363 0.0000
# 6 0.0000 0.0000 0.0000 0.0000 0.0000 17.4244
#
#
#
# Elastic Compliance Matrix: (Units=1/GPa)
#
#
# Indices 1 2 3 4 5 6 
#
# 1 0.018829 -0.001966 -0.006440 0.000000 0.000000 0.000000
# 2 -0.001966 0.008041 -0.004193 0.000000 0.000000 0.000000
# 3 -0.006440 -0.004193 0.016239 0.000000 0.000000 0.000000
# 4 0.000000 0.000000 0.000000 0.036793 0.000000 0.000000
# 5 0.000000 0.000000 0.000000 0.000000 0.031021 0.000000
# 6 0.000000 0.000000 0.000000 0.000000 0.000000 0.057391
#
#
# Mechanical properties :
#
#
# Convention : Reuss Voigt Hill
#
# Bulk Modulus (GPa) = 55.83051 64.67161 60.25106
# Shear Modulus (GPa) = 25.06488 28.25882 26.66185
#
# Velocity S-wave (km/s) = 3.53183 3.75011 3.64261
# Velocity P-wave (km/s) = 6.66457 7.13693 6.90479
#
# Compressibility (1/GPa) = 0.01791135
#
# Stress axis : x y z
#
# Youngs Moduli (GPa) = 53.10993 124.35771 61.57971
#
# Poissons Ratio (x) = 0.24452 0.39656
# Poissons Ratio (y) = 0.10443 0.25820
# Poissons Ratio (z) = 0.34201 0.52142
#
# Static dielectric constant tensor:
#      x y z
#    x 3.562620 0.000000 0.000000 
#    y 0.000000 3.931910 0.000000 
#    z 0.000000 0.000000 3.679560 
# 
# 
# High freq. dielectric constant tensor:
#      x y z
#    x 1.776480 0.000000 0.000000 
#    y 0.000000 1.802490 0.000000 
#    z 0.000000 0.000000 1.782870 
# 
# From -- ./inp_files/22695.got.cif
#   From: 2010.03.12/outbox.cif.g09.slc.cpg/sg57_12_cif.got.tgz:22695.got - 2010.04.16 15:48:40.
