data_PCOD8234507
_publ_section_title
;
Structure prediction by ZEFSAII (Michael W. Deem and Ramdas Pophale) SiO2 
 PCOD8234507
Probable space group: P B C M
;
_chemical_formula_sum "Si O2"
_cell_formula_units_Z 56
_cell_length_a 16.974036
_cell_length_b 18.400285
_cell_length_c 9.203921
_cell_angle_alpha 90.000000
_cell_angle_beta 90.000000
_cell_angle_gamma 90.000000
_cell_volume 2874.633955
_symmetry_space_group_name_H-M "P B C M"
_symmetry_group_IT_number 57
_symmetry_cell_setting 'orthorhombic'
loop_
_space_group_symop_operation_xyz
x,y,z
-x,-y,1/2+z
x,1/2-y,-z
-x,1/2+y,1/2-z
-x,-y,-z
x,y,1/2-z
-x,1/2+y,z
x,1/2-y,1/2+z
loop_
_atom_site_type_symbol
_atom_site_label
_atom_site_fract_x
_atom_site_fract_y
_atom_site_fract_z
Si Si1 0.611354 0.077529 0.415345
Si Si2 0.813913 0.545786 0.083448
Si Si3 0.122698 0.612011 0.914669
Si Si4 0.282320 0.679973 0.915857
Si Si5 0.015462 0.425787 0.582727
Si Si6 0.462864 0.175668 0.420880
Si Si7 0.341555 0.417574 0.080957
O O1 0.636300 0.094347 0.250000
O O2 0.678161 0.108086 0.520769
O O3 0.528230 0.114361 0.451913
O O4 0.608086 0.991263 0.442839
O O5 0.783443 0.548371 0.250000
O O6 0.836815 0.463869 0.039451
O O7 0.892519 0.596205 0.064761
O O8 0.747335 0.574620 0.975936
O O9 0.092608 0.606046 0.750000
O O10 0.187989 0.674557 0.932692
O O11 0.046457 0.631856 0.013605
O O12 0.308329 0.687988 0.750000
O O13 0.314325 0.750000 0.000000
O O14 0.994013 0.436371 0.750000
O O15 0.000000 0.500000 0.500000
O O16 0.488559 0.250000 0.500000
O O17 0.451120 0.189881 0.250000
O O18 0.381994 0.147034 0.490938
O O19 0.338662 0.396067 0.250000
#
# Coordination Sequence:
#
# PCOD8234507 Si02
#       7
#     8   8   8   8   8   8   8
#     4  10  22  39  59  86 114 145 188 233 280 337
#     4   9  17  32  51  78 111 143 180 225 281 330
#     4   9  18  32  49  73 107 145 186 229 278 329
#     4  11  22  35  53  78 112 153 192 235 286 342
#     4   9  17  28  47  74 106 141 179 223 272 324
#     4  11  24  42  61  82 113 149 187 232 282 338
#     4  11  22  36  59  89 116 145 187 233 282 336
#
# _framework density 19.480740999999998
#
# number of rings (size 3 to 8) (size 9 to 14) (size 15 to 20)
#    0.000    2.000    1.429    3.429    0.000    6.857 
#    0.000    0.000    0.000    0.857    0.000    2.000 
#    0.000    0.000    0.000    0.000    0.000    0.000 
#
# Total GULP energy -694325.245084 kJ/mol
# GULP energy per Si atom -12398.665091 kJ/mol
# Density = 1.943640 g / cm^3
# Si number density = 19.480741 Si / 1000 Ang^3
#
#
#
# Elastic Constant Matrix: (Units=GPa)
#
#
# Indices 1 2 3 4 5 6 
#
# 1 94.1291 16.0626 57.8305 0.0000 0.0000 0.0000
# 2 16.0626 39.0903 31.4982 0.0000 0.0000 0.0000
# 3 57.8305 31.4982 124.1776 0.0000 0.0000 0.0000
# 4 0.0000 0.0000 0.0000 26.1568 0.0000 0.0000
# 5 0.0000 0.0000 0.0000 0.0000 37.1525 0.0000
# 6 0.0000 0.0000 0.0000 0.0000 0.0000 13.6076
#
#
#
# Elastic Compliance Matrix: (Units=1/GPa)
#
#
# Indices 1 2 3 4 5 6 
#
# 1 0.014895 -0.000667 -0.006768 0.000000 0.000000 0.000000
# 2 -0.000667 0.032184 -0.007853 0.000000 0.000000 0.000000
# 3 -0.006768 -0.007853 0.013197 0.000000 0.000000 0.000000
# 4 0.000000 0.000000 0.000000 0.038231 0.000000 0.000000
# 5 0.000000 0.000000 0.000000 0.000000 0.026916 0.000000
# 6 0.000000 0.000000 0.000000 0.000000 0.000000 0.073488
#
#
# Mechanical properties :
#
#
# Convention : Reuss Voigt Hill
#
# Bulk Modulus (GPa) = 33.66994 52.01996 42.84495
# Shear Modulus (GPa) = 20.88674 25.51711 23.20192
#
# Velocity S-wave (km/s) = 3.27796 3.62313 3.45486
# Velocity P-wave (km/s) = 5.62565 6.65312 6.16084
#
# Compressibility (1/GPa) = 0.02970008
#
# Stress axis : x y z
#
# Youngs Moduli (GPa) = 67.13453 31.07175 75.77726
#
# Poissons Ratio (x) = 0.02074 0.51283
# Poissons Ratio (y) = 0.04481 0.59505
# Poissons Ratio (z) = 0.45434 0.24400
#
# Static dielectric constant tensor:
#      x y z
#    x 3.818740 0.000000 0.000000 
#    y 0.000000 3.283950 0.000000 
#    z 0.000000 0.000000 3.689520 
# 
# 
# High freq. dielectric constant tensor:
#      x y z
#    x 1.763930 0.000000 0.000000 
#    y 0.000000 1.719480 0.000000 
#    z 0.000000 0.000000 1.768690 
# 
# From -- ./inp_files/5171.got.cif
#   From: 2010.03.12/outbox.cif.g09.slc.cpg/sg57_3_cif.got.tgz:5171.got - 2010.04.16 15:48:40.
