data_PCOD8234929
_publ_section_title
;
Structure prediction by ZEFSAII (Michael W. Deem and Ramdas Pophale) SiO2 
 PCOD8234929
Probable space group: P B C M
;
_chemical_formula_sum "Si O2"
_cell_formula_units_Z 64
_cell_length_a 13.659399
_cell_length_b 10.095564
_cell_length_c 26.548769
_cell_angle_alpha 90.000000
_cell_angle_beta 90.000000
_cell_angle_gamma 90.000000
_cell_volume 3661.057638
_symmetry_space_group_name_H-M "P B C M"
_symmetry_group_IT_number 57
_symmetry_cell_setting 'orthorhombic'
loop_
_space_group_symop_operation_xyz
x,y,z
-x,-y,1/2+z
x,1/2-y,-z
-x,1/2+y,1/2-z
-x,-y,-z
x,y,1/2-z
-x,1/2+y,z
x,1/2-y,1/2+z
loop_
_atom_site_type_symbol
_atom_site_label
_atom_site_fract_x
_atom_site_fract_y
_atom_site_fract_z
Si Si1 0.796549 0.881627 0.809251
Si Si2 0.889514 0.627122 0.968544
Si Si3 0.415345 0.283935 0.690056
Si Si4 0.901804 0.855302 0.145606
Si Si5 0.793200 0.403937 0.808638
Si Si6 0.877437 0.377056 0.028264
Si Si7 0.867642 0.359791 0.142098
Si Si8 0.422186 0.514463 0.309740
O O1 0.807234 0.866289 0.750000
O O2 0.690920 0.832044 0.828137
O O3 0.879771 0.792851 0.835445
O O4 0.810973 0.034434 0.823768
O O5 0.857330 0.630204 0.910426
O O6 0.006006 0.626728 0.970323
O O7 0.847416 0.750000 0.000000
O O8 0.841860 0.501018 0.995573
O O9 0.420478 0.283506 0.750000
O O10 0.494974 0.387436 0.668090
O O11 0.435846 0.135418 0.669131
O O12 0.016952 0.879193 0.147777
O O13 0.852241 0.961068 0.182389
O O14 0.800237 0.366514 0.750000
O O15 0.838751 0.287147 0.841515
O O16 0.681992 0.426431 0.826054
O O17 0.835000 0.382946 0.084531
O O18 0.834417 0.250000 0.000000
O O19 0.429235 0.507976 0.250000
#
# Coordination Sequence:
#
# PCOD8234929 Si02
#       8
#     8   8   8   8   8   8   8   8
#     4  11  22  35  49  72 109 143 174 211 243 291
#     4   9  17  30  51  71  91 124 167 220 268 297
#     4   9  18  33  53  73  95 128 168 216 266 297
#     4  11  21  35  51  71 104 144 179 209 247 297
#     4  11  22  35  49  72 107 143 178 210 242 295
#     4   9  17  32  49  69  95 124 167 221 267 292
#     4  11  23  33  49  75 104 144 181 206 242 302
#     4   9  18  33  53  73  95 127 169 218 265 297
#
# _framework density 17.481286999999998
#
# number of rings (size 3 to 8) (size 9 to 14) (size 15 to 20)
#    0.000    2.000    1.250    3.000    1.750    7.000 
#    0.000    0.000    0.000    0.000    0.000    0.000 
#    0.000   20.000    0.000    0.000    0.000    0.000 
#
# Total GULP energy -793666.260812 kJ/mol
# GULP energy per Si atom -12401.035325 kJ/mol
# Density = 1.744150 g / cm^3
# Si number density = 17.481287 Si / 1000 Ang^3
#
#
#
# Elastic Constant Matrix: (Units=GPa)
#
#
# Indices 1 2 3 4 5 6 
#
# 1 63.2525 28.9013 31.6410 0.0000 0.0000 0.0000
# 2 28.9013 107.3465 29.3927 0.0000 0.0000 0.0000
# 3 31.6410 29.3927 63.6975 0.0000 0.0000 0.0000
# 4 0.0000 0.0000 0.0000 28.8500 0.0000 0.0000
# 5 0.0000 0.0000 0.0000 0.0000 1.3967 0.0000
# 6 0.0000 0.0000 0.0000 0.0000 0.0000 27.0244
#
#
#
# Elastic Compliance Matrix: (Units=1/GPa)
#
#
# Indices 1 2 3 4 5 6 
#
# 1 0.022049 -0.003362 -0.009401 0.000000 0.000000 0.000000
# 2 -0.003362 0.011176 -0.003487 0.000000 0.000000 0.000000
# 3 -0.009401 -0.003487 0.021978 0.000000 0.000000 0.000000
# 4 0.000000 0.000000 0.000000 0.034662 0.000000 0.000000
# 5 0.000000 0.000000 0.000000 0.000000 0.715985 0.000000
# 6 0.000000 0.000000 0.000000 0.000000 0.000000 0.037004
#
#
# Mechanical properties :
#
#
# Convention : Reuss Voigt Hill
#
# Bulk Modulus (GPa) = 44.04826 46.01850 45.03338
# Shear Modulus (GPa) = 5.66303 21.07830 13.37066
#
# Velocity S-wave (km/s) = 1.80181 3.47618 2.76860
# Velocity P-wave (km/s) = 5.43882 6.51869 6.00309
#
# Compressibility (1/GPa) = 0.02270237
#
# Stress axis : x y z
#
# Youngs Moduli (GPa) = 45.35451 89.48121 45.50013
#
# Poissons Ratio (x) = 0.30085 0.42774
# Poissons Ratio (y) = 0.15249 0.15865
# Poissons Ratio (z) = 0.42638 0.31200
#
# Static dielectric constant tensor:
#      x y z
#    x 3.077410 0.000000 0.000000 
#    y 0.000000 3.479470 0.000000 
#    z 0.000000 0.000000 3.118800 
# 
# 
# High freq. dielectric constant tensor:
#      x y z
#    x 1.643460 0.000000 0.000000 
#    y 0.000000 1.698290 0.000000 
#    z 0.000000 0.000000 1.652360 
# 
# From -- ./inp_files/27479.got.cif
#   From: 2010.03.12/outbox.cif.g09.slc.cpg/sg57_14_cif.got.tgz:27479.got - 2010.04.16 15:48:40.
