data_PCOD8234745
_publ_section_title
;
Structure prediction by ZEFSAII (Michael W. Deem and Ramdas Pophale) SiO2 
 PCOD8234745
Probable space group: P B C M
;
_chemical_formula_sum "Si O2"
_cell_formula_units_Z 48
_cell_length_a 9.692225
_cell_length_b 27.491362
_cell_length_c 8.905575
_cell_angle_alpha 90.000000
_cell_angle_beta 90.000000
_cell_angle_gamma 90.000000
_cell_volume 2372.912420
_symmetry_space_group_name_H-M "P B C M"
_symmetry_group_IT_number 57
_symmetry_cell_setting 'orthorhombic'
loop_
_space_group_symop_operation_xyz
x,y,z
-x,-y,1/2+z
x,1/2-y,-z
-x,1/2+y,1/2-z
-x,-y,-z
x,y,1/2-z
-x,1/2+y,z
x,1/2-y,1/2+z
loop_
_atom_site_type_symbol
_atom_site_label
_atom_site_fract_x
_atom_site_fract_y
_atom_site_fract_z
Si Si1 0.404111 0.460704 0.576494
Si Si2 0.089081 0.042468 0.072075
Si Si3 0.969775 0.364264 0.080437
Si Si4 0.773018 0.800955 0.420372
Si Si5 0.537670 0.852195 0.923982
Si Si6 0.284829 0.698514 0.927277
O O1 0.500000 0.500000 0.500000
O O2 0.395026 0.473904 0.750000
O O3 0.247310 0.460423 0.511836
O O4 0.481309 0.409572 0.550274
O O5 0.085003 0.037648 0.250000
O O6 0.020204 0.093524 0.028820
O O7 0.000000 0.000000 0.000000
O O8 0.959653 0.385255 0.250000
O O9 0.069728 0.317883 0.076514
O O10 0.823738 0.343155 0.024496
O O11 0.756751 0.750000 0.500000
O O12 0.717506 0.797179 0.250000
O O13 0.688845 0.840459 0.514765
O O14 0.524960 0.838198 0.750000
O O15 0.432049 0.819891 0.017413
O O16 0.286386 0.705831 0.750000
O O17 0.246364 0.750000 0.000000
#
# Coordination Sequence:
#
# PCOD8234745 Si02
#       6
#     8   8   8   8   8   8
#     4  10  24  43  65  93 125 162 206 255 309 370
#     4  11  24  43  66  95 127 163 206 255 311 372
#     4  10  23  42  64  92 125 162 207 255 309 368
#     4  11  22  38  63  92 122 161 203 252 310 366
#     4  11  23  42  63  90 125 163 209 255 306 367
#     4  11  24  42  63  92 127 166 210 257 309 367
#
# _framework density 20.228307000000001
#
# number of rings (size 3 to 8) (size 9 to 14) (size 15 to 20)
#    0.000    1.333    1.667    3.000    2.333    4.667 
#    0.000    0.000    0.000    0.000    0.000    0.000 
#    0.000    0.000    0.000    0.000    0.000    0.000 
#
# Total GULP energy -595357.073444 kJ/mol
# GULP energy per Si atom -12403.272363 kJ/mol
# Density = 2.018227 g / cm^3
# Si number density = 20.228307 Si / 1000 Ang^3
#
#
#
# Elastic Constant Matrix: (Units=GPa)
#
#
# Indices 1 2 3 4 5 6 
#
# 1 88.8951 31.6737 34.8648 0.0000 0.0000 0.0000
# 2 31.6737 104.0427 58.6620 0.0000 0.0000 0.0000
# 3 34.8648 58.6620 85.4137 0.0000 0.0000 0.0000
# 4 0.0000 0.0000 0.0000 40.6319 0.0000 0.0000
# 5 0.0000 0.0000 0.0000 0.0000 30.0702 0.0000
# 6 0.0000 0.0000 0.0000 0.0000 0.0000 37.8886
#
#
#
# Elastic Compliance Matrix: (Units=1/GPa)
#
#
# Indices 1 2 3 4 5 6 
#
# 1 0.013564 -0.001644 -0.004407 0.000000 0.000000 0.000000
# 2 -0.001644 0.015885 -0.010238 0.000000 0.000000 0.000000
# 3 -0.004407 -0.010238 0.020538 0.000000 0.000000 0.000000
# 4 0.000000 0.000000 0.000000 0.024611 0.000000 0.000000
# 5 0.000000 0.000000 0.000000 0.000000 0.033256 0.000000
# 6 0.000000 0.000000 0.000000 0.000000 0.000000 0.026393
#
#
# Mechanical properties :
#
#
# Convention : Reuss Voigt Hill
#
# Bulk Modulus (GPa) = 57.44841 58.75029 58.09935
# Shear Modulus (GPa) = 28.96390 31.92820 30.44605
#
# Velocity S-wave (km/s) = 3.78808 3.97721 3.88380
# Velocity P-wave (km/s) = 6.89887 7.08502 6.99257
#
# Compressibility (1/GPa) = 0.01740692
#
# Stress axis : x y z
#
# Youngs Moduli (GPa) = 73.72684 62.95367 48.68921
#
# Poissons Ratio (x) = 0.10351 0.21458
# Poissons Ratio (y) = 0.12123 0.49850
# Poissons Ratio (z) = 0.32493 0.64455
#
# Static dielectric constant tensor:
#      x y z
#    x 4.074960 0.000000 0.000000 
#    y 0.000000 3.632600 0.000000 
#    z 0.000000 0.000000 4.244860 
# 
# 
# High freq. dielectric constant tensor:
#      x y z
#    x 1.799720 0.000000 0.000000 
#    y 0.000000 1.799630 0.000000 
#    z 0.000000 0.000000 1.794630 
# 
# From -- ./inp_files/2130.got.cif
#   From: 2010.03.12/outbox.cif.g09.slc.cpg/sg57_2_cif.got.tgz:2130.got - 2010.04.16 15:48:40.
