data_PCOD8234719
_publ_section_title
;
Structure prediction by ZEFSAII (Michael W. Deem and Ramdas Pophale) SiO2 
 PCOD8234719
Probable space group: P B C M
;
_chemical_formula_sum "Si O2"
_cell_formula_units_Z 56
_cell_length_a 17.184278
_cell_length_b 10.584252
_cell_length_c 14.498193
_cell_angle_alpha 90.000000
_cell_angle_beta 90.000000
_cell_angle_gamma 90.000000
_cell_volume 2636.970905
_symmetry_space_group_name_H-M "P B C M"
_symmetry_group_IT_number 57
_symmetry_cell_setting 'orthorhombic'
loop_
_space_group_symop_operation_xyz
x,y,z
-x,-y,1/2+z
x,1/2-y,-z
-x,1/2+y,1/2-z
-x,-y,-z
x,y,1/2-z
-x,1/2+y,z
x,1/2-y,1/2+z
loop_
_atom_site_type_symbol
_atom_site_label
_atom_site_fract_x
_atom_site_fract_y
_atom_site_fract_z
Si Si1 0.193995 0.091137 0.077288
Si Si2 0.565171 0.023517 0.646282
Si Si3 0.915757 0.568653 0.250000
Si Si4 0.949197 0.882665 0.041042
Si Si5 0.347393 0.274116 0.601570
Si Si6 0.609753 0.510682 0.850801
Si Si7 0.689777 0.387173 0.481221
Si Si8 0.980562 0.663445 0.750000
O O1 0.135781 0.089620 0.161501
O O2 0.254680 0.204743 0.092366
O O3 0.242416 0.961839 0.070324
O O4 0.141309 0.107089 0.986713
O O5 0.561999 0.078659 0.750000
O O6 0.477771 0.004339 0.608906
O O7 0.612106 0.121495 0.581951
O O8 0.610290 0.891843 0.647287
O O9 0.941030 0.421249 0.250000
O O10 0.983163 0.681117 0.250000
O O11 0.942842 0.881521 0.152709
O O12 0.983908 0.750000 0.000000
O O13 0.000000 0.000000 0.000000
O O14 0.382819 0.250000 0.500000
O O15 0.364268 0.154755 0.664769
O O16 0.614132 0.444137 0.750000
O O17 0.669662 0.449746 0.921343
O O18 0.723447 0.250000 0.500000
#
# Coordination Sequence:
#
# PCOD8234719 Si02
#       8
#     8   8   4   8   8   8   8   4
#     4  11  25  46  68 101 137 179 224 281 342 410
#     4  10  23  40  64  94 126 176 227 286 353 400
#     4  12  26  46  80 104 142 180 232 280 350 422
#     4  12  24  45  74 104 145 178 227 285 340 416
#     4  11  22  40  68  95 129 174 230 274 344 408
#     4  11  24  40  63  96 131 170 229 292 341 407
#     4  11  26  44  64  91 135 180 228 275 349 409
#     4  12  24  46  74 116 134 188 230 278 354 424
#
# _framework density 21.236487
#
# number of rings (size 3 to 8) (size 9 to 14) (size 15 to 20)
#    0.000    0.857    5.714    1.286    7.000    1.143 
#    3.857    0.000    0.000    0.000    0.000    0.000 
#    0.000    0.000    0.000    0.000    0.000    0.000 
#
# Total GULP energy -693982.709674 kJ/mol
# GULP energy per Si atom -12392.548387 kJ/mol
# Density = 2.118815 g / cm^3
# Si number density = 21.236487 Si / 1000 Ang^3
#
#
#
# Elastic Constant Matrix: (Units=GPa)
#
#
# Indices 1 2 3 4 5 6 
#
# 1 99.6026 41.5176 19.7785 0.0000 0.0000 0.0000
# 2 41.5176 107.9761 19.3074 0.0000 0.0000 0.0000
# 3 19.7785 19.3074 118.8331 0.0000 0.0000 0.0000
# 4 0.0000 0.0000 0.0000 15.9919 0.0000 0.0000
# 5 0.0000 0.0000 0.0000 0.0000 24.1471 0.0000
# 6 0.0000 0.0000 0.0000 0.0000 0.0000 22.8752
#
#
#
# Elastic Compliance Matrix: (Units=1/GPa)
#
#
# Indices 1 2 3 4 5 6 
#
# 1 0.012148 -0.004439 -0.001301 0.000000 0.000000 0.000000
# 2 -0.004439 0.011160 -0.001074 0.000000 0.000000 0.000000
# 3 -0.001301 -0.001074 0.008806 0.000000 0.000000 0.000000
# 4 0.000000 0.000000 0.000000 0.062532 0.000000 0.000000
# 5 0.000000 0.000000 0.000000 0.000000 0.041413 0.000000
# 6 0.000000 0.000000 0.000000 0.000000 0.000000 0.043715
#
#
# Mechanical properties :
#
#
# Convention : Reuss Voigt Hill
#
# Bulk Modulus (GPa) = 54.09201 54.17986 54.13594
# Shear Modulus (GPa) = 25.05457 28.99007 27.02232
#
# Velocity S-wave (km/s) = 3.43853 3.69874 3.57101
# Velocity P-wave (km/s) = 6.42582 6.61883 6.52304
#
# Compressibility (1/GPa) = 0.01848702
#
# Stress axis : x y z
#
# Youngs Moduli (GPa) = 82.31593 89.60514 113.55575
#
# Poissons Ratio (x) = 0.39771 0.14772
# Poissons Ratio (y) = 0.36536 0.12201
# Poissons Ratio (z) = 0.10708 0.09628
#
# Static dielectric constant tensor:
#      x y z
#    x 3.795580 0.000000 0.000000 
#    y 0.000000 4.083050 0.000000 
#    z 0.000000 0.000000 4.225950 
# 
# 
# High freq. dielectric constant tensor:
#      x y z
#    x 1.818660 0.000000 0.000000 
#    y 0.000000 1.827600 0.000000 
#    z 0.000000 0.000000 1.854370 
# 
# From -- ./inp_files/18577.got.cif
#   From: 2010.03.12/outbox.cif.g09.slc.cpg/sg57_10_cif.got.tgz:18577.got - 2010.04.16 15:48:40.
