data_PCOD8234980
_publ_section_title
;
Structure prediction by ZEFSAII (Michael W. Deem and Ramdas Pophale) SiO2 
 PCOD8234980
Probable space group: P B C M
;
_chemical_formula_sum "Si O2"
_cell_formula_units_Z 48
_cell_length_a 13.949581
_cell_length_b 16.772581
_cell_length_c 9.695472
_cell_angle_alpha 90.000000
_cell_angle_beta 90.000000
_cell_angle_gamma 90.000000
_cell_volume 2268.454211
_symmetry_space_group_name_H-M "P B C M"
_symmetry_group_IT_number 57
_symmetry_cell_setting 'orthorhombic'
loop_
_space_group_symop_operation_xyz
x,y,z
-x,-y,1/2+z
x,1/2-y,-z
-x,1/2+y,1/2-z
-x,-y,-z
x,y,1/2-z
-x,1/2+y,z
x,1/2-y,1/2+z
loop_
_atom_site_type_symbol
_atom_site_label
_atom_site_fract_x
_atom_site_fract_y
_atom_site_fract_z
Si Si1 0.102359 0.095685 0.007739
Si Si2 0.252636 0.668928 0.086890
Si Si3 0.775986 0.877524 0.250000
Si Si4 0.897785 0.418813 0.405713
Si Si5 0.596730 0.828809 0.750000
Si Si6 0.559880 0.859438 0.250000
Si Si7 0.811879 0.809840 0.750000
Si Si8 0.460998 0.844140 0.983116
O O1 0.179490 0.084102 0.886636
O O2 0.000545 0.119669 0.941622
O O3 0.132025 0.165782 0.112182
O O4 0.094458 0.014162 0.092734
O O5 0.232255 0.683760 0.250000
O O6 0.356879 0.627515 0.069095
O O7 0.245483 0.750000 0.000000
O O8 0.176372 0.608866 0.021948
O O9 0.663669 0.900807 0.250000
O O10 0.797763 0.784024 0.250000
O O11 0.868192 0.392471 0.250000
O O12 0.580266 0.734458 0.750000
O O13 0.707952 0.852342 0.750000
O O14 0.545913 0.868272 0.880640
O O15 0.493069 0.886378 0.376354
O O16 0.454715 0.750000 0.000000
#
# Coordination Sequence:
#
# PCOD8234980 Si02
#       8
#     8   8   4   8   4   4   4   8
#     4  11  24  43  66  90 124 168 212 250 316 385
#     4  11  24  39  65  97 126 159 210 270 316 360
#     4  11  22  39  63  99 130 157 206 262 315 366
#     4  11  25  45  66  87 123 171 217 255 309 385
#     4   9  16  32  53  85 125 159 200 239 304 370
#     4   9  18  30  55  87 123 165 196 243 304 372
#     4  11  22  37  65  99 128 161 200 262 315 368
#     4   9  17  31  54  85 123 161 202 245 301 370
#
# _framework density 21.159783999999998
#
# number of rings (size 3 to 8) (size 9 to 14) (size 15 to 20)
#    0.000    1.667    2.500    2.000    7.000    4.000 
#    0.000    0.000    0.000    6.000    0.000    0.000 
#    0.000    0.000    0.000    0.000    0.000    0.000 
#
# Total GULP energy -595166.335948 kJ/mol
# GULP energy per Si atom -12399.298666 kJ/mol
# Density = 2.111162 g / cm^3
# Si number density = 21.159784 Si / 1000 Ang^3
#
#
#
# Elastic Constant Matrix: (Units=GPa)
#
#
# Indices 1 2 3 4 5 6 
#
# 1 134.5307 18.0703 58.8960 0.0000 0.0000 0.0000
# 2 18.0703 29.3503 11.4153 0.0000 0.0000 0.0000
# 3 58.8960 11.4153 176.1671 0.0000 0.0000 0.0000
# 4 0.0000 0.0000 0.0000 24.4631 0.0000 0.0000
# 5 0.0000 0.0000 0.0000 0.0000 42.2153 0.0000
# 6 0.0000 0.0000 0.0000 0.0000 0.0000 4.0493
#
#
#
# Elastic Compliance Matrix: (Units=1/GPa)
#
#
# Indices 1 2 3 4 5 6 
#
# 1 0.009282 -0.004624 -0.002803 0.000000 0.000000 0.000000
# 2 -0.004624 0.037256 -0.000868 0.000000 0.000000 0.000000
# 3 -0.002803 -0.000868 0.006670 0.000000 0.000000 0.000000
# 4 0.000000 0.000000 0.000000 0.040878 0.000000 0.000000
# 5 0.000000 0.000000 0.000000 0.000000 0.023688 0.000000
# 6 0.000000 0.000000 0.000000 0.000000 0.000000 0.246959
#
#
# Mechanical properties :
#
#
# Convention : Reuss Voigt Hill
#
# Bulk Modulus (GPa) = 27.31053 57.42350 42.36702
# Shear Modulus (GPa) = 12.70554 30.92329 21.81441
#
# Velocity S-wave (km/s) = 2.45308 3.82700 3.21430
# Velocity P-wave (km/s) = 4.57802 6.83556 5.81735
#
# Compressibility (1/GPa) = 0.03661591
#
# Stress axis : x y z
#
# Youngs Moduli (GPa) = 107.73927 26.84147 149.92694
#
# Poissons Ratio (x) = 0.12412 0.42031
# Poissons Ratio (y) = 0.49820 0.13016
# Poissons Ratio (z) = 0.30204 0.02330
#
# Static dielectric constant tensor:
#      x y z
#    x 4.087680 0.000000 0.000000 
#    y 0.000000 3.260750 0.000000 
#    z 0.000000 0.000000 4.079160 
# 
# 
# High freq. dielectric constant tensor:
#      x y z
#    x 1.842800 0.000000 0.000000 
#    y 0.000000 1.782060 0.000000 
#    z 0.000000 0.000000 1.849340 
# 
# From -- ./inp_files/4784.got.cif
#   From: 2010.03.12/outbox.cif.g09.slc.cpg/sg57_3_cif.got.tgz:4784.got - 2010.04.16 15:48:40.
