data_PCOD8234084
_publ_section_title
;
Structure prediction by ZEFSAII (Michael W. Deem and Ramdas Pophale) SiO2 
 PCOD8234084
Probable space group: P B C M
;
_chemical_formula_sum "Si O2"
_cell_formula_units_Z 64
_cell_length_a 24.448457
_cell_length_b 8.905652
_cell_length_c 14.975470
_cell_angle_alpha 90.000000
_cell_angle_beta 90.000000
_cell_angle_gamma 90.000000
_cell_volume 3260.600846
_symmetry_space_group_name_H-M "P B C M"
_symmetry_group_IT_number 57
_symmetry_cell_setting 'orthorhombic'
loop_
_space_group_symop_operation_xyz
x,y,z
-x,-y,1/2+z
x,1/2-y,-z
-x,1/2+y,1/2-z
-x,-y,-z
x,y,1/2-z
-x,1/2+y,z
x,1/2-y,1/2+z
loop_
_atom_site_type_symbol
_atom_site_label
_atom_site_fract_x
_atom_site_fract_y
_atom_site_fract_z
Si Si1 0.442624 0.074706 0.646558
Si Si2 0.369283 0.570651 0.000044
Si Si3 0.946550 0.581209 0.643798
Si Si4 0.163787 0.927666 0.351174
Si Si5 0.946455 0.581853 0.143798
Si Si6 0.836304 0.072894 0.148828
Si Si7 0.557454 0.574633 0.146558
Si Si8 0.245602 0.572225 0.499943
O O1 0.428235 0.048154 0.750000
O O2 0.445727 0.250041 0.622694
O O3 0.396327 0.994184 0.589197
O O4 0.500059 0.000151 0.621218
O O5 0.307116 0.510517 0.000171
O O6 0.373592 0.750000 0.000000
O O7 0.396212 0.505705 0.910820
O O8 0.948895 0.578369 0.750000
O O9 0.945517 0.749676 0.606499
O O10 0.892064 0.497715 0.610772
O O11 0.000068 0.499779 0.604029
O O12 0.175930 0.980117 0.250000
O O13 0.156458 0.750292 0.356912
O O14 0.214091 0.984900 0.411651
O O15 0.108071 0.998550 0.389218
O O16 0.948796 0.579013 0.250000
O O17 0.824209 0.020376 0.250000
O O18 0.786020 0.015356 0.088410
O O19 0.571861 0.548142 0.250000
O O20 0.247346 0.750000 0.500000
#
# Coordination Sequence:
#
# PCOD8234084 Si02
#       8
#     8   8   8   8   8   8   8   8
#     4  10  21  38  60  86 116 149 185 226 273 325
#     4  11  22  36  57  84 115 150 187 229 274 323
#     4   9  16  27  46  73 101 128 162 205 256 314
#     4   9  17  32  53  73  97 131 169 212 259 305
#     4   9  16  27  46  73 101 128 162 205 256 314
#     4   9  17  32  53  73  97 131 169 212 259 305
#     4  10  21  38  60  86 116 149 185 226 273 325
#     4   9  20  36  53  76 103 136 180 219 254 307
#
# _framework density 19.628284000000001
#
# number of rings (size 3 to 8) (size 9 to 14) (size 15 to 20)
#    0.000    2.500    0.000    2.250    0.000    5.500 
#    0.000    6.250    0.000    3.000    0.000    0.000 
#    0.000    0.000    0.000    0.000    0.000    0.000 
#
# Total GULP energy -793631.985439 kJ/mol
# GULP energy per Si atom -12400.499772 kJ/mol
# Density = 1.958361 g / cm^3
# Si number density = 19.628284 Si / 1000 Ang^3
#
#
#
# Elastic Constant Matrix: (Units=GPa)
#
#
# Indices 1 2 3 4 5 6 
#
# 1 202.8140 65.5291 81.7810 0.0000 0.0000 0.0000
# 2 65.5291 93.3622 39.0246 0.0000 0.0000 0.0000
# 3 81.7810 39.0246 97.1579 0.0000 0.0000 0.0000
# 4 0.0000 0.0000 0.0000 18.2285 0.0000 0.0000
# 5 0.0000 0.0000 0.0000 0.0000 -57.1282 0.0000
# 6 0.0000 0.0000 0.0000 0.0000 0.0000 30.5988
#
#
#
# Elastic Compliance Matrix: (Units=1/GPa)
#
#
# Indices 1 2 3 4 5 6 
#
# 1 0.008317 -0.003499 -0.005596 0.000000 0.000000 0.000000
# 2 -0.003499 0.014344 -0.002816 0.000000 0.000000 0.000000
# 3 -0.005596 -0.002816 0.016134 0.000000 0.000000 0.000000
# 4 0.000000 0.000000 0.000000 0.054859 0.000000 0.000000
# 5 0.000000 0.000000 0.000000 0.000000 -0.017504 0.000000
# 6 0.000000 0.000000 0.000000 0.000000 0.000000 0.032681
#
#
# Mechanical properties :
#
#
# Convention : Reuss Voigt Hill
#
# Bulk Modulus (GPa) = 66.78489 85.11150 75.94819
# Shear Modulus (GPa) = 36.32560 12.13979 24.23269
#
# Velocity S-wave (km/s) = 4.30662 2.48963 3.51747
# Velocity P-wave (km/s) = 7.66994 7.19167 7.43465
#
# Compressibility (1/GPa) = 0.01497345
#
# Stress axis : x y z
#
# Youngs Moduli (GPa) = 120.22845 69.71572 61.98162
#
# Poissons Ratio (x) = 0.24393 0.34683
# Poissons Ratio (y) = 0.42067 0.17456
# Poissons Ratio (z) = 0.67277 0.19634
#
# Static dielectric constant tensor:
#      x y z
#    x 3.746340 0.000000 0.000000 
#    y 0.000000 3.547450 0.000000 
#    z 0.000000 0.000000 3.538270 
# 
# 
# High freq. dielectric constant tensor:
#      x y z
#    x 1.764280 0.000000 0.000000 
#    y 0.000000 1.757220 0.000000 
#    z 0.000000 0.000000 1.763710 
# 
# From -- ./inp_files/19519.got.cif
#   From: 2010.03.12/outbox.cif.g09.slc.cpg/sg57_10_cif.got.tgz:19519.got - 2010.04.16 15:48:40.
