data_PCOD8234034
_publ_section_title
;
Structure prediction by ZEFSAII (Michael W. Deem and Ramdas Pophale) SiO2 
 PCOD8234034
Probable space group: P B C M
;
_chemical_formula_sum "Si O2"
_cell_formula_units_Z 56
_cell_length_a 14.778379
_cell_length_b 22.480286
_cell_length_c 8.898189
_cell_angle_alpha 90.000000
_cell_angle_beta 90.000000
_cell_angle_gamma 90.000000
_cell_volume 2956.175806
_symmetry_space_group_name_H-M "P B C M"
_symmetry_group_IT_number 57
_symmetry_cell_setting 'orthorhombic'
loop_
_space_group_symop_operation_xyz
x,y,z
-x,-y,1/2+z
x,1/2-y,-z
-x,1/2+y,1/2-z
-x,-y,-z
x,y,1/2-z
-x,1/2+y,z
x,1/2-y,1/2+z
loop_
_atom_site_type_symbol
_atom_site_label
_atom_site_fract_x
_atom_site_fract_y
_atom_site_fract_z
Si Si1 0.101653 0.446426 0.922930
Si Si2 0.698667 0.580838 0.078293
Si Si3 0.077220 0.920094 0.072674
Si Si4 0.429370 0.190017 0.425608
Si Si5 0.804344 0.310902 0.424911
Si Si6 0.406547 0.518629 0.073451
Si Si7 0.390423 0.642029 0.925766
O O1 0.071614 0.446982 0.750000
O O2 0.194543 0.410360 0.946672
O O3 0.113268 0.514881 0.979732
O O4 0.025173 0.411552 0.015207
O O5 0.678753 0.560308 0.250000
O O6 0.647226 0.641532 0.041544
O O7 0.666933 0.531341 0.961401
O O8 0.078427 0.915625 0.250000
O O9 0.140944 0.867570 0.006911
O O10 0.392298 0.250000 0.500000
O O11 0.446519 0.199139 0.250000
O O12 0.523947 0.173300 0.500597
O O13 0.838429 0.250000 0.500000
O O14 0.824845 0.305645 0.250000
O O15 0.697661 0.318219 0.455667
O O16 0.420487 0.526742 0.250000
O O17 0.500000 0.500000 0.000000
O O18 0.371322 0.579197 0.002319
O O19 0.408875 0.632410 0.750000
#
# Coordination Sequence:
#
# PCOD8234034 Si02
#       7
#     8   8   8   8   8   8   8
#     4   9  18  35  60  85 110 143 182 228 284 340
#     4  10  21  38  58  81 112 148 187 231 281 336
#     4   9  18  35  57  83 113 143 179 227 284 339
#     4  11  23  38  56  77 107 148 192 233 277 331
#     4  10  22  38  57  82 114 153 191 233 284 338
#     4  12  23  35  55  84 116 149 186 230 282 334
#     4  11  22  38  59  82 113 150 190 235 285 338
#
# _framework density 18.943393
#
# number of rings (size 3 to 8) (size 9 to 14) (size 15 to 20)
#    0.000    1.714    1.429    3.429    0.000    6.286 
#    0.000    3.571    0.000    3.429    0.000    0.000 
#    0.000    0.000    0.000    0.000    0.000    0.000 
#
# Total GULP energy -694531.804644 kJ/mol
# GULP energy per Si atom -12402.353654 kJ/mol
# Density = 1.890028 g / cm^3
# Si number density = 18.943393 Si / 1000 Ang^3
#
#
#
# Elastic Constant Matrix: (Units=GPa)
#
#
# Indices 1 2 3 4 5 6 
#
# 1 108.9375 49.5553 29.1923 0.0000 0.0000 0.0000
# 2 49.5553 116.4225 44.3269 0.0000 0.0000 0.0000
# 3 29.1923 44.3269 70.4111 0.0000 0.0000 0.0000
# 4 0.0000 0.0000 0.0000 31.4743 0.0000 0.0000
# 5 0.0000 0.0000 0.0000 0.0000 29.7054 0.0000
# 6 0.0000 0.0000 0.0000 0.0000 0.0000 24.2745
#
#
#
# Elastic Compliance Matrix: (Units=1/GPa)
#
#
# Indices 1 2 3 4 5 6 
#
# 1 0.011648 -0.004103 -0.002246 0.000000 0.000000 0.000000
# 2 -0.004103 0.012742 -0.006321 0.000000 0.000000 0.000000
# 3 -0.002246 -0.006321 0.019113 0.000000 0.000000 0.000000
# 4 0.000000 0.000000 0.000000 0.031772 0.000000 0.000000
# 5 0.000000 0.000000 0.000000 0.000000 0.033664 0.000000
# 6 0.000000 0.000000 0.000000 0.000000 0.000000 0.041195
#
#
# Mechanical properties :
#
#
# Convention : Reuss Voigt Hill
#
# Bulk Modulus (GPa) = 55.05618 60.21331 57.63474
# Shear Modulus (GPa) = 27.54388 28.60396 28.07392
#
# Velocity S-wave (km/s) = 3.81728 3.89005 3.85384
# Velocity P-wave (km/s) = 6.96818 7.21329 7.09179
#
# Compressibility (1/GPa) = 0.01816327
#
# Stress axis : x y z
#
# Youngs Moduli (GPa) = 85.85306 78.47870 52.32053
#
# Poissons Ratio (x) = 0.32197 0.11753
# Poissons Ratio (y) = 0.35222 0.33071
# Poissons Ratio (z) = 0.19286 0.49606
#
# Static dielectric constant tensor:
#      x y z
#    x 3.455650 0.000000 0.000000 
#    y 0.000000 3.579970 0.000000 
#    z 0.000000 0.000000 5.606770 
# 
# 
# High freq. dielectric constant tensor:
#      x y z
#    x 1.734930 0.000000 0.000000 
#    y 0.000000 1.733980 0.000000 
#    z 0.000000 0.000000 1.735280 
# 
# From -- ./inp_files/5135.got.cif
#   From: 2010.03.12/outbox.cif.g09.slc.cpg/sg57_3_cif.got.tgz:5135.got - 2010.04.16 15:48:40.
