data_PCOD8234202
_publ_section_title
;
Structure prediction by ZEFSAII (Michael W. Deem and Ramdas Pophale) SiO2 
 PCOD8234202
Probable space group: P B C M
;
_chemical_formula_sum "Si O2"
_cell_formula_units_Z 64
_cell_length_a 25.849370
_cell_length_b 14.727465
_cell_length_c 8.774029
_cell_angle_alpha 90.000000
_cell_angle_beta 90.000000
_cell_angle_gamma 90.000000
_cell_volume 3340.235041
_symmetry_space_group_name_H-M "P B C M"
_symmetry_group_IT_number 57
_symmetry_cell_setting 'orthorhombic'
loop_
_space_group_symop_operation_xyz
x,y,z
-x,-y,1/2+z
x,1/2-y,-z
-x,1/2+y,1/2-z
-x,-y,-z
x,y,1/2-z
-x,1/2+y,z
x,1/2-y,1/2+z
loop_
_atom_site_type_symbol
_atom_site_label
_atom_site_fract_x
_atom_site_fract_y
_atom_site_fract_z
Si Si1 0.502660 0.902227 0.569934
Si Si2 0.055778 0.500260 0.072160
Si Si3 0.791597 0.500334 0.070297
Si Si4 0.606581 0.662644 0.924642
Si Si5 0.862765 0.649066 0.931056
Si Si6 0.862355 0.351087 0.931271
Si Si7 0.682371 0.497615 0.574350
Si Si8 0.392154 0.659691 0.070468
O O1 0.503234 0.910566 0.750000
O O2 0.553389 0.852152 0.513683
O O3 0.450968 0.851585 0.512302
O O4 0.500000 0.000000 0.500000
O O5 0.047997 0.501131 0.250000
O O6 0.086060 0.408474 0.023660
O O7 0.086523 0.591386 0.022294
O O8 0.000000 0.500000 0.000000
O O9 0.802075 0.500190 0.250000
O O10 0.814724 0.592464 0.997759
O O11 0.814197 0.407673 0.997771
O O12 0.731097 0.501683 0.036022
O O13 0.591651 0.677315 0.750000
O O14 0.649367 0.587358 0.945228
O O15 0.633095 0.750000 0.000000
O O16 0.856109 0.656390 0.750000
O O17 0.866036 0.750000 0.000000
O O18 0.856118 0.344033 0.750000
O O19 0.865380 0.250000 0.000000
O O20 0.699736 0.483313 0.750000
O O21 0.644956 0.419520 0.512300
O O22 0.390682 0.663550 0.250000
O O23 0.368295 0.750000 0.000000
#
# Coordination Sequence:
#
# PCOD8234202 Si02
#       8
#     8   8   8   8   8   8   8   8
#     4  11  21  37  60  85 114 150 188 230 282 341
#     4   9  20  36  56  85 123 161 199 242 290 340
#     4  11  23  39  61  88 115 150 194 242 298 351
#     4  11  23  40  60  85 115 150 189 233 285 343
#     4  10  21  39  61  87 118 157 200 244 292 345
#     4  10  21  39  61  87 118 157 201 245 293 345
#     4  10  22  42  60  79 116 153 187 237 292 344
#     4  10  22  39  58  83 112 147 185 226 280 337
#
# _framework density 19.160329000000001
#
# number of rings (size 3 to 8) (size 9 to 14) (size 15 to 20)
#    0.000    1.750    1.250    3.750    0.000    8.000 
#    0.000    5.000    0.000    0.000    0.000    0.000 
#    0.000    0.000    0.000    0.000    0.000    0.000 
#
# Total GULP energy -793548.636874 kJ/mol
# GULP energy per Si atom -12399.197451 kJ/mol
# Density = 1.911672 g / cm^3
# Si number density = 19.160329 Si / 1000 Ang^3
#
#
#
# Elastic Constant Matrix: (Units=GPa)
#
#
# Indices 1 2 3 4 5 6 
#
# 1 117.4776 45.8543 53.7869 0.0000 0.0000 0.0000
# 2 45.8543 158.7023 62.0302 0.0000 0.0000 0.0000
# 3 53.7869 62.0302 88.0102 0.0000 0.0000 0.0000
# 4 0.0000 0.0000 0.0000 37.3197 0.0000 0.0000
# 5 0.0000 0.0000 0.0000 0.0000 36.3594 0.0000
# 6 0.0000 0.0000 0.0000 0.0000 0.0000 179.3478
#
#
#
# Elastic Compliance Matrix: (Units=1/GPa)
#
#
# Indices 1 2 3 4 5 6 
#
# 1 0.011897 -0.000822 -0.006691 0.000000 0.000000 0.000000
# 2 -0.000822 0.008754 -0.005667 0.000000 0.000000 0.000000
# 3 -0.006691 -0.005667 0.019446 0.000000 0.000000 0.000000
# 4 0.000000 0.000000 0.000000 0.026795 0.000000 0.000000
# 5 0.000000 0.000000 0.000000 0.000000 0.027503 0.000000
# 6 0.000000 0.000000 0.000000 0.000000 0.000000 0.005576
#
#
# Mechanical properties :
#
#
# Convention : Reuss Voigt Hill
#
# Bulk Modulus (GPa) = 72.80520 76.39253 74.59887
# Shear Modulus (GPa) = 38.19409 64.10665 51.15037
#
# Velocity S-wave (km/s) = 4.46959 5.79057 5.17242
# Velocity P-wave (km/s) = 8.04467 9.20132 8.64236
#
# Compressibility (1/GPa) = 0.01373528
#
# Stress axis : x y z
#
# Youngs Moduli (GPa) = 84.05713 114.23691 51.42455
#
# Poissons Ratio (x) = 0.09391 0.34409
# Poissons Ratio (y) = 0.06910 0.29144
# Poissons Ratio (z) = 0.56244 0.64742
#
# Static dielectric constant tensor:
#      x y z
#    x 0.008860 0.000000 0.000000 
#    y 0.000000 3.492540 0.000000 
#    z 0.000000 0.000000 3.528570 
# 
# 
# High freq. dielectric constant tensor:
#      x y z
#    x 1.743950 0.000000 0.000000 
#    y 0.000000 1.759010 0.000000 
#    z 0.000000 0.000000 1.750760 
# 
# From -- ./inp_files/9263.got.cif
#   From: 2010.03.12/outbox.cif.g09.slc.cpg/sg57_5_cif.got.tgz:9263.got - 2010.04.16 15:48:40.
