data_PCOD8234342
_publ_section_title
;
Structure prediction by ZEFSAII (Michael W. Deem and Ramdas Pophale) SiO2 
 PCOD8234342
Probable space group: P B C M
;
_chemical_formula_sum "Si O2"
_cell_formula_units_Z 48
_cell_length_a 9.846572
_cell_length_b 28.855149
_cell_length_c 8.714633
_cell_angle_alpha 90.000000
_cell_angle_beta 90.000000
_cell_angle_gamma 90.000000
_cell_volume 2476.039020
_symmetry_space_group_name_H-M "P B C M"
_symmetry_group_IT_number 57
_symmetry_cell_setting 'orthorhombic'
loop_
_space_group_symop_operation_xyz
x,y,z
-x,-y,1/2+z
x,1/2-y,-z
-x,1/2+y,1/2-z
-x,-y,-z
x,y,1/2-z
-x,1/2+y,z
x,1/2-y,1/2+z
loop_
_atom_site_type_symbol
_atom_site_label
_atom_site_fract_x
_atom_site_fract_y
_atom_site_fract_z
Si Si1 0.221343 0.118269 0.431749
Si Si2 0.280879 0.701150 0.068715
Si Si3 0.135112 0.020448 0.569134
Si Si4 0.028211 0.298909 0.930619
Si Si5 0.620674 0.027354 0.575298
Si Si6 0.513301 0.129474 0.575165
O O1 0.214245 0.113316 0.250000
O O2 0.168962 0.070906 0.504658
O O3 0.125391 0.160057 0.490766
O O4 0.374404 0.128827 0.480931
O O5 0.296614 0.702138 0.250000
O O6 0.126184 0.689220 0.019385
O O7 0.324673 0.750000 0.000000
O O8 0.383166 0.664655 0.999407
O O9 0.122619 0.024546 0.750000
O O10 0.247932 0.983026 0.525115
O O11 0.000000 0.000000 0.500000
O O12 0.039443 0.293865 0.750000
O O13 0.076599 0.250000 0.000000
O O14 0.642291 0.010414 0.750000
O O15 0.589576 0.081058 0.567886
O O16 0.500000 0.000000 0.500000
O O17 0.480143 0.143314 0.750000
#
# Coordination Sequence:
#
# PCOD8234342 Si02
#       6
#     8   8   8   8   8   8
#     4  11  23  41  63  91 125 162 206 255 308 367
#     4  10  21  40  64  91 122 158 201 253 307 366
#     4  12  26  43  63  91 125 164 209 258 310 368
#     4   9  21  40  63  91 120 156 199 247 305 364
#     4  11  23  41  64  91 125 165 207 252 305 365
#     4  11  24  40  61  92 124 162 206 250 306 369
#
# _framework density 19.385802999999999
#
# number of rings (size 3 to 8) (size 9 to 14) (size 15 to 20)
#    0.000    1.333    1.667    3.500    2.333    4.667 
#    0.000    1.667    0.000    0.000    0.000    0.000 
#    0.000    0.000    0.000    0.000    0.000    0.000 
#
# Total GULP energy -595353.891504 kJ/mol
# GULP energy per Si atom -12403.206073 kJ/mol
# Density = 1.934168 g / cm^3
# Si number density = 19.385803 Si / 1000 Ang^3
#
#
#
# Elastic Constant Matrix: (Units=GPa)
#
#
# Indices 1 2 3 4 5 6 
#
# 1 142.4537 72.2009 53.8970 0.0000 0.0000 0.0000
# 2 72.2009 116.9280 59.1486 0.0000 0.0000 0.0000
# 3 53.8970 59.1486 116.2359 0.0000 0.0000 0.0000
# 4 0.0000 0.0000 0.0000 37.1750 0.0000 0.0000
# 5 0.0000 0.0000 0.0000 0.0000 34.3212 0.0000
# 6 0.0000 0.0000 0.0000 0.0000 0.0000 44.5586
#
#
#
# Elastic Compliance Matrix: (Units=1/GPa)
#
#
# Indices 1 2 3 4 5 6 
#
# 1 0.010596 -0.005464 -0.002133 0.000000 0.000000 0.000000
# 2 -0.005464 0.014334 -0.004761 0.000000 0.000000 0.000000
# 3 -0.002133 -0.004761 0.012015 0.000000 0.000000 0.000000
# 4 0.000000 0.000000 0.000000 0.026900 0.000000 0.000000
# 5 0.000000 0.000000 0.000000 0.000000 0.029137 0.000000
# 6 0.000000 0.000000 0.000000 0.000000 0.000000 0.022442
#
#
# Mechanical properties :
#
#
# Convention : Reuss Voigt Hill
#
# Bulk Modulus (GPa) = 81.76505 82.90115 82.33310
# Shear Modulus (GPa) = 34.67025 35.90238 35.28631
#
# Velocity S-wave (km/s) = 4.23358 4.30815 4.27103
# Velocity P-wave (km/s) = 8.13431 8.22214 8.17834
#
# Compressibility (1/GPa) = 0.01223016
#
# Stress axis : x y z
#
# Youngs Moduli (GPa) = 94.37389 69.76199 83.23114
#
# Poissons Ratio (x) = 0.38118 0.17752
# Poissons Ratio (y) = 0.51566 0.39624
# Poissons Ratio (z) = 0.20128 0.33212
#
# Static dielectric constant tensor:
#      x y z
#    x 3.765420 0.000000 0.000000 
#    y 0.000000 3.625540 0.000000 
#    z 0.000000 0.000000 3.748840 
# 
# 
# High freq. dielectric constant tensor:
#      x y z
#    x 1.766600 0.000000 0.000000 
#    y 0.000000 1.765310 0.000000 
#    z 0.000000 0.000000 1.769500 
# 
# From -- ./inp_files/2015.got.cif
#   From: 2010.03.12/outbox.cif.g09.slc.cpg/sg57_2_cif.got.tgz:2015.got - 2010.04.16 15:48:40.
