data_PCOD8235453
_publ_section_title
;
Structure prediction by ZEFSAII (Michael W. Deem and Ramdas Pophale) SiO2 
 PCOD8235453
Probable space group: P N N M
;
_chemical_formula_sum "Si O2"
_cell_formula_units_Z 52
_cell_length_a 5.179741
_cell_length_b 21.484151
_cell_length_c 28.905326
_cell_angle_alpha 90.000000
_cell_angle_beta 90.000000
_cell_angle_gamma 90.000000
_cell_volume 3216.652252
_symmetry_space_group_name_H-M "P N N M"
_symmetry_group_IT_number 58
_symmetry_cell_setting 'orthorhombic'
loop_
_space_group_symop_operation_xyz
x,y,z
-x,-y,z
1/2+x,1/2-y,1/2-z
1/2-x,1/2+y,1/2-z
-x,-y,-z
x,y,-z
1/2-x,1/2+y,1/2+z
1/2+x,1/2-y,1/2+z
loop_
_atom_site_type_symbol
_atom_site_label
_atom_site_fract_x
_atom_site_fract_y
_atom_site_fract_z
Si Si1 0.676381 0.247091 0.811254
Si Si2 0.319855 0.677967 0.279922
Si Si3 0.402314 0.868976 0.447086
Si Si4 0.260427 0.039398 0.762564
Si Si5 0.319465 0.554474 0.835964
Si Si6 0.089835 0.166356 0.608252
Si Si7 0.500000 0.000000 0.416354
O O1 0.680876 0.303934 0.774444
O O2 0.424160 0.206633 0.804882
O O3 0.661034 0.270731 0.864425
O O4 0.925186 0.203563 0.805076
O O5 0.298665 0.604010 0.288417
O O6 0.398310 0.847458 0.500000
O O7 0.674245 0.849816 0.425323
O O8 0.173159 0.832114 0.421218
O O9 0.364503 0.944894 0.446001
O O10 0.353565 0.060804 0.710247
O O11 0.500000 0.000000 0.784019
O O12 0.000000 0.000000 0.766147
O O13 0.500000 0.500000 0.818914
O O14 0.464212 0.617640 0.849755
O O15 0.193027 0.536048 0.883777
#
# Coordination Sequence:
#
# PCOD8235453 Si02
#       7
#     8   8   8   8   8   8   4
#     4  10  20  34  52  70  95 130 164 213 253 300
#     4  10  20  34  49  73 100 124 166 209 254 293
#     4  11  23  35  50  69  95 126 171 222 269 307
#     4  11  21  31  49  71 102 129 165 206 257 286
#     4  10  18  30  43  68  91 124 167 215 250 296
#     4  11  21  35  53  68  92 126 174 207 270 301
#     4  10  19  32  46  64  92 130 168 214 262 308
#
# _framework density 16.165876000000001
#
# number of rings (size 3 to 8) (size 9 to 14) (size 15 to 20)
#    0.000    1.538    3.846    2.538    0.000    0.000 
#    0.000    2.308    0.000    0.000    0.000    0.000 
#    0.000    0.000    0.000    0.000    0.000  193.846 
#
# Total GULP energy -644201.458075 kJ/mol
# GULP energy per Si atom -12388.489578 kJ/mol
# Density = 1.612908 g / cm^3
# Si number density = 16.165876 Si / 1000 Ang^3
#
#
#
# Elastic Constant Matrix: (Units=GPa)
#
#
# Indices 1 2 3 4 5 6 
#
# 1 112.4170 42.9125 24.8346 0.0000 0.0000 0.0000
# 2 42.9125 99.2206 32.4923 0.0000 0.0000 0.0000
# 3 24.8346 32.4923 67.3552 0.0000 0.0000 0.0000
# 4 0.0000 0.0000 0.0000 17.2622 0.0000 0.0000
# 5 0.0000 0.0000 0.0000 0.0000 17.3247 0.0000
# 6 0.0000 0.0000 0.0000 0.0000 0.0000 19.9235
#
#
#
# Elastic Compliance Matrix: (Units=1/GPa)
#
#
# Indices 1 2 3 4 5 6 
#
# 1 0.010892 -0.004033 -0.002071 0.000000 0.000000 0.000000
# 2 -0.004033 0.013463 -0.005007 0.000000 0.000000 0.000000
# 3 -0.002071 -0.005007 0.018026 0.000000 0.000000 0.000000
# 4 0.000000 0.000000 0.000000 0.057930 0.000000 0.000000
# 5 0.000000 0.000000 0.000000 0.000000 0.057721 0.000000
# 6 0.000000 0.000000 0.000000 0.000000 0.000000 0.050192
#
#
# Mechanical properties :
#
#
# Convention : Reuss Voigt Hill
#
# Bulk Modulus (GPa) = 49.60616 53.27463 51.44039
# Shear Modulus (GPa) = 21.08238 22.81899 21.95068
#
# Velocity S-wave (km/s) = 3.61519 3.76114 3.68889
# Velocity P-wave (km/s) = 6.94107 7.20334 7.07342
#
# Compressibility (1/GPa) = 0.02015879
#
# Stress axis : x y z
#
# Youngs Moduli (GPa) = 91.80784 74.28033 55.47621
#
# Poissons Ratio (x) = 0.29956 0.11487
# Poissons Ratio (y) = 0.37024 0.27779
# Poissons Ratio (z) = 0.19011 0.37195
#
# Static dielectric constant tensor:
#      x y z
#    x 2.999230 0.000000 0.000000 
#    y 0.000000 3.006270 0.000000 
#    z 0.000000 0.000000 2.828990 
# 
# 
# High freq. dielectric constant tensor:
#      x y z
#    x 1.631120 0.000000 0.000000 
#    y 0.000000 1.604180 0.000000 
#    z 0.000000 0.000000 1.586090 
# 
# From -- ./inp_files/34237.got.cif
#   From: 2010.06.25/outbox.cif.g09.slc.cpg/sg58_18_cif.got.tgz:34237.got - 2010.06.26 21:38:00.
