data_PCOD8235074
_publ_section_title
;
Structure prediction by ZEFSAII (Michael W. Deem and Ramdas Pophale) SiO2 
 PCOD8235074
Probable space group: P B C M
;
_chemical_formula_sum "Si O2"
_cell_formula_units_Z 32
_cell_length_a 9.605929
_cell_length_b 16.026923
_cell_length_c 10.205663
_cell_angle_alpha 90.000000
_cell_angle_beta 90.000000
_cell_angle_gamma 90.000000
_cell_volume 1571.197380
_symmetry_space_group_name_H-M "P B C M"
_symmetry_group_IT_number 57
_symmetry_cell_setting 'orthorhombic'
loop_
_space_group_symop_operation_xyz
x,y,z
-x,-y,1/2+z
x,1/2-y,-z
-x,1/2+y,1/2-z
-x,-y,-z
x,y,1/2-z
-x,1/2+y,z
x,1/2-y,1/2+z
loop_
_atom_site_type_symbol
_atom_site_label
_atom_site_fract_x
_atom_site_fract_y
_atom_site_fract_z
Si Si1 0.582069 0.679123 0.601077
Si Si2 0.799039 0.950163 0.010808
Si Si3 0.066098 0.894340 0.605469
Si Si4 0.278968 0.885800 0.102040
O O1 0.629254 0.750000 0.500000
O O2 0.585118 0.713320 0.750000
O O3 0.687238 0.602107 0.591348
O O4 0.428968 0.648518 0.561632
O O5 0.903852 0.887720 0.934396
O O6 0.720344 0.012962 0.909971
O O7 0.890750 0.007149 0.110336
O O8 0.087140 0.855067 0.750000
O O9 0.164906 0.846914 0.499405
O O10 0.239587 0.860209 0.250000
#
# Coordination Sequence:
#
# PCOD8235074 Si02
#       4
#     8   8   8   8
#     4  11  24  40  55  80 115 155 190 232 281 337
#     4   9  19  34  60  83 116 139 186 230 288 323
#     4   9  18  32  60  90 111 135 181 232 282 332
#     4   9  19  35  58  84 113 144 185 231 280 330
#
# _framework density 20.366633
#
# number of rings (size 3 to 8) (size 9 to 14) (size 15 to 20)
#    1.500    1.000    0.000    2.250    0.000    4.000 
#    0.000    1.250    0.000    0.000    0.000    0.000 
#    0.000    0.000    0.000    0.000    0.000    0.000 
#
# Total GULP energy -396516.697914 kJ/mol
# GULP energy per Si atom -12391.146810 kJ/mol
# Density = 2.032028 g / cm^3
# Si number density = 20.366633 Si / 1000 Ang^3
#
#
#
# Elastic Constant Matrix: (Units=GPa)
#
#
# Indices 1 2 3 4 5 6 
#
# 1 68.4035 9.6255 36.2675 0.0000 0.0000 0.0000
# 2 9.6255 22.8414 8.4693 0.0000 0.0000 0.0000
# 3 36.2675 8.4693 125.3844 0.0000 0.0000 0.0000
# 4 0.0000 0.0000 0.0000 20.5135 0.0000 0.0000
# 5 0.0000 0.0000 0.0000 0.0000 29.6180 0.0000
# 6 0.0000 0.0000 0.0000 0.0000 0.0000 7.4474
#
#
#
# Elastic Compliance Matrix: (Units=1/GPa)
#
#
# Indices 1 2 3 4 5 6 
#
# 1 0.017985 -0.005795 -0.004811 0.000000 0.000000 0.000000
# 2 -0.005795 0.046772 -0.001483 0.000000 0.000000 0.000000
# 3 -0.004811 -0.001483 0.009467 0.000000 0.000000 0.000000
# 4 0.000000 0.000000 0.000000 0.048748 0.000000 0.000000
# 5 0.000000 0.000000 0.000000 0.000000 0.033763 0.000000
# 6 0.000000 0.000000 0.000000 0.000000 0.000000 0.134276
#
#
# Mechanical properties :
#
#
# Convention : Reuss Voigt Hill
#
# Bulk Modulus (GPa) = 19.98143 36.15044 28.06594
# Shear Modulus (GPa) = 15.06603 22.33356 18.69979
#
# Velocity S-wave (km/s) = 2.72277 3.31505 3.03340
# Velocity P-wave (km/s) = 4.44036 5.69571 5.10676
#
# Compressibility (1/GPa) = 0.05004647
#
# Stress axis : x y z
#
# Youngs Moduli (GPa) = 55.60089 21.38017 105.62811
#
# Poissons Ratio (x) = 0.12391 0.50816
# Poissons Ratio (y) = 0.32223 0.15665
# Poissons Ratio (z) = 0.26749 0.03171
#
# Static dielectric constant tensor:
#      x y z
#    x 3.618990 0.000000 0.000000 
#    y 0.000000 3.136370 0.000000 
#    z 0.000000 0.000000 3.475310 
# 
# 
# High freq. dielectric constant tensor:
#      x y z
#    x 1.801140 0.000000 0.000000 
#    y 0.000000 1.748980 0.000000 
#    z 0.000000 0.000000 1.792560 
# 
# From -- ./inp_files/11292.got.cif
#   From: 2010.03.12/outbox.cif.g09.slc.cpg/sg57_6_cif.got.tgz:11292.got - 2010.04.16 15:48:40.
