data_PCOD8235038
_publ_section_title
;
Structure prediction by ZEFSAII (Michael W. Deem and Ramdas Pophale) SiO2 
 PCOD8235038
Probable space group: P B C M
;
_chemical_formula_sum "Si O2"
_cell_formula_units_Z 48
_cell_length_a 15.336749
_cell_length_b 17.925819
_cell_length_c 8.757944
_cell_angle_alpha 90.000000
_cell_angle_beta 90.000000
_cell_angle_gamma 90.000000
_cell_volume 2407.767128
_symmetry_space_group_name_H-M "P B C M"
_symmetry_group_IT_number 57
_symmetry_cell_setting 'orthorhombic'
loop_
_space_group_symop_operation_xyz
x,y,z
-x,-y,1/2+z
x,1/2-y,-z
-x,1/2+y,1/2-z
-x,-y,-z
x,y,1/2-z
-x,1/2+y,z
x,1/2-y,1/2+z
loop_
_atom_site_type_symbol
_atom_site_label
_atom_site_fract_x
_atom_site_fract_y
_atom_site_fract_z
Si Si1 0.493326 0.418619 0.931309
Si Si2 0.195506 0.574899 0.427560
Si Si3 0.653732 0.330876 0.069416
Si Si4 0.657242 0.670806 0.929428
Si Si5 0.165433 0.094350 0.573797
Si Si6 0.003435 0.920001 0.925812
O O1 0.501587 0.421963 0.750000
O O2 0.500000 0.500000 0.000000
O O3 0.566738 0.364460 0.997316
O O4 0.399358 0.389584 0.981734
O O5 0.223916 0.580307 0.250000
O O6 0.264467 0.616775 0.532371
O O7 0.192254 0.488666 0.482015
O O8 0.100280 0.613828 0.453170
O O9 0.641786 0.324721 0.250000
O O10 0.671545 0.250000 0.000000
O O11 0.635307 0.669371 0.750000
O O12 0.757796 0.652022 0.961832
O O13 0.634202 0.750000 0.000000
O O14 0.143240 0.088744 0.750000
O O15 0.077481 0.126950 0.494726
O O16 0.984805 0.929821 0.750000
O O17 0.000000 0.000000 0.000000
#
# Coordination Sequence:
#
# PCOD8235038 Si02
#       6
#     8   8   8   8   8   8
#     4  12  25  43  66  91 117 148 189 237 285 341
#     4   9  18  35  57  84 115 150 193 243 290 339
#     4  12  25  41  61  86 117 155 193 236 288 344
#     4  11  23  40  60  86 120 157 194 237 287 342
#     4   9  19  35  57  83 115 152 192 238 287 337
#     4   9  17  30  53  82 114 148 188 237 287 337
#
# _framework density 19.935485
#
# number of rings (size 3 to 8) (size 9 to 14) (size 15 to 20)
#    0.000    1.667    0.000    6.500    0.000    6.000 
#    0.000    0.833    0.000    2.000    0.000    0.000 
#    0.000    0.000    0.000    0.000    0.000    0.000 
#
# Total GULP energy -595155.725856 kJ/mol
# GULP energy per Si atom -12399.077622 kJ/mol
# Density = 1.989011 g / cm^3
# Si number density = 19.935485 Si / 1000 Ang^3
#
#
#
# Elastic Constant Matrix: (Units=GPa)
#
#
# Indices 1 2 3 4 5 6 
#
# 1 81.8188 6.0318 44.8695 0.0000 0.0000 0.0000
# 2 6.0318 59.3412 23.9574 0.0000 0.0000 0.0000
# 3 44.8695 23.9574 127.4349 0.0000 0.0000 0.0000
# 4 0.0000 0.0000 0.0000 29.9237 0.0000 0.0000
# 5 0.0000 0.0000 0.0000 0.0000 41.6531 0.0000
# 6 0.0000 0.0000 0.0000 0.0000 0.0000 16.0014
#
#
#
# Elastic Compliance Matrix: (Units=1/GPa)
#
#
# Indices 1 2 3 4 5 6 
#
# 1 0.015171 0.000665 -0.005467 0.000000 0.000000 0.000000
# 2 0.000665 0.018265 -0.003668 0.000000 0.000000 0.000000
# 3 -0.005467 -0.003668 0.010462 0.000000 0.000000 0.000000
# 4 0.000000 0.000000 0.000000 0.033418 0.000000 0.000000
# 5 0.000000 0.000000 0.000000 0.000000 0.024008 0.000000
# 6 0.000000 0.000000 0.000000 0.000000 0.000000 0.062494
#
#
# Mechanical properties :
#
#
# Convention : Reuss Voigt Hill
#
# Bulk Modulus (GPa) = 37.09441 46.47912 41.78677
# Shear Modulus (GPa) = 26.35137 30.43138 28.39138
#
# Velocity S-wave (km/s) = 3.63965 3.91127 3.77790
# Velocity P-wave (km/s) = 6.02580 6.61535 6.32745
#
# Compressibility (1/GPa) = 0.02695824
#
# Stress axis : x y z
#
# Youngs Moduli (GPa) = 65.91502 54.74974 95.58855
#
# Poissons Ratio (x) = -0.03641 0.52255
# Poissons Ratio (y) = -0.04383 0.35061
# Poissons Ratio (z) = 0.36034 0.20082
#
# Static dielectric constant tensor:
#      x y z
#    x 4.121640 0.000000 0.000000 
#    y 0.000000 3.507330 0.000000 
#    z 0.000000 0.000000 4.258760 
# 
# 
# High freq. dielectric constant tensor:
#      x y z
#    x 1.799900 0.000000 0.000000 
#    y 0.000000 1.754520 0.000000 
#    z 0.000000 0.000000 1.786320 
# 
# From -- ./inp_files/4686.got.cif
#   From: 2010.03.12/outbox.cif.g09.slc.cpg/sg57_3_cif.got.tgz:4686.got - 2010.04.16 15:48:40.
