data_PCOD8235982
_publ_section_title
;
Structure prediction by ZEFSAII (Michael W. Deem and Ramdas Pophale) SiO2 
 PCOD8235982
Probable space group: P N N M
;
_chemical_formula_sum "Si O2"
_cell_formula_units_Z 56
_cell_length_a 16.535479
_cell_length_b 20.149616
_cell_length_c 9.271785
_cell_angle_alpha 90.000000
_cell_angle_beta 90.000000
_cell_angle_gamma 90.000000
_cell_volume 3089.206262
_symmetry_space_group_name_H-M "P N N M"
_symmetry_group_IT_number 58
_symmetry_cell_setting 'orthorhombic'
loop_
_space_group_symop_operation_xyz
x,y,z
-x,-y,z
1/2+x,1/2-y,1/2-z
1/2-x,1/2+y,1/2-z
-x,-y,-z
x,y,-z
1/2-x,1/2+y,1/2+z
1/2+x,1/2-y,1/2+z
loop_
_atom_site_type_symbol
_atom_site_label
_atom_site_fract_x
_atom_site_fract_y
_atom_site_fract_z
Si Si1 0.756205 0.474534 0.828406
Si Si2 0.999486 0.319569 0.333870
Si Si3 0.804617 0.115862 0.671473
Si Si4 0.936581 0.445002 0.170898
Si Si5 0.527499 0.672145 0.828716
Si Si6 0.684056 0.208613 0.834391
Si Si7 0.352711 0.643944 0.171166
O O1 0.720890 0.543798 0.769517
O O2 0.848067 0.466856 0.774844
O O3 0.701677 0.415064 0.762996
O O4 0.752869 0.473174 0.000000
O O5 0.976295 0.331776 0.500000
O O6 0.957154 0.374382 0.237257
O O7 0.966308 0.248617 0.278148
O O8 0.095740 0.322731 0.313238
O O9 0.799298 0.119112 0.500000
O O10 0.895567 0.130653 0.726578
O O11 0.745606 0.171187 0.732246
O O12 0.000000 0.500000 0.225740
O O13 0.939988 0.437529 0.000000
O O14 0.444830 0.638726 0.768634
O O15 0.522533 0.672507 0.000000
O O16 0.685087 0.285347 0.784993
O O17 0.711734 0.201831 0.000000
O O18 0.354717 0.638343 0.000000
#
# Coordination Sequence:
#
# PCOD8235982 Si02
#       7
#     8   8   8   8   8   8   8
#     4   9  18  30  46  71 100 131 163 197 242 294
#     4   9  18  33  50  70  96 127 164 201 241 288
#     4  10  19  31  50  75 101 125 155 201 253 291
#     4  10  20  32  47  71 103 132 161 200 244 289
#     4   8  16  30  48  72  98 123 156 204 249 282
#     4   9  18  32  51  71  96 130 164 200 239 288
#     4   8  15  30  49  70  97 127 163 202 238 284
#
# _framework density 18.127634
#
# number of rings (size 3 to 8) (size 9 to 14) (size 15 to 20)
#    0.000    3.000    0.000    2.571    2.000    2.571 
#    0.000    3.571    0.000    1.714    0.000    1.000 
#    0.000    0.000    0.000    0.000    0.000    0.000 
#
# Total GULP energy -694252.564734 kJ/mol
# GULP energy per Si atom -12397.367227 kJ/mol
# Density = 1.808637 g / cm^3
# Si number density = 18.127634 Si / 1000 Ang^3
#
#
#
# Elastic Constant Matrix: (Units=GPa)
#
#
# Indices 1 2 3 4 5 6 
#
# 1 150.9513 108.0811 23.4016 0.0000 0.0000 0.0000
# 2 108.0811 145.4877 22.0372 0.0000 0.0000 0.0000
# 3 23.4016 22.0372 15.5533 0.0000 0.0000 0.0000
# 4 0.0000 0.0000 0.0000 23.4510 0.0000 0.0000
# 5 0.0000 0.0000 0.0000 0.0000 17.5295 0.0000
# 6 0.0000 0.0000 0.0000 0.0000 0.0000 36.5795
#
#
#
# Elastic Compliance Matrix: (Units=1/GPa)
#
#
# Indices 1 2 3 4 5 6 
#
# 1 0.015012 -0.009844 -0.008640 0.000000 0.000000 0.000000
# 2 -0.009844 0.015206 -0.006735 0.000000 0.000000 0.000000
# 3 -0.008640 -0.006735 0.086837 0.000000 0.000000 0.000000
# 4 0.000000 0.000000 0.000000 0.042642 0.000000 0.000000
# 5 0.000000 0.000000 0.000000 0.000000 0.057047 0.000000
# 6 0.000000 0.000000 0.000000 0.000000 0.000000 0.027338
#
#
# Mechanical properties :
#
#
# Convention : Reuss Voigt Hill
#
# Bulk Modulus (GPa) = 15.01074 68.78133 41.89604
# Shear Modulus (GPa) = 15.78653 26.07683 20.93168
#
# Velocity S-wave (km/s) = 2.95423 3.79689 3.40175
# Velocity P-wave (km/s) = 4.46488 7.56617 6.21217
#
# Compressibility (1/GPa) = 0.06661896
#
# Stress axis : x y z
#
# Youngs Moduli (GPa) = 66.61286 65.76244 11.51576
#
# Poissons Ratio (x) = 0.64734 0.09950
# Poissons Ratio (y) = 0.65571 0.07756
# Poissons Ratio (z) = 0.57554 0.44289
#
# Static dielectric constant tensor:
#      x y z
#    x 3.676070 0.000000 0.000000 
#    y 0.000000 3.513290 0.000000 
#    z 0.000000 0.000000 2.818540 
# 
# 
# High freq. dielectric constant tensor:
#      x y z
#    x 1.714100 0.000000 0.000000 
#    y 0.000000 1.710880 0.000000 
#    z 0.000000 0.000000 1.647440 
# 
# From -- ./inp_files/6403.got.cif
#   From: 2010.06.25/outbox.cif.g09.slc.cpg/sg58_4_cif.got.tgz:6403.got - 2010.06.26 21:38:00.
