data_PCOD8235105
_publ_section_title
;
Structure prediction by ZEFSAII (Michael W. Deem and Ramdas Pophale) SiO2 
 PCOD8235105
Probable space group: P B C M
;
_chemical_formula_sum "Si O2"
_cell_formula_units_Z 48
_cell_length_a 9.607089
_cell_length_b 18.424436
_cell_length_c 13.455927
_cell_angle_alpha 90.000000
_cell_angle_beta 90.000000
_cell_angle_gamma 90.000000
_cell_volume 2381.769002
_symmetry_space_group_name_H-M "P B C M"
_symmetry_group_IT_number 57
_symmetry_cell_setting 'orthorhombic'
loop_
_space_group_symop_operation_xyz
x,y,z
-x,-y,1/2+z
x,1/2-y,-z
-x,1/2+y,1/2-z
-x,-y,-z
x,y,1/2-z
-x,1/2+y,z
x,1/2-y,1/2+z
loop_
_atom_site_type_symbol
_atom_site_label
_atom_site_fract_x
_atom_site_fract_y
_atom_site_fract_z
Si Si1 0.022420 0.985890 0.750000
Si Si2 0.719128 0.586090 0.250000
Si Si3 0.200878 0.819841 0.069282
Si Si4 0.998927 0.159382 0.750000
Si Si5 0.707681 0.758071 0.250000
Si Si6 0.492821 0.309349 0.077628
Si Si7 0.382481 0.054456 0.467046
Si Si8 0.135771 0.533888 0.456371
O O1 0.114121 0.955655 0.660180
O O2 0.867865 0.953049 0.750000
O O3 0.012374 0.072763 0.750000
O O4 0.741744 0.672691 0.250000
O O5 0.633012 0.560811 0.152649
O O6 0.084226 0.814180 0.153531
O O7 0.354229 0.831233 0.120571
O O8 0.184723 0.750000 0.000000
O O9 0.176324 0.889641 0.001586
O O10 0.150003 0.196658 0.750000
O O11 0.614503 0.778925 0.343380
O O12 0.538370 0.250000 0.000000
O O13 0.414870 0.369120 0.014366
O O14 0.500000 0.000000 0.500000
O O15 0.245080 0.028049 0.520158
O O16 0.000000 0.500000 0.500000
#
# Coordination Sequence:
#
# PCOD8235105 Si02
#       8
#     4   4   8   4   4   8   8   8
#     4  12  26  44  73 101 144 181 235 291 352 416
#     4  12  26  45  74 105 145 186 234 299 364 413
#     4  11  26  44  69  99 143 187 227 291 358 424
#     4  12  25  45  69 105 136 186 238 285 364 420
#     4  12  27  42  74 105 135 193 237 293 358 423
#     4  11  24  47  68 100 142 181 232 289 350 424
#     4  12  25  46  73 106 139 188 239 291 357 422
#     4  12  24  45  70 101 141 185 232 293 350 416
#
# _framework density 20.153086999999999
#
# number of rings (size 3 to 8) (size 9 to 14) (size 15 to 20)
#    0.000    0.333    6.667    1.500    2.333    2.000 
#    0.000    0.833    0.000    0.000    0.000    0.000 
#    0.000    0.000    0.000    0.000    0.000    0.000 
#
# Total GULP energy -595068.444558 kJ/mol
# GULP energy per Si atom -12397.259262 kJ/mol
# Density = 2.010722 g / cm^3
# Si number density = 20.153087 Si / 1000 Ang^3
#
#
#
# Elastic Constant Matrix: (Units=GPa)
#
#
# Indices 1 2 3 4 5 6 
#
# 1 163.8771 60.5174 58.8819 0.0000 0.0000 0.0000
# 2 60.5174 133.8734 40.6549 0.0000 0.0000 0.0000
# 3 58.8819 40.6549 132.9741 0.0000 0.0000 0.0000
# 4 0.0000 0.0000 0.0000 34.6122 0.0000 0.0000
# 5 0.0000 0.0000 0.0000 0.0000 43.3506 0.0000
# 6 0.0000 0.0000 0.0000 0.0000 0.0000 39.3187
#
#
#
# Elastic Compliance Matrix: (Units=1/GPa)
#
#
# Indices 1 2 3 4 5 6 
#
# 1 0.008135 -0.002848 -0.002732 0.000000 0.000000 0.000000
# 2 -0.002848 0.009231 -0.001561 0.000000 0.000000 0.000000
# 3 -0.002732 -0.001561 0.009207 0.000000 0.000000 0.000000
# 4 0.000000 0.000000 0.000000 0.028892 0.000000 0.000000
# 5 0.000000 0.000000 0.000000 0.000000 0.023068 0.000000
# 6 0.000000 0.000000 0.000000 0.000000 0.000000 0.025433
#
#
# Mechanical properties :
#
#
# Convention : Reuss Voigt Hill
#
# Bulk Modulus (GPa) = 81.35335 83.42588 82.38962
# Shear Modulus (GPa) = 40.86788 41.50100 41.18444
#
# Velocity S-wave (km/s) = 4.50808 4.54286 4.52550
# Velocity P-wave (km/s) = 8.21902 8.30679 8.26302
#
# Compressibility (1/GPa) = 0.01229206
#
# Stress axis : x y z
#
# Youngs Moduli (GPa) = 122.92007 108.32707 108.61091
#
# Poissons Ratio (x) = 0.30852 0.29669
# Poissons Ratio (y) = 0.35008 0.16956
# Poissons Ratio (z) = 0.33578 0.16912
#
# Static dielectric constant tensor:
#      x y z
#    x 4.175340 0.000000 0.000000 
#    y 0.000000 3.734710 0.000000 
#    z 0.000000 0.000000 3.592950 
# 
# 
# High freq. dielectric constant tensor:
#      x y z
#    x 1.808320 0.000000 0.000000 
#    y 0.000000 1.803650 0.000000 
#    z 0.000000 0.000000 1.796820 
# 
# From -- ./inp_files/16450.got.cif
#   From: 2010.03.12/outbox.cif.g09.slc.cpg/sg57_9_cif.got.tgz:16450.got - 2010.04.16 15:48:40.
