data_PCOD8235589
_publ_section_title
;
Structure prediction by ZEFSAII (Michael W. Deem and Ramdas Pophale) SiO2 
 PCOD8235589
Probable space group: P N N M
;
_chemical_formula_sum "Si O2"
_cell_formula_units_Z 56
_cell_length_a 11.962549
_cell_length_b 14.587355
_cell_length_c 16.677943
_cell_angle_alpha 90.000000
_cell_angle_beta 90.000000
_cell_angle_gamma 90.000000
_cell_volume 2910.333558
_symmetry_space_group_name_H-M "P N N M"
_symmetry_group_IT_number 58
_symmetry_cell_setting 'orthorhombic'
loop_
_space_group_symop_operation_xyz
x,y,z
-x,-y,z
1/2+x,1/2-y,1/2-z
1/2-x,1/2+y,1/2-z
-x,-y,-z
x,y,-z
1/2-x,1/2+y,1/2+z
1/2+x,1/2-y,1/2+z
loop_
_atom_site_type_symbol
_atom_site_label
_atom_site_fract_x
_atom_site_fract_y
_atom_site_fract_z
Si Si1 0.957514 0.319671 0.170630
Si Si2 0.590301 0.925193 0.172895
Si Si3 0.089109 0.763793 0.408078
Si Si4 0.825739 0.649154 0.089482
Si Si5 0.822599 0.963178 0.750074
Si Si6 0.211605 0.562187 0.089343
Si Si7 0.460803 0.358862 0.244315
O O1 0.955782 0.390623 0.243132
O O2 0.886891 0.362376 0.097332
O O3 0.912278 0.220460 0.197814
O O4 0.085565 0.304245 0.147567
O O5 0.594177 0.845238 0.106409
O O6 0.717385 0.961548 0.188643
O O7 0.500000 0.000000 0.141579
O O8 0.051278 0.782759 0.500000
O O9 0.207170 0.809521 0.387724
O O10 0.009569 0.815365 0.343774
O O11 0.835379 0.539990 0.099454
O O12 0.856246 0.678408 0.000000
O O13 0.797643 0.921519 0.661700
O O14 0.925953 0.901893 0.781665
O O15 0.861803 0.067449 0.739473
O O16 0.265402 0.573528 0.000000
#
# Coordination Sequence:
#
# PCOD8235589 Si02
#       7
#     8   8   8   8   8   8   8
#     4  10  19  32  51  83 109 140 184 230 277 329
#     4  10  21  36  56  82 106 144 187 236 275 319
#     4  10  21  36  54  81 112 149 188 223 277 334
#     4  10  18  31  54  80 113 144 174 225 281 339
#     4  10  20  37  56  80 111 145 185 223 276 333
#     4  10  19  32  53  81 112 142 175 224 282 332
#     4  10  21  35  56  78 109 150 181 228 273 327
#
# _framework density 19.241781
#
# number of rings (size 3 to 8) (size 9 to 14) (size 15 to 20)
#    0.000    2.000    1.429    3.429    0.000    2.000 
#    5.143    1.429    0.000    1.714    0.000    7.000 
#    0.000    0.000    0.000    0.000    0.000    0.000 
#
# Total GULP energy -694067.692180 kJ/mol
# GULP energy per Si atom -12394.065932 kJ/mol
# Density = 1.919799 g / cm^3
# Si number density = 19.241781 Si / 1000 Ang^3
#
#
#
# Elastic Constant Matrix: (Units=GPa)
#
#
# Indices 1 2 3 4 5 6 
#
# 1 79.9509 37.9694 17.4468 0.0000 0.0000 0.0000
# 2 37.9694 119.9035 28.0043 0.0000 0.0000 0.0000
# 3 17.4468 28.0043 41.4697 0.0000 0.0000 0.0000
# 4 0.0000 0.0000 0.0000 23.4929 0.0000 0.0000
# 5 0.0000 0.0000 0.0000 0.0000 16.2604 0.0000
# 6 0.0000 0.0000 0.0000 0.0000 0.0000 25.3130
#
#
#
# Elastic Compliance Matrix: (Units=1/GPa)
#
#
# Indices 1 2 3 4 5 6 
#
# 1 0.015193 -0.003940 -0.003731 0.000000 0.000000 0.000000
# 2 -0.003940 0.010923 -0.005719 0.000000 0.000000 0.000000
# 3 -0.003731 -0.005719 0.029546 0.000000 0.000000 0.000000
# 4 0.000000 0.000000 0.000000 0.042566 0.000000 0.000000
# 5 0.000000 0.000000 0.000000 0.000000 0.061499 0.000000
# 6 0.000000 0.000000 0.000000 0.000000 0.000000 0.039505
#
#
# Mechanical properties :
#
#
# Convention : Reuss Voigt Hill
#
# Bulk Modulus (GPa) = 34.62368 45.35166 39.98767
# Shear Modulus (GPa) = 21.21879 23.54015 22.37947
#
# Velocity S-wave (km/s) = 3.32436 3.50149 3.41408
# Velocity P-wave (km/s) = 5.72436 6.32201 6.03059
#
# Compressibility (1/GPa) = 0.02888197
#
# Stress axis : x y z
#
# Youngs Moduli (GPa) = 65.82024 91.54756 33.84566
#
# Poissons Ratio (x) = 0.36066 0.12629
# Poissons Ratio (y) = 0.25930 0.19356
# Poissons Ratio (z) = 0.24561 0.52356
#
# Static dielectric constant tensor:
#      x y z
#    x 3.385230 0.000000 0.000000 
#    y 0.000000 3.556410 0.000000 
#    z 0.000000 0.000000 3.385280 
# 
# 
# High freq. dielectric constant tensor:
#      x y z
#    x 1.738020 0.000000 0.000000 
#    y 0.000000 1.750780 0.000000 
#    z 0.000000 0.000000 1.729900 
# 
# From -- ./inp_files/21294.got.cif
#   From: 2010.06.25/outbox.cif.g09.slc.cpg/sg58_11_cif.got.tgz:21294.got - 2010.06.26 21:38:00.
