data_PCOD8235929
_publ_section_title
;
Structure prediction by ZEFSAII (Michael W. Deem and Ramdas Pophale) SiO2 
 PCOD8235929
Probable space group: P N N M
;
_chemical_formula_sum "Si O2"
_cell_formula_units_Z 56
_cell_length_a 13.605484
_cell_length_b 29.255358
_cell_length_c 8.910950
_cell_angle_alpha 90.000000
_cell_angle_beta 90.000000
_cell_angle_gamma 90.000000
_cell_volume 3546.854881
_symmetry_space_group_name_H-M "P N N M"
_symmetry_group_IT_number 58
_symmetry_cell_setting 'orthorhombic'
loop_
_space_group_symop_operation_xyz
x,y,z
-x,-y,z
1/2+x,1/2-y,1/2-z
1/2-x,1/2+y,1/2-z
-x,-y,-z
x,y,-z
1/2-x,1/2+y,1/2+z
1/2+x,1/2-y,1/2+z
loop_
_atom_site_type_symbol
_atom_site_label
_atom_site_fract_x
_atom_site_fract_y
_atom_site_fract_z
Si Si1 0.207841 0.685470 0.677369
Si Si2 0.097107 0.767551 0.822450
Si Si3 0.607726 0.273764 0.820817
Si Si4 0.884816 0.590991 0.677235
Si Si5 0.390338 0.090411 0.825703
Si Si6 0.616820 0.999854 0.669550
Si Si7 0.790922 0.682297 0.675660
O O1 0.213639 0.694520 0.500000
O O2 0.128768 0.719860 0.748579
O O3 0.314018 0.690615 0.753824
O O4 0.173116 0.634532 0.715082
O O5 0.178116 0.806324 0.785314
O O6 0.997427 0.785563 0.748647
O O7 0.085514 0.760347 0.000000
O O8 0.639104 0.223108 0.765839
O O9 0.605977 0.278233 0.000000
O O10 0.873377 0.587194 0.500000
O O11 0.841037 0.544492 0.746810
O O12 0.823131 0.633735 0.745531
O O13 0.997577 0.598957 0.725651
O O14 0.342781 0.046831 0.742368
O O15 0.387365 0.078970 0.000000
O O16 0.653711 0.001750 0.500000
O O17 0.500000 0.000000 0.684281
O O18 0.807536 0.679148 0.500000
#
# Coordination Sequence:
#
# PCOD8235929 Si02
#       7
#     8   8   8   8   8   8   8
#     4  10  19  31  47  68  91 117 152 188 223 264
#     4  10  19  31  46  66  92 121 152 185 223 264
#     4  10  19  32  47  65  91 121 153 187 223 262
#     4   9  15  27  45  62  84 116 149 178 212 257
#     4   9  17  28  44  64  87 118 151 179 213 264
#     4   9  17  27  39  60  89 115 141 178 220 259
#     4   8  16  29  45  64  86 115 150 183 215 258
#
# _framework density 15.788634999999999
#
# number of rings (size 3 to 8) (size 9 to 14) (size 15 to 20)
#    0.000    2.714    0.000    3.429    0.000    5.143 
#    0.000    7.143    0.000    0.000    0.000    1.000 
#    0.000    8.000    0.000    0.000    0.000    0.000 
#
# Total GULP energy -694299.082078 kJ/mol
# GULP energy per Si atom -12398.197894 kJ/mol
# Density = 1.575270 g / cm^3
# Si number density = 15.788635 Si / 1000 Ang^3
#
#
#
# Elastic Constant Matrix: (Units=GPa)
#
#
# Indices 1 2 3 4 5 6 
#
# 1 89.7250 54.7965 39.9447 0.0000 0.0000 0.0000
# 2 54.7965 139.4042 53.9028 0.0000 0.0000 0.0000
# 3 39.9447 53.9028 70.4882 0.0000 0.0000 0.0000
# 4 0.0000 0.0000 0.0000 24.9598 0.0000 0.0000
# 5 0.0000 0.0000 0.0000 0.0000 23.0844 0.0000
# 6 0.0000 0.0000 0.0000 0.0000 0.0000 20.4740
#
#
#
# Elastic Compliance Matrix: (Units=1/GPa)
#
#
# Indices 1 2 3 4 5 6 
#
# 1 0.016367 -0.004042 -0.006184 0.000000 0.000000 0.000000
# 2 -0.004042 0.011183 -0.006261 0.000000 0.000000 0.000000
# 3 -0.006184 -0.006261 0.022479 0.000000 0.000000 0.000000
# 4 0.000000 0.000000 0.000000 0.040064 0.000000 0.000000
# 5 0.000000 0.000000 0.000000 0.000000 0.043319 0.000000
# 6 0.000000 0.000000 0.000000 0.000000 0.000000 0.048842
#
#
# Mechanical properties :
#
#
# Convention : Reuss Voigt Hill
#
# Bulk Modulus (GPa) = 58.63499 66.32281 62.47890
# Shear Modulus (GPa) = 22.63321 23.76855 23.20088
#
# Velocity S-wave (km/s) = 3.79028 3.88419 3.83752
# Velocity P-wave (km/s) = 7.50820 7.88757 7.70022
#
# Compressibility (1/GPa) = 0.01705466
#
# Stress axis : x y z
#
# Youngs Moduli (GPa) = 61.09923 89.41860 44.48623
#
# Poissons Ratio (x) = 0.36147 0.27508
# Poissons Ratio (y) = 0.24699 0.27854
# Poissons Ratio (z) = 0.37781 0.55987
#
# Static dielectric constant tensor:
#      x y z
#    x 2.846830 0.000000 0.000000 
#    y 0.000000 3.154770 0.000000 
#    z 0.000000 0.000000 2.974890 
# 
# 
# High freq. dielectric constant tensor:
#      x y z
#    x 1.575840 0.000000 0.000000 
#    y 0.000000 1.604550 0.000000 
#    z 0.000000 0.000000 1.606930 
# 
# From -- ./inp_files/7127.got.cif
#   From: 2010.06.25/outbox.cif.g09.slc.cpg/sg58_4_cif.got.tgz:7127.got - 2010.06.26 21:38:00.
