data_PCOD8235077
_publ_section_title
;
Structure prediction by ZEFSAII (Michael W. Deem and Ramdas Pophale) SiO2 
 PCOD8235077
Probable space group: P B C M
;
_chemical_formula_sum "Si O2"
_cell_formula_units_Z 48
_cell_length_a 30.483049
_cell_length_b 8.872071
_cell_length_c 8.640250
_cell_angle_alpha 90.000000
_cell_angle_beta 90.000000
_cell_angle_gamma 90.000000
_cell_volume 2336.736388
_symmetry_space_group_name_H-M "P B C M"
_symmetry_group_IT_number 57
_symmetry_cell_setting 'orthorhombic'
loop_
_space_group_symop_operation_xyz
x,y,z
-x,-y,1/2+z
x,1/2-y,-z
-x,1/2+y,1/2-z
-x,-y,-z
x,y,1/2-z
-x,1/2+y,z
x,1/2-y,1/2+z
loop_
_atom_site_type_symbol
_atom_site_label
_atom_site_fract_x
_atom_site_fract_y
_atom_site_fract_z
Si Si1 0.207855 0.912960 0.067557
Si Si2 0.712775 0.914910 0.429035
Si Si3 0.541960 0.916838 0.932957
Si Si4 0.959287 0.413192 0.568582
Si Si5 0.872316 0.588690 0.932382
Si Si6 0.623453 0.412283 0.570026
O O1 0.207208 0.901157 0.250000
O O2 0.197256 0.750000 0.000000
O O3 0.255176 0.969476 0.013750
O O4 0.171432 0.029109 0.011735
O O5 0.716869 0.750000 0.500000
O O6 0.725912 0.906649 0.250000
O O7 0.664038 0.976120 0.453092
O O8 0.537703 0.905043 0.750000
O O9 0.546629 0.750000 0.000000
O O10 0.500000 0.000000 0.000000
O O11 0.583582 0.016571 0.976598
O O12 0.958992 0.250000 0.500000
O O13 0.965373 0.406856 0.750000
O O14 0.913428 0.487051 0.520898
O O15 0.000000 0.500000 0.500000
O O16 0.864688 0.596185 0.750000
O O17 0.883423 0.750000 0.000000
O O18 0.635199 0.250000 0.500000
O O19 0.610972 0.395346 0.750000
#
# Coordination Sequence:
#
# PCOD8235077 Si02
#       6
#     8   8   8   8   8   8
#     4  12  25  42  65  92 125 163 206 256 309 367
#     4  11  24  42  65  93 127 165 207 255 308 367
#     4  12  25  43  66  93 127 165 208 257 310 368
#     4  11  24  41  64  92 125 163 205 254 307 366
#     4  11  24  42  64  92 125 163 206 253 307 365
#     4  11  24  42  65  94 127 165 208 255 309 367
#
# _framework density 20.54147
#
# number of rings (size 3 to 8) (size 9 to 14) (size 15 to 20)
#    0.000    0.667    0.000    8.000    0.000   10.667 
#    0.000    0.000    0.000    0.000    0.000    0.000 
#    0.000    0.000    0.000    0.000    0.000    0.000 
#
# Total GULP energy -595568.963974 kJ/mol
# GULP energy per Si atom -12407.686749 kJ/mol
# Density = 2.049472 g / cm^3
# Si number density = 20.541470 Si / 1000 Ang^3
#
#
#
# Elastic Constant Matrix: (Units=GPa)
#
#
# Indices 1 2 3 4 5 6 
#
# 1 106.3302 27.2536 52.5115 0.0000 0.0000 0.0000
# 2 27.2536 126.0986 44.5651 0.0000 0.0000 0.0000
# 3 52.5115 44.5651 133.5161 0.0000 0.0000 0.0000
# 4 0.0000 0.0000 0.0000 41.6636 0.0000 0.0000
# 5 0.0000 0.0000 0.0000 0.0000 34.8122 0.0000
# 6 0.0000 0.0000 0.0000 0.0000 0.0000 42.7872
#
#
#
# Elastic Compliance Matrix: (Units=1/GPa)
#
#
# Indices 1 2 3 4 5 6 
#
# 1 0.011789 -0.001031 -0.004292 0.000000 0.000000 0.000000
# 2 -0.001031 0.009081 -0.002626 0.000000 0.000000 0.000000
# 3 -0.004292 -0.002626 0.010054 0.000000 0.000000 0.000000
# 4 0.000000 0.000000 0.000000 0.024002 0.000000 0.000000
# 5 0.000000 0.000000 0.000000 0.000000 0.028726 0.000000
# 6 0.000000 0.000000 0.000000 0.000000 0.000000 0.023371
#
#
# Mechanical properties :
#
#
# Convention : Reuss Voigt Hill
#
# Bulk Modulus (GPa) = 66.55018 68.28946 67.41982
# Shear Modulus (GPa) = 39.08406 39.96024 39.52215
#
# Velocity S-wave (km/s) = 4.36672 4.41539 4.39112
# Velocity P-wave (km/s) = 7.60872 7.70137 7.65518
#
# Compressibility (1/GPa) = 0.01502625
#
# Stress axis : x y z
#
# Youngs Moduli (GPa) = 84.82698 110.11947 99.45995
#
# Poissons Ratio (x) = 0.11352 0.42692
# Poissons Ratio (y) = 0.08745 0.26114
# Poissons Ratio (z) = 0.36411 0.28913
#
# Static dielectric constant tensor:
#      x y z
#    x 3.829910 0.000000 0.000000 
#    y 0.000000 4.149330 0.000000 
#    z 0.000000 0.000000 3.991140 
# 
# 
# High freq. dielectric constant tensor:
#      x y z
#    x 1.822610 0.000000 0.000000 
#    y 0.000000 1.824880 0.000000 
#    z 0.000000 0.000000 1.824230 
# 
# From -- ./inp_files/10025.got.cif
#   From: 2010.03.12/outbox.cif.g09.slc.cpg/sg57_6_cif.got.tgz:10025.got - 2010.04.16 15:48:40.
