data_PCOD8235883
_publ_section_title
;
Structure prediction by ZEFSAII (Michael W. Deem and Ramdas Pophale) SiO2 
 PCOD8235883
Probable space group: P N N M
;
_chemical_formula_sum "Si O2"
_cell_formula_units_Z 64
_cell_length_a 18.611333
_cell_length_b 21.360806
_cell_length_c 9.143431
_cell_angle_alpha 90.000000
_cell_angle_beta 90.000000
_cell_angle_gamma 90.000000
_cell_volume 3634.999097
_symmetry_space_group_name_H-M "P N N M"
_symmetry_group_IT_number 58
_symmetry_cell_setting 'orthorhombic'
loop_
_space_group_symop_operation_xyz
x,y,z
-x,-y,z
1/2+x,1/2-y,1/2-z
1/2-x,1/2+y,1/2-z
-x,-y,-z
x,y,-z
1/2-x,1/2+y,1/2+z
1/2+x,1/2-y,1/2+z
loop_
_atom_site_type_symbol
_atom_site_label
_atom_site_fract_x
_atom_site_fract_y
_atom_site_fract_z
Si Si1 0.329505 0.125054 0.166667
Si Si2 0.374117 0.238712 0.663834
Si Si3 0.966555 0.685358 0.165413
Si Si4 0.170452 0.097674 0.831874
Si Si5 0.580158 0.521009 0.330411
Si Si6 0.019709 0.569575 0.671773
Si Si7 0.919795 0.802482 0.671946
Si Si8 0.423165 0.352687 0.170950
O O1 0.322750 0.187363 0.263486
O O2 0.255689 0.087090 0.187455
O O3 0.396727 0.081608 0.213129
O O4 0.340250 0.146984 0.000000
O O5 0.347235 0.252046 0.500000
O O6 0.453993 0.212402 0.666115
O O7 0.370314 0.302492 0.755211
O O8 0.916207 0.734211 0.252359
O O9 0.967329 0.618125 0.245395
O O10 0.937714 0.677315 0.000000
O O11 0.144494 0.155577 0.734199
O O12 0.133353 0.033860 0.779805
O O13 0.149665 0.112108 0.000000
O O14 0.500000 0.500000 0.295453
O O15 0.589949 0.538503 0.500000
O O16 0.599243 0.580510 0.233416
O O17 0.005802 0.577804 0.500000
O O18 0.000000 0.500000 0.724848
O O19 0.909904 0.792827 0.500000
O O20 0.994195 0.837601 0.709407
O O21 0.408940 0.351347 0.000000
#
# Coordination Sequence:
#
# PCOD8235883 Si02
#       8
#     8   8   8   8   8   8   8   8
#     4   9  18  33  52  74 100 129 165 208 256 308
#     4   9  17  30  50  73  96 123 160 204 249 298
#     4   9  17  29  48  74 100 125 158 203 251 298
#     4  10  20  33  50  71  99 136 171 208 256 307
#     4  10  19  31  48  71 101 137 176 212 248 299
#     4   9  17  31  53  78 102 130 166 209 257 308
#     4  10  19  30  47  72 100 129 165 208 252 297
#     4  10  19  30  48  73 100 129 166 212 254 291
#
# _framework density 17.606607
#
# number of rings (size 3 to 8) (size 9 to 14) (size 15 to 20)
#    0.000    2.500    1.250    1.500    0.000    5.500 
#    0.000    0.000    2.750    0.000    0.000    0.000 
#    0.000    0.000    0.000    0.000    0.000    0.000 
#
# Total GULP energy -793667.033412 kJ/mol
# GULP energy per Si atom -12401.047397 kJ/mol
# Density = 1.756653 g / cm^3
# Si number density = 17.606607 Si / 1000 Ang^3
#
#
#
# Elastic Constant Matrix: (Units=GPa)
#
#
# Indices 1 2 3 4 5 6 
#
# 1 61.5295 45.3295 29.9359 0.0000 0.0000 0.0000
# 2 45.3295 153.1687 68.8279 0.0000 0.0000 0.0000
# 3 29.9359 68.8279 90.5980 0.0000 0.0000 0.0000
# 4 0.0000 0.0000 0.0000 35.8453 0.0000 0.0000
# 5 0.0000 0.0000 0.0000 0.0000 16.1202 0.0000
# 6 0.0000 0.0000 0.0000 0.0000 0.0000 24.1033
#
#
#
# Elastic Compliance Matrix: (Units=1/GPa)
#
#
# Indices 1 2 3 4 5 6 
#
# 1 0.021468 -0.004807 -0.003442 0.000000 0.000000 0.000000
# 2 -0.004807 0.010989 -0.006760 0.000000 0.000000 0.000000
# 3 -0.003442 -0.006760 0.017311 0.000000 0.000000 0.000000
# 4 0.000000 0.000000 0.000000 0.027898 0.000000 0.000000
# 5 0.000000 0.000000 0.000000 0.000000 0.062034 0.000000
# 6 0.000000 0.000000 0.000000 0.000000 0.000000 0.041488
#
#
# Mechanical properties :
#
#
# Convention : Reuss Voigt Hill
#
# Bulk Modulus (GPa) = 50.63206 65.94254 58.28730
# Shear Modulus (GPa) = 22.95804 25.96063 24.45934
#
# Velocity S-wave (km/s) = 3.61494 3.84406 3.73126
# Velocity P-wave (km/s) = 6.80026 7.56552 7.19307
#
# Compressibility (1/GPa) = 0.01975033
#
# Stress axis : x y z
#
# Youngs Moduli (GPa) = 46.58074 90.99992 57.76739
#
# Poissons Ratio (x) = 0.43741 0.19883
# Poissons Ratio (y) = 0.22390 0.39052
# Poissons Ratio (z) = 0.16033 0.61517
#
# Static dielectric constant tensor:
#      x y z
#    x 2.970810 0.000000 0.000000 
#    y 0.000000 3.315690 0.000000 
#    z 0.000000 0.000000 3.337790 
# 
# 
# High freq. dielectric constant tensor:
#      x y z
#    x 1.643160 0.000000 0.000000 
#    y 0.000000 1.681000 0.000000 
#    z 0.000000 0.000000 1.686380 
# 
# From -- ./inp_files/8285.got.cif
#   From: 2010.06.25/outbox.cif.g09.slc.cpg/sg58_5_cif.got.tgz:8285.got - 2010.06.26 21:38:00.
