data_PCOD8235708
_publ_section_title
;
Structure prediction by ZEFSAII (Michael W. Deem and Ramdas Pophale) SiO2 
 PCOD8235708
Probable space group: P N N M
;
_chemical_formula_sum "Si O2"
_cell_formula_units_Z 64
_cell_length_a 23.995916
_cell_length_b 15.479689
_cell_length_c 9.118545
_cell_angle_alpha 90.000000
_cell_angle_beta 90.000000
_cell_angle_gamma 90.000000
_cell_volume 3387.077312
_symmetry_space_group_name_H-M "P N N M"
_symmetry_group_IT_number 58
_symmetry_cell_setting 'orthorhombic'
loop_
_space_group_symop_operation_xyz
x,y,z
-x,-y,z
1/2+x,1/2-y,1/2-z
1/2-x,1/2+y,1/2-z
-x,-y,-z
x,y,-z
1/2-x,1/2+y,1/2+z
1/2+x,1/2-y,1/2+z
loop_
_atom_site_type_symbol
_atom_site_label
_atom_site_fract_x
_atom_site_fract_y
_atom_site_fract_z
Si Si1 0.365993 0.162369 0.172359
Si Si2 0.437465 0.004811 0.825109
Si Si3 0.364569 0.355131 0.172086
Si Si4 0.367613 0.841087 0.171436
Si Si5 0.935732 0.000063 0.171723
Si Si6 0.368033 0.668197 0.673124
Si Si7 0.745420 0.596493 0.328551
Si Si8 0.750866 0.899311 0.173919
O O1 0.409039 0.092217 0.237913
O O2 0.387455 0.258773 0.206832
O O3 0.303960 0.147548 0.238821
O O4 0.361225 0.146187 0.000000
O O5 0.500000 0.000000 0.762360
O O6 0.402877 0.922233 0.768799
O O7 0.437790 0.006679 0.000000
O O8 0.405651 0.422693 0.245292
O O9 0.302523 0.358441 0.235539
O O10 0.362006 0.373276 0.000000
O O11 0.389577 0.755609 0.252108
O O12 0.302807 0.855282 0.207228
O O13 0.377953 0.829131 0.000000
O O14 0.909439 0.908894 0.218772
O O15 0.927334 0.016667 0.000000
O O16 0.000000 0.000000 0.217720
O O17 0.367867 0.681758 0.500000
O O18 0.306500 0.646116 0.735387
O O19 0.730280 0.601181 0.500000
O O20 0.750373 0.498223 0.275084
O O21 0.752294 0.894748 0.000000
#
# Coordination Sequence:
#
# PCOD8235708 Si02
#       8
#     8   8   8   8   8   8   8   8
#     4   9  17  30  49  76 106 139 177 214 265 327
#     4   9  17  31  51  75 105 141 180 218 261 320
#     4  11  22  34  55  85 114 141 174 227 283 324
#     4  10  20  33  55  84 110 140 180 229 272 313
#     4  10  22  41  61  78 103 148 197 228 263 328
#     4  10  20  35  56  78 104 142 180 221 274 330
#     4  10  18  33  56  79 108 145 184 220 263 328
#     4   9  15  29  53  74  99 139 181 214 255 320
#
# _framework density 18.895346
#
# number of rings (size 3 to 8) (size 9 to 14) (size 15 to 20)
#    0.000    2.250    2.500    1.125    0.000    3.250 
#    0.000    1.250    0.000    2.625    0.000    0.000 
#    0.000    0.000    0.000    0.000    0.000    0.000 
#
# Total GULP energy -793589.326366 kJ/mol
# GULP energy per Si atom -12399.833224 kJ/mol
# Density = 1.885234 g / cm^3
# Si number density = 18.895346 Si / 1000 Ang^3
#
#
#
# Elastic Constant Matrix: (Units=GPa)
#
#
# Indices 1 2 3 4 5 6 
#
# 1 146.5979 80.6417 38.1135 0.0000 0.0000 0.0000
# 2 80.6417 169.8856 45.9170 0.0000 0.0000 0.0000
# 3 38.1135 45.9170 32.3780 0.0000 0.0000 0.0000
# 4 0.0000 0.0000 0.0000 25.8938 0.0000 0.0000
# 5 0.0000 0.0000 0.0000 0.0000 8.5582 0.0000
# 6 0.0000 0.0000 0.0000 0.0000 0.0000 13.9342
#
#
#
# Elastic Compliance Matrix: (Units=1/GPa)
#
#
# Indices 1 2 3 4 5 6 
#
# 1 0.010528 -0.002672 -0.008604 0.000000 0.000000 0.000000
# 2 -0.002672 0.010223 -0.011352 0.000000 0.000000 0.000000
# 3 -0.008604 -0.011352 0.057112 0.000000 0.000000 0.000000
# 4 0.000000 0.000000 0.000000 0.038619 0.000000 0.000000
# 5 0.000000 0.000000 0.000000 0.000000 0.116846 0.000000
# 6 0.000000 0.000000 0.000000 0.000000 0.000000 0.071766
#
#
# Mechanical properties :
#
#
# Convention : Reuss Voigt Hill
#
# Bulk Modulus (GPa) = 30.66814 75.35620 53.01217
# Shear Modulus (GPa) = 13.84198 21.95654 17.89926
#
# Velocity S-wave (km/s) = 2.70952 3.41252 3.08114
# Velocity P-wave (km/s) = 5.10435 7.44946 6.38549
#
# Compressibility (1/GPa) = 0.03260713
#
# Stress axis : x y z
#
# Youngs Moduli (GPa) = 94.98407 97.81800 17.50942
#
# Poissons Ratio (x) = 0.26138 0.15064
# Poissons Ratio (y) = 0.25381 0.19877
# Poissons Ratio (z) = 0.81720 1.11047
#
# Static dielectric constant tensor:
#      x y z
#    x 3.637280 0.000000 0.000000 
#    y 0.000000 3.594410 0.000000 
#    z 0.000000 0.000000 2.988620 
# 
# 
# High freq. dielectric constant tensor:
#      x y z
#    x 1.737110 0.000000 0.000000 
#    y 0.000000 1.750420 0.000000 
#    z 0.000000 0.000000 1.685880 
# 
# From -- ./inp_files/9999.got.cif
#   From: 2010.06.25/outbox.cif.g09.slc.cpg/sg58_5_cif.got.tgz:9999.got - 2010.06.26 21:38:00.
