data_PCOD8235489
_publ_section_title
;
Structure prediction by ZEFSAII (Michael W. Deem and Ramdas Pophale) SiO2 
 PCOD8235489
Probable space group: P N N M
;
_chemical_formula_sum "Si O2"
_cell_formula_units_Z 64
_cell_length_a 15.761666
_cell_length_b 25.256455
_cell_length_c 9.141458
_cell_angle_alpha 90.000000
_cell_angle_beta 90.000000
_cell_angle_gamma 90.000000
_cell_volume 3639.066412
_symmetry_space_group_name_H-M "P N N M"
_symmetry_group_IT_number 58
_symmetry_cell_setting 'orthorhombic'
loop_
_space_group_symop_operation_xyz
x,y,z
-x,-y,z
1/2+x,1/2-y,1/2-z
1/2-x,1/2+y,1/2-z
-x,-y,-z
x,y,-z
1/2-x,1/2+y,1/2+z
1/2+x,1/2-y,1/2+z
loop_
_atom_site_type_symbol
_atom_site_label
_atom_site_fract_x
_atom_site_fract_y
_atom_site_fract_z
Si Si1 0.246641 0.994713 0.826176
Si Si2 0.840196 0.683263 0.172776
Si Si3 0.486095 0.860182 0.834148
Si Si4 0.985749 0.145721 0.833063
Si Si5 0.707915 0.622827 0.332775
Si Si6 0.923964 0.463299 0.327145
Si Si7 0.571137 0.460125 0.326004
Si Si8 0.542570 0.253649 0.834073
O O1 0.242192 0.933717 0.778228
O O2 0.332958 0.020118 0.759661
O O3 0.164237 0.025536 0.763224
O O4 0.245429 0.999229 0.000000
O O5 0.903340 0.636176 0.229187
O O6 0.746747 0.668870 0.230747
O O7 0.871552 0.739140 0.243401
O O8 0.840582 0.688273 0.000000
O O9 0.557260 0.902071 0.782801
O O10 0.519039 0.798859 0.828486
O O11 0.457297 0.874730 0.000000
O O12 0.892567 0.122084 0.815187
O O13 0.050349 0.100174 0.779578
O O14 0.994106 0.197316 0.734348
O O15 0.004012 0.162081 0.000000
O O16 0.734438 0.634046 0.500000
O O17 0.918534 0.470509 0.500000
O O18 0.000000 0.500000 0.264876
O O19 0.500000 0.500000 0.261012
O O20 0.569618 0.465327 0.500000
O O21 0.567990 0.267240 0.000000
#
# Coordination Sequence:
#
# PCOD8235489 Si02
#       8
#     8   8   8   8   8   8   8   8
#     4   9  16  26  47  77 106 138 176 216 262 315
#     4  10  19  32  52  75 100 132 175 222 265 310
#     4   8  16  31  49  70 100 137 170 210 262 311
#     4  10  19  31  53  80 107 139 177 218 264 316
#     4  10  18  30  50  78 107 137 173 214 263 316
#     4   9  15  24  44  75 104 131 171 216 258 311
#     4   9  15  28  47  74 109 138 169 217 265 306
#     4   9  19  35  53  72 100 137 175 215 265 321
#
# _framework density 17.586929000000001
#
# number of rings (size 3 to 8) (size 9 to 14) (size 15 to 20)
#    0.750    2.000    1.250    1.875    0.000    2.500 
#    0.000    1.250    0.000    7.500    0.000    0.000 
#    0.000    0.000    0.000    0.000    0.000    0.000 
#
# Total GULP energy -792995.072925 kJ/mol
# GULP energy per Si atom -12390.548014 kJ/mol
# Density = 1.754690 g / cm^3
# Si number density = 17.586929 Si / 1000 Ang^3
#
#
#
# Elastic Constant Matrix: (Units=GPa)
#
#
# Indices 1 2 3 4 5 6 
#
# 1 98.2694 43.7920 21.7226 0.0000 0.0000 0.0000
# 2 43.7920 99.5098 32.1543 0.0000 0.0000 0.0000
# 3 21.7226 32.1543 69.6955 0.0000 0.0000 0.0000
# 4 0.0000 0.0000 0.0000 16.9856 0.0000 0.0000
# 5 0.0000 0.0000 0.0000 0.0000 14.5651 0.0000
# 6 0.0000 0.0000 0.0000 0.0000 0.0000 26.1122
#
#
#
# Elastic Compliance Matrix: (Units=1/GPa)
#
#
# Indices 1 2 3 4 5 6 
#
# 1 0.012815 -0.005111 -0.001636 0.000000 0.000000 0.000000
# 2 -0.005111 0.013848 -0.004796 0.000000 0.000000 0.000000
# 3 -0.001636 -0.004796 0.017071 0.000000 0.000000 0.000000
# 4 0.000000 0.000000 0.000000 0.058873 0.000000 0.000000
# 5 0.000000 0.000000 0.000000 0.000000 0.068657 0.000000
# 6 0.000000 0.000000 0.000000 0.000000 0.000000 0.038296
#
#
# Mechanical properties :
#
#
# Convention : Reuss Voigt Hill
#
# Bulk Modulus (GPa) = 48.43117 51.42362 49.92739
# Shear Modulus (GPa) = 20.87417 22.85296 21.86356
#
# Velocity S-wave (km/s) = 3.44890 3.60867 3.52969
# Velocity P-wave (km/s) = 6.59225 6.83129 6.71283
#
# Compressibility (1/GPa) = 0.02064786
#
# Stress axis : x y z
#
# Youngs Moduli (GPa) = 78.03063 72.21139 58.57972
#
# Poissons Ratio (x) = 0.36908 0.09585
# Poissons Ratio (y) = 0.39882 0.28094
# Poissons Ratio (z) = 0.12768 0.34632
#
# Static dielectric constant tensor:
#      x y z
#    x 3.304430 0.000000 0.000000 
#    y 0.000000 3.222840 0.000000 
#    z 0.000000 0.000000 2.828590 
# 
# 
# High freq. dielectric constant tensor:
#      x y z
#    x 1.668070 0.000000 0.000000 
#    y 0.000000 1.677010 0.000000 
#    z 0.000000 0.000000 1.634280 
# 
# From -- ./inp_files/7159.got.cif
#   From: 2010.06.25/outbox.cif.g09.slc.cpg/sg58_4_cif.got.tgz:7159.got - 2010.06.26 21:38:00.
