data_PCOD8235437
_publ_section_title
;
Structure prediction by ZEFSAII (Michael W. Deem and Ramdas Pophale) SiO2 
 PCOD8235437
Probable space group: P N N M
;
_chemical_formula_sum "Si O2"
_cell_formula_units_Z 56
_cell_length_a 18.824459
_cell_length_b 18.459136
_cell_length_c 8.840983
_cell_angle_alpha 90.000000
_cell_angle_beta 90.000000
_cell_angle_gamma 90.000000
_cell_volume 3072.093495
_symmetry_space_group_name_H-M "P N N M"
_symmetry_group_IT_number 58
_symmetry_cell_setting 'orthorhombic'
loop_
_space_group_symop_operation_xyz
x,y,z
-x,-y,z
1/2+x,1/2-y,1/2-z
1/2-x,1/2+y,1/2-z
-x,-y,-z
x,y,-z
1/2-x,1/2+y,1/2+z
1/2+x,1/2-y,1/2+z
loop_
_atom_site_type_symbol
_atom_site_label
_atom_site_fract_x
_atom_site_fract_y
_atom_site_fract_z
Si Si1 0.925321 0.467654 0.679669
Si Si2 0.454575 0.339981 0.821876
Si Si3 0.747476 0.359994 0.328395
Si Si4 0.853520 0.043124 0.175588
Si Si5 0.893605 0.307538 0.326605
Si Si6 0.214949 0.496171 0.823745
Si Si7 0.595158 0.380565 0.329192
O O1 0.917323 0.469927 0.500000
O O2 0.919168 0.384722 0.741814
O O3 0.862547 0.517150 0.749706
O O4 0.000000 0.500000 0.734542
O O5 0.409336 0.402292 0.745850
O O6 0.431058 0.262127 0.751328
O O7 0.537289 0.351882 0.787353
O O8 0.441605 0.343131 0.000000
O O9 0.753973 0.393320 0.500000
O O10 0.807630 0.298339 0.307861
O O11 0.763072 0.421206 0.205741
O O12 0.666766 0.331499 0.307124
O O13 0.776040 0.054522 0.251008
O O14 0.883994 0.963145 0.206400
O O15 0.845710 0.059581 0.000000
O O16 0.916569 0.307744 0.500000
O O17 0.210541 0.479284 0.000000
O O18 0.565520 0.373595 0.500000
#
# Coordination Sequence:
#
# PCOD8235437 Si02
#       7
#     8   8   8   8   8   8   8
#     4   9  17  33  57  77  97 133 175 207 241 295
#     4  11  21  31  47  73 106 135 159 201 258 303
#     4   8  15  32  54  69  89 127 169 200 235 295
#     4  10  20  35  52  69  95 133 175 209 242 297
#     4   8  16  32  51  72  98 129 165 204 249 297
#     4  10  18  29  49  77 103 122 153 205 257 295
#     4   9  18  32  51  72  93 125 169 210 243 288
#
# _framework density 18.228611999999998
#
# number of rings (size 3 to 8) (size 9 to 14) (size 15 to 20)
#    0.000    2.714    0.000    4.286    0.000    4.857 
#    0.000    7.143    0.000    3.429    0.000    0.000 
#    0.000    0.000    0.000    0.000    0.000    0.000 
#
# Total GULP energy -693976.129908 kJ/mol
# GULP energy per Si atom -12392.430891 kJ/mol
# Density = 1.818712 g / cm^3
# Si number density = 18.228612 Si / 1000 Ang^3
#
#
#
# Elastic Constant Matrix: (Units=GPa)
#
#
# Indices 1 2 3 4 5 6 
#
# 1 165.8037 53.3454 44.5446 0.0000 0.0000 0.0000
# 2 53.3454 60.9508 23.0803 0.0000 0.0000 0.0000
# 3 44.5446 23.0803 67.0793 0.0000 0.0000 0.0000
# 4 0.0000 0.0000 0.0000 11.4160 0.0000 0.0000
# 5 0.0000 0.0000 0.0000 0.0000 29.2715 0.0000
# 6 0.0000 0.0000 0.0000 0.0000 0.0000 19.2613
#
#
#
# Elastic Compliance Matrix: (Units=1/GPa)
#
#
# Indices 1 2 3 4 5 6 
#
# 1 0.009178 -0.006583 -0.003830 0.000000 0.000000 0.000000
# 2 -0.006583 0.023586 -0.003744 0.000000 0.000000 0.000000
# 3 -0.003830 -0.003744 0.018739 0.000000 0.000000 0.000000
# 4 0.000000 0.000000 0.000000 0.087597 0.000000 0.000000
# 5 0.000000 0.000000 0.000000 0.000000 0.034163 0.000000
# 6 0.000000 0.000000 0.000000 0.000000 0.000000 0.051918
#
#
# Mechanical properties :
#
#
# Convention : Reuss Voigt Hill
#
# Bulk Modulus (GPa) = 43.12206 59.53047 51.32627
# Shear Modulus (GPa) = 19.14075 23.51398 21.32736
#
# Velocity S-wave (km/s) = 3.24395 3.59548 3.42423
# Velocity P-wave (km/s) = 6.14317 7.06861 6.62208
#
# Compressibility (1/GPa) = 0.02318998
#
# Stress axis : x y z
#
# Youngs Moduli (GPa) = 108.95624 42.39876 53.36407
#
# Poissons Ratio (x) = 0.27909 0.20438
# Poissons Ratio (y) = 0.71721 0.19980
# Poissons Ratio (z) = 0.41729 0.15874
#
# Static dielectric constant tensor:
#      x y z
#    x 3.717850 0.000000 0.000000 
#    y 0.000000 3.194960 0.000000 
#    z 0.000000 0.000000 3.166500 
# 
# 
# High freq. dielectric constant tensor:
#      x y z
#    x 1.725230 0.000000 0.000000 
#    y 0.000000 1.664240 0.000000 
#    z 0.000000 0.000000 1.690750 
# 
# From -- ./inp_files/8190.got.cif
#   From: 2010.06.25/outbox.cif.g09.slc.cpg/sg58_5_cif.got.tgz:8190.got - 2010.06.26 21:38:00.
