data_PCOD8235176
_publ_section_title
;
Structure prediction by ZEFSAII (Michael W. Deem and Ramdas Pophale) SiO2 
 PCOD8235176
Probable space group: P B C M
;
_chemical_formula_sum "Si O2"
_cell_formula_units_Z 40
_cell_length_a 13.689308
_cell_length_b 20.839275
_cell_length_c 9.132606
_cell_angle_alpha 90.000000
_cell_angle_beta 90.000000
_cell_angle_gamma 90.000000
_cell_volume 2605.306496
_symmetry_space_group_name_H-M "P B C M"
_symmetry_group_IT_number 57
_symmetry_cell_setting 'orthorhombic'
loop_
_space_group_symop_operation_xyz
x,y,z
-x,-y,1/2+z
x,1/2-y,-z
-x,1/2+y,1/2-z
-x,-y,-z
x,y,1/2-z
-x,1/2+y,z
x,1/2-y,1/2+z
loop_
_atom_site_type_symbol
_atom_site_label
_atom_site_fract_x
_atom_site_fract_y
_atom_site_fract_z
Si Si1 0.400967 0.512772 0.916059
Si Si2 0.881993 0.813735 0.921584
Si Si3 0.784904 0.557384 0.415636
Si Si4 0.230324 0.564496 0.076452
Si Si5 0.106203 0.686474 0.078891
O O1 0.423315 0.535103 0.750000
O O2 0.334022 0.447909 0.915972
O O3 0.500000 0.500000 0.000000
O O4 0.338038 0.567776 0.000841
O O5 0.868450 0.803448 0.750000
O O6 0.818676 0.874120 0.978773
O O7 0.994178 0.826868 0.964762
O O8 0.842162 0.750000 0.000000
O O9 0.825627 0.548929 0.250000
O O10 0.826447 0.499159 0.516474
O O11 0.241548 0.560132 0.250000
O O12 0.169924 0.626381 0.025942
O O13 0.117510 0.697782 0.250000
O O14 0.146109 0.750000 0.000000
#
# Coordination Sequence:
#
# PCOD8235176 Si02
#       5
#     8   8   8   8   8
#     4   9  17  30  48  69  90 117 148 187 232 274
#     4   9  17  31  46  65  93 125 156 185 222 267
#     4   8  17  30  45  66  92 120 149 187 230 268
#     4   9  17  29  45  69  93 118 152 189 224 266
#     4   9  18  30  46  66  93 126 156 186 221 264
#
# _framework density 15.35328
#
# number of rings (size 3 to 8) (size 9 to 14) (size 15 to 20)
#    1.200    2.000    0.000    0.600    0.000    3.200 
#    0.000    0.000    0.000    1.200    0.000    2.800 
#    0.000    0.000    0.000    0.000    0.000    0.000 
#
# Total GULP energy -495576.142874 kJ/mol
# GULP energy per Si atom -12389.403572 kJ/mol
# Density = 1.531833 g / cm^3
# Si number density = 15.353280 Si / 1000 Ang^3
#
#
#
# Elastic Constant Matrix: (Units=GPa)
#
#
# Indices 1 2 3 4 5 6 
#
# 1 69.4746 58.8546 34.2559 0.0000 0.0000 0.0000
# 2 58.8546 133.8900 52.8627 0.0000 0.0000 0.0000
# 3 34.2559 52.8627 70.4738 0.0000 0.0000 0.0000
# 4 0.0000 0.0000 0.0000 28.3083 0.0000 0.0000
# 5 0.0000 0.0000 0.0000 0.0000 21.3496 0.0000
# 6 0.0000 0.0000 0.0000 0.0000 0.0000 8.7557
#
#
#
# Elastic Compliance Matrix: (Units=1/GPa)
#
#
# Indices 1 2 3 4 5 6 
#
# 1 0.024298 -0.008550 -0.005398 0.000000 0.000000 0.000000
# 2 -0.008550 0.013620 -0.006060 0.000000 0.000000 0.000000
# 3 -0.005398 -0.006060 0.021359 0.000000 0.000000 0.000000
# 4 0.000000 0.000000 0.000000 0.035325 0.000000 0.000000
# 5 0.000000 0.000000 0.000000 0.000000 0.046839 0.000000
# 6 0.000000 0.000000 0.000000 0.000000 0.000000 0.114211
#
#
# Mechanical properties :
#
#
# Convention : Reuss Voigt Hill
#
# Bulk Modulus (GPa) = 51.91678 62.86501 57.39089
# Shear Modulus (GPa) = 16.55143 20.20708 18.37925
#
# Velocity S-wave (km/s) = 3.28691 3.63180 3.46365
# Velocity P-wave (km/s) = 6.94933 7.65645 7.31144
#
# Compressibility (1/GPa) = 0.01926160
#
# Stress axis : x y z
#
# Youngs Moduli (GPa) = 41.15586 73.42235 46.81794
#
# Poissons Ratio (x) = 0.62773 0.25270
# Poissons Ratio (y) = 0.35187 0.28374
# Poissons Ratio (z) = 0.22214 0.44498
#
# Static dielectric constant tensor:
#      x y z
#    x 2.759050 0.000000 0.000000 
#    y 0.000000 2.906740 0.000000 
#    z 0.000000 0.000000 2.941710 
# 
# 
# High freq. dielectric constant tensor:
#      x y z
#    x 1.566200 0.000000 0.000000 
#    y 0.000000 1.573840 0.000000 
#    z 0.000000 0.000000 1.596120 
# 
# From -- ./inp_files/4402.got.cif
#   From: 2010.03.12/outbox.cif.g09.slc.cpg/sg57_3_cif.got.tgz:4402.got - 2010.04.16 15:48:40.
