data_PCOD8235631
_publ_section_title
;
Structure prediction by ZEFSAII (Michael W. Deem and Ramdas Pophale) SiO2 
 PCOD8235631
Probable space group: P N N M
;
_chemical_formula_sum "Si O2"
_cell_formula_units_Z 56
_cell_length_a 15.096458
_cell_length_b 14.732684
_cell_length_c 13.615335
_cell_angle_alpha 90.000000
_cell_angle_beta 90.000000
_cell_angle_gamma 90.000000
_cell_volume 3028.204973
_symmetry_space_group_name_H-M "P N N M"
_symmetry_group_IT_number 58
_symmetry_cell_setting 'orthorhombic'
loop_
_space_group_symop_operation_xyz
x,y,z
-x,-y,z
1/2+x,1/2-y,1/2-z
1/2-x,1/2+y,1/2-z
-x,-y,-z
x,y,-z
1/2-x,1/2+y,1/2+z
1/2+x,1/2-y,1/2+z
loop_
_atom_site_type_symbol
_atom_site_label
_atom_site_fract_x
_atom_site_fract_y
_atom_site_fract_z
Si Si1 0.342386 0.615783 0.387512
Si Si2 0.504543 0.716243 0.310360
Si Si3 0.009338 0.281199 0.609414
Si Si4 0.658407 0.103744 0.204986
Si Si5 0.650775 0.917779 0.890609
Si Si6 0.841887 0.092963 0.887344
Si Si7 0.547027 0.096940 0.386029
O O1 0.357776 0.642350 0.500000
O O2 0.404559 0.681883 0.325813
O O3 0.240338 0.633154 0.353748
O O4 0.367986 0.511065 0.367598
O O5 0.520097 0.709008 0.192423
O O6 0.573171 0.653663 0.366537
O O7 0.516382 0.819986 0.349995
O O8 0.018582 0.237822 0.500000
O O9 0.102086 0.324294 0.642466
O O10 0.934085 0.356210 0.608168
O O11 0.761564 0.122601 0.183959
O O12 0.636729 0.107247 0.321427
O O13 0.628666 0.003590 0.174780
O O14 0.673679 0.953900 0.000000
O O15 0.812487 0.106818 0.000000
O O16 0.572495 0.108478 0.500000
O O17 0.500000 0.000000 0.367820
#
# Coordination Sequence:
#
# PCOD8235631 Si02
#       7
#     8   8   8   8   8   8   8
#     4   9  18  33  55  80 100 123 165 220 268 305
#     4  11  21  34  54  76 103 139 174 215 260 300
#     4  10  20  32  48  73 104 137 171 207 254 312
#     4  10  18  32  53  77 104 133 167 211 264 309
#     4   9  17  31  53  78 101 126 163 215 267 308
#     4  10  20  34  55  82 105 128 167 217 265 309
#     4  10  21  36  53  75 106 143 180 213 250 306
#
# _framework density 18.492802999999999
#
# number of rings (size 3 to 8) (size 9 to 14) (size 15 to 20)
#    0.000    2.143    0.000    6.000    0.000    4.571 
#    0.000    2.143    0.000    6.857    0.000    0.000 
#    0.000    0.000    0.000    0.000    0.000    0.000 
#
# Total GULP energy -694111.080155 kJ/mol
# GULP energy per Si atom -12394.840717 kJ/mol
# Density = 1.845071 g / cm^3
# Si number density = 18.492803 Si / 1000 Ang^3
#
#
#
# Elastic Constant Matrix: (Units=GPa)
#
#
# Indices 1 2 3 4 5 6 
#
# 1 51.6865 10.9293 15.2478 0.0000 0.0000 0.0000
# 2 10.9293 53.7988 16.8045 0.0000 0.0000 0.0000
# 3 15.2478 16.8045 117.9315 0.0000 0.0000 0.0000
# 4 0.0000 0.0000 0.0000 21.5118 0.0000 0.0000
# 5 0.0000 0.0000 0.0000 0.0000 27.1718 0.0000
# 6 0.0000 0.0000 0.0000 0.0000 0.0000 19.1220
#
#
#
# Elastic Compliance Matrix: (Units=1/GPa)
#
#
# Indices 1 2 3 4 5 6 
#
# 1 0.020737 -0.003532 -0.002178 0.000000 0.000000 0.000000
# 2 -0.003532 0.020055 -0.002401 0.000000 0.000000 0.000000
# 3 -0.002178 -0.002401 0.009103 0.000000 0.000000 0.000000
# 4 0.000000 0.000000 0.000000 0.046486 0.000000 0.000000
# 5 0.000000 0.000000 0.000000 0.000000 0.036803 0.000000
# 6 0.000000 0.000000 0.000000 0.000000 0.000000 0.052296
#
#
# Mechanical properties :
#
#
# Convention : Reuss Voigt Hill
#
# Bulk Modulus (GPa) = 29.69754 34.37557 32.03655
# Shear Modulus (GPa) = 23.48225 25.59015 24.53620
#
# Velocity S-wave (km/s) = 3.56730 3.72397 3.64647
# Velocity P-wave (km/s) = 5.74990 6.09258 5.92372
#
# Compressibility (1/GPa) = 0.03367283
#
# Stress axis : x y z
#
# Youngs Moduli (GPa) = 48.22342 49.86191 109.85141
#
# Poissons Ratio (x) = 0.17613 0.23923
# Poissons Ratio (y) = 0.17035 0.26376
# Poissons Ratio (z) = 0.10502 0.11972
#
# Static dielectric constant tensor:
#      x y z
#    x 3.344630 0.000000 0.000000 
#    y 0.000000 3.274140 0.000000 
#    z 0.000000 0.000000 3.679340 
# 
# 
# High freq. dielectric constant tensor:
#      x y z
#    x 1.716250 0.000000 0.000000 
#    y 0.000000 1.699690 0.000000 
#    z 0.000000 0.000000 1.718240 
# 
# From -- ./inp_files/22305.got.cif
#   From: 2010.06.25/outbox.cif.g09.slc.cpg/sg58_12_cif.got.tgz:22305.got - 2010.06.26 21:38:00.
