data_PCOD8235243
_publ_section_title
;
Structure prediction by ZEFSAII (Michael W. Deem and Ramdas Pophale) SiO2 
 PCOD8235243
Probable space group: P N N M
;
_chemical_formula_sum "Si O2"
_cell_formula_units_Z 64
_cell_length_a 20.819980
_cell_length_b 19.392281
_cell_length_c 9.279005
_cell_angle_alpha 90.000000
_cell_angle_beta 90.000000
_cell_angle_gamma 90.000000
_cell_volume 3746.369528
_symmetry_space_group_name_H-M "P N N M"
_symmetry_group_IT_number 58
_symmetry_cell_setting 'orthorhombic'
loop_
_space_group_symop_operation_xyz
x,y,z
-x,-y,z
1/2+x,1/2-y,1/2-z
1/2-x,1/2+y,1/2-z
-x,-y,-z
x,y,-z
1/2-x,1/2+y,1/2+z
1/2+x,1/2-y,1/2+z
loop_
_atom_site_type_symbol
_atom_site_label
_atom_site_fract_x
_atom_site_fract_y
_atom_site_fract_z
Si Si1 0.689619 0.043604 0.670646
Si Si2 0.256375 0.679447 0.829210
Si Si3 0.435476 0.461146 0.829325
Si Si4 0.312329 0.541549 0.170963
Si Si5 0.740302 0.167790 0.167835
Si Si6 0.563624 0.963996 0.328451
Si Si7 0.113531 0.678802 0.171198
Si Si8 0.890216 0.167892 0.831340
O O1 0.689318 0.051973 0.500000
O O2 0.694233 0.118681 0.740972
O O3 0.750571 0.000268 0.725476
O O4 0.625313 0.006423 0.726121
O O5 0.305039 0.620369 0.771914
O O6 0.281275 0.755097 0.786094
O O7 0.185042 0.666610 0.765603
O O8 0.250698 0.674172 0.000000
O O9 0.500000 0.500000 0.783098
O O10 0.376928 0.507353 0.767475
O O11 0.433279 0.385957 0.757040
O O12 0.431470 0.450684 0.000000
O O13 0.315563 0.540341 0.000000
O O14 0.815224 0.156783 0.205639
O O15 0.728339 0.154433 0.000000
O O16 0.561325 0.965287 0.500000
O O17 0.568260 0.884130 0.274333
O O18 0.500000 0.000000 0.263437
O O19 0.088272 0.754699 0.217816
O O20 0.118039 0.677548 0.000000
O O21 0.902788 0.156833 0.000000
#
# Coordination Sequence:
#
# PCOD8235243 Si02
#       8
#     8   8   8   8   8   8   8   8
#     4  10  17  27  47  70  91 118 149 184 228 271
#     4   8  13  24  43  65  86 113 153 191 221 263
#     4  10  20  32  46  67  94 122 153 191 229 264
#     4   9  15  26  45  66  86 113 151 189 221 259
#     4   9  17  28  45  69  92 114 147 193 233 266
#     4   9  16  26  43  70  98 120 149 190 228 264
#     4   8  13  24  42  65  89 114 149 187 223 268
#     4   9  17  29  47  68  89 117 151 187 228 273
#
# _framework density 17.083205
#
# number of rings (size 3 to 8) (size 9 to 14) (size 15 to 20)
#    0.000    3.000    2.500    1.500    0.000    0.250 
#    0.000    1.250    0.000    2.625    0.000    0.000 
#    0.000    0.000    0.000    0.000    0.000    0.000 
#
# Total GULP energy -793132.861242 kJ/mol
# GULP energy per Si atom -12392.700957 kJ/mol
# Density = 1.704432 g / cm^3
# Si number density = 17.083205 Si / 1000 Ang^3
#
#
#
# Elastic Constant Matrix: (Units=GPa)
#
#
# Indices 1 2 3 4 5 6 
#
# 1 111.6184 79.0486 18.9612 0.0000 0.0000 0.0000
# 2 79.0486 179.6229 29.1462 0.0000 0.0000 0.0000
# 3 18.9612 29.1462 16.0271 0.0000 0.0000 0.0000
# 4 0.0000 0.0000 0.0000 22.3309 0.0000 0.0000
# 5 0.0000 0.0000 0.0000 0.0000 9.8202 0.0000
# 6 0.0000 0.0000 0.0000 0.0000 0.0000 28.9416
#
#
#
# Elastic Compliance Matrix: (Units=1/GPa)
#
#
# Indices 1 2 3 4 5 6 
#
# 1 0.013606 -0.004789 -0.007388 0.000000 0.000000 0.000000
# 2 -0.004789 0.009583 -0.011762 0.000000 0.000000 0.000000
# 3 -0.007388 -0.011762 0.092525 0.000000 0.000000 0.000000
# 4 0.000000 0.000000 0.000000 0.044781 0.000000 0.000000
# 5 0.000000 0.000000 0.000000 0.000000 0.101831 0.000000
# 6 0.000000 0.000000 0.000000 0.000000 0.000000 0.034552
#
#
# Mechanical properties :
#
#
# Convention : Reuss Voigt Hill
#
# Bulk Modulus (GPa) = 14.74134 62.39783 38.56958
# Shear Modulus (GPa) = 13.61034 24.22604 18.91819
#
# Velocity S-wave (km/s) = 2.82566 3.76988 3.33139
# Velocity P-wave (km/s) = 4.39246 7.45349 6.11752
#
# Compressibility (1/GPa) = 0.06783644
#
# Stress axis : x y z
#
# Youngs Moduli (GPa) = 73.49968 104.34866 10.80789
#
# Poissons Ratio (x) = 0.49970 0.07984
# Poissons Ratio (y) = 0.35197 0.12713
# Poissons Ratio (z) = 0.54299 1.22738
#
# Static dielectric constant tensor:
#      x y z
#    x 3.171600 0.000000 0.000000 
#    y 0.000000 3.576010 0.000000 
#    z 0.000000 0.000000 2.631290 
# 
# 
# High freq. dielectric constant tensor:
#      x y z
#    x 1.635080 0.000000 0.000000 
#    y 0.000000 1.679670 0.000000 
#    z 0.000000 0.000000 1.600890 
# 
# From -- ./inp_files/17211.got.cif
#   From: 2010.06.25/outbox.cif.g09.slc.cpg/sg58_9_cif.got.tgz:17211.got - 2010.06.26 21:38:00.
