data_PCOD8235517
_publ_section_title
;
Structure prediction by ZEFSAII (Michael W. Deem and Ramdas Pophale) SiO2 
 PCOD8235517
Probable space group: P N N M
;
_chemical_formula_sum "Si O2"
_cell_formula_units_Z 40
_cell_length_a 8.957291
_cell_length_b 10.047341
_cell_length_c 22.205392
_cell_angle_alpha 90.000000
_cell_angle_beta 90.000000
_cell_angle_gamma 90.000000
_cell_volume 1998.417712
_symmetry_space_group_name_H-M "P N N M"
_symmetry_group_IT_number 58
_symmetry_cell_setting 'orthorhombic'
loop_
_space_group_symop_operation_xyz
x,y,z
-x,-y,z
1/2+x,1/2-y,1/2-z
1/2-x,1/2+y,1/2-z
-x,-y,-z
x,y,-z
1/2-x,1/2+y,1/2+z
1/2+x,1/2-y,1/2+z
loop_
_atom_site_type_symbol
_atom_site_label
_atom_site_fract_x
_atom_site_fract_y
_atom_site_fract_z
Si Si1 0.156624 0.798259 0.127222
Si Si2 0.169041 0.534279 0.185635
Si Si3 0.103879 0.871001 0.000000
Si Si4 0.813570 0.719018 0.875510
Si Si5 0.108571 0.373522 0.000000
Si Si6 0.831355 0.464995 0.676775
O O1 0.230176 0.654741 0.143355
O O2 0.201836 0.853570 0.060600
O O3 0.979044 0.779631 0.135902
O O4 0.221023 0.909354 0.171693
O O5 0.246253 0.391734 0.172394
O O6 0.184758 0.582123 0.254204
O O7 0.000000 0.500000 0.166653
O O8 0.994110 0.751270 0.000000
O O9 0.000000 0.000000 0.000000
O O10 0.707100 0.845886 0.868965
O O11 0.793507 0.641799 0.939476
O O12 0.000000 0.500000 0.000000
O O13 0.000000 0.500000 0.660737
#
# Coordination Sequence:
#
# PCOD8235517 Si02
#       6
#     8   8   4   8   4   8
#     4  10  19  35  56  78 104 137 175 224 270 312
#     4   9  19  34  55  79 104 136 179 223 265 311
#     4  10  18  30  52  83 106 127 168 217 265 316
#     4  10  19  35  57  81 104 136 177 221 271 316
#     4  10  18  32  58  87 106 127 174 235 273 308
#     4  11  22  35  50  77 112 144 177 214 258 321
#
# _framework density 20.015837000000001
#
# number of rings (size 3 to 8) (size 9 to 14) (size 15 to 20)
#    0.000    2.000    0.000    7.200    0.000    0.000 
#    0.000    5.000    0.000    0.000    0.000    8.400 
#    0.000    0.000    0.000    0.000    0.000    0.000 
#
# Total GULP energy -495529.156367 kJ/mol
# GULP energy per Si atom -12388.228909 kJ/mol
# Density = 1.997028 g / cm^3
# Si number density = 20.015837 Si / 1000 Ang^3
#
#
#
# Elastic Constant Matrix: (Units=GPa)
#
#
# Indices 1 2 3 4 5 6 
#
# 1 41.6272 38.8206 41.2410 0.0000 0.0000 0.0000
# 2 38.8206 174.8457 63.2255 0.0000 0.0000 0.0000
# 3 41.2410 63.2255 99.7666 0.0000 0.0000 0.0000
# 4 0.0000 0.0000 0.0000 39.6486 0.0000 0.0000
# 5 0.0000 0.0000 0.0000 0.0000 21.6011 0.0000
# 6 0.0000 0.0000 0.0000 0.0000 0.0000 18.7003
#
#
#
# Elastic Compliance Matrix: (Units=1/GPa)
#
#
# Indices 1 2 3 4 5 6 
#
# 1 0.042762 -0.004025 -0.015126 0.000000 0.000000 0.000000
# 2 -0.004025 0.007798 -0.003278 0.000000 0.000000 0.000000
# 3 -0.015126 -0.003278 0.018354 0.000000 0.000000 0.000000
# 4 0.000000 0.000000 0.000000 0.025222 0.000000 0.000000
# 5 0.000000 0.000000 0.000000 0.000000 0.046294 0.000000
# 6 0.000000 0.000000 0.000000 0.000000 0.000000 0.053475
#
#
# Mechanical properties :
#
#
# Convention : Reuss Voigt Hill
#
# Bulk Modulus (GPa) = 41.57019 66.97930 54.27474
# Shear Modulus (GPa) = 20.26081 27.52014 23.89048
#
# Velocity S-wave (km/s) = 3.18502 3.71201 3.45857
# Velocity P-wave (km/s) = 5.86000 7.20471 6.56686
#
# Compressibility (1/GPa) = 0.02405570
#
# Stress axis : x y z
#
# Youngs Moduli (GPa) = 23.38532 128.23118 54.48445
#
# Poissons Ratio (x) = 0.51608 0.82414
# Poissons Ratio (y) = 0.09412 0.17863
# Poissons Ratio (z) = 0.35373 0.42040
#
# Static dielectric constant tensor:
#      x y z
#    x 3.115430 0.000000 0.000000 
#    y 0.000000 3.904320 0.000000 
#    z 0.000000 0.000000 -0.046840 
# 
# 
# High freq. dielectric constant tensor:
#      x y z
#    x 1.713650 0.000000 0.000000 
#    y 0.000000 1.809910 0.000000 
#    z 0.000000 0.000000 1.791080 
# 
# From -- ./inp_files/29425.got.cif
#   From: 2010.06.25/outbox.cif.g09.slc.cpg/sg58_15_cif.got.tgz:29425.got - 2010.06.26 21:38:00.
