data_PCOD8235745
_publ_section_title
;
Structure prediction by ZEFSAII (Michael W. Deem and Ramdas Pophale) SiO2 
 PCOD8235745
Probable space group: P N N M
;
_chemical_formula_sum "Si O2"
_cell_formula_units_Z 48
_cell_length_a 28.289843
_cell_length_b 10.424390
_cell_length_c 8.547112
_cell_angle_alpha 90.000000
_cell_angle_beta 90.000000
_cell_angle_gamma 90.000000
_cell_volume 2520.580564
_symmetry_space_group_name_H-M "P N N M"
_symmetry_group_IT_number 58
_symmetry_cell_setting 'orthorhombic'
loop_
_space_group_symop_operation_xyz
x,y,z
-x,-y,z
1/2+x,1/2-y,1/2-z
1/2-x,1/2+y,1/2-z
-x,-y,-z
x,y,-z
1/2-x,1/2+y,1/2+z
1/2+x,1/2-y,1/2+z
loop_
_atom_site_type_symbol
_atom_site_label
_atom_site_fract_x
_atom_site_fract_y
_atom_site_fract_z
Si Si1 0.692515 0.495587 0.685146
Si Si2 0.855316 0.252115 0.814082
Si Si3 0.296741 0.005712 0.315150
Si Si4 0.357746 0.760991 0.314951
Si Si5 0.448667 0.868612 0.817745
Si Si6 0.453846 0.145555 0.316527
O O1 0.690806 0.497842 0.500000
O O2 0.664719 0.618817 0.753769
O O3 0.746055 0.500904 0.737697
O O4 0.667541 0.367170 0.747993
O O5 0.823673 0.369248 0.749194
O O6 0.909636 0.268364 0.760027
O O7 0.852991 0.255825 0.000000
O O8 0.290502 0.010874 0.500000
O O9 0.325858 0.880868 0.263187
O O10 0.365709 0.758088 0.500000
O O11 0.408383 0.768213 0.230515
O O12 0.499831 0.807957 0.777164
O O13 0.441572 0.997645 0.717999
O O14 0.446219 0.901675 0.000000
O O15 0.463260 0.160978 0.500000
#
# Coordination Sequence:
#
# PCOD8235745 Si02
#       6
#     8   8   8   8   8   8
#     4  10  21  35  53  79 108 139 178 220 260 308
#     4   9  18  34  55  78 106 138 176 217 257 309
#     4  10  19  34  54  76 105 142 181 217 259 311
#     4  10  20  36  55  77 107 144 180 213 258 320
#     4  11  21  33  53  83 110 132 173 226 268 308
#     4  10  18  34  58  79 105 141 176 214 268 319
#
# _framework density 19.043230000000001
#
# number of rings (size 3 to 8) (size 9 to 14) (size 15 to 20)
#    0.000    2.000    1.667    4.000    0.000    1.333 
#    0.000    2.500    0.000    5.000    0.000    0.000 
#    0.000    0.000    0.000    0.000    0.000    0.000 
#
# Total GULP energy -595281.001534 kJ/mol
# GULP energy per Si atom -12401.687532 kJ/mol
# Density = 1.899989 g / cm^3
# Si number density = 19.043230 Si / 1000 Ang^3
#
#
#
# Elastic Constant Matrix: (Units=GPa)
#
#
# Indices 1 2 3 4 5 6 
#
# 1 167.7432 78.4462 19.7372 0.0000 0.0000 0.0000
# 2 78.4462 142.6899 14.5970 0.0000 0.0000 0.0000
# 3 19.7372 14.5970 28.3094 0.0000 0.0000 0.0000
# 4 0.0000 0.0000 0.0000 19.8603 0.0000 0.0000
# 5 0.0000 0.0000 0.0000 0.0000 33.8295 0.0000
# 6 0.0000 0.0000 0.0000 0.0000 0.0000 1.4329
#
#
#
# Elastic Compliance Matrix: (Units=1/GPa)
#
#
# Indices 1 2 3 4 5 6 
#
# 1 0.008368 -0.004227 -0.003655 0.000000 0.000000 0.000000
# 2 -0.004227 0.009533 -0.001969 0.000000 0.000000 0.000000
# 3 -0.003655 -0.001969 0.038887 0.000000 0.000000 0.000000
# 4 0.000000 0.000000 0.000000 0.050352 0.000000 0.000000
# 5 0.000000 0.000000 0.000000 0.000000 0.029560 0.000000
# 6 0.000000 0.000000 0.000000 0.000000 0.000000 0.697872
#
#
# Mechanical properties :
#
#
# Convention : Reuss Voigt Hill
#
# Bulk Modulus (GPa) = 26.96283 62.70036 44.83159
# Shear Modulus (GPa) = 5.76944 26.08869 15.92906
#
# Velocity S-wave (km/s) = 1.74248 3.70533 2.89531
# Velocity P-wave (km/s) = 4.27057 7.16259 5.89663
#
# Compressibility (1/GPa) = 0.03708809
#
# Stress axis : x y z
#
# Youngs Moduli (GPa) = 119.50061 104.89569 25.71534
#
# Poissons Ratio (x) = 0.44336 0.09399
# Poissons Ratio (y) = 0.50509 0.05063
# Poissons Ratio (z) = 0.43676 0.20652
#
# Static dielectric constant tensor:
#      x y z
#    x 3.717000 0.000000 0.000000 
#    y 0.000000 3.665890 0.000000 
#    z 0.000000 0.000000 3.195970 
# 
# 
# High freq. dielectric constant tensor:
#      x y z
#    x 1.758830 0.000000 0.000000 
#    y 0.000000 1.725400 0.000000 
#    z 0.000000 0.000000 1.718400 
# 
# From -- ./inp_files/10329.got.cif
#   From: 2010.06.25/outbox.cif.g09.slc.cpg/sg58_6_cif.got.tgz:10329.got - 2010.06.26 21:38:00.
