data_PCOD8235621
_publ_section_title
;
Structure prediction by ZEFSAII (Michael W. Deem and Ramdas Pophale) SiO2 
 PCOD8235621
Probable space group: P N N M
;
_chemical_formula_sum "Si O2"
_cell_formula_units_Z 64
_cell_length_a 20.773332
_cell_length_b 19.806288
_cell_length_c 8.516035
_cell_angle_alpha 90.000000
_cell_angle_beta 90.000000
_cell_angle_gamma 90.000000
_cell_volume 3503.859551
_symmetry_space_group_name_H-M "P N N M"
_symmetry_group_IT_number 58
_symmetry_cell_setting 'orthorhombic'
loop_
_space_group_symop_operation_xyz
x,y,z
-x,-y,z
1/2+x,1/2-y,1/2-z
1/2-x,1/2+y,1/2-z
-x,-y,-z
x,y,-z
1/2-x,1/2+y,1/2+z
1/2+x,1/2-y,1/2+z
loop_
_atom_site_type_symbol
_atom_site_label
_atom_site_fract_x
_atom_site_fract_y
_atom_site_fract_z
Si Si1 0.435421 0.708436 0.685626
Si Si2 0.194392 0.711859 0.683252
Si Si3 0.377480 0.429307 0.184089
Si Si4 0.238894 0.579845 0.183888
Si Si5 0.578954 0.705307 0.317142
Si Si6 0.377967 0.570412 0.316003
Si Si7 0.268743 0.932459 0.684605
Si Si8 0.681359 0.205205 0.687201
O O1 0.426934 0.707384 0.500000
O O2 0.507534 0.730346 0.732288
O O3 0.420598 0.632918 0.746513
O O4 0.383774 0.761680 0.757085
O O5 0.199752 0.697563 0.500000
O O6 0.190414 0.640084 0.772642
O O7 0.129865 0.753214 0.716004
O O8 0.256286 0.753083 0.745268
O O9 0.417896 0.374130 0.279287
O O10 0.402718 0.504250 0.224090
O O11 0.304137 0.423833 0.244945
O O12 0.384099 0.415145 0.000000
O O13 0.304136 0.589223 0.280927
O O14 0.206044 0.507504 0.230131
O O15 0.255860 0.579730 0.000000
O O16 0.592012 0.717795 0.500000
O O17 0.386430 0.557616 0.500000
O O18 0.267539 0.923397 0.500000
O O19 0.312778 0.871805 0.753869
O O20 0.679586 0.205485 0.500000
#
# Coordination Sequence:
#
# PCOD8235621 Si02
#       8
#     8   8   8   8   8   8   8   8
#     4   9  19  33  51  75 105 140 178 219 266 320
#     4  11  20  34  57  78 102 140 180 217 264 319
#     4  10  19  33  50  74 106 143 180 216 261 314
#     4  10  19  31  50  81 112 135 168 219 272 316
#     4  11  22  35  51  76 107 138 176 224 270 316
#     4  10  18  32  52  76 105 143 183 216 259 316
#     4   8  15  28  50  76 102 130 165 214 259 301
#     4   9  15  30  55  78  97 129 176 217 257 310
#
# _framework density 18.265574000000001
#
# number of rings (size 3 to 8) (size 9 to 14) (size 15 to 20)
#    0.000    2.250    2.500    2.625    0.000    0.500 
#    0.000    5.000    0.000    0.750    0.000    5.250 
#    0.000    0.000    0.000    0.000    0.000    0.000 
#
# Total GULP energy -793368.508707 kJ/mol
# GULP energy per Si atom -12396.382949 kJ/mol
# Density = 1.822400 g / cm^3
# Si number density = 18.265574 Si / 1000 Ang^3
#
#
#
# Elastic Constant Matrix: (Units=GPa)
#
#
# Indices 1 2 3 4 5 6 
#
# 1 88.7598 51.0492 9.6777 0.0000 0.0000 0.0000
# 2 51.0492 128.3647 15.0138 0.0000 0.0000 0.0000
# 3 9.6777 15.0138 30.8072 0.0000 0.0000 0.0000
# 4 0.0000 0.0000 0.0000 24.2540 0.0000 0.0000
# 5 0.0000 0.0000 0.0000 0.0000 19.1587 0.0000
# 6 0.0000 0.0000 0.0000 0.0000 0.0000 25.7553
#
#
#
# Elastic Compliance Matrix: (Units=1/GPa)
#
#
# Indices 1 2 3 4 5 6 
#
# 1 0.014709 -0.005630 -0.001877 0.000000 0.000000 0.000000
# 2 -0.005630 0.010416 -0.003308 0.000000 0.000000 0.000000
# 3 -0.001877 -0.003308 0.034662 0.000000 0.000000 0.000000
# 4 0.000000 0.000000 0.000000 0.041230 0.000000 0.000000
# 5 0.000000 0.000000 0.000000 0.000000 0.052196 0.000000
# 6 0.000000 0.000000 0.000000 0.000000 0.000000 0.038827
#
#
# Mechanical properties :
#
#
# Convention : Reuss Voigt Hill
#
# Bulk Modulus (GPa) = 26.20711 44.37922 35.29317
# Shear Modulus (GPa) = 22.08594 25.31299 23.69946
#
# Velocity S-wave (km/s) = 3.48107 3.72671 3.60598
# Velocity P-wave (km/s) = 5.52594 6.54731 6.05819
#
# Compressibility (1/GPa) = 0.03815758
#
# Stress axis : x y z
#
# Youngs Moduli (GPa) = 67.98507 96.00417 28.85040
#
# Poissons Ratio (x) = 0.54052 0.05415
# Poissons Ratio (y) = 0.38276 0.09543
# Poissons Ratio (z) = 0.12760 0.31755
#
# Static dielectric constant tensor:
#      x y z
#    x 3.268760 0.000000 0.000000 
#    y 0.000000 3.735920 0.000000 
#    z 0.000000 0.000000 3.055900 
# 
# 
# High freq. dielectric constant tensor:
#      x y z
#    x 1.676850 0.000000 0.000000 
#    y 0.000000 1.718890 0.000000 
#    z 0.000000 0.000000 1.684560 
# 
# From -- ./inp_files/9440.got.cif
#   From: 2010.06.25/outbox.cif.g09.slc.cpg/sg58_5_cif.got.tgz:9440.got - 2010.06.26 21:38:00.
