data_PCOD8235284
_publ_section_title
;
Structure prediction by ZEFSAII (Michael W. Deem and Ramdas Pophale) SiO2 
 PCOD8235284
Probable space group: P N N M
;
_chemical_formula_sum "Si O2"
_cell_formula_units_Z 64
_cell_length_a 19.120520
_cell_length_b 19.024647
_cell_length_c 9.364046
_cell_angle_alpha 90.000000
_cell_angle_beta 90.000000
_cell_angle_gamma 90.000000
_cell_volume 3406.276080
_symmetry_space_group_name_H-M "P N N M"
_symmetry_group_IT_number 58
_symmetry_cell_setting 'orthorhombic'
loop_
_space_group_symop_operation_xyz
x,y,z
-x,-y,z
1/2+x,1/2-y,1/2-z
1/2-x,1/2+y,1/2-z
-x,-y,-z
x,y,-z
1/2-x,1/2+y,1/2+z
1/2+x,1/2-y,1/2+z
loop_
_atom_site_type_symbol
_atom_site_label
_atom_site_fract_x
_atom_site_fract_y
_atom_site_fract_z
Si Si1 0.309352 0.986803 0.164424
Si Si2 0.608473 0.148931 0.833444
Si Si3 0.825308 0.369721 0.167221
Si Si4 0.451391 0.349891 0.337320
Si Si5 0.189316 0.213837 0.666081
Si Si6 0.345023 0.458189 0.333849
Si Si7 0.027386 0.695982 0.169328
Si Si8 0.103493 0.104535 0.163172
O O1 0.367434 0.929806 0.208041
O O2 0.236564 0.946142 0.190401
O O3 0.311463 0.056648 0.256959
O O4 0.316720 0.009696 0.000000
O O5 0.671223 0.204559 0.798961
O O6 0.538955 0.160799 0.742972
O O7 0.589361 0.153451 0.000000
O O8 0.767855 0.310259 0.212696
O O9 0.902392 0.345160 0.211333
O O10 0.820411 0.383708 0.000000
O O11 0.430316 0.333294 0.500000
O O12 0.388206 0.393606 0.263062
O O13 0.463571 0.274229 0.265262
O O14 0.520055 0.397603 0.326688
O O15 0.179297 0.198416 0.500000
O O16 0.131755 0.169964 0.749608
O O17 0.366254 0.460998 0.500000
O O18 0.367507 0.532923 0.266747
O O19 0.013669 0.696231 0.000000
O O20 0.129009 0.113422 0.000000
#
# Coordination Sequence:
#
# PCOD8235284 Si02
#       8
#     8   8   8   8   8   8   8   8
#     4  10  21  37  58  82 106 141 185 226 268 317
#     4  10  22  38  57  81 110 143 179 222 272 321
#     4  10  22  38  57  81 110 143 179 222 272 321
#     4   9  17  29  50  81 112 137 173 223 268 312
#     4  10  20  35  55  79 112 145 173 214 272 328
#     4   9  17  29  50  81 112 137 173 223 268 312
#     4  10  21  37  58  82 106 141 185 226 268 317
#     4  10  17  30  54  82 108 140 179 221 265 316
#
# _framework density 18.788847000000001
#
# number of rings (size 3 to 8) (size 9 to 14) (size 15 to 20)
#    0.000    2.250    2.500    0.375    1.750    3.000 
#    0.000    2.500    0.000    3.750    0.000    0.000 
#    0.000    0.000    0.000    0.000    0.000    0.000 
#
# Total GULP energy -793357.471011 kJ/mol
# GULP energy per Si atom -12396.210485 kJ/mol
# Density = 1.874608 g / cm^3
# Si number density = 18.788847 Si / 1000 Ang^3
#
#
#
# Elastic Constant Matrix: (Units=GPa)
#
#
# Indices 1 2 3 4 5 6 
#
# 1 113.7362 46.5044 32.3813 0.0000 0.0000 0.0000
# 2 46.5044 73.1322 24.7822 0.0000 0.0000 0.0000
# 3 32.3813 24.7822 29.3299 0.0000 0.0000 0.0000
# 4 0.0000 0.0000 0.0000 23.7463 0.0000 0.0000
# 5 0.0000 0.0000 0.0000 0.0000 20.9397 0.0000
# 6 0.0000 0.0000 0.0000 0.0000 0.0000 34.5128
#
#
#
# Elastic Compliance Matrix: (Units=1/GPa)
#
#
# Indices 1 2 3 4 5 6 
#
# 1 0.014092 -0.005169 -0.011190 0.000000 0.000000 0.000000
# 2 -0.005169 0.021056 -0.012084 0.000000 0.000000 0.000000
# 3 -0.011190 -0.012084 0.056660 0.000000 0.000000 0.000000
# 4 0.000000 0.000000 0.000000 0.042112 0.000000 0.000000
# 5 0.000000 0.000000 0.000000 0.000000 0.047756 0.000000
# 6 0.000000 0.000000 0.000000 0.000000 0.000000 0.028975
#
#
# Mechanical properties :
#
#
# Convention : Reuss Voigt Hill
#
# Bulk Modulus (GPa) = 28.63656 47.05936 37.84796
# Shear Modulus (GPa) = 17.90975 23.34180 20.62578
#
# Velocity S-wave (km/s) = 3.09076 3.52848 3.31685
# Velocity P-wave (km/s) = 5.29258 6.45764 5.90392
#
# Compressibility (1/GPa) = 0.03492040
#
# Stress axis : x y z
#
# Youngs Moduli (GPa) = 70.96408 47.49313 17.64906
#
# Poissons Ratio (x) = 0.24548 0.19750
# Poissons Ratio (y) = 0.36679 0.21328
# Poissons Ratio (z) = 0.79412 0.57393
#
# Static dielectric constant tensor:
#      x y z
#    x 3.513780 0.000000 0.000000 
#    y 0.000000 3.602140 0.000000 
#    z 0.000000 0.000000 3.107830 
# 
# 
# High freq. dielectric constant tensor:
#      x y z
#    x 1.739180 0.000000 0.000000 
#    y 0.000000 1.739140 0.000000 
#    z 0.000000 0.000000 1.687300 
# 
# From -- ./inp_files/8351.got.cif
#   From: 2010.06.25/outbox.cif.g09.slc.cpg/sg58_5_cif.got.tgz:8351.got - 2010.06.26 21:38:00.
