data_PCOD8235689
_publ_section_title
;
Structure prediction by ZEFSAII (Michael W. Deem and Ramdas Pophale) SiO2 
 PCOD8235689
Probable space group: P N N M
;
_chemical_formula_sum "Si O2"
_cell_formula_units_Z 48
_cell_length_a 8.830638
_cell_length_b 13.673164
_cell_length_c 18.755102
_cell_angle_alpha 90.000000
_cell_angle_beta 90.000000
_cell_angle_gamma 90.000000
_cell_volume 2264.542810
_symmetry_space_group_name_H-M "P N N M"
_symmetry_group_IT_number 58
_symmetry_cell_setting 'orthorhombic'
loop_
_space_group_symop_operation_xyz
x,y,z
-x,-y,z
1/2+x,1/2-y,1/2-z
1/2-x,1/2+y,1/2-z
-x,-y,-z
x,y,-z
1/2-x,1/2+y,1/2+z
1/2+x,1/2-y,1/2+z
loop_
_atom_site_type_symbol
_atom_site_label
_atom_site_fract_x
_atom_site_fract_y
_atom_site_fract_z
Si Si1 0.691749 0.401653 0.500000
Si Si2 0.671091 0.405020 0.845774
Si Si3 0.237370 0.046456 0.500000
Si Si4 0.661705 0.263019 0.381038
Si Si5 0.667300 0.618734 0.500000
Si Si6 0.834244 0.110052 0.707742
Si Si7 0.159033 0.794090 0.848737
Si Si8 0.927032 0.625397 0.000000
O O1 0.748486 0.345814 0.428310
O O2 0.750441 0.512950 0.500000
O O3 0.510607 0.397790 0.500000
O O4 0.513332 0.392490 0.805795
O O5 0.743465 0.507992 0.817569
O O6 0.781466 0.314522 0.829015
O O7 0.647075 0.415110 0.931241
O O8 0.415378 0.069557 0.500000
O O9 0.262128 0.929258 0.500000
O O10 0.782415 0.205713 0.335055
O O11 0.522207 0.305664 0.335428
O O12 0.565390 0.191221 0.430772
O O13 0.715954 0.676812 0.571660
O O14 0.783802 0.127653 0.789814
#
# Coordination Sequence:
#
# PCOD8235689 Si02
#       8
#     4   8   4   8   4   8   8   4
#     4   8  18  32  62  85 116 137 199 248 294 334
#     4  11  24  40  59  89 122 166 193 251 312 360
#     4  11  19  35  63  86 124 155 200 252 295 358
#     4  10  19  37  60  91 114 156 200 248 292 356
#     4   9  19  38  61  91 104 154 203 257 291 347
#     4  11  25  38  56  88 131 156 195 246 315 369
#     4  11  22  40  63  84 118 157 209 249 297 364
#     4  10  18  32  61  92 112 150 204 253 281 352
#
# _framework density 21.196331000000001
#
# number of rings (size 3 to 8) (size 9 to 14) (size 15 to 20)
#    0.000    1.667    3.333    2.000    0.000   10.000 
#    0.000    0.000    0.000    4.000    0.000    0.000 
#    0.000    0.000    0.000    0.000    0.000    0.000 
#
# Total GULP energy -594746.064463 kJ/mol
# GULP energy per Si atom -12390.543010 kJ/mol
# Density = 2.114809 g / cm^3
# Si number density = 21.196331 Si / 1000 Ang^3
#
#
#
# Elastic Constant Matrix: (Units=GPa)
#
#
# Indices 1 2 3 4 5 6 
#
# 1 30.0351 20.4586 15.6691 0.0000 0.0000 0.0000
# 2 20.4586 139.1441 58.6581 0.0000 0.0000 0.0000
# 3 15.6691 58.6581 141.6942 0.0000 0.0000 0.0000
# 4 0.0000 0.0000 0.0000 54.5363 0.0000 0.0000
# 5 0.0000 0.0000 0.0000 0.0000 31.0765 0.0000
# 6 0.0000 0.0000 0.0000 0.0000 0.0000 26.3877
#
#
#
# Elastic Compliance Matrix: (Units=1/GPa)
#
#
# Indices 1 2 3 4 5 6 
#
# 1 0.037590 -0.004573 -0.002264 0.000000 0.000000 0.000000
# 2 -0.004573 0.009262 -0.003329 0.000000 0.000000 0.000000
# 3 -0.002264 -0.003329 0.008686 0.000000 0.000000 0.000000
# 4 0.000000 0.000000 0.000000 0.018336 0.000000 0.000000
# 5 0.000000 0.000000 0.000000 0.000000 0.032179 0.000000
# 6 0.000000 0.000000 0.000000 0.000000 0.000000 0.037896
#
#
# Mechanical properties :
#
#
# Convention : Reuss Voigt Hill
#
# Bulk Modulus (GPa) = 28.40277 55.60500 42.00389
# Shear Modulus (GPa) = 28.40647 36.80594 32.60621
#
# Velocity S-wave (km/s) = 3.66479 4.17157 3.92637
# Velocity P-wave (km/s) = 5.59790 7.03512 6.35726
#
# Compressibility (1/GPa) = 0.03520784
#
# Stress axis : x y z
#
# Youngs Moduli (GPa) = 26.60274 107.96348 115.12998
#
# Poissons Ratio (x) = 0.49367 0.26065
# Poissons Ratio (y) = 0.12164 0.38324
# Poissons Ratio (z) = 0.06023 0.35938
#
# Static dielectric constant tensor:
#      x y z
#    x 3.293510 0.000000 0.000000 
#    y 0.000000 4.355200 0.000000 
#    z 0.000000 0.000000 4.138710 
# 
# 
# High freq. dielectric constant tensor:
#      x y z
#    x 1.779940 0.000000 0.000000 
#    y 0.000000 1.844450 0.000000 
#    z 0.000000 0.000000 1.837900 
# 
# From -- ./inp_files/25364.got.cif
#   From: 2010.06.25/outbox.cif.g09.slc.cpg/sg58_13_cif.got.tgz:25364.got - 2010.06.26 21:38:00.
