data_PCOD8235602
_publ_section_title
;
Structure prediction by ZEFSAII (Michael W. Deem and Ramdas Pophale) SiO2 
 PCOD8235602
Probable space group: P N N M
;
_chemical_formula_sum "Si O2"
_cell_formula_units_Z 48
_cell_length_a 17.446890
_cell_length_b 8.805878
_cell_length_c 16.757855
_cell_angle_alpha 90.000000
_cell_angle_beta 90.000000
_cell_angle_gamma 90.000000
_cell_volume 2574.596150
_symmetry_space_group_name_H-M "P N N M"
_symmetry_group_IT_number 58
_symmetry_cell_setting 'orthorhombic'
loop_
_space_group_symop_operation_xyz
x,y,z
-x,-y,z
1/2+x,1/2-y,1/2-z
1/2-x,1/2+y,1/2-z
-x,-y,-z
x,y,-z
1/2-x,1/2+y,1/2+z
1/2+x,1/2-y,1/2+z
loop_
_atom_site_type_symbol
_atom_site_label
_atom_site_fract_x
_atom_site_fract_y
_atom_site_fract_z
Si Si1 0.160567 0.825856 0.818190
Si Si2 0.420268 0.066699 0.247480
Si Si3 0.192424 0.102281 0.909891
Si Si4 0.275328 0.893977 0.683482
Si Si5 0.360218 0.962849 0.910766
Si Si6 0.778924 0.837204 0.408931
O O1 0.086991 0.742243 0.777915
O O2 0.229995 0.814351 0.754586
O O3 0.194384 0.735483 0.894563
O O4 0.141345 0.996046 0.849752
O O5 0.348590 0.979087 0.282952
O O6 0.417230 0.045922 0.151246
O O7 0.500000 0.000000 0.279861
O O8 0.191712 0.273865 0.879442
O O9 0.278710 0.043986 0.906975
O O10 0.159330 0.097075 0.000000
O O11 0.214319 0.009943 0.643336
O O12 0.346737 0.784234 0.889352
O O13 0.394949 0.979208 0.000000
O O14 0.784047 0.887290 0.500000
#
# Coordination Sequence:
#
# PCOD8235602 Si02
#       6
#     8   8   8   8   8   8
#     4  10  18  33  53  77 106 141 179 224 261 312
#     4  11  22  35  53  80 112 145 179 222 275 321
#     4  10  18  31  57  83 105 135 182 228 268 313
#     4  11  18  32  55  82 108 138 181 225 261 313
#     4   9  17  32  52  79 109 140 172 212 268 325
#     4   9  17  29  51  79 106 133 173 222 265 307
#
# _framework density 18.643699999999999
#
# number of rings (size 3 to 8) (size 9 to 14) (size 15 to 20)
#    0.000    2.000    5.000    3.000    0.000    0.333 
#    0.000    0.833    0.000   19.000    0.000    2.333 
#    0.000    0.000    0.000    0.000    0.000    0.000 
#
# Total GULP energy -594838.466266 kJ/mol
# GULP energy per Si atom -12392.468047 kJ/mol
# Density = 1.860127 g / cm^3
# Si number density = 18.643700 Si / 1000 Ang^3
#
#
#
# Elastic Constant Matrix: (Units=GPa)
#
#
# Indices 1 2 3 4 5 6 
#
# 1 13.3470 -15.8887 0.5162 0.0000 0.0000 0.0000
# 2 -15.8887 74.5480 25.8885 0.0000 0.0000 0.0000
# 3 0.5162 25.8885 90.1362 0.0000 0.0000 0.0000
# 4 0.0000 0.0000 0.0000 22.1891 0.0000 0.0000
# 5 0.0000 0.0000 0.0000 0.0000 10.1963 0.0000
# 6 0.0000 0.0000 0.0000 0.0000 0.0000 13.8084
#
#
#
# Elastic Compliance Matrix: (Units=1/GPa)
#
#
# Indices 1 2 3 4 5 6 
#
# 1 0.105132 0.025122 -0.007817 0.000000 0.000000 0.000000
# 2 0.025122 0.020903 -0.006148 0.000000 0.000000 0.000000
# 3 -0.007817 -0.006148 0.012905 0.000000 0.000000 0.000000
# 4 0.000000 0.000000 0.000000 0.045067 0.000000 0.000000
# 5 0.000000 0.000000 0.000000 0.000000 0.098074 0.000000
# 6 0.000000 0.000000 0.000000 0.000000 0.000000 0.072420
#
#
# Mechanical properties :
#
#
# Convention : Reuss Voigt Hill
#
# Bulk Modulus (GPa) = 6.20142 22.11812 14.15977
# Shear Modulus (GPa) = 12.95542 20.40643 16.68093
#
# Velocity S-wave (km/s) = 2.63895 3.31199 2.99444
# Velocity P-wave (km/s) = 3.55231 5.14927 4.42345
#
# Compressibility (1/GPa) = 0.16125343
#
# Stress axis : x y z
#
# Youngs Moduli (GPa) = 9.51189 47.83901 77.49060
#
# Poissons Ratio (x) = -1.20181 0.60578
# Poissons Ratio (y) = -0.23896 0.47639
# Poissons Ratio (z) = 0.07436 0.29410
#
# Static dielectric constant tensor:
#      x y z
#    x 2.819370 0.000000 0.000000 
#    y 0.000000 3.726980 0.000000 
#    z 0.000000 0.000000 3.809270 
# 
# 
# High freq. dielectric constant tensor:
#      x y z
#    x 1.650180 0.000000 0.000000 
#    y 0.000000 1.730040 0.000000 
#    z 0.000000 0.000000 1.740200 
# 
# From -- ./inp_files/19846.got.cif
#   From: 2010.06.25/outbox.cif.g09.slc.cpg/sg58_10_cif.got.tgz:19846.got - 2010.06.26 21:38:00.
