data_PCOD8235317
_publ_section_title
;
Structure prediction by ZEFSAII (Michael W. Deem and Ramdas Pophale) SiO2 
 PCOD8235317
Probable space group: P N N M
;
_chemical_formula_sum "Si O2"
_cell_formula_units_Z 36
_cell_length_a 8.569864
_cell_length_b 14.322486
_cell_length_c 14.402395
_cell_angle_alpha 90.000000
_cell_angle_beta 90.000000
_cell_angle_gamma 90.000000
_cell_volume 1767.775270
_symmetry_space_group_name_H-M "P N N M"
_symmetry_group_IT_number 58
_symmetry_cell_setting 'orthorhombic'
loop_
_space_group_symop_operation_xyz
x,y,z
-x,-y,z
1/2+x,1/2-y,1/2-z
1/2-x,1/2+y,1/2-z
-x,-y,-z
x,y,-z
1/2-x,1/2+y,1/2+z
1/2+x,1/2-y,1/2+z
loop_
_atom_site_type_symbol
_atom_site_label
_atom_site_fract_x
_atom_site_fract_y
_atom_site_fract_z
Si Si1 0.536917 0.235341 0.500000
Si Si2 0.281247 0.374716 0.500000
Si Si3 0.286745 0.668860 0.000000
Si Si4 0.436806 0.791456 0.699307
Si Si5 0.215529 0.131736 0.699999
Si Si6 0.670605 0.038733 0.186735
O O1 0.461110 0.339920 0.500000
O O2 0.400676 0.157299 0.500000
O O3 0.634006 0.219086 0.594523
O O4 0.170652 0.281117 0.500000
O O5 0.253270 0.438269 0.409998
O O6 0.346574 0.617972 0.093886
O O7 0.620912 0.812271 0.697879
O O8 0.415073 0.692819 0.749352
O O9 0.337958 0.869789 0.750534
O O10 0.228759 0.034729 0.754182
O O11 0.500000 0.000000 0.163589
#
# Coordination Sequence:
#
# PCOD8235317 Si02
#       6
#     4   4   4   8   8   8
#     4   8  18  31  58  72 105 145 176 218 279 310
#     4  10  17  37  53  80 112 147 173 227 277 329
#     4   8  16  34  55  70 106 149 175 206 278 326
#     4  10  18  37  51  80 108 142 181 225 267 329
#     4  10  20  34  57  78 108 147 183 222 277 319
#     4  10  20  31  56  83 111 138 187 228 263 323
#
# _framework density 20.364578999999999
#
# number of rings (size 3 to 8) (size 9 to 14) (size 15 to 20)
#    0.667    1.778    2.222    0.333    0.000    1.778 
#    0.000   12.222    0.000    0.000    0.000    7.778 
#    0.000    0.000    0.000    0.000    0.000    0.000 
#
# Total GULP energy -446118.500657 kJ/mol
# GULP energy per Si atom -12392.180574 kJ/mol
# Density = 2.031823 g / cm^3
# Si number density = 20.364579 Si / 1000 Ang^3
#
#
#
# Elastic Constant Matrix: (Units=GPa)
#
#
# Indices 1 2 3 4 5 6 
#
# 1 9.2708 8.2144 19.9232 0.0000 0.0000 0.0000
# 2 8.2144 85.4494 64.1033 0.0000 0.0000 0.0000
# 3 19.9232 64.1033 227.2267 0.0000 0.0000 0.0000
# 4 0.0000 0.0000 0.0000 33.5536 0.0000 0.0000
# 5 0.0000 0.0000 0.0000 0.0000 16.6271 0.0000
# 6 0.0000 0.0000 0.0000 0.0000 0.0000 21.4230
#
#
#
# Elastic Compliance Matrix: (Units=1/GPa)
#
#
# Indices 1 2 3 4 5 6 
#
# 1 0.134698 -0.005186 -0.010347 0.000000 0.000000 0.000000
# 2 -0.005186 0.015044 -0.003789 0.000000 0.000000 0.000000
# 3 -0.010347 -0.003789 0.006377 0.000000 0.000000 0.000000
# 4 0.000000 0.000000 0.000000 0.029803 0.000000 0.000000
# 5 0.000000 0.000000 0.000000 0.000000 0.060143 0.000000
# 6 0.000000 0.000000 0.000000 0.000000 0.000000 0.046679
#
#
# Mechanical properties :
#
#
# Convention : Reuss Voigt Hill
#
# Bulk Modulus (GPa) = 8.51257 56.26986 32.39122
# Shear Modulus (GPa) = 13.49354 29.63446 21.56400
#
# Velocity S-wave (km/s) = 2.57689 3.81884 3.25760
# Velocity P-wave (km/s) = 3.61151 6.86556 5.48539
#
# Compressibility (1/GPa) = 0.11747329
#
# Stress axis : x y z
#
# Youngs Moduli (GPa) = 7.42402 66.47096 156.80957
#
# Poissons Ratio (x) = 0.34475 1.62254
# Poissons Ratio (y) = 0.03850 0.59421
# Poissons Ratio (z) = 0.07682 0.25188
#
# Static dielectric constant tensor:
#      x y z
#    x 3.147230 0.000000 0.000000 
#    y 0.000000 3.571240 0.000000 
#    z 0.000000 0.000000 4.052200 
# 
# 
# High freq. dielectric constant tensor:
#      x y z
#    x 1.742960 0.000000 0.000000 
#    y 0.000000 1.783550 0.000000 
#    z 0.000000 0.000000 1.821930 
# 
# From -- ./inp_files/19427.got.cif
#   From: 2010.06.25/outbox.cif.g09.slc.cpg/sg58_10_cif.got.tgz:19427.got - 2010.06.26 21:38:00.
