data_PCOD8235106
_publ_section_title
;
Structure prediction by ZEFSAII (Michael W. Deem and Ramdas Pophale) SiO2 
 PCOD8235106
Probable space group: P B C M
;
_chemical_formula_sum "Si O2"
_cell_formula_units_Z 40
_cell_length_a 5.304815
_cell_length_b 21.654866
_cell_length_c 13.953646
_cell_angle_alpha 90.000000
_cell_angle_beta 90.000000
_cell_angle_gamma 90.000000
_cell_volume 1602.925893
_symmetry_space_group_name_H-M "P B C M"
_symmetry_group_IT_number 57
_symmetry_cell_setting 'orthorhombic'
loop_
_space_group_symop_operation_xyz
x,y,z
-x,-y,1/2+z
x,1/2-y,-z
-x,1/2+y,1/2-z
-x,-y,-z
x,y,1/2-z
-x,1/2+y,z
x,1/2-y,1/2+z
loop_
_atom_site_type_symbol
_atom_site_label
_atom_site_fract_x
_atom_site_fract_y
_atom_site_fract_z
Si Si1 0.947029 0.681899 0.750000
Si Si2 0.289605 0.938310 0.250000
Si Si3 0.356076 0.481534 0.406039
Si Si4 0.372231 0.816591 0.542395
Si Si5 0.094261 0.948921 0.750000
Si Si6 0.190980 0.814200 0.750000
Si Si7 0.143093 0.136729 0.948696
O O1 0.797057 0.673333 0.650570
O O2 0.156470 0.627921 0.750000
O O3 0.031120 0.752356 0.750000
O O4 0.460569 0.938344 0.156110
O O5 0.127410 0.001460 0.250000
O O6 0.500000 0.500000 0.500000
O O7 0.263384 0.540734 0.345780
O O8 0.115114 0.437090 0.428954
O O9 0.427260 0.750000 0.500000
O O10 0.367265 0.814266 0.657039
O O11 0.612374 0.858088 0.516175
O O12 0.108522 0.840859 0.500156
O O13 0.015144 0.876758 0.750000
#
# Coordination Sequence:
#
# PCOD8235106 Si02
#       7
#     4   4   8   8   4   4   8
#     4  12  24  51  81 116 152 216 261 344 394 473
#     4  11  24  48  73 113 154 197 283 324 393 484
#     4  11  25  45  78 110 153 211 261 335 395 476
#     4  12  28  50  76 119 158 206 268 323 402 481
#     4  11  25  47  71 114 155 201 266 324 407 464
#     4  12  29  50  79 113 167 212 252 350 408 469
#     4  12  26  49  78 118 153 206 274 321 391 486
#
# _framework density 24.954369
#
# number of rings (size 3 to 8) (size 9 to 14) (size 15 to 20)
#    0.000    0.400    4.000    3.600    2.800    3.200 
#    0.000    0.000    0.000    0.000    0.000    0.000 
#    0.000    0.000    0.000    0.000    0.000    0.000 
#
# Total GULP energy -495931.724325 kJ/mol
# GULP energy per Si atom -12398.293108 kJ/mol
# Density = 2.489757 g / cm^3
# Si number density = 24.954369 Si / 1000 Ang^3
#
#
#
# Elastic Constant Matrix: (Units=GPa)
#
#
# Indices 1 2 3 4 5 6 
#
# 1 85.7889 10.8468 24.8570 0.0000 0.0000 0.0000
# 2 10.8468 169.2702 17.9886 0.0000 0.0000 0.0000
# 3 24.8570 17.9886 182.0295 0.0000 0.0000 0.0000
# 4 0.0000 0.0000 0.0000 23.4624 0.0000 0.0000
# 5 0.0000 0.0000 0.0000 0.0000 17.0018 0.0000
# 6 0.0000 0.0000 0.0000 0.0000 0.0000 36.6465
#
#
#
# Elastic Compliance Matrix: (Units=1/GPa)
#
#
# Indices 1 2 3 4 5 6 
#
# 1 0.012199 -0.000611 -0.001605 0.000000 0.000000 0.000000
# 2 -0.000611 0.006001 -0.000510 0.000000 0.000000 0.000000
# 3 -0.001605 -0.000510 0.005763 0.000000 0.000000 0.000000
# 4 0.000000 0.000000 0.000000 0.042621 0.000000 0.000000
# 5 0.000000 0.000000 0.000000 0.000000 0.058817 0.000000
# 6 0.000000 0.000000 0.000000 0.000000 0.000000 0.027288
#
#
# Mechanical properties :
#
#
# Convention : Reuss Voigt Hill
#
# Bulk Modulus (GPa) = 54.02211 60.49706 57.25958
# Shear Modulus (GPa) = 30.42992 40.98190 35.70591
#
# Velocity S-wave (km/s) = 3.49581 4.05689 3.78676
# Velocity P-wave (km/s) = 6.16357 6.80002 6.48960
#
# Compressibility (1/GPa) = 0.01851094
#
# Stress axis : x y z
#
# Youngs Moduli (GPa) = 81.97427 166.63816 173.51457
#
# Poissons Ratio (x) = 0.10183 0.27857
# Poissons Ratio (y) = 0.05009 0.08842
# Poissons Ratio (z) = 0.13160 0.08492
#
# Static dielectric constant tensor:
#      x y z
#    x 4.292660 0.000000 0.000000 
#    y 0.000000 4.691660 0.000000 
#    z 0.000000 0.000000 4.996560 
# 
# 
# High freq. dielectric constant tensor:
#      x y z
#    x 1.974700 0.000000 0.000000 
#    y 0.000000 2.009790 0.000000 
#    z 0.000000 0.000000 2.022350 
# 
# From -- ./inp_files/14996.got.cif
#   From: 2010.03.12/outbox.cif.g09.slc.cpg/sg57_8_cif.got.tgz:14996.got - 2010.04.16 15:48:40.
