data_PCOD8235225
_publ_section_title
;
Structure prediction by ZEFSAII (Michael W. Deem and Ramdas Pophale) SiO2 
 PCOD8235225
Probable space group: P N N M
;
_chemical_formula_sum "Si O2"
_cell_formula_units_Z 56
_cell_length_a 22.192041
_cell_length_b 17.497538
_cell_length_c 9.028960
_cell_angle_alpha 90.000000
_cell_angle_beta 90.000000
_cell_angle_gamma 90.000000
_cell_volume 3506.000070
_symmetry_space_group_name_H-M "P N N M"
_symmetry_group_IT_number 58
_symmetry_cell_setting 'orthorhombic'
loop_
_space_group_symop_operation_xyz
x,y,z
-x,-y,z
1/2+x,1/2-y,1/2-z
1/2-x,1/2+y,1/2-z
-x,-y,-z
x,y,-z
1/2-x,1/2+y,1/2+z
1/2+x,1/2-y,1/2+z
loop_
_atom_site_type_symbol
_atom_site_label
_atom_site_fract_x
_atom_site_fract_y
_atom_site_fract_z
Si Si1 0.851272 0.371764 0.826524
Si Si2 0.817228 0.777755 0.166883
Si Si3 0.429780 0.005882 0.828769
Si Si4 0.717253 0.423208 0.173973
Si Si5 0.347683 0.866629 0.171198
Si Si6 0.680067 0.725138 0.167583
Si Si7 0.785740 0.079487 0.826361
O O1 0.903811 0.426934 0.771557
O O2 0.787104 0.409129 0.786248
O O3 0.859616 0.290349 0.746087
O O4 0.857464 0.357687 0.000000
O O5 0.823749 0.854549 0.263091
O O6 0.858253 0.710687 0.235826
O O7 0.748942 0.750237 0.171574
O O8 0.838754 0.794191 0.000000
O O9 0.500000 0.000000 0.796327
O O10 0.400009 0.925359 0.784084
O O11 0.415661 0.024710 0.000000
O O12 0.695076 0.500256 0.251819
O O13 0.706713 0.429679 0.000000
O O14 0.284176 0.905761 0.209763
O O15 0.350117 0.843465 0.000000
O O16 0.672934 0.646026 0.256564
O O17 0.657155 0.713851 0.000000
O O18 0.798396 0.075420 0.000000
#
# Coordination Sequence:
#
# PCOD8235225 Si02
#       7
#     8   8   8   8   8   8   8
#     4  10  19  30  44  61  85 115 149 187 226 263
#     4   9  17  27  41  60  82 111 145 179 216 262
#     4  10  20  33  48  65  86 117 156 192 227 266
#     4  10  18  27  41  62  88 117 147 178 216 264
#     4   9  17  29  43  59  83 114 146 183 222 259
#     4   9  17  28  42  60  84 113 146 179 217 266
#     4  10  17  26  42  63  88 116 147 180 217 261
#
# _framework density 15.972619
#
# number of rings (size 3 to 8) (size 9 to 14) (size 15 to 20)
#    0.000    2.429    1.429    2.143    0.000    6.000 
#    0.000    0.000    0.000    0.000    0.000    0.000 
#    0.000    1.143    0.000   12.286    0.000    5.429 
#
# Total GULP energy -694484.941775 kJ/mol
# GULP energy per Si atom -12401.516817 kJ/mol
# Density = 1.593626 g / cm^3
# Si number density = 15.972619 Si / 1000 Ang^3
#
#
#
# Elastic Constant Matrix: (Units=GPa)
#
#
# Indices 1 2 3 4 5 6 
#
# 1 37.9046 33.3535 22.8779 0.0000 0.0000 0.0000
# 2 33.3535 149.4415 73.7018 0.0000 0.0000 0.0000
# 3 22.8779 73.7018 100.1628 0.0000 0.0000 0.0000
# 4 0.0000 0.0000 0.0000 37.4855 0.0000 0.0000
# 5 0.0000 0.0000 0.0000 0.0000 13.2167 0.0000
# 6 0.0000 0.0000 0.0000 0.0000 0.0000 14.0119
#
#
#
# Elastic Compliance Matrix: (Units=1/GPa)
#
#
# Indices 1 2 3 4 5 6 
#
# 1 0.033542 -0.005820 -0.003379 0.000000 0.000000 0.000000
# 2 -0.005820 0.011513 -0.007142 0.000000 0.000000 0.000000
# 3 -0.003379 -0.007142 0.016011 0.000000 0.000000 0.000000
# 4 0.000000 0.000000 0.000000 0.026677 0.000000 0.000000
# 5 0.000000 0.000000 0.000000 0.000000 0.075662 0.000000
# 6 0.000000 0.000000 0.000000 0.000000 0.000000 0.071368
#
#
# Mechanical properties :
#
#
# Convention : Reuss Voigt Hill
#
# Bulk Modulus (GPa) = 35.23071 60.81948 48.02509
# Shear Modulus (GPa) = 18.05602 23.44788 20.75195
#
# Velocity S-wave (km/s) = 3.36584 3.83561 3.60838
# Velocity P-wave (km/s) = 6.10000 7.60105 6.89151
#
# Compressibility (1/GPa) = 0.02838433
#
# Stress axis : x y z
#
# Youngs Moduli (GPa) = 29.81296 86.85956 62.45771
#
# Poissons Ratio (x) = 0.50550 0.21105
# Poissons Ratio (y) = 0.17351 0.44608
# Poissons Ratio (z) = 0.10074 0.62036
#
# Static dielectric constant tensor:
#      x y z
#    x 2.491980 0.000000 0.000000 
#    y 0.000000 3.179640 0.000000 
#    z 0.000000 0.000000 3.136130 
# 
# 
# High freq. dielectric constant tensor:
#      x y z
#    x 1.539320 0.000000 0.000000 
#    y 0.000000 1.626890 0.000000 
#    z 0.000000 0.000000 1.628930 
# 
# From -- ./inp_files/6264.got.cif
#   From: 2010.06.25/outbox.cif.g09.slc.cpg/sg58_4_cif.got.tgz:6264.got - 2010.06.26 21:38:00.
