data_PCOD8235438
_publ_section_title
;
Structure prediction by ZEFSAII (Michael W. Deem and Ramdas Pophale) SiO2 
 PCOD8235438
Probable space group: P N N M
;
_chemical_formula_sum "Si O2"
_cell_formula_units_Z 64
_cell_length_a 24.891522
_cell_length_b 14.235264
_cell_length_c 9.941069
_cell_angle_alpha 90.000000
_cell_angle_beta 90.000000
_cell_angle_gamma 90.000000
_cell_volume 3522.492414
_symmetry_space_group_name_H-M "P N N M"
_symmetry_group_IT_number 58
_symmetry_cell_setting 'orthorhombic'
loop_
_space_group_symop_operation_xyz
x,y,z
-x,-y,z
1/2+x,1/2-y,1/2-z
1/2-x,1/2+y,1/2-z
-x,-y,-z
x,y,-z
1/2-x,1/2+y,1/2+z
1/2+x,1/2-y,1/2+z
loop_
_atom_site_type_symbol
_atom_site_label
_atom_site_fract_x
_atom_site_fract_y
_atom_site_fract_z
Si Si1 0.144329 0.038939 0.152389
Si Si2 0.209264 0.712534 0.340716
Si Si3 0.360195 0.900020 0.846996
Si Si4 0.552624 0.948961 0.158982
Si Si5 0.258754 0.014757 0.154615
Si Si6 0.408068 0.250399 0.840746
Si Si7 0.826583 0.744355 0.150865
Si Si8 0.442422 0.454508 0.844042
O O1 0.199088 0.989345 0.208709
O O2 0.154878 0.149262 0.157335
O O3 0.097522 0.013944 0.253738
O O4 0.129192 0.007329 0.000000
O O5 0.203325 0.707130 0.500000
O O6 0.215043 0.607524 0.278233
O O7 0.153522 0.757106 0.283816
O O8 0.263960 0.768326 0.303047
O O9 0.367140 0.811747 0.748840
O O10 0.396715 0.986935 0.801869
O O11 0.298033 0.927605 0.829515
O O12 0.373729 0.870063 0.000000
O O13 0.561972 0.843294 0.217410
O O14 0.500000 0.000000 0.221262
O O15 0.546032 0.941684 0.000000
O O16 0.248782 0.042516 0.000000
O O17 0.440485 0.344583 0.799093
O O18 0.406531 0.240216 0.000000
O O19 0.833260 0.704523 0.000000
O O20 0.500000 0.500000 0.818162
O O21 0.425511 0.463759 0.000000
#
# Coordination Sequence:
#
# PCOD8235438 Si02
#       8
#     8   8   8   8   8   8   8   8
#     4   9  19  36  54  72  99 138 179 215 253 308
#     4   8  13  26  47  68  94 132 173 204 237 298
#     4  10  18  29  49  77 106 133 165 213 264 300
#     4   9  17  29  48  76 104 134 173 208 247 306
#     4   8  14  27  47  72 100 127 164 215 256 292
#     4   9  16  29  48  70  99 135 170 206 251 306
#     4   9  19  32  49  75 105 138 175 210 253 312
#     4  10  22  36  52  78 108 135 170 221 269 303
#
# _framework density 18.168952999999998
#
# number of rings (size 3 to 8) (size 9 to 14) (size 15 to 20)
#    0.000    3.000    1.250    1.500    1.750    1.750 
#    0.000    2.500    0.000    1.875    0.000    0.000 
#    0.000    0.000    0.000    0.000    0.000    0.000 
#
# Total GULP energy -792881.155595 kJ/mol
# GULP energy per Si atom -12388.768056 kJ/mol
# Density = 1.812760 g / cm^3
# Si number density = 18.168953 Si / 1000 Ang^3
#
#
#
# Elastic Constant Matrix: (Units=GPa)
#
#
# Indices 1 2 3 4 5 6 
#
# 1 116.0083 56.1848 39.6281 0.0000 0.0000 0.0000
# 2 56.1848 87.5802 31.9410 0.0000 0.0000 0.0000
# 3 39.6281 31.9410 38.3014 0.0000 0.0000 0.0000
# 4 0.0000 0.0000 0.0000 21.7921 0.0000 0.0000
# 5 0.0000 0.0000 0.0000 0.0000 13.6031 0.0000
# 6 0.0000 0.0000 0.0000 0.0000 0.0000 26.3618
#
#
#
# Elastic Compliance Matrix: (Units=1/GPa)
#
#
# Indices 1 2 3 4 5 6 
#
# 1 0.015100 -0.005733 -0.010843 0.000000 0.000000 0.000000
# 2 -0.005733 0.018585 -0.009567 0.000000 0.000000 0.000000
# 3 -0.010843 -0.009567 0.045306 0.000000 0.000000 0.000000
# 4 0.000000 0.000000 0.000000 0.045888 0.000000 0.000000
# 5 0.000000 0.000000 0.000000 0.000000 0.073513 0.000000
# 6 0.000000 0.000000 0.000000 0.000000 0.000000 0.037934
#
#
# Mechanical properties :
#
#
# Convention : Reuss Voigt Hill
#
# Bulk Modulus (GPa) = 37.44572 55.26642 46.35607
# Shear Modulus (GPa) = 16.80595 19.96044 18.38320
#
# Velocity S-wave (km/s) = 3.04465 3.31811 3.18432
# Velocity P-wave (km/s) = 5.74581 6.72041 6.25213
#
# Compressibility (1/GPa) = 0.02670532
#
# Stress axis : x y z
#
# Youngs Moduli (GPa) = 66.22323 53.80620 22.07236
#
# Poissons Ratio (x) = 0.30847 0.23932
# Poissons Ratio (y) = 0.37965 0.21117
# Poissons Ratio (z) = 0.71803 0.51478
#
# Static dielectric constant tensor:
#      x y z
#    x 3.517360 0.000000 0.000000 
#    y 0.000000 3.366700 0.000000 
#    z 0.000000 0.000000 2.877690 
# 
# 
# High freq. dielectric constant tensor:
#      x y z
#    x 1.707520 0.000000 0.000000 
#    y 0.000000 1.704410 0.000000 
#    z 0.000000 0.000000 1.643060 
# 
# From -- ./inp_files/10084.got.cif
#   From: 2010.06.25/outbox.cif.g09.slc.cpg/sg58_6_cif.got.tgz:10084.got - 2010.06.26 21:38:00.
