data_PCOD8235796
_publ_section_title
;
Structure prediction by ZEFSAII (Michael W. Deem and Ramdas Pophale) SiO2 
 PCOD8235796
Probable space group: P N N M
;
_chemical_formula_sum "Si O2"
_cell_formula_units_Z 48
_cell_length_a 12.189827
_cell_length_b 21.831044
_cell_length_c 8.817915
_cell_angle_alpha 90.000000
_cell_angle_beta 90.000000
_cell_angle_gamma 90.000000
_cell_volume 2346.593996
_symmetry_space_group_name_H-M "P N N M"
_symmetry_group_IT_number 58
_symmetry_cell_setting 'orthorhombic'
loop_
_space_group_symop_operation_xyz
x,y,z
-x,-y,z
1/2+x,1/2-y,1/2-z
1/2-x,1/2+y,1/2-z
-x,-y,-z
x,y,-z
1/2-x,1/2+y,1/2+z
1/2+x,1/2-y,1/2+z
loop_
_atom_site_type_symbol
_atom_site_label
_atom_site_fract_x
_atom_site_fract_y
_atom_site_fract_z
Si Si1 0.471397 0.431453 0.323277
Si Si2 0.361977 0.136962 0.179094
Si Si3 0.629021 0.997037 0.830549
Si Si4 0.871422 0.821253 0.175827
Si Si5 0.746126 0.106430 0.677890
Si Si6 0.416713 0.802345 0.179237
O O1 0.500000 0.500000 0.263978
O O2 0.442060 0.434282 0.500000
O O3 0.574116 0.387082 0.290115
O O4 0.368684 0.402886 0.236654
O O5 0.256614 0.177210 0.222290
O O6 0.473120 0.166072 0.246428
O O7 0.340250 0.068596 0.241184
O O8 0.376097 0.131297 0.000000
O O9 0.673285 0.047851 0.717704
O O10 0.500000 0.000000 0.843409
O O11 0.680104 0.006573 0.000000
O O12 0.925894 0.768756 0.276951
O O13 0.886020 0.804090 0.000000
O O14 0.749733 0.116436 0.500000
O O15 0.691534 0.166853 0.750313
O O16 0.410391 0.809598 0.000000
#
# Coordination Sequence:
#
# PCOD8235796 Si02
#       6
#     8   8   8   8   8   8
#     4  10  22  43  70  95 125 166 212 258 313 385
#     4   9  19  38  64  89 118 156 200 251 306 370
#     4  10  18  36  64  90 117 156 205 252 306 370
#     4  10  22  40  63  93 124 157 204 261 315 366
#     4  12  25  39  60  92 132 167 206 260 312 366
#     4  11  23  41  62  89 123 166 212 250 309 380
#
# _framework density 20.455179000000001
#
# number of rings (size 3 to 8) (size 9 to 14) (size 15 to 20)
#    0.000    1.667    1.667    3.000    2.333    4.000 
#    0.000    3.333    0.000    0.000    0.000    0.000 
#    0.000    0.000    0.000    0.000    0.000    0.000 
#
# Total GULP energy -595266.233655 kJ/mol
# GULP energy per Si atom -12401.379868 kJ/mol
# Density = 2.040862 g / cm^3
# Si number density = 20.455179 Si / 1000 Ang^3
#
#
#
# Elastic Constant Matrix: (Units=GPa)
#
#
# Indices 1 2 3 4 5 6 
#
# 1 113.0231 40.0352 40.2874 0.0000 0.0000 0.0000
# 2 40.0352 128.1858 34.2862 0.0000 0.0000 0.0000
# 3 40.2874 34.2862 75.0541 0.0000 0.0000 0.0000
# 4 0.0000 0.0000 0.0000 33.4681 0.0000 0.0000
# 5 0.0000 0.0000 0.0000 0.0000 26.4550 0.0000
# 6 0.0000 0.0000 0.0000 0.0000 0.0000 30.0064
#
#
#
# Elastic Compliance Matrix: (Units=1/GPa)
#
#
# Indices 1 2 3 4 5 6 
#
# 1 0.011463 -0.002204 -0.005146 0.000000 0.000000 0.000000
# 2 -0.002204 0.009311 -0.003070 0.000000 0.000000 0.000000
# 3 -0.005146 -0.003070 0.017489 0.000000 0.000000 0.000000
# 4 0.000000 0.000000 0.000000 0.029879 0.000000 0.000000
# 5 0.000000 0.000000 0.000000 0.000000 0.037800 0.000000
# 6 0.000000 0.000000 0.000000 0.000000 0.000000 0.033326
#
#
# Mechanical properties :
#
#
# Convention : Reuss Voigt Hill
#
# Bulk Modulus (GPa) = 57.40032 60.60896 59.00464
# Shear Modulus (GPa) = 30.13586 31.42954 30.78270
#
# Velocity S-wave (km/s) = 3.84247 3.92408 3.88349
# Velocity P-wave (km/s) = 6.91437 7.08701 7.00122
#
# Compressibility (1/GPa) = 0.01742150
#
# Stress axis : x y z
#
# Youngs Moduli (GPa) = 87.23948 107.40378 57.17952
#
# Poissons Ratio (x) = 0.23667 0.29426
# Poissons Ratio (y) = 0.19224 0.17557
# Poissons Ratio (z) = 0.44896 0.32978
#
# Static dielectric constant tensor:
#      x y z
#    x 4.167210 0.000000 0.000000 
#    y 0.000000 4.045490 0.000000 
#    z 0.000000 0.000000 3.399250 
# 
# 
# High freq. dielectric constant tensor:
#      x y z
#    x 1.809760 0.000000 0.000000 
#    y 0.000000 1.812130 0.000000 
#    z 0.000000 0.000000 1.767200 
# 
# From -- ./inp_files/4206.got.cif
#   From: 2010.06.25/outbox.cif.g09.slc.cpg/sg58_3_cif.got.tgz:4206.got - 2010.06.26 21:38:00.
