data_PCOD8235097
_publ_section_title
;
Structure prediction by ZEFSAII (Michael W. Deem and Ramdas Pophale) SiO2 
 PCOD8235097
Probable space group: P B C M
;
_chemical_formula_sum "Si O2"
_cell_formula_units_Z 32
_cell_length_a 18.702730
_cell_length_b 8.462508
_cell_length_c 9.562691
_cell_angle_alpha 90.000000
_cell_angle_beta 90.000000
_cell_angle_gamma 90.000000
_cell_volume 1513.506251
_symmetry_space_group_name_H-M "P B C M"
_symmetry_group_IT_number 57
_symmetry_cell_setting 'orthorhombic'
loop_
_space_group_symop_operation_xyz
x,y,z
-x,-y,1/2+z
x,1/2-y,-z
-x,1/2+y,1/2-z
-x,-y,-z
x,y,1/2-z
-x,1/2+y,z
x,1/2-y,1/2+z
loop_
_atom_site_type_symbol
_atom_site_label
_atom_site_fract_x
_atom_site_fract_y
_atom_site_fract_z
Si Si1 0.937001 0.587384 0.919007
Si Si2 0.402930 0.932365 0.250000
Si Si3 0.205255 0.600898 0.405432
Si Si4 0.555275 0.068748 0.250000
Si Si5 0.654144 0.935300 0.021778
O O1 0.950915 0.607910 0.750000
O O2 0.866554 0.487009 0.950078
O O3 0.925985 0.750000 0.000000
O O4 0.000000 0.500000 0.000000
O O5 0.427626 0.752869 0.250000
O O6 0.470173 0.050394 0.250000
O O7 0.351959 0.967177 0.379722
O O8 0.221336 0.750000 0.500000
O O9 0.196866 0.667585 0.250000
O O10 0.270598 0.477926 0.408396
O O11 0.586875 0.984751 0.114533
O O12 0.650680 0.750000 0.000000
#
# Coordination Sequence:
#
# PCOD8235097 Si02
#       5
#     8   4   8   4   8
#     4  11  24  44  69 102 140 182 231 283 343 410
#     4  12  26  42  70  96 129 178 215 282 334 406
#     4  11  25  44  68  98 135 176 224 276 336 406
#     4  12  24  46  66  96 133 168 227 270 342 406
#     4  12  25  44  66  97 133 173 223 276 339 402
#
# _framework density 21.142958
#
# number of rings (size 3 to 8) (size 9 to 14) (size 15 to 20)
#    0.000    0.500    1.250    7.500    1.750    4.000 
#    0.000    0.000    0.000    0.000    0.000    0.000 
#    0.000    0.000    0.000    0.000    0.000    0.000 
#
# Total GULP energy -396918.985663 kJ/mol
# GULP energy per Si atom -12403.718302 kJ/mol
# Density = 2.109484 g / cm^3
# Si number density = 21.142958 Si / 1000 Ang^3
#
#
#
# Elastic Constant Matrix: (Units=GPa)
#
#
# Indices 1 2 3 4 5 6 
#
# 1 105.6131 17.4098 19.9008 0.0000 0.0000 0.0000
# 2 17.4098 149.4918 36.1063 0.0000 0.0000 0.0000
# 3 19.9008 36.1063 114.1404 0.0000 0.0000 0.0000
# 4 0.0000 0.0000 0.0000 40.3362 0.0000 0.0000
# 5 0.0000 0.0000 0.0000 0.0000 36.5342 0.0000
# 6 0.0000 0.0000 0.0000 0.0000 0.0000 25.6854
#
#
#
# Elastic Compliance Matrix: (Units=1/GPa)
#
#
# Indices 1 2 3 4 5 6 
#
# 1 0.009877 -0.000795 -0.001471 0.000000 0.000000 0.000000
# 2 -0.000795 0.007307 -0.002173 0.000000 0.000000 0.000000
# 3 -0.001471 -0.002173 0.009705 0.000000 0.000000 0.000000
# 4 0.000000 0.000000 0.000000 0.024792 0.000000 0.000000
# 5 0.000000 0.000000 0.000000 0.000000 0.027372 0.000000
# 6 0.000000 0.000000 0.000000 0.000000 0.000000 0.038933
#
#
# Mechanical properties :
#
#
# Convention : Reuss Voigt Hill
#
# Bulk Modulus (GPa) = 55.51985 57.34211 56.43098
# Shear Modulus (GPa) = 37.63234 40.23308 38.93271
#
# Velocity S-wave (km/s) = 4.22346 4.36696 4.29581
# Velocity P-wave (km/s) = 7.07812 7.25308 7.16613
#
# Compressibility (1/GPa) = 0.01801158
#
# Stress axis : x y z
#
# Youngs Moduli (GPa) = 101.24864 136.86084 103.04145
#
# Poissons Ratio (x) = 0.10881 0.15153
# Poissons Ratio (y) = 0.08050 0.22388
# Poissons Ratio (z) = 0.14889 0.29736
#
# Static dielectric constant tensor:
#      x y z
#    x 3.934220 0.000000 0.000000 
#    y 0.000000 3.912280 0.000000 
#    z 0.000000 0.000000 4.165910 
# 
# 
# High freq. dielectric constant tensor:
#      x y z
#    x 1.843240 0.000000 0.000000 
#    y 0.000000 1.841890 0.000000 
#    z 0.000000 0.000000 1.848190 
# 
# From -- ./inp_files/7568.got.cif
#   From: 2010.03.12/outbox.cif.g09.slc.cpg/sg57_4_cif.got.tgz:7568.got - 2010.04.16 15:48:40.
