data_PCOD8235406
_publ_section_title
;
Structure prediction by ZEFSAII (Michael W. Deem and Ramdas Pophale) SiO2 
 PCOD8235406
Probable space group: P N N M
;
_chemical_formula_sum "Si O2"
_cell_formula_units_Z 48
_cell_length_a 24.230302
_cell_length_b 13.769497
_cell_length_c 8.514457
_cell_angle_alpha 90.000000
_cell_angle_beta 90.000000
_cell_angle_gamma 90.000000
_cell_volume 2840.755521
_symmetry_space_group_name_H-M "P N N M"
_symmetry_group_IT_number 58
_symmetry_cell_setting 'orthorhombic'
loop_
_space_group_symop_operation_xyz
x,y,z
-x,-y,z
1/2+x,1/2-y,1/2-z
1/2-x,1/2+y,1/2-z
-x,-y,-z
x,y,-z
1/2-x,1/2+y,1/2+z
1/2+x,1/2-y,1/2+z
loop_
_atom_site_type_symbol
_atom_site_label
_atom_site_fract_x
_atom_site_fract_y
_atom_site_fract_z
Si Si1 0.833906 0.284456 0.314236
Si Si2 0.226815 0.904063 0.684234
Si Si3 0.670690 0.206938 0.184930
Si Si4 0.438934 0.892572 0.813831
Si Si5 0.724581 0.387219 0.315964
Si Si6 0.439946 0.111069 0.812833
O O1 0.836674 0.290111 0.500000
O O2 0.819278 0.174722 0.262552
O O3 0.785751 0.357561 0.256481
O O4 0.892630 0.318084 0.241574
O O5 0.224460 0.925046 0.500000
O O6 0.286816 0.863366 0.726834
O O7 0.212705 0.001578 0.776815
O O8 0.609430 0.178474 0.245159
O O9 0.680160 0.319318 0.228060
O O10 0.677280 0.189895 0.000000
O O11 0.499147 0.855568 0.753665
O O12 0.427959 0.001877 0.752718
O O13 0.440109 0.894992 0.000000
O O14 0.718279 0.368444 0.500000
O O15 0.437597 0.113967 0.000000
#
# Coordination Sequence:
#
# PCOD8235406 Si02
#       6
#     8   8   8   8   8   8
#     4   8  15  26  42  63  88 112 141 181 225 264
#     4  10  19  30  44  66  91 119 151 184 221 266
#     4  10  18  29  45  68  94 119 145 179 220 269
#     4   8  14  22  39  66  92 115 143 176 218 265
#     4  10  19  31  46  66  89 118 151 186 225 265
#     4   8  12  22  39  63  91 115 139 178 223 261
#
# _framework density 16.896913999999999
#
# number of rings (size 3 to 8) (size 9 to 14) (size 15 to 20)
#    0.000    3.000    0.000    4.500    0.000    2.667 
#    0.000    0.000    0.000    1.000    0.000   40.833 
#    0.000    0.000    0.000    0.000    0.000    0.000 
#
# Total GULP energy -594889.964063 kJ/mol
# GULP energy per Si atom -12393.540918 kJ/mol
# Density = 1.685846 g / cm^3
# Si number density = 16.896914 Si / 1000 Ang^3
#
#
#
# Elastic Constant Matrix: (Units=GPa)
#
#
# Indices 1 2 3 4 5 6 
#
# 1 152.0114 73.2200 8.6362 0.0000 0.0000 0.0000
# 2 73.2200 112.4062 2.6925 0.0000 0.0000 0.0000
# 3 8.6362 2.6925 19.5378 0.0000 0.0000 0.0000
# 4 0.0000 0.0000 0.0000 19.3614 0.0000 0.0000
# 5 0.0000 0.0000 0.0000 0.0000 15.7247 0.0000
# 6 0.0000 0.0000 0.0000 0.0000 0.0000 30.2873
#
#
#
# Elastic Compliance Matrix: (Units=1/GPa)
#
#
# Indices 1 2 3 4 5 6 
#
# 1 0.009815 -0.006310 -0.003469 0.000000 0.000000 0.000000
# 2 -0.006310 0.012983 0.001000 0.000000 0.000000 0.000000
# 3 -0.003469 0.001000 0.052578 0.000000 0.000000 0.000000
# 4 0.000000 0.000000 0.000000 0.051649 0.000000 0.000000
# 5 0.000000 0.000000 0.000000 0.000000 0.063594 0.000000
# 6 0.000000 0.000000 0.000000 0.000000 0.000000 0.033017
#
#
# Mechanical properties :
#
#
# Convention : Reuss Voigt Hill
#
# Bulk Modulus (GPa) = 17.29561 50.33919 33.81740
# Shear Modulus (GPa) = 19.19626 26.36846 22.78236
#
# Velocity S-wave (km/s) = 3.37424 3.95466 3.67592
# Velocity P-wave (km/s) = 5.04369 7.12103 6.17041
#
# Compressibility (1/GPa) = 0.05781813
#
# Stress axis : x y z
#
# Youngs Moduli (GPa) = 101.88445 77.02499 19.01923
#
# Poissons Ratio (x) = 0.48605 0.06598
# Poissons Ratio (y) = 0.64292 -0.01902
# Poissons Ratio (z) = 0.35342 -0.07703
#
# Static dielectric constant tensor:
#      x y z
#    x 3.596160 0.000000 0.000000 
#    y 0.000000 3.201780 0.000000 
#    z 0.000000 0.000000 2.827150 
# 
# 
# High freq. dielectric constant tensor:
#      x y z
#    x 1.647240 0.000000 0.000000 
#    y 0.000000 1.641400 0.000000 
#    z 0.000000 0.000000 1.619790 
# 
# From -- ./inp_files/4318.got.cif
#   From: 2010.06.25/outbox.cif.g09.slc.cpg/sg58_3_cif.got.tgz:4318.got - 2010.06.26 21:38:00.
