data_PCOD8235685
_publ_section_title
;
Structure prediction by ZEFSAII (Michael W. Deem and Ramdas Pophale) SiO2 
 PCOD8235685
Probable space group: P N N M
;
_chemical_formula_sum "Si O2"
_cell_formula_units_Z 64
_cell_length_a 11.956447
_cell_length_b 17.530723
_cell_length_c 15.500129
_cell_angle_alpha 90.000000
_cell_angle_beta 90.000000
_cell_angle_gamma 90.000000
_cell_volume 3248.907026
_symmetry_space_group_name_H-M "P N N M"
_symmetry_group_IT_number 58
_symmetry_cell_setting 'orthorhombic'
loop_
_space_group_symop_operation_xyz
x,y,z
-x,-y,z
1/2+x,1/2-y,1/2-z
1/2-x,1/2+y,1/2-z
-x,-y,-z
x,y,-z
1/2-x,1/2+y,1/2+z
1/2+x,1/2-y,1/2+z
loop_
_atom_site_type_symbol
_atom_site_label
_atom_site_fract_x
_atom_site_fract_y
_atom_site_fract_z
Si Si1 0.592275 0.663298 0.257891
Si Si2 0.198444 0.559290 0.598187
Si Si3 0.054624 0.667338 0.720720
Si Si4 0.167244 0.468595 0.122892
Si Si5 0.041140 0.619752 0.091152
Si Si6 0.042296 0.083360 0.900969
Si Si7 0.583070 0.568997 0.091463
Si Si8 0.823446 0.589825 0.303930
O O1 0.583716 0.744496 0.209931
O O2 0.508277 0.648472 0.338024
O O3 0.555195 0.612741 0.177858
O O4 0.716133 0.644186 0.292361
O O5 0.157692 0.573525 0.500000
O O6 0.131538 0.612666 0.663819
O O7 0.325571 0.584805 0.609039
O O8 0.184269 0.467920 0.614873
O O9 0.078514 0.662549 0.823272
O O10 0.928558 0.646912 0.692190
O O11 0.112851 0.543402 0.084944
O O12 0.290726 0.460825 0.088004
O O13 0.164753 0.470711 0.226551
O O14 0.091720 0.396736 0.094103
O O15 0.063836 0.664719 0.000000
O O16 0.005772 0.100244 0.000000
O O17 0.000000 0.000000 0.871675
O O18 0.500000 0.500000 0.092228
O O19 0.565001 0.614534 0.000000
#
# Coordination Sequence:
#
# PCOD8235685 Si02
#       8
#     8   8   8   8   8   8   8   8
#     4  11  24  39  62  87 130 170 200 263 323 372
#     4  11  23  42  70  95 122 166 220 273 318 376
#     4  11  25  39  58  93 131 164 208 254 323 394
#     4   9  17  33  57  85 114 141 189 245 288 342
#     4  10  18  32  57  85 115 149 186 243 298 348
#     4  10  21  40  67  95 121 161 221 270 313 374
#     4  10  21  36  57  85 113 154 201 238 289 363
#     4  10  21  40  61  90 120 163 214 258 309 370
#
# _framework density 19.698933
#
# number of rings (size 3 to 8) (size 9 to 14) (size 15 to 20)
#    0.000    1.750    2.500    2.250    3.500    2.000 
#    0.000    0.000    0.000    0.000    0.000    0.000 
#    0.000    0.000    0.000    0.000    0.000    0.000 
#
# Total GULP energy -792901.946141 kJ/mol
# GULP energy per Si atom -12389.092908 kJ/mol
# Density = 1.965410 g / cm^3
# Si number density = 19.698933 Si / 1000 Ang^3
#
#
#
# Elastic Constant Matrix: (Units=GPa)
#
#
# Indices 1 2 3 4 5 6 
#
# 1 95.2656 43.7695 57.6595 0.0000 0.0000 0.0000
# 2 43.7695 73.8743 24.2990 0.0000 0.0000 0.0000
# 3 57.6595 24.2990 116.7729 0.0000 0.0000 0.0000
# 4 0.0000 0.0000 0.0000 1977.5011 0.0000 0.0000
# 5 0.0000 0.0000 0.0000 0.0000 47.9992 0.0000
# 6 0.0000 0.0000 0.0000 0.0000 0.0000 22.4549
#
#
#
# Elastic Compliance Matrix: (Units=1/GPa)
#
#
# Indices 1 2 3 4 5 6 
#
# 1 0.019184 -0.008857 -0.007630 0.000000 0.000000 0.000000
# 2 -0.008857 0.018620 0.000499 0.000000 0.000000 0.000000
# 3 -0.007630 0.000499 0.012227 0.000000 0.000000 0.000000
# 4 0.000000 0.000000 0.000000 0.000506 0.000000 0.000000
# 5 0.000000 0.000000 0.000000 0.000000 0.020834 0.000000
# 6 0.000000 0.000000 0.000000 0.000000 0.000000 0.044534
#
#
# Mechanical properties :
#
#
# Convention : Reuss Voigt Hill
#
# Bulk Modulus (GPa) = 55.38387 59.70764 57.54575
# Shear Modulus (GPa) = 32.48904 420.27003 226.37953
#
# Velocity S-wave (km/s) = 4.06554 14.62223 10.73169
# Velocity P-wave (km/s) = 7.08621 17.76107 13.52165
#
# Compressibility (1/GPa) = 0.01805580
#
# Stress axis : x y z
#
# Youngs Moduli (GPa) = 52.12683 53.70578 81.78506
#
# Poissons Ratio (x) = 0.47566 0.62399
# Poissons Ratio (y) = 0.46167 -0.04078
# Poissons Ratio (z) = 0.39771 -0.02678
#
# Static dielectric constant tensor:
#      x y z
#    x 3.651210 0.000000 0.000000 
#    y 0.000000 3.289320 0.000000 
#    z 0.000000 0.000000 7.076020 
# 
# 
# High freq. dielectric constant tensor:
#      x y z
#    x 1.774500 0.000000 0.000000 
#    y 0.000000 1.730900 0.000000 
#    z 0.000000 0.000000 1.791530 
# 
# From -- ./inp_files/21493.got.cif
#   From: 2010.06.25/outbox.cif.g09.slc.cpg/sg58_11_cif.got.tgz:21493.got - 2010.06.26 21:38:00.
