data_PCOD8235126
_publ_section_title
;
Structure prediction by ZEFSAII (Michael W. Deem and Ramdas Pophale) SiO2 
 PCOD8235126
Probable space group: P B C M
;
_chemical_formula_sum "Si O2"
_cell_formula_units_Z 32
_cell_length_a 4.753969
_cell_length_b 10.326311
_cell_length_c 22.406990
_cell_angle_alpha 90.000000
_cell_angle_beta 90.000000
_cell_angle_gamma 90.000000
_cell_volume 1099.980703
_symmetry_space_group_name_H-M "P B C M"
_symmetry_group_IT_number 57
_symmetry_cell_setting 'orthorhombic'
loop_
_space_group_symop_operation_xyz
x,y,z
-x,-y,1/2+z
x,1/2-y,-z
-x,1/2+y,1/2-z
-x,-y,-z
x,y,1/2-z
-x,1/2+y,z
x,1/2-y,1/2+z
loop_
_atom_site_type_symbol
_atom_site_label
_atom_site_fract_x
_atom_site_fract_y
_atom_site_fract_z
Si Si1 0.330132 0.663089 0.851629
Si Si2 0.600172 0.027509 0.434572
Si Si3 0.321599 0.245107 0.750000
Si Si4 0.926183 0.009265 0.750000
Si Si5 0.101647 0.304437 0.567202
O O1 0.557265 0.605581 0.898641
O O2 0.485498 0.767452 0.808798
O O3 0.239045 0.543727 0.810095
O O4 0.048822 0.714861 0.883862
O O5 0.928778 0.060088 0.433108
O O6 0.419273 0.154301 0.412329
O O7 0.500000 0.000000 0.500000
O O8 0.062590 0.350243 0.750000
O O9 0.211957 0.094888 0.750000
O O10 0.098277 0.250000 0.500000
#
# Coordination Sequence:
#
# PCOD8235126 Si02
#       5
#     8   8   4   4   8
#     4  11  28  49  78 113 164 217 284 349 423 510
#     4  12  27  47  76 117 165 214 276 342 418 505
#     4  11  28  54  81 124 160 228 288 354 430 507
#     4  11  28  50  83 112 164 216 282 354 420 505
#     4  12  27  46  78 115 164 214 273 337 424 504
#
# _framework density 29.091418999999998
#
# number of rings (size 3 to 8) (size 9 to 14) (size 15 to 20)
#    0.000    0.500    2.500    3.000   10.500    4.000 
#    0.000    0.000    0.000    0.000    0.000    0.000 
#    0.000    0.000    0.000    0.000    0.000    0.000 
#
# Total GULP energy -396753.699352 kJ/mol
# GULP energy per Si atom -12398.553105 kJ/mol
# Density = 2.902521 g / cm^3
# Si number density = 29.091419 Si / 1000 Ang^3
#
#
#
# Elastic Constant Matrix: (Units=GPa)
#
#
# Indices 1 2 3 4 5 6 
#
# 1 94.6402 4.4768 -3.6087 0.0000 0.0000 0.0000
# 2 4.4768 118.4879 14.4820 0.0000 0.0000 0.0000
# 3 -3.6087 14.4820 162.3876 0.0000 0.0000 0.0000
# 4 0.0000 0.0000 0.0000 27.0902 0.0000 0.0000
# 5 0.0000 0.0000 0.0000 0.0000 27.8990 0.0000
# 6 0.0000 0.0000 0.0000 0.0000 0.0000 49.7282
#
#
#
# Elastic Compliance Matrix: (Units=1/GPa)
#
#
# Indices 1 2 3 4 5 6 
#
# 1 0.010597 -0.000434 0.000274 0.000000 0.000000 0.000000
# 2 -0.000434 0.008550 -0.000772 0.000000 0.000000 0.000000
# 3 0.000274 -0.000772 0.006233 0.000000 0.000000 0.000000
# 4 0.000000 0.000000 0.000000 0.036914 0.000000 0.000000
# 5 0.000000 0.000000 0.000000 0.000000 0.035844 0.000000
# 6 0.000000 0.000000 0.000000 0.000000 0.000000 0.020109
#
#
# Mechanical properties :
#
#
# Convention : Reuss Voigt Hill
#
# Bulk Modulus (GPa) = 42.52235 45.13509 43.82872
# Shear Modulus (GPa) = 39.07771 44.95453 42.01612
#
# Velocity S-wave (km/s) = 3.66904 3.93528 3.80449
# Velocity P-wave (km/s) = 5.70944 6.01640 5.86493
#
# Compressibility (1/GPa) = 0.02351705
#
# Stress axis : x y z
#
# Youngs Moduli (GPa) = 94.36351 116.95281 160.43476
#
# Poissons Ratio (x) = 0.05075 -0.04399
# Poissons Ratio (y) = 0.04095 0.12389
# Poissons Ratio (z) = -0.02587 0.09031
#
# Static dielectric constant tensor:
#      x y z
#    x 5.690020 0.000000 0.000000 
#    y 0.000000 5.739060 0.000000 
#    z 0.000000 0.000000 5.603090 
# 
# 
# High freq. dielectric constant tensor:
#      x y z
#    x 2.187780 0.000000 0.000000 
#    y 0.000000 2.188700 0.000000 
#    z 0.000000 0.000000 2.211270 
# 
# From -- ./inp_files/23380.got.cif
#   From: 2010.03.12/outbox.cif.g09.slc.cpg/sg57_12_cif.got.tgz:23380.got - 2010.04.16 15:48:40.
