data_PCOD8235786
_publ_section_title
;
Structure prediction by ZEFSAII (Michael W. Deem and Ramdas Pophale) SiO2 
 PCOD8235786
Probable space group: P N N M
;
_chemical_formula_sum "Si O2"
_cell_formula_units_Z 52
_cell_length_a 10.818040
_cell_length_b 20.506383
_cell_length_c 13.007823
_cell_angle_alpha 90.000000
_cell_angle_beta 90.000000
_cell_angle_gamma 90.000000
_cell_volume 2885.640776
_symmetry_space_group_name_H-M "P N N M"
_symmetry_group_IT_number 58
_symmetry_cell_setting 'orthorhombic'
loop_
_space_group_symop_operation_xyz
x,y,z
-x,-y,z
1/2+x,1/2-y,1/2-z
1/2-x,1/2+y,1/2-z
-x,-y,-z
x,y,-z
1/2-x,1/2+y,1/2+z
1/2+x,1/2-y,1/2+z
loop_
_atom_site_type_symbol
_atom_site_label
_atom_site_fract_x
_atom_site_fract_y
_atom_site_fract_z
Si Si1 0.159153 0.852225 0.882211
Si Si2 0.316751 0.651515 0.839203
Si Si3 0.695721 0.938772 0.500000
Si Si4 0.205140 0.918273 0.500000
Si Si5 0.424786 0.215129 0.694106
Si Si6 0.466202 0.858194 0.500000
Si Si7 0.452856 0.426460 0.793003
Si Si8 0.411752 0.785889 0.891529
O O1 0.087761 0.789811 0.838093
O O2 0.131842 0.913968 0.807512
O O3 0.304426 0.838898 0.876756
O O4 0.118068 0.867227 0.000000
O O5 0.263305 0.591682 0.902834
O O6 0.203587 0.680427 0.772487
O O7 0.431424 0.622359 0.776317
O O8 0.358612 0.713023 0.906900
O O9 0.547957 0.924888 0.500000
O O10 0.721110 0.014635 0.500000
O O11 0.317747 0.866506 0.500000
O O12 0.119705 0.909842 0.600978
O O13 0.495623 0.180706 0.601330
O O14 0.499851 0.208923 0.797005
O O15 0.500000 0.500000 0.795825
O O16 0.480213 0.801557 0.000000
#
# Coordination Sequence:
#
# PCOD8235786 Si02
#       8
#     8   8   4   4   8   4   8   8
#     4  10  21  38  57  79 108 151 187 225 272 330
#     4  10  19  33  54  81 111 149 179 222 284 334
#     4  10  18  36  54  79 120 152 180 220 284 343
#     4  12  23  34  55  90 116 142 186 235 279 333
#     4  10  19  35  58  80 112 147 180 227 280 334
#     4  10  21  35  56  84 114 150 187 226 280 337
#     4  12  23  36  57  81 116 148 189 233 279 334
#     4  10  19  34  59  83 110 143 184 228 283 333
#
# _framework density 18.020263
#
# number of rings (size 3 to 8) (size 9 to 14) (size 15 to 20)
#    0.000    1.538    4.615    1.846    0.000    0.308 
#    0.000    0.769    0.000    0.000    0.000    2.154 
#    0.000    0.000    0.000    0.000    0.000    0.000 
#
# Total GULP energy -644291.680450 kJ/mol
# GULP energy per Si atom -12390.224624 kJ/mol
# Density = 1.797925 g / cm^3
# Si number density = 18.020263 Si / 1000 Ang^3
#
#
#
# Elastic Constant Matrix: (Units=GPa)
#
#
# Indices 1 2 3 4 5 6 
#
# 1 96.9204 30.8882 67.4843 0.0000 0.0000 0.0000
# 2 30.8882 43.0279 28.2084 0.0000 0.0000 0.0000
# 3 67.4843 28.2084 159.8421 0.0000 0.0000 0.0000
# 4 0.0000 0.0000 0.0000 109.9016 0.0000 0.0000
# 5 0.0000 0.0000 0.0000 0.0000 21.0425 0.0000
# 6 0.0000 0.0000 0.0000 0.0000 0.0000 25.8646
#
#
#
# Elastic Compliance Matrix: (Units=1/GPa)
#
#
# Indices 1 2 3 4 5 6 
#
# 1 0.016960 -0.008459 -0.005667 0.000000 0.000000 0.000000
# 2 -0.008459 0.030501 -0.001811 0.000000 0.000000 0.000000
# 3 -0.005667 -0.001811 0.008969 0.000000 0.000000 0.000000
# 4 0.000000 0.000000 0.000000 0.009099 0.000000 0.000000
# 5 0.000000 0.000000 0.000000 0.000000 0.047523 0.000000
# 6 0.000000 0.000000 0.000000 0.000000 0.000000 0.038663
#
#
# Mechanical properties :
#
#
# Convention : Reuss Voigt Hill
#
# Bulk Modulus (GPa) = 40.72789 61.43914 51.08352
# Shear Modulus (GPa) = 26.07226 42.90904 34.49065
#
# Velocity S-wave (km/s) = 3.80785 4.88500 4.37967
# Velocity P-wave (km/s) = 6.47944 8.12319 7.34743
#
# Compressibility (1/GPa) = 0.02455320
#
# Stress axis : x y z
#
# Youngs Moduli (GPa) = 58.96255 32.78595 111.50048
#
# Poissons Ratio (x) = 0.27735 0.63193
# Poissons Ratio (y) = 0.49879 0.20195
# Poissons Ratio (z) = 0.33417 0.05938
#
# Static dielectric constant tensor:
#      x y z
#    x 3.542140 0.000000 0.000000 
#    y 0.000000 3.250300 0.000000 
#    z 0.000000 0.000000 -3.210630 
# 
# 
# High freq. dielectric constant tensor:
#      x y z
#    x 1.702120 0.000000 0.000000 
#    y 0.000000 1.686520 0.000000 
#    z 0.000000 0.000000 1.692050 
# 
# From -- ./inp_files/20086.got.cif
#   From: 2010.06.25/outbox.cif.g09.slc.cpg/sg58_11_cif.got.tgz:20086.got - 2010.06.26 21:38:00.
