data_PCOD8235245
_publ_section_title
;
Structure prediction by ZEFSAII (Michael W. Deem and Ramdas Pophale) SiO2 
 PCOD8235245
Probable space group: P N N M
;
_chemical_formula_sum "Si O2"
_cell_formula_units_Z 64
_cell_length_a 14.637147
_cell_length_b 28.006880
_cell_length_c 9.151172
_cell_angle_alpha 90.000000
_cell_angle_beta 90.000000
_cell_angle_gamma 90.000000
_cell_volume 3751.438950
_symmetry_space_group_name_H-M "P N N M"
_symmetry_group_IT_number 58
_symmetry_cell_setting 'orthorhombic'
loop_
_space_group_symop_operation_xyz
x,y,z
-x,-y,z
1/2+x,1/2-y,1/2-z
1/2-x,1/2+y,1/2-z
-x,-y,-z
x,y,-z
1/2-x,1/2+y,1/2+z
1/2+x,1/2-y,1/2+z
loop_
_atom_site_type_symbol
_atom_site_label
_atom_site_fract_x
_atom_site_fract_y
_atom_site_fract_z
Si Si1 0.400016 0.943361 0.672954
Si Si2 0.230306 0.634965 0.825723
Si Si3 0.099519 0.170114 0.829985
Si Si4 0.708718 0.138556 0.171224
Si Si5 0.604452 0.781301 0.329261
Si Si6 0.398667 0.323349 0.671695
Si Si7 0.896287 0.718630 0.832385
Si Si8 0.895223 0.449535 0.827120
O O1 0.391567 0.936265 0.500000
O O2 0.332072 0.906963 0.749379
O O3 0.503730 0.934221 0.727819
O O4 0.370585 0.996705 0.721921
O O5 0.331806 0.637056 0.761046
O O6 0.172221 0.679435 0.760772
O O7 0.181238 0.586776 0.767686
O O8 0.235594 0.635207 0.000000
O O9 0.119142 0.225740 0.798574
O O10 0.996916 0.157236 0.773195
O O11 0.111672 0.158191 0.000000
O O12 0.817430 0.139856 0.207056
O O13 0.666829 0.188176 0.225853
O O14 0.690622 0.134279 0.000000
O O15 0.624460 0.779978 0.500000
O O16 0.623211 0.728992 0.259213
O O17 0.500275 0.796633 0.299806
O O18 0.410457 0.314298 0.500000
O O19 0.871532 0.706847 0.000000
O O20 0.899648 0.447878 0.000000
#
# Coordination Sequence:
#
# PCOD8235245 Si02
#       8
#     8   8   8   8   8   8   8   8
#     4   9  17  33  53  70  91 120 153 184 219 272
#     4  10  17  27  47  72  93 114 147 189 231 271
#     4   9  18  32  47  64  89 124 161 190 219 261
#     4  11  20  29  46  71  94 118 151 191 235 272
#     4   8  14  26  45  66  89 120 152 180 216 266
#     4   8  16  30  44  60  89 126 156 181 216 266
#     4   9  17  30  47  66  91 124 158 186 216 266
#     4   8  16  31  52  73  92 120 153 181 218 278
#
# _framework density 17.060120999999999
#
# number of rings (size 3 to 8) (size 9 to 14) (size 15 to 20)
#    0.000    3.000    0.000    4.125    0.000    3.500 
#    0.000    5.625    0.000    3.000    0.000    5.250 
#    0.000    0.000    0.000    0.000    0.000    0.000 
#
# Total GULP energy -793245.276871 kJ/mol
# GULP energy per Si atom -12394.457451 kJ/mol
# Density = 1.702129 g / cm^3
# Si number density = 17.060121 Si / 1000 Ang^3
#
#
#
# Elastic Constant Matrix: (Units=GPa)
#
#
# Indices 1 2 3 4 5 6 
#
# 1 129.1682 77.1244 39.9422 0.0000 0.0000 0.0000
# 2 77.1244 96.9872 34.0427 0.0000 0.0000 0.0000
# 3 39.9422 34.0427 39.0177 0.0000 0.0000 0.0000
# 4 0.0000 0.0000 0.0000 -11.0845 0.0000 0.0000
# 5 0.0000 0.0000 0.0000 0.0000 25.3970 0.0000
# 6 0.0000 0.0000 0.0000 0.0000 0.0000 29.5102
#
#
#
# Elastic Compliance Matrix: (Units=1/GPa)
#
#
# Indices 1 2 3 4 5 6 
#
# 1 0.016203 -0.010180 -0.007705 0.000000 0.000000 0.000000
# 2 -0.010180 0.021258 -0.008126 0.000000 0.000000 0.000000
# 3 -0.007705 -0.008126 0.040607 0.000000 0.000000 0.000000
# 4 0.000000 0.000000 0.000000 -0.090216 0.000000 0.000000
# 5 0.000000 0.000000 0.000000 0.000000 0.039375 0.000000
# 6 0.000000 0.000000 0.000000 0.000000 0.000000 0.033887
#
#
# Mechanical properties :
#
#
# Convention : Reuss Voigt Hill
#
# Bulk Modulus (GPa) = 38.39421 63.04351 50.71886
# Shear Modulus (GPa) = 41.04538 16.36880 28.70709
#
# Velocity S-wave (km/s) = 4.91034 3.10090 4.10652
# Velocity P-wave (km/s) = 7.39613 7.06079 7.23040
#
# Compressibility (1/GPa) = 0.02604559
#
# Stress axis : x y z
#
# Youngs Moduli (GPa) = 61.71830 47.04066 24.62655
#
# Poissons Ratio (x) = 0.47888 0.18974
# Poissons Ratio (y) = 0.62830 0.20012
# Poissons Ratio (z) = 0.47551 0.38227
#
# Static dielectric constant tensor:
#      x y z
#    x 3.335120 0.000000 0.000000 
#    y 0.000000 3.258510 0.000000 
#    z 0.000000 0.000000 2.784960 
# 
# 
# High freq. dielectric constant tensor:
#      x y z
#    x 1.662020 0.000000 0.000000 
#    y 0.000000 1.643850 0.000000 
#    z 0.000000 0.000000 1.619470 
# 
# From -- ./inp_files/7149.got.cif
#   From: 2010.06.25/outbox.cif.g09.slc.cpg/sg58_4_cif.got.tgz:7149.got - 2010.06.26 21:38:00.
