data_PCOD8235261
_publ_section_title
;
Structure prediction by ZEFSAII (Michael W. Deem and Ramdas Pophale) SiO2 
 PCOD8235261
Probable space group: P N N M
;
_chemical_formula_sum "Si O2"
_cell_formula_units_Z 64
_cell_length_a 9.505266
_cell_length_b 17.688199
_cell_length_c 23.567279
_cell_angle_alpha 90.000000
_cell_angle_beta 90.000000
_cell_angle_gamma 90.000000
_cell_volume 3962.391047
_symmetry_space_group_name_H-M "P N N M"
_symmetry_group_IT_number 58
_symmetry_cell_setting 'orthorhombic'
loop_
_space_group_symop_operation_xyz
x,y,z
-x,-y,z
1/2+x,1/2-y,1/2-z
1/2-x,1/2+y,1/2-z
-x,-y,-z
x,y,-z
1/2-x,1/2+y,1/2+z
1/2+x,1/2-y,1/2+z
loop_
_atom_site_type_symbol
_atom_site_label
_atom_site_fract_x
_atom_site_fract_y
_atom_site_fract_z
Si Si1 0.060411 0.263006 0.817129
Si Si2 0.363415 0.390692 0.566317
Si Si3 0.240941 0.874073 0.268556
Si Si4 0.558040 0.328943 0.797806
Si Si5 0.652959 0.467257 0.741476
Si Si6 0.852490 0.474522 0.435179
Si Si7 0.235779 0.778223 0.845403
Si Si8 0.156634 0.120782 0.872667
O O1 0.129160 0.344986 0.806721
O O2 0.070892 0.216833 0.759717
O O3 0.145751 0.210933 0.862189
O O4 0.900453 0.275452 0.836760
O O5 0.388884 0.372429 0.500000
O O6 0.269238 0.464420 0.574514
O O7 0.277788 0.321440 0.594914
O O8 0.510867 0.405724 0.597871
O O9 0.237605 0.838565 0.205778
O O10 0.104727 0.850705 0.306307
O O11 0.255976 0.964324 0.259842
O O12 0.649547 0.405740 0.792171
O O13 0.625736 0.275675 0.846792
O O14 0.500000 0.500000 0.730474
O O15 0.695571 0.427065 0.683302
O O16 0.886763 0.459404 0.500000
O O17 0.792392 0.395147 0.411713
O O18 0.000000 0.500000 0.405586
#
# Coordination Sequence:
#
# PCOD8235261 Si02
#       8
#     8   8   8   8   8   8   8   8
#     4   8  16  26  39  58  79 105 136 168 199 239
#     4  10  19  30  46  63  80 112 153 181 204 243
#     4   9  15  26  42  59  82 110 136 163 202 251
#     4   8  15  25  39  57  79 108 133 160 200 248
#     4   9  15  25  42  62  83 108 140 169 200 247
#     4  10  20  30  39  57  85 110 136 175 212 237
#     4   9  16  28  42  58  84 108 134 171 209 240
#     4  10  17  29  45  60  80 111 146 173 202 240
#
# _framework density 16.151864
#
# number of rings (size 3 to 8) (size 9 to 14) (size 15 to 20)
#    0.000    2.875    0.000    4.500    0.000    2.000 
#    0.000    5.625    0.000    0.000    0.000    0.000 
#    0.000   13.500    0.000    0.000    0.000    0.000 
#
# Total GULP energy -792946.144199 kJ/mol
# GULP energy per Si atom -12389.783503 kJ/mol
# Density = 1.611510 g / cm^3
# Si number density = 16.151864 Si / 1000 Ang^3
#
#
#
# Elastic Constant Matrix: (Units=GPa)
#
#
# Indices 1 2 3 4 5 6 
#
# 1 25.7058 -6.0927 7.8215 0.0000 0.0000 0.0000
# 2 -6.0927 39.4677 7.7716 0.0000 0.0000 0.0000
# 3 7.8215 7.7716 33.7838 0.0000 0.0000 0.0000
# 4 0.0000 0.0000 0.0000 15.5167 0.0000 0.0000
# 5 0.0000 0.0000 0.0000 0.0000 18.8231 0.0000
# 6 0.0000 0.0000 0.0000 0.0000 0.0000 23.9694
#
#
#
# Elastic Compliance Matrix: (Units=1/GPa)
#
#
# Indices 1 2 3 4 5 6 
#
# 1 0.044960 0.009417 -0.012575 0.000000 0.000000 0.000000
# 2 0.009417 0.028512 -0.008739 0.000000 0.000000 0.000000
# 3 -0.012575 -0.008739 0.034522 0.000000 0.000000 0.000000
# 4 0.000000 0.000000 0.000000 0.064447 0.000000 0.000000
# 5 0.000000 0.000000 0.000000 0.000000 0.053126 0.000000
# 6 0.000000 0.000000 0.000000 0.000000 0.000000 0.041720
#
#
# Mechanical properties :
#
#
# Convention : Reuss Voigt Hill
#
# Bulk Modulus (GPa) = 11.87670 13.10646 12.49158
# Shear Modulus (GPa) = 15.66677 17.62563 16.64620
#
# Velocity S-wave (km/s) = 3.11781 3.30698 3.21379
# Velocity P-wave (km/s) = 4.50889 4.76588 4.63917
#
# Compressibility (1/GPa) = 0.08419849
#
# Stress axis : x y z
#
# Youngs Moduli (GPa) = 22.24205 35.07331 28.96734
#
# Poissons Ratio (x) = -0.33028 0.36427
# Poissons Ratio (y) = -0.20945 0.25315
# Poissons Ratio (z) = 0.27970 0.30650
#
# Static dielectric constant tensor:
#      x y z
#    x 3.159950 0.000000 0.000000 
#    y 0.000000 3.270370 0.000000 
#    z 0.000000 0.000000 2.856180 
# 
# 
# High freq. dielectric constant tensor:
#      x y z
#    x 1.618830 0.000000 0.000000 
#    y 0.000000 1.606670 0.000000 
#    z 0.000000 0.000000 1.577220 
# 
# From -- ./inp_files/31681.got.cif
#   From: 2010.06.25/outbox.cif.g09.slc.cpg/sg58_16_cif.got.tgz:31681.got - 2010.06.26 21:38:00.
