data_PCOD8235155
_publ_section_title
;
Structure prediction by ZEFSAII (Michael W. Deem and Ramdas Pophale) SiO2 
 PCOD8235155
Probable space group: P B C M
;
_chemical_formula_sum "Si O2"
_cell_formula_units_Z 40
_cell_length_a 7.484001
_cell_length_b 9.596231
_cell_length_c 25.272174
_cell_angle_alpha 90.000000
_cell_angle_beta 90.000000
_cell_angle_gamma 90.000000
_cell_volume 1815.002107
_symmetry_space_group_name_H-M "P B C M"
_symmetry_group_IT_number 57
_symmetry_cell_setting 'orthorhombic'
loop_
_space_group_symop_operation_xyz
x,y,z
-x,-y,1/2+z
x,1/2-y,-z
-x,1/2+y,1/2-z
-x,-y,-z
x,y,1/2-z
-x,1/2+y,z
x,1/2-y,1/2+z
loop_
_atom_site_type_symbol
_atom_site_label
_atom_site_fract_x
_atom_site_fract_y
_atom_site_fract_z
Si Si1 0.080237 0.444434 0.445565
Si Si2 0.468227 0.128720 0.963812
Si Si3 0.710726 0.660767 0.310645
Si Si4 0.932685 0.287685 0.622989
Si Si5 0.399830 0.858670 0.152606
O O1 0.258142 0.354245 0.453611
O O2 0.123674 0.571291 0.406265
O O3 0.000000 0.500000 0.500000
O O4 0.943433 0.337592 0.419193
O O5 0.576582 0.120177 0.909858
O O6 0.545829 0.250000 0.000000
O O7 0.500000 0.000000 0.000000
O O8 0.769834 0.668490 0.250000
O O9 0.625296 0.509967 0.321716
O O10 0.569665 0.782990 0.321950
O O11 0.884991 0.688078 0.345566
O O12 0.773038 0.240491 0.662433
#
# Coordination Sequence:
#
# PCOD8235155 Si02
#       5
#     8   8   8   8   8
#     4  12  24  42  70 105 149 194 234 286 359 433
#     4  12  24  41  68 107 146 189 234 289 363 440
#     4  12  28  50  75 104 140 192 248 307 366 422
#     4  12  25  48  69 108 146 187 241 301 354 432
#     4  12  26  49  74 107 147 186 247 300 364 440
#
# _framework density 22.038540999999999
#
# number of rings (size 3 to 8) (size 9 to 14) (size 15 to 20)
#    0.000    0.000    4.000    7.200    0.000    1.600 
#    0.000    0.000    0.000    0.000    0.000    0.000 
#    0.000    0.000    0.000    0.000    0.000    0.000 
#
# Total GULP energy -496148.723482 kJ/mol
# GULP energy per Si atom -12403.718087 kJ/mol
# Density = 2.198838 g / cm^3
# Si number density = 22.038541 Si / 1000 Ang^3
#
#
#
# Elastic Constant Matrix: (Units=GPa)
#
#
# Indices 1 2 3 4 5 6 
#
# 1 100.3365 9.8126 21.3143 0.0000 0.0000 0.0000
# 2 9.8126 121.6178 37.9919 0.0000 0.0000 0.0000
# 3 21.3143 37.9919 118.9862 0.0000 0.0000 0.0000
# 4 0.0000 0.0000 0.0000 33.5755 0.0000 0.0000
# 5 0.0000 0.0000 0.0000 0.0000 23.0606 0.0000
# 6 0.0000 0.0000 0.0000 0.0000 0.0000 35.4179
#
#
#
# Elastic Compliance Matrix: (Units=1/GPa)
#
#
# Indices 1 2 3 4 5 6 
#
# 1 0.010370 -0.000285 -0.001767 0.000000 0.000000 0.000000
# 2 -0.000285 0.009141 -0.002868 0.000000 0.000000 0.000000
# 3 -0.001767 -0.002868 0.009636 0.000000 0.000000 0.000000
# 4 0.000000 0.000000 0.000000 0.029784 0.000000 0.000000
# 5 0.000000 0.000000 0.000000 0.000000 0.043364 0.000000
# 6 0.000000 0.000000 0.000000 0.000000 0.000000 0.028234
#
#
# Mechanical properties :
#
#
# Convention : Reuss Voigt Hill
#
# Bulk Modulus (GPa) = 51.78922 53.24199 52.51560
# Shear Modulus (GPa) = 34.05901 36.53224 35.29563
#
# Velocity S-wave (km/s) = 3.93546 4.07584 4.00627
# Velocity P-wave (km/s) = 6.64837 6.80889 6.72911
#
# Compressibility (1/GPa) = 0.01930904
#
# Stress axis : x y z
#
# Youngs Moduli (GPa) = 96.43587 109.39342 103.77256
#
# Poissons Ratio (x) = 0.03115 0.18332
# Poissons Ratio (y) = 0.02746 0.29760
# Poissons Ratio (z) = 0.17036 0.31372
#
# Static dielectric constant tensor:
#      x y z
#    x 3.615400 0.000000 0.000000 
#    y 0.000000 4.113030 0.000000 
#    z 0.000000 0.000000 4.032370 
# 
# 
# High freq. dielectric constant tensor:
#      x y z
#    x 1.883910 0.000000 0.000000 
#    y 0.000000 1.885510 0.000000 
#    z 0.000000 0.000000 1.862530 
# 
# From -- ./inp_files/28245.got.cif
#   From: 2010.03.12/outbox.cif.g09.slc.cpg/sg57_15_cif.got.tgz:28245.got - 2010.04.16 15:48:40.
