data_PCOD8235309
_publ_section_title
;
Structure prediction by ZEFSAII (Michael W. Deem and Ramdas Pophale) SiO2 
 PCOD8235309
Probable space group: P N N M
;
_chemical_formula_sum "Si O2"
_cell_formula_units_Z 64
_cell_length_a 13.122404
_cell_length_b 10.918840
_cell_length_c 22.200129
_cell_angle_alpha 90.000000
_cell_angle_beta 90.000000
_cell_angle_gamma 90.000000
_cell_volume 3180.866222
_symmetry_space_group_name_H-M "P N N M"
_symmetry_group_IT_number 58
_symmetry_cell_setting 'orthorhombic'
loop_
_space_group_symop_operation_xyz
x,y,z
-x,-y,z
1/2+x,1/2-y,1/2-z
1/2-x,1/2+y,1/2-z
-x,-y,-z
x,y,-z
1/2-x,1/2+y,1/2+z
1/2+x,1/2-y,1/2+z
loop_
_atom_site_type_symbol
_atom_site_label
_atom_site_fract_x
_atom_site_fract_y
_atom_site_fract_z
Si Si1 0.388059 0.969877 0.271437
Si Si2 0.016667 0.643217 0.932644
Si Si3 0.440836 0.628783 0.277441
Si Si4 0.327506 0.772044 0.634522
Si Si5 0.858785 0.119091 0.430575
Si Si6 0.094819 0.153712 0.430768
Si Si7 0.872386 0.284069 0.817261
Si Si8 0.156650 0.285812 0.680176
O O1 0.333639 0.870385 0.312311
O O2 0.391847 0.913742 0.203765
O O3 0.500000 0.000000 0.297234
O O4 0.331638 0.099439 0.278002
O O5 0.106201 0.682869 0.887169
O O6 0.000000 0.500000 0.928198
O O7 0.908765 0.707126 0.918328
O O8 0.050050 0.682199 0.000000
O O9 0.500000 0.500000 0.275762
O O10 0.356892 0.641703 0.332339
O O11 0.525858 0.732424 0.287766
O O12 0.388099 0.664721 0.214371
O O13 0.213598 0.789360 0.608142
O O14 0.832136 0.142725 0.500000
O O15 0.975252 0.148673 0.416471
O O16 0.846177 0.974006 0.415884
O O17 0.113201 0.188428 0.500000
O O18 0.137776 0.263906 0.390313
O O19 0.777896 0.192364 0.812083
#
# Coordination Sequence:
#
# PCOD8235309 Si02
#       8
#     8   8   8   8   8   8   8   8
#     4  11  19  40  54  81 117 151 189 239 293 341
#     4  10  18  30  55  88 118 150 184 236 300 345
#     4  10  24  40  56  87 121 153 195 248 299 352
#     4  10  17  34  58  83 120 151 191 236 292 356
#     4   9  18  33  58  86 118 157 193 238 296 352
#     4   9  20  37  53  86 126 150 191 252 296 341
#     4  11  21  40  58  83 127 147 193 255 281 354
#     4  11  24  34  61  85 107 165 192 233 303 363
#
# _framework density 20.120305999999999
#
# number of rings (size 3 to 8) (size 9 to 14) (size 15 to 20)
#    0.000    1.875    5.000    1.875    3.500    2.500 
#    0.000    0.000    0.000    9.750    0.000    0.000 
#    0.000    0.000    0.000    0.000    0.000    0.000 
#
# Total GULP energy -792957.537433 kJ/mol
# GULP energy per Si atom -12389.961522 kJ/mol
# Density = 2.007451 g / cm^3
# Si number density = 20.120306 Si / 1000 Ang^3
#
#
#
# Elastic Constant Matrix: (Units=GPa)
#
#
# Indices 1 2 3 4 5 6 
#
# 1 83.1998 13.0867 31.9541 0.0000 0.0000 0.0000
# 2 13.0867 52.4914 24.9825 0.0000 0.0000 0.0000
# 3 31.9541 24.9825 92.5728 0.0000 0.0000 0.0000
# 4 0.0000 0.0000 0.0000 26.9415 0.0000 0.0000
# 5 0.0000 0.0000 0.0000 0.0000 39.0392 0.0000
# 6 0.0000 0.0000 0.0000 0.0000 0.0000 21.6925
#
#
#
# Elastic Compliance Matrix: (Units=1/GPa)
#
#
# Indices 1 2 3 4 5 6 
#
# 1 0.013940 -0.001360 -0.004445 0.000000 0.000000 0.000000
# 2 -0.001360 0.021991 -0.005465 0.000000 0.000000 0.000000
# 3 -0.004445 -0.005465 0.013811 0.000000 0.000000 0.000000
# 4 0.000000 0.000000 0.000000 0.037117 0.000000 0.000000
# 5 0.000000 0.000000 0.000000 0.000000 0.025615 0.000000
# 6 0.000000 0.000000 0.000000 0.000000 0.000000 0.046099
#
#
# Mechanical properties :
#
#
# Convention : Reuss Voigt Hill
#
# Bulk Modulus (GPa) = 36.76132 40.92338 38.84235
# Shear Modulus (GPa) = 26.29064 28.08404 27.18734
#
# Velocity S-wave (km/s) = 3.61871 3.74010 3.67991
# Velocity P-wave (km/s) = 5.98085 6.24777 6.11577
#
# Compressibility (1/GPa) = 0.02720250
#
# Stress axis : x y z
#
# Youngs Moduli (GPa) = 71.73452 45.47343 72.40359
#
# Poissons Ratio (x) = 0.06184 0.32182
# Poissons Ratio (y) = 0.09756 0.39570
# Poissons Ratio (z) = 0.31885 0.24852
#
# Static dielectric constant tensor:
#      x y z
#    x 3.653020 0.000000 0.000000 
#    y 0.000000 3.674740 0.000000 
#    z 0.000000 0.000000 3.789600 
# 
# 
# High freq. dielectric constant tensor:
#      x y z
#    x 1.791390 0.000000 0.000000 
#    y 0.000000 1.745250 0.000000 
#    z 0.000000 0.000000 1.782810 
# 
# From -- ./inp_files/32082.got.cif
#   From: 2010.06.25/outbox.cif.g09.slc.cpg/sg58_17_cif.got.tgz:32082.got - 2010.06.26 21:38:00.
