data_PCOD8235901
_publ_section_title
;
Structure prediction by ZEFSAII (Michael W. Deem and Ramdas Pophale) SiO2 
 PCOD8235901
Probable space group: P N N M
;
_chemical_formula_sum "Si O2"
_cell_formula_units_Z 64
_cell_length_a 28.610426
_cell_length_b 14.153845
_cell_length_c 9.128198
_cell_angle_alpha 90.000000
_cell_angle_beta 90.000000
_cell_angle_gamma 90.000000
_cell_volume 3696.441279
_symmetry_space_group_name_H-M "P N N M"
_symmetry_group_IT_number 58
_symmetry_cell_setting 'orthorhombic'
loop_
_space_group_symop_operation_xyz
x,y,z
-x,-y,z
1/2+x,1/2-y,1/2-z
1/2-x,1/2+y,1/2-z
-x,-y,-z
x,y,-z
1/2-x,1/2+y,1/2+z
1/2+x,1/2-y,1/2+z
loop_
_atom_site_type_symbol
_atom_site_label
_atom_site_fract_x
_atom_site_fract_y
_atom_site_fract_z
Si Si1 0.448018 0.500045 0.825681
Si Si2 0.804228 0.492901 0.171282
Si Si3 0.374344 0.351243 0.174035
Si Si4 0.199128 0.999548 0.673960
Si Si5 0.124062 0.637619 0.674581
Si Si6 0.874336 0.849671 0.326977
Si Si7 0.624349 0.153956 0.333180
Si Si8 0.053724 0.507361 0.170862
O O1 0.500000 0.500000 0.756932
O O2 0.420530 0.406785 0.770548
O O3 0.420394 0.593748 0.773206
O O4 0.450565 0.499263 0.000000
O O5 0.751803 0.499959 0.234867
O O6 0.830013 0.411973 0.262167
O O7 0.829125 0.593236 0.197134
O O8 0.805874 0.465520 0.000000
O O9 0.328207 0.406494 0.231893
O O10 0.375059 0.244934 0.233454
O O11 0.373807 0.351100 0.000000
O O12 0.200436 0.996440 0.500000
O O13 0.171797 0.093672 0.726744
O O14 0.124403 0.631063 0.500000
O O15 0.076888 0.590307 0.734863
O O16 0.874210 0.842569 0.500000
O O17 0.874566 0.744952 0.266717
O O18 0.622319 0.187963 0.500000
O O19 0.578848 0.091780 0.293576
O O20 0.000000 0.500000 0.217427
O O21 0.059916 0.532498 0.000000
#
# Coordination Sequence:
#
# PCOD8235901 Si02
#       8
#     8   8   8   8   8   8   8   8
#     4   8  14  26  44  66  92 120 149 181 222 277
#     4   9  18  33  50  65  88 127 165 190 223 279
#     4   8  15  27  43  66  94 121 151 188 232 278
#     4   8  15  30  49  67  90 123 161 194 226 275
#     4  10  19  30  48  74  99 119 146 194 243 274
#     4   9  17  29  48  71  92 118 153 194 233 269
#     4   9  18  31  47  67  91 120 152 188 230 275
#     4   9  19  36  53  67  90 128 165 189 219 274
#
# _framework density 17.313949000000001
#
# number of rings (size 3 to 8) (size 9 to 14) (size 15 to 20)
#    0.000    3.250    0.000    2.625    0.000    4.250 
#    0.000    3.125    0.000    7.875    0.000    0.000 
#    0.000    0.000    0.000    0.000    0.000    0.000 
#
# Total GULP energy -793324.761130 kJ/mol
# GULP energy per Si atom -12395.699393 kJ/mol
# Density = 1.727454 g / cm^3
# Si number density = 17.313949 Si / 1000 Ang^3
#
#
#
# Elastic Constant Matrix: (Units=GPa)
#
#
# Indices 1 2 3 4 5 6 
#
# 1 180.4272 80.3344 30.3303 0.0000 0.0000 0.0000
# 2 80.3344 151.9625 38.6290 0.0000 0.0000 0.0000
# 3 30.3303 38.6290 31.9026 0.0000 0.0000 0.0000
# 4 0.0000 0.0000 0.0000 17.3031 0.0000 0.0000
# 5 0.0000 0.0000 0.0000 0.0000 17.6908 0.0000
# 6 0.0000 0.0000 0.0000 0.0000 0.0000 13.1671
#
#
#
# Elastic Compliance Matrix: (Units=1/GPa)
#
#
# Indices 1 2 3 4 5 6 
#
# 1 0.007490 -0.003105 -0.003361 0.000000 0.000000 0.000000
# 2 -0.003105 0.010794 -0.010118 0.000000 0.000000 0.000000
# 3 -0.003361 -0.010118 0.046792 0.000000 0.000000 0.000000
# 4 0.000000 0.000000 0.000000 0.057793 0.000000 0.000000
# 5 0.000000 0.000000 0.000000 0.000000 0.056527 0.000000
# 6 0.000000 0.000000 0.000000 0.000000 0.000000 0.075947
#
#
# Mechanical properties :
#
#
# Convention : Reuss Voigt Hill
#
# Bulk Modulus (GPa) = 31.34013 73.65329 52.49671
# Shear Modulus (GPa) = 16.71426 23.96545 20.33986
#
# Velocity S-wave (km/s) = 3.11040 3.72448 3.43121
# Velocity P-wave (km/s) = 5.57134 7.81843 6.78851
#
# Compressibility (1/GPa) = 0.03190798
#
# Stress axis : x y z
#
# Youngs Moduli (GPa) = 133.51224 92.64371 21.37132
#
# Poissons Ratio (x) = 0.28768 0.07183
# Poissons Ratio (y) = 0.41458 0.21623
# Poissons Ratio (z) = 0.44873 0.93734
#
# Static dielectric constant tensor:
#      x y z
#    x 3.632130 0.000000 0.000000 
#    y 0.000000 3.296190 0.000000 
#    z 0.000000 0.000000 2.819650 
# 
# 
# High freq. dielectric constant tensor:
#      x y z
#    x 1.677880 0.000000 0.000000 
#    y 0.000000 1.670620 0.000000 
#    z 0.000000 0.000000 1.628680 
# 
# From -- ./inp_files/11136.got.cif
#   From: 2010.06.25/outbox.cif.g09.slc.cpg/sg58_6_cif.got.tgz:11136.got - 2010.06.26 21:38:00.
