data_PCOD8235485
_publ_section_title
;
Structure prediction by ZEFSAII (Michael W. Deem and Ramdas Pophale) SiO2 
 PCOD8235485
Probable space group: P N N M
;
_chemical_formula_sum "Si O2"
_cell_formula_units_Z 56
_cell_length_a 15.093153
_cell_length_b 21.284541
_cell_length_c 8.951013
_cell_angle_alpha 90.000000
_cell_angle_beta 90.000000
_cell_angle_gamma 90.000000
_cell_volume 2875.520390
_symmetry_space_group_name_H-M "P N N M"
_symmetry_group_IT_number 58
_symmetry_cell_setting 'orthorhombic'
loop_
_space_group_symop_operation_xyz
x,y,z
-x,-y,z
1/2+x,1/2-y,1/2-z
1/2-x,1/2+y,1/2-z
-x,-y,-z
x,y,-z
1/2-x,1/2+y,1/2+z
1/2+x,1/2-y,1/2+z
loop_
_atom_site_type_symbol
_atom_site_label
_atom_site_fract_x
_atom_site_fract_y
_atom_site_fract_z
Si Si1 0.306451 0.833261 0.322189
Si Si2 0.069569 0.133862 0.830146
Si Si3 0.757336 0.404497 0.322072
Si Si4 0.424115 0.449379 0.666206
Si Si5 0.332876 0.228231 0.176977
Si Si6 0.748798 0.029683 0.675245
Si Si7 0.980769 0.729453 0.830311
O O1 0.301267 0.830026 0.500000
O O2 0.233768 0.782573 0.258680
O O3 0.287830 0.903718 0.263178
O O4 0.408245 0.820597 0.270532
O O5 0.156848 0.102345 0.759185
O O6 0.078607 0.208106 0.821689
O O7 0.974478 0.111826 0.763494
O O8 0.067171 0.109760 0.000000
O O9 0.761087 0.410091 0.500000
O O10 0.807519 0.341804 0.267226
O O11 0.798138 0.468610 0.251318
O O12 0.500000 0.500000 0.654468
O O13 0.382240 0.437654 0.500000
O O14 0.351718 0.471498 0.783445
O O15 0.433400 0.237720 0.229075
O O16 0.329813 0.231360 0.000000
O O17 0.734221 0.023928 0.500000
O O18 0.011194 0.715110 0.000000
#
# Coordination Sequence:
#
# PCOD8235485 Si02
#       7
#     8   8   8   8   8   8   8
#     4   9  19  37  58  80 112 151 181 217 279 343
#     4   9  16  30  54  78  99 136 183 220 257 321
#     4  10  19  36  58  77 104 146 187 219 265 326
#     4  10  18  30  50  75 105 140 178 214 263 332
#     4  10  20  37  61  84 109 143 186 233 277 320
#     4  11  22  34  51  79 114 145 179 225 278 326
#     4  10  19  35  59  82 106 141 186 228 272 330
#
# _framework density 19.474734000000002
#
# number of rings (size 3 to 8) (size 9 to 14) (size 15 to 20)
#    0.000    2.143    2.857    1.286    0.000    0.857 
#    0.000    4.286    0.000    4.286    0.000    0.000 
#    0.000    0.000    0.000    0.000    0.000    0.000 
#
# Total GULP energy -693750.936563 kJ/mol
# GULP energy per Si atom -12388.409581 kJ/mol
# Density = 1.943041 g / cm^3
# Si number density = 19.474734 Si / 1000 Ang^3
#
#
#
# Elastic Constant Matrix: (Units=GPa)
#
#
# Indices 1 2 3 4 5 6 
#
# 1 67.9329 31.6079 8.7887 0.0000 0.0000 0.0000
# 2 31.6079 136.8208 24.1409 0.0000 0.0000 0.0000
# 3 8.7887 24.1409 24.3019 0.0000 0.0000 0.0000
# 4 0.0000 0.0000 0.0000 23.9111 0.0000 0.0000
# 5 0.0000 0.0000 0.0000 0.0000 12.5846 0.0000
# 6 0.0000 0.0000 0.0000 0.0000 0.0000 31.3396
#
#
#
# Elastic Compliance Matrix: (Units=1/GPa)
#
#
# Indices 1 2 3 4 5 6 
#
# 1 0.016634 -0.003373 -0.002666 0.000000 0.000000 0.000000
# 2 -0.003373 0.009546 -0.008263 0.000000 0.000000 0.000000
# 3 -0.002666 -0.008263 0.050321 0.000000 0.000000 0.000000
# 4 0.000000 0.000000 0.000000 0.041822 0.000000 0.000000
# 5 0.000000 0.000000 0.000000 0.000000 0.079462 0.000000
# 6 0.000000 0.000000 0.000000 0.000000 0.000000 0.031909
#
#
# Mechanical properties :
#
#
# Convention : Reuss Voigt Hill
#
# Bulk Modulus (GPa) = 20.87711 39.79229 30.33470
# Shear Modulus (GPa) = 18.23070 24.53493 21.38281
#
# Velocity S-wave (km/s) = 3.06293 3.55326 3.31717
# Velocity P-wave (km/s) = 4.82204 6.10830 5.50288
#
# Compressibility (1/GPa) = 0.04789936
#
# Stress axis : x y z
#
# Youngs Moduli (GPa) = 60.11628 104.75734 19.87234
#
# Poissons Ratio (x) = 0.35330 0.05297
# Poissons Ratio (y) = 0.20274 0.16420
# Poissons Ratio (z) = 0.16025 0.86561
#
# Static dielectric constant tensor:
#      x y z
#    x 3.543240 0.000000 0.000000 
#    y 0.000000 4.091710 0.000000 
#    z 0.000000 0.000000 3.142240 
# 
# 
# High freq. dielectric constant tensor:
#      x y z
#    x 1.742940 0.000000 0.000000 
#    y 0.000000 1.778620 0.000000 
#    z 0.000000 0.000000 1.711210 
# 
# From -- ./inp_files/6365.got.cif
#   From: 2010.06.25/outbox.cif.g09.slc.cpg/sg58_4_cif.got.tgz:6365.got - 2010.06.26 21:38:00.
