data_PCOD8235948
_publ_section_title
;
Structure prediction by ZEFSAII (Michael W. Deem and Ramdas Pophale) SiO2 
 PCOD8235948
Probable space group: P N N M
;
_chemical_formula_sum "Si O2"
_cell_formula_units_Z 56
_cell_length_a 19.477317
_cell_length_b 19.165960
_cell_length_c 8.774817
_cell_angle_alpha 90.000000
_cell_angle_beta 90.000000
_cell_angle_gamma 90.000000
_cell_volume 3275.652160
_symmetry_space_group_name_H-M "P N N M"
_symmetry_group_IT_number 58
_symmetry_cell_setting 'orthorhombic'
loop_
_space_group_symop_operation_xyz
x,y,z
-x,-y,z
1/2+x,1/2-y,1/2-z
1/2-x,1/2+y,1/2-z
-x,-y,-z
x,y,-z
1/2-x,1/2+y,1/2+z
1/2+x,1/2-y,1/2+z
loop_
_atom_site_type_symbol
_atom_site_label
_atom_site_fract_x
_atom_site_fract_y
_atom_site_fract_z
Si Si1 0.275094 0.864000 0.679344
Si Si2 0.770139 0.851083 0.819580
Si Si3 0.128469 0.250863 0.680762
Si Si4 0.661734 0.738222 0.820847
Si Si5 0.201810 0.521614 0.179315
Si Si6 0.942699 0.443454 0.321735
Si Si7 0.520232 0.789120 0.819192
O O1 0.289135 0.854413 0.500000
O O2 0.332050 0.820400 0.768582
O O3 0.199120 0.834400 0.722334
O O4 0.278936 0.943622 0.731728
O O5 0.840384 0.819410 0.752722
O O6 0.707410 0.802832 0.760721
O O7 0.757736 0.928619 0.758122
O O8 0.775985 0.852127 0.000000
O O9 0.131466 0.245232 0.500000
O O10 0.050594 0.257317 0.743627
O O11 0.584637 0.743934 0.752921
O O12 0.655832 0.746717 0.000000
O O13 0.125201 0.538725 0.229492
O O14 0.208295 0.530386 0.000000
O O15 0.923847 0.443092 0.500000
O O16 0.000000 0.500000 0.281820
O O17 0.971349 0.369099 0.266482
O O18 0.518216 0.786470 0.000000
#
# Coordination Sequence:
#
# PCOD8235948 Si02
#       7
#     8   8   8   8   8   8   8
#     4   9  19  33  49  70 100 135 168 207 251 301
#     4  10  19  34  54  71  96 134 172 206 250 310
#     4  10  19  31  51  77 102 125 162 213 253 294
#     4   8  14  29  51  69  88 123 170 205 237 292
#     4  11  21  32  48  74 104 131 169 217 261 297
#     4  10  19  31  48  72 103 139 173 199 245 317
#     4   9  16  28  48  73  97 127 165 205 245 298
#
# _framework density 17.095832000000001
#
# number of rings (size 3 to 8) (size 9 to 14) (size 15 to 20)
#    0.000    2.429    1.429    3.000    0.000    2.571 
#    0.000    1.429    0.000    0.857    0.000    6.000 
#    0.000    0.000    0.000    0.000    0.000    0.000 
#
# Total GULP energy -694249.733370 kJ/mol
# GULP energy per Si atom -12397.316667 kJ/mol
# Density = 1.705692 g / cm^3
# Si number density = 17.095832 Si / 1000 Ang^3
#
#
#
# Elastic Constant Matrix: (Units=GPa)
#
#
# Indices 1 2 3 4 5 6 
#
# 1 141.6485 57.1636 21.4968 0.0000 0.0000 0.0000
# 2 57.1636 73.5398 16.7445 0.0000 0.0000 0.0000
# 3 21.4968 16.7445 38.8676 0.0000 0.0000 0.0000
# 4 0.0000 0.0000 0.0000 20.2712 0.0000 0.0000
# 5 0.0000 0.0000 0.0000 0.0000 22.4009 0.0000
# 6 0.0000 0.0000 0.0000 0.0000 0.0000 27.8684
#
#
#
# Elastic Compliance Matrix: (Units=1/GPa)
#
#
# Indices 1 2 3 4 5 6 
#
# 1 0.010508 -0.007589 -0.002542 0.000000 0.000000 0.000000
# 2 -0.007589 0.020558 -0.004659 0.000000 0.000000 0.000000
# 3 -0.002542 -0.004659 0.029142 0.000000 0.000000 0.000000
# 4 0.000000 0.000000 0.000000 0.049331 0.000000 0.000000
# 5 0.000000 0.000000 0.000000 0.000000 0.044641 0.000000
# 6 0.000000 0.000000 0.000000 0.000000 0.000000 0.035883
#
#
# Mechanical properties :
#
#
# Convention : Reuss Voigt Hill
#
# Bulk Modulus (GPa) = 32.65144 49.42950 41.04047
# Shear Modulus (GPa) = 21.75292 24.68482 23.21887
#
# Velocity S-wave (km/s) = 3.57096 3.80400 3.68932
# Velocity P-wave (km/s) = 6.01189 6.94765 6.49664
#
# Compressibility (1/GPa) = 0.03062652
#
# Stress axis : x y z
#
# Youngs Moduli (GPa) = 95.16256 48.64218 34.31510
#
# Poissons Ratio (x) = 0.36917 0.08724
# Poissons Ratio (y) = 0.72223 0.15988
# Poissons Ratio (z) = 0.24194 0.22663
#
# Static dielectric constant tensor:
#      x y z
#    x 3.516500 0.000000 0.000000 
#    y 0.000000 3.315870 0.000000 
#    z 0.000000 0.000000 2.978530 
# 
# 
# High freq. dielectric constant tensor:
#      x y z
#    x 1.658350 0.000000 0.000000 
#    y 0.000000 1.652680 0.000000 
#    z 0.000000 0.000000 1.641060 
# 
# From -- ./inp_files/8201.got.cif
#   From: 2010.06.25/outbox.cif.g09.slc.cpg/sg58_5_cif.got.tgz:8201.got - 2010.06.26 21:38:00.
