data_PCOD8235556
_publ_section_title
;
Structure prediction by ZEFSAII (Michael W. Deem and Ramdas Pophale) SiO2 
 PCOD8235556
Probable space group: P N N M
;
_chemical_formula_sum "Si O2"
_cell_formula_units_Z 40
_cell_length_a 13.644946
_cell_length_b 18.540082
_cell_length_c 8.838144
_cell_angle_alpha 90.000000
_cell_angle_beta 90.000000
_cell_angle_gamma 90.000000
_cell_volume 2235.859685
_symmetry_space_group_name_H-M "P N N M"
_symmetry_group_IT_number 58
_symmetry_cell_setting 'orthorhombic'
loop_
_space_group_symop_operation_xyz
x,y,z
-x,-y,z
1/2+x,1/2-y,1/2-z
1/2-x,1/2+y,1/2-z
-x,-y,-z
x,y,-z
1/2-x,1/2+y,1/2+z
1/2+x,1/2-y,1/2+z
loop_
_atom_site_type_symbol
_atom_site_label
_atom_site_fract_x
_atom_site_fract_y
_atom_site_fract_z
Si Si1 0.104096 0.719924 0.323812
Si Si2 0.388049 0.789597 0.821099
Si Si3 0.613142 0.502421 0.323157
Si Si4 0.289418 0.360953 0.820884
Si Si5 0.801178 0.848855 0.823900
O O1 0.089139 0.732447 0.500000
O O2 0.142237 0.796266 0.256322
O O3 0.184590 0.657902 0.290835
O O4 0.998553 0.697330 0.257534
O O5 0.319639 0.849728 0.744436
O O6 0.359145 0.708533 0.776147
O O7 0.380207 0.798849 0.000000
O O8 0.500000 0.500000 0.274825
O O9 0.624458 0.518895 0.500000
O O10 0.667757 0.563455 0.230216
O O11 0.663841 0.427737 0.276643
O O12 0.282082 0.358290 0.000000
O O13 0.823207 0.832675 0.000000
#
# Coordination Sequence:
#
# PCOD8235556 Si02
#       5
#     8   8   8   8   8
#     4   8  16  31  50  70  93 127 164 197 238 291
#     4  10  18  31  52  74  95 123 165 206 240 285
#     4  10  20  33  51  76 103 130 163 205 250 293
#     4  10  20  34  51  73 102 132 164 201 246 297
#     4   9  18  33  50  71 101 130 159 198 246 296
#
# _framework density 17.890211000000001
#
# number of rings (size 3 to 8) (size 9 to 14) (size 15 to 20)
#    0.000    2.600    0.000    3.600    0.000    1.200 
#    0.000   10.000    0.000    6.000    0.000    0.000 
#    0.000    0.000    0.000    0.000    0.000    0.000 
#
# Total GULP energy -495923.920608 kJ/mol
# GULP energy per Si atom -12398.098015 kJ/mol
# Density = 1.784949 g / cm^3
# Si number density = 17.890211 Si / 1000 Ang^3
#
#
#
# Elastic Constant Matrix: (Units=GPa)
#
#
# Indices 1 2 3 4 5 6 
#
# 1 170.1394 69.2766 39.2015 0.0000 0.0000 0.0000
# 2 69.2766 110.3789 33.4011 0.0000 0.0000 0.0000
# 3 39.2015 33.4011 51.2894 0.0000 0.0000 0.0000
# 4 0.0000 0.0000 0.0000 26.6252 0.0000 0.0000
# 5 0.0000 0.0000 0.0000 0.0000 20.9732 0.0000
# 6 0.0000 0.0000 0.0000 0.0000 0.0000 24.8527
#
#
#
# Elastic Compliance Matrix: (Units=1/GPa)
#
#
# Indices 1 2 3 4 5 6 
#
# 1 0.008433 -0.004163 -0.003735 0.000000 0.000000 0.000000
# 2 -0.004163 0.013338 -0.005504 0.000000 0.000000 0.000000
# 3 -0.003735 -0.005504 0.025936 0.000000 0.000000 0.000000
# 4 0.000000 0.000000 0.000000 0.037558 0.000000 0.000000
# 5 0.000000 0.000000 0.000000 0.000000 0.047680 0.000000
# 6 0.000000 0.000000 0.000000 0.000000 0.000000 0.040237
#
#
# Mechanical properties :
#
#
# Convention : Reuss Voigt Hill
#
# Bulk Modulus (GPa) = 47.83834 68.39624 58.11729
# Shear Modulus (GPa) = 24.15995 27.15210 25.65602
#
# Velocity S-wave (km/s) = 3.67884 3.90000 3.79104
# Velocity P-wave (km/s) = 6.69650 7.65468 7.19157
#
# Compressibility (1/GPa) = 0.02090374
#
# Stress axis : x y z
#
# Youngs Moduli (GPa) = 118.58260 74.97411 38.55596
#
# Poissons Ratio (x) = 0.31209 0.14399
# Poissons Ratio (y) = 0.49361 0.21223
# Poissons Ratio (z) = 0.44286 0.41269
#
# Static dielectric constant tensor:
#      x y z
#    x 3.705830 0.000000 0.000000 
#    y 0.000000 3.190510 0.000000 
#    z 0.000000 0.000000 3.122460 
# 
# 
# High freq. dielectric constant tensor:
#      x y z
#    x 1.705940 0.000000 0.000000 
#    y 0.000000 1.678270 0.000000 
#    z 0.000000 0.000000 1.677960 
# 
# From -- ./inp_files/3760.got.cif
#   From: 2010.06.25/outbox.cif.g09.slc.cpg/sg58_2_cif.got.tgz:3760.got - 2010.06.26 21:38:00.
