data_PCOD8235922
_publ_section_title
;
Structure prediction by ZEFSAII (Michael W. Deem and Ramdas Pophale) SiO2 
 PCOD8235922
Probable space group: P N N M
;
_chemical_formula_sum "Si O2"
_cell_formula_units_Z 64
_cell_length_a 15.077455
_cell_length_b 24.727331
_cell_length_c 9.051448
_cell_angle_alpha 90.000000
_cell_angle_beta 90.000000
_cell_angle_gamma 90.000000
_cell_volume 3374.608096
_symmetry_space_group_name_H-M "P N N M"
_symmetry_group_IT_number 58
_symmetry_cell_setting 'orthorhombic'
loop_
_space_group_symop_operation_xyz
x,y,z
-x,-y,z
1/2+x,1/2-y,1/2-z
1/2-x,1/2+y,1/2-z
-x,-y,-z
x,y,-z
1/2-x,1/2+y,1/2+z
1/2+x,1/2-y,1/2+z
loop_
_atom_site_type_symbol
_atom_site_label
_atom_site_fract_x
_atom_site_fract_y
_atom_site_fract_z
Si Si1 0.499967 0.597535 0.329597
Si Si2 0.224670 0.237206 0.667529
Si Si3 0.013882 0.331927 0.825792
Si Si4 0.805868 0.944509 0.826404
Si Si5 0.550814 0.286049 0.671755
Si Si6 0.788688 0.654264 0.825107
Si Si7 0.169515 0.631892 0.169090
Si Si8 0.668144 0.554900 0.174798
O O1 0.519354 0.583278 0.500000
O O2 0.401235 0.579937 0.284130
O O3 0.510996 0.661769 0.299006
O O4 0.568279 0.564686 0.229759
O O5 0.203083 0.253650 0.500000
O O6 0.251457 0.291449 0.754610
O O7 0.304541 0.194911 0.675828
O O8 0.140521 0.206992 0.736875
O O9 0.002118 0.268982 0.777593
O O10 0.932011 0.368548 0.767793
O O11 0.109289 0.354011 0.770469
O O12 0.009169 0.335012 0.000000
O O13 0.728738 0.904721 0.773929
O O14 0.791912 0.001214 0.745514
O O15 0.796712 0.953077 0.000000
O O16 0.578340 0.283601 0.500000
O O17 0.731019 0.603657 0.771632
O O18 0.784986 0.661294 0.000000
O O19 0.176727 0.610626 0.000000
O O20 0.667293 0.548847 0.000000
#
# Coordination Sequence:
#
# PCOD8235922 Si02
#       8
#     8   8   8   8   8   8   8   8
#     4  10  21  36  57  83 113 151 189 225 276 344
#     4  10  19  30  52  84 116 144 179 229 279 323
#     4   8  16  33  57  80 108 147 188 225 268 330
#     4  11  23  40  59  81 111 150 190 229 280 343
#     4   9  17  33  55  78 112 153 187 219 267 336
#     4   9  20  39  58  78 111 152 191 228 279 339
#     4  10  20  34  56  85 112 143 185 232 277 324
#     4  11  24  39  58  83 110 147 192 243 288 328
#
# _framework density 18.965164000000001
#
# number of rings (size 3 to 8) (size 9 to 14) (size 15 to 20)
#    0.000    2.250    1.250    2.250    1.750    4.500 
#    0.000    3.125    0.000    3.750    0.000    0.000 
#    0.000    0.000    0.000    0.000    0.000    0.000 
#
# Total GULP energy -793494.923817 kJ/mol
# GULP energy per Si atom -12398.358185 kJ/mol
# Density = 1.892200 g / cm^3
# Si number density = 18.965164 Si / 1000 Ang^3
#
#
#
# Elastic Constant Matrix: (Units=GPa)
#
#
# Indices 1 2 3 4 5 6 
#
# 1 71.5903 35.7079 26.7114 0.0000 0.0000 0.0000
# 2 35.7079 102.4269 35.6131 0.0000 0.0000 0.0000
# 3 26.7114 35.6131 56.7725 0.0000 0.0000 0.0000
# 4 0.0000 0.0000 0.0000 31.8476 0.0000 0.0000
# 5 0.0000 0.0000 0.0000 0.0000 19.5615 0.0000
# 6 0.0000 0.0000 0.0000 0.0000 0.0000 27.0303
#
#
#
# Elastic Compliance Matrix: (Units=1/GPa)
#
#
# Indices 1 2 3 4 5 6 
#
# 1 0.018336 -0.004339 -0.005905 0.000000 0.000000 0.000000
# 2 -0.004339 0.013513 -0.006435 0.000000 0.000000 0.000000
# 3 -0.005905 -0.006435 0.024429 0.000000 0.000000 0.000000
# 4 0.000000 0.000000 0.000000 0.031400 0.000000 0.000000
# 5 0.000000 0.000000 0.000000 0.000000 0.051121 0.000000
# 6 0.000000 0.000000 0.000000 0.000000 0.000000 0.036996
#
#
# Mechanical properties :
#
#
# Convention : Reuss Voigt Hill
#
# Bulk Modulus (GPa) = 43.63091 47.42828 45.52960
# Shear Modulus (GPa) = 23.06345 24.53836 23.80090
#
# Velocity S-wave (km/s) = 3.49104 3.60094 3.54641
# Velocity P-wave (km/s) = 6.26942 6.50779 6.38972
#
# Compressibility (1/GPa) = 0.02291953
#
# Stress axis : x y z
#
# Youngs Moduli (GPa) = 54.53780 74.00149 40.93443
#
# Poissons Ratio (x) = 0.32110 0.24172
# Poissons Ratio (y) = 0.23664 0.26342
# Poissons Ratio (z) = 0.32205 0.47622
#
# Static dielectric constant tensor:
#      x y z
#    x 3.595690 0.000000 0.000000 
#    y 0.000000 3.553930 0.000000 
#    z 0.000000 0.000000 3.338980 
# 
# 
# High freq. dielectric constant tensor:
#      x y z
#    x 1.733590 0.000000 0.000000 
#    y 0.000000 1.734990 0.000000 
#    z 0.000000 0.000000 1.723300 
# 
# From -- ./inp_files/6733.got.cif
#   From: 2010.06.25/outbox.cif.g09.slc.cpg/sg58_4_cif.got.tgz:6733.got - 2010.06.26 21:38:00.
