data_PCOD8235561
_publ_section_title
;
Structure prediction by ZEFSAII (Michael W. Deem and Ramdas Pophale) SiO2 
 PCOD8235561
Probable space group: P N N M
;
_chemical_formula_sum "Si O2"
_cell_formula_units_Z 64
_cell_length_a 25.377213
_cell_length_b 14.459887
_cell_length_c 8.860597
_cell_angle_alpha 90.000000
_cell_angle_beta 90.000000
_cell_angle_gamma 90.000000
_cell_volume 3251.410533
_symmetry_space_group_name_H-M "P N N M"
_symmetry_group_IT_number 58
_symmetry_cell_setting 'orthorhombic'
loop_
_space_group_symop_operation_xyz
x,y,z
-x,-y,z
1/2+x,1/2-y,1/2-z
1/2-x,1/2+y,1/2-z
-x,-y,-z
x,y,-z
1/2-x,1/2+y,1/2+z
1/2+x,1/2-y,1/2+z
loop_
_atom_site_type_symbol
_atom_site_label
_atom_site_fract_x
_atom_site_fract_y
_atom_site_fract_z
Si Si1 0.274265 0.877637 0.821341
Si Si2 0.285452 0.088842 0.820796
Si Si3 0.425400 0.648889 0.177955
Si Si4 0.421932 0.467499 0.326975
Si Si5 0.979429 0.227165 0.827710
Si Si6 0.816540 0.796645 0.820304
Si Si7 0.112237 0.689325 0.333918
Si Si8 0.332192 0.380145 0.166812
O O1 0.315579 0.807492 0.746166
O O2 0.217771 0.846492 0.760475
O O3 0.284231 0.982622 0.768008
O O4 0.277045 0.868153 0.000000
O O5 0.233856 0.143649 0.760907
O O6 0.340291 0.131062 0.756440
O O7 0.286502 0.098899 0.000000
O O8 0.449002 0.549383 0.230337
O O9 0.466543 0.727807 0.231416
O O10 0.369594 0.657967 0.260077
O O11 0.418251 0.654446 0.000000
O O12 0.419102 0.499626 0.500000
O O13 0.453512 0.373195 0.310077
O O14 0.362446 0.457591 0.263429
O O15 0.940380 0.308274 0.768603
O O16 0.993067 0.249650 0.000000
O O17 0.817295 0.792478 0.000000
O O18 0.098165 0.648636 0.500000
O O19 0.130139 0.793818 0.354583
O O20 0.316851 0.418517 0.000000
#
# Coordination Sequence:
#
# PCOD8235561 Si02
#       8
#     8   8   8   8   8   8   8   8
#     4  11  21  34  55  83 115 151 193 238 287 345
#     4   9  19  36  58  82 112 151 188 228 286 342
#     4  12  24  37  54  80 111 149 194 235 281 343
#     4  10  20  34  53  80 114 150 188 233 286 341
#     4  10  21  36  55  81 111 148 188 233 289 340
#     4  11  22  40  60  82 117 158 192 234 288 344
#     4   9  17  34  56  78 105 143 188 230 274 331
#     4  10  18  31  52  77 109 148 191 232 276 333
#
# _framework density 19.683764
#
# number of rings (size 3 to 8) (size 9 to 14) (size 15 to 20)
#    0.000    1.750    1.250    4.125    0.000    4.500 
#    0.000    3.125    0.000    0.750    0.000    5.250 
#    0.000    0.000    0.000    0.000    0.000    0.000 
#
# Total GULP energy -793436.189573 kJ/mol
# GULP energy per Si atom -12397.440462 kJ/mol
# Density = 1.963896 g / cm^3
# Si number density = 19.683764 Si / 1000 Ang^3
#
#
#
# Elastic Constant Matrix: (Units=GPa)
#
#
# Indices 1 2 3 4 5 6 
#
# 1 58.2513 20.9963 27.0996 0.0000 0.0000 0.0000
# 2 20.9963 62.7026 29.8867 0.0000 0.0000 0.0000
# 3 27.0996 29.8867 103.2305 0.0000 0.0000 0.0000
# 4 0.0000 0.0000 0.0000 25.4774 0.0000 0.0000
# 5 0.0000 0.0000 0.0000 0.0000 30.5997 0.0000
# 6 0.0000 0.0000 0.0000 0.0000 0.0000 21.8323
#
#
#
# Elastic Compliance Matrix: (Units=1/GPa)
#
#
# Indices 1 2 3 4 5 6 
#
# 1 0.020860 -0.005075 -0.004007 0.000000 0.000000 0.000000
# 2 -0.005075 0.019736 -0.004382 0.000000 0.000000 0.000000
# 3 -0.004007 -0.004382 0.012007 0.000000 0.000000 0.000000
# 4 0.000000 0.000000 0.000000 0.039250 0.000000 0.000000
# 5 0.000000 0.000000 0.000000 0.000000 0.032680 0.000000
# 6 0.000000 0.000000 0.000000 0.000000 0.000000 0.045804
#
#
# Mechanical properties :
#
#
# Convention : Reuss Voigt Hill
#
# Bulk Modulus (GPa) = 38.94598 42.23886 40.59242
# Shear Modulus (GPa) = 24.29251 25.32867 24.81059
#
# Velocity S-wave (km/s) = 3.51684 3.59106 3.55415
# Velocity P-wave (km/s) = 6.02658 6.22090 6.12451
#
# Compressibility (1/GPa) = 0.02567659
#
# Stress axis : x y z
#
# Youngs Moduli (GPa) = 47.93767 50.66816 83.28186
#
# Poissons Ratio (x) = 0.25716 0.33369
# Poissons Ratio (y) = 0.24330 0.36490
# Poissons Ratio (z) = 0.19208 0.22200
#
# Static dielectric constant tensor:
#      x y z
#    x 3.666740 0.000000 0.000000 
#    y 0.000000 3.481840 0.000000 
#    z 0.000000 0.000000 3.643660 
# 
# 
# High freq. dielectric constant tensor:
#      x y z
#    x 1.765110 0.000000 0.000000 
#    y 0.000000 1.737470 0.000000 
#    z 0.000000 0.000000 1.764780 
# 
# From -- ./inp_files/10082.got.cif
#   From: 2010.06.25/outbox.cif.g09.slc.cpg/sg58_6_cif.got.tgz:10082.got - 2010.06.26 21:38:00.
