data_PCOD8235941
_publ_section_title
;
Structure prediction by ZEFSAII (Michael W. Deem and Ramdas Pophale) SiO2 
 PCOD8235941
Probable space group: P N N M
;
_chemical_formula_sum "Si O2"
_cell_formula_units_Z 48
_cell_length_a 18.275378
_cell_length_b 16.865138
_cell_length_c 8.995911
_cell_angle_alpha 90.000000
_cell_angle_beta 90.000000
_cell_angle_gamma 90.000000
_cell_volume 2772.690649
_symmetry_space_group_name_H-M "P N N M"
_symmetry_group_IT_number 58
_symmetry_cell_setting 'orthorhombic'
loop_
_space_group_symop_operation_xyz
x,y,z
-x,-y,z
1/2+x,1/2-y,1/2-z
1/2-x,1/2+y,1/2-z
-x,-y,-z
x,y,-z
1/2-x,1/2+y,1/2+z
1/2+x,1/2-y,1/2+z
loop_
_atom_site_type_symbol
_atom_site_label
_atom_site_fract_x
_atom_site_fract_y
_atom_site_fract_z
Si Si1 0.701246 0.827698 0.164262
Si Si2 0.081297 0.787902 0.325177
Si Si3 0.814244 0.921440 0.672153
Si Si4 0.302155 0.825681 0.666077
Si Si5 0.414839 0.727940 0.172545
Si Si6 0.681274 0.583921 0.323789
O O1 0.620509 0.796693 0.210271
O O2 0.733235 0.891091 0.280473
O O3 0.750929 0.750250 0.162028
O O4 0.700112 0.866878 0.000000
O O5 0.088556 0.808073 0.500000
O O6 0.117695 0.858551 0.233415
O O7 0.997871 0.780861 0.273211
O O8 0.812043 0.944972 0.500000
O O9 0.873729 0.854090 0.706741
O O10 0.838489 0.996102 0.769230
O O11 0.316858 0.857906 0.500000
O O12 0.378971 0.801623 0.740538
O O13 0.261281 0.893355 0.760440
O O14 0.410238 0.749136 0.000000
O O15 0.683956 0.587496 0.500000
#
# Coordination Sequence:
#
# PCOD8235941 Si02
#       6
#     8   8   8   8   8   8
#     4   8  15  29  48  68  91 122 159 195 231 276
#     4   9  18  33  51  72 100 130 159 194 238 286
#     4  10  19  31  48  70  97 127 160 197 238 284
#     4   9  17  31  50  70  94 124 160 200 239 281
#     4   9  18  32  51  74  99 129 161 193 235 289
#     4  11  21  32  48  70  97 128 164 201 239 284
#
# _framework density 17.311703999999999
#
# number of rings (size 3 to 8) (size 9 to 14) (size 15 to 20)
#    0.000    2.667    0.000    3.500    0.000    6.000 
#    0.000    3.333    0.000    1.000    0.000    7.000 
#    0.000    0.000    0.000    0.000    0.000    0.000 
#
# Total GULP energy -595119.980583 kJ/mol
# GULP energy per Si atom -12398.332929 kJ/mol
# Density = 1.727230 g / cm^3
# Si number density = 17.311704 Si / 1000 Ang^3
#
#
#
# Elastic Constant Matrix: (Units=GPa)
#
#
# Indices 1 2 3 4 5 6 
#
# 1 128.1920 44.4429 54.9129 0.0000 0.0000 0.0000
# 2 44.4429 23.3449 22.8616 0.0000 0.0000 0.0000
# 3 54.9129 22.8616 95.0605 0.0000 0.0000 0.0000
# 4 0.0000 0.0000 0.0000 29.3647 0.0000 0.0000
# 5 0.0000 0.0000 0.0000 0.0000 25.0462 0.0000
# 6 0.0000 0.0000 0.0000 0.0000 0.0000 15.5469
#
#
#
# Elastic Compliance Matrix: (Units=1/GPa)
#
#
# Indices 1 2 3 4 5 6 
#
# 1 0.023924 -0.041874 -0.003750 0.000000 0.000000 0.000000
# 2 -0.041874 0.129324 -0.006913 0.000000 0.000000 0.000000
# 3 -0.003750 -0.006913 0.014348 0.000000 0.000000 0.000000
# 4 0.000000 0.000000 0.000000 0.034055 0.000000 0.000000
# 5 0.000000 0.000000 0.000000 0.000000 0.039926 0.000000
# 6 0.000000 0.000000 0.000000 0.000000 0.000000 0.064322
#
#
# Mechanical properties :
#
#
# Convention : Reuss Voigt Hill
#
# Bulk Modulus (GPa) = 15.99404 54.55915 35.27660
# Shear Modulus (GPa) = 11.57910 22.28355 16.93133
#
# Velocity S-wave (km/s) = 2.58904 3.59164 3.13074
# Velocity P-wave (km/s) = 4.26573 6.98456 5.78707
#
# Compressibility (1/GPa) = 0.06252328
#
# Stress axis : x y z
#
# Youngs Moduli (GPa) = 41.79831 7.73254 69.69557
#
# Poissons Ratio (x) = 0.32379 0.26134
# Poissons Ratio (y) = 1.75027 0.48177
# Poissons Ratio (z) = 0.15673 0.05345
#
# Static dielectric constant tensor:
#      x y z
#    x 3.377090 0.000000 0.000000 
#    y 0.000000 3.065650 0.000000 
#    z 0.000000 0.000000 3.316480 
# 
# 
# High freq. dielectric constant tensor:
#      x y z
#    x 1.657870 0.000000 0.000000 
#    y 0.000000 1.644670 0.000000 
#    z 0.000000 0.000000 1.674350 
# 
# From -- ./inp_files/5779.got.cif
#   From: 2010.06.25/outbox.cif.g09.slc.cpg/sg58_3_cif.got.tgz:5779.got - 2010.06.26 21:38:00.
