data_PCOD8235362
_publ_section_title
;
Structure prediction by ZEFSAII (Michael W. Deem and Ramdas Pophale) SiO2 
 PCOD8235362
Probable space group: P N N M
;
_chemical_formula_sum "Si O2"
_cell_formula_units_Z 64
_cell_length_a 26.397785
_cell_length_b 10.948223
_cell_length_c 13.052445
_cell_angle_alpha 90.000000
_cell_angle_beta 90.000000
_cell_angle_gamma 90.000000
_cell_volume 3772.271948
_symmetry_space_group_name_H-M "P N N M"
_symmetry_group_IT_number 58
_symmetry_cell_setting 'orthorhombic'
loop_
_space_group_symop_operation_xyz
x,y,z
-x,-y,z
1/2+x,1/2-y,1/2-z
1/2-x,1/2+y,1/2-z
-x,-y,-z
x,y,-z
1/2-x,1/2+y,1/2+z
1/2+x,1/2-y,1/2+z
loop_
_atom_site_type_symbol
_atom_site_label
_atom_site_fract_x
_atom_site_fract_y
_atom_site_fract_z
Si Si1 0.053390 0.009194 0.384880
Si Si2 0.706799 0.752327 0.384238
Si Si3 0.348051 0.139665 0.197169
Si Si4 0.151607 0.894058 0.616379
Si Si5 0.297839 0.618273 0.797664
Si Si6 0.941003 0.498842 0.378548
Si Si7 0.246895 0.513218 0.619789
Si Si8 0.389064 0.752127 0.885165
O O1 0.045167 0.959019 0.500000
O O2 0.068214 0.150126 0.385164
O O3 0.096367 0.923963 0.333347
O O4 0.000000 0.000000 0.324235
O O5 0.685553 0.753571 0.500000
O O6 0.661880 0.802448 0.310250
O O7 0.753404 0.844102 0.374268
O O8 0.729089 0.618861 0.355717
O O9 0.335415 0.251789 0.120933
O O10 0.310906 0.027194 0.164196
O O11 0.406966 0.100702 0.182977
O O12 0.150922 0.941483 0.500000
O O13 0.191471 0.977625 0.675180
O O14 0.279743 0.616943 0.678974
O O15 0.344207 0.712304 0.808907
O O16 0.937232 0.472929 0.500000
O O17 0.916520 0.626962 0.346458
O O18 0.000000 0.500000 0.343686
O O19 0.247570 0.542158 0.500000
O O20 0.366524 0.769938 0.000000
#
# Coordination Sequence:
#
# PCOD8235362 Si02
#       8
#     8   8   8   8   8   8   8   8
#     4   8  15  25  41  64  94 129 162 196 236 283
#     4  10  20  35  54  71  96 132 171 207 246 302
#     4  11  21  33  51  75 103 132 170 208 255 303
#     4  10  18  28  44  71 102 130 162 207 249 291
#     4  10  18  31  50  73  98 132 169 202 245 302
#     4  10  21  34  51  75 105 139 168 203 251 307
#     4  10  20  34  51  74 103 136 169 208 255 302
#     4   9  17  30  47  68  98 134 166 195 238 295
#
# _framework density 16.965903000000001
#
# number of rings (size 3 to 8) (size 9 to 14) (size 15 to 20)
#    0.000    2.250    1.250    3.750    1.750    2.000 
#    0.000    0.000    0.000    0.375    0.000    0.000 
#    0.000    5.000    0.000    0.000    0.000    0.000 
#
# Total GULP energy -792964.266015 kJ/mol
# GULP energy per Si atom -12390.066656 kJ/mol
# Density = 1.692729 g / cm^3
# Si number density = 16.965903 Si / 1000 Ang^3
#
#
#
# Elastic Constant Matrix: (Units=GPa)
#
#
# Indices 1 2 3 4 5 6 
#
# 1 102.9413 37.5845 41.0011 0.0000 0.0000 0.0000
# 2 37.5845 76.9245 26.4672 0.0000 0.0000 0.0000
# 3 41.0011 26.4672 75.6366 0.0000 0.0000 0.0000
# 4 0.0000 0.0000 0.0000 19.1043 0.0000 0.0000
# 5 0.0000 0.0000 0.0000 0.0000 19.7534 0.0000
# 6 0.0000 0.0000 0.0000 0.0000 0.0000 19.5945
#
#
#
# Elastic Compliance Matrix: (Units=1/GPa)
#
#
# Indices 1 2 3 4 5 6 
#
# 1 0.013748 -0.004722 -0.005801 0.000000 0.000000 0.000000
# 2 -0.004722 0.016401 -0.003180 0.000000 0.000000 0.000000
# 3 -0.005801 -0.003180 0.017478 0.000000 0.000000 0.000000
# 4 0.000000 0.000000 0.000000 0.052344 0.000000 0.000000
# 5 0.000000 0.000000 0.000000 0.000000 0.050624 0.000000
# 6 0.000000 0.000000 0.000000 0.000000 0.000000 0.051035
#
#
# Mechanical properties :
#
#
# Convention : Reuss Voigt Hill
#
# Bulk Modulus (GPa) = 49.44659 51.73422 50.59040
# Shear Modulus (GPa) = 21.20663 21.72039 21.46351
#
# Velocity S-wave (km/s) = 3.53931 3.58192 3.56068
# Velocity P-wave (km/s) = 6.77571 6.90407 6.84019
#
# Compressibility (1/GPa) = 0.02022384
#
# Stress axis : x y z
#
# Youngs Moduli (GPa) = 72.73521 60.97316 57.21438
#
# Poissons Ratio (x) = 0.28789 0.33188
# Poissons Ratio (y) = 0.34342 0.18192
# Poissons Ratio (z) = 0.42191 0.19387
#
# Static dielectric constant tensor:
#      x y z
#    x 3.312650 0.000000 0.000000 
#    y 0.000000 3.207160 0.000000 
#    z 0.000000 0.000000 2.922310 
# 
# 
# High freq. dielectric constant tensor:
#      x y z
#    x 1.651640 0.000000 0.000000 
#    y 0.000000 1.664170 0.000000 
#    z 0.000000 0.000000 1.610970 
# 
# From -- ./inp_files/17842.got.cif
#   From: 2010.06.25/outbox.cif.g09.slc.cpg/sg58_9_cif.got.tgz:17842.got - 2010.06.26 21:38:00.
