data_PCOD8235075
_publ_section_title
;
Structure prediction by ZEFSAII (Michael W. Deem and Ramdas Pophale) SiO2 
 PCOD8235075
Probable space group: P B C M
;
_chemical_formula_sum "Si O2"
_cell_formula_units_Z 32
_cell_length_a 25.940518
_cell_length_b 5.004199
_cell_length_c 10.768752
_cell_angle_alpha 90.000000
_cell_angle_beta 90.000000
_cell_angle_gamma 90.000000
_cell_volume 1397.908004
_symmetry_space_group_name_H-M "P B C M"
_symmetry_group_IT_number 57
_symmetry_cell_setting 'orthorhombic'
loop_
_space_group_symop_operation_xyz
x,y,z
-x,-y,1/2+z
x,1/2-y,-z
-x,1/2+y,1/2-z
-x,-y,-z
x,y,1/2-z
-x,1/2+y,z
x,1/2-y,1/2+z
loop_
_atom_site_type_symbol
_atom_site_label
_atom_site_fract_x
_atom_site_fract_y
_atom_site_fract_z
Si Si1 0.618615 0.001461 0.932439
Si Si2 0.902332 0.250000 0.000000
Si Si3 0.965931 0.235444 0.250000
Si Si4 0.701681 0.205320 0.750000
Si Si5 0.769789 0.789180 0.250000
Si Si6 0.166945 0.250000 0.500000
Si Si7 0.534156 0.821288 0.750000
O O1 0.665630 0.149242 0.866232
O O2 0.571105 0.862828 0.865387
O O3 0.591373 0.250000 0.000000
O O4 0.645283 0.750000 0.000000
O O5 0.934940 0.177162 0.122960
O O6 0.867755 0.500511 0.038636
O O7 0.984892 0.540225 0.250000
O O8 0.720819 0.510699 0.750000
O O9 0.751253 0.015947 0.750000
O O10 0.800948 0.836118 0.122362
O O11 0.514670 0.517810 0.750000
#
# Coordination Sequence:
#
# PCOD8235075 Si02
#       7
#     8   4   4   4   4   4   4
#     4  11  24  42  66  93 127 171 217 267 352 400
#     4  12  24  45  68  96 148 180 226 295 344 406
#     4  12  24  42  70 105 135 184 236 283 341 408
#     4  11  26  43  66  95 130 171 214 302 332 400
#     4  12  26  44  70  99 136 175 244 282 340 426
#     4  12  26  45  68 102 134 192 228 283 356 412
#     4  11  24  41  62  95 131 164 216 267 323 416
#
# _framework density 22.891348000000001
#
# number of rings (size 3 to 8) (size 9 to 14) (size 15 to 20)
#    0.000    0.500    0.000    8.250    5.250    7.000 
#    0.000    0.000    0.000    0.000    0.000    0.000 
#    0.000    0.000    0.000    0.000    0.000    0.000 
#
# Total GULP energy -396687.570198 kJ/mol
# GULP energy per Si atom -12396.486569 kJ/mol
# Density = 2.283925 g / cm^3
# Si number density = 22.891348 Si / 1000 Ang^3
#
#
#
# Elastic Constant Matrix: (Units=GPa)
#
#
# Indices 1 2 3 4 5 6 
#
# 1 90.9451 15.1338 38.0068 0.0000 0.0000 0.0000
# 2 15.1338 118.4089 18.6516 0.0000 0.0000 0.0000
# 3 38.0068 18.6516 141.7386 0.0000 0.0000 0.0000
# 4 0.0000 0.0000 0.0000 29.6153 0.0000 0.0000
# 5 0.0000 0.0000 0.0000 0.0000 -11.6400 0.0000
# 6 0.0000 0.0000 0.0000 0.0000 0.0000 50.9634
#
#
#
# Elastic Compliance Matrix: (Units=1/GPa)
#
#
# Indices 1 2 3 4 5 6 
#
# 1 0.012521 -0.001094 -0.003213 0.000000 0.000000 0.000000
# 2 -0.001094 0.008720 -0.000854 0.000000 0.000000 0.000000
# 3 -0.003213 -0.000854 0.008029 0.000000 0.000000 0.000000
# 4 0.000000 0.000000 0.000000 0.033766 0.000000 0.000000
# 5 0.000000 0.000000 0.000000 0.000000 -0.085911 0.000000
# 6 0.000000 0.000000 0.000000 0.000000 0.000000 0.019622
#
#
# Mechanical properties :
#
#
# Convention : Reuss Voigt Hill
#
# Bulk Modulus (GPa) = 52.78020 54.96411 53.87215
# Shear Modulus (GPa) = 373.53660 32.40777 202.97219
#
# Velocity S-wave (km/s) = 12.78798 3.76669 9.42657
# Velocity P-wave (km/s) = 15.52900 6.55593 11.91911
#
# Compressibility (1/GPa) = 0.01894650
#
# Stress axis : x y z
#
# Youngs Moduli (GPa) = 79.86827 114.68320 124.54408
#
# Poissons Ratio (x) = 0.12547 0.40021
# Poissons Ratio (y) = 0.08738 0.10637
# Poissons Ratio (z) = 0.25665 0.09795
#
# Static dielectric constant tensor:
#      x y z
#    x 4.005030 0.000000 0.000000 
#    y 0.000000 4.513740 0.000000 
#    z 0.000000 0.000000 4.323180 
# 
# 
# High freq. dielectric constant tensor:
#      x y z
#    x 1.907170 0.000000 0.000000 
#    y 0.000000 1.927380 0.000000 
#    z 0.000000 0.000000 1.915520 
# 
# From -- ./inp_files/14284.got.cif
#   From: 2010.03.12/outbox.cif.g09.slc.cpg/sg57_8_cif.got.tgz:14284.got - 2010.04.16 15:48:40.
