data_PCOD8235398
_publ_section_title
;
Structure prediction by ZEFSAII (Michael W. Deem and Ramdas Pophale) SiO2 
 PCOD8235398
Probable space group: P N N M
;
_chemical_formula_sum "Si O2"
_cell_formula_units_Z 64
_cell_length_a 23.425832
_cell_length_b 19.099908
_cell_length_c 9.150130
_cell_angle_alpha 90.000000
_cell_angle_beta 90.000000
_cell_angle_gamma 90.000000
_cell_volume 4094.053976
_symmetry_space_group_name_H-M "P N N M"
_symmetry_group_IT_number 58
_symmetry_cell_setting 'orthorhombic'
loop_
_space_group_symop_operation_xyz
x,y,z
-x,-y,z
1/2+x,1/2-y,1/2-z
1/2-x,1/2+y,1/2-z
-x,-y,-z
x,y,-z
1/2-x,1/2+y,1/2+z
1/2+x,1/2-y,1/2+z
loop_
_atom_site_type_symbol
_atom_site_label
_atom_site_fract_x
_atom_site_fract_y
_atom_site_fract_z
Si Si1 0.655609 0.766847 0.829683
Si Si2 0.434475 0.149478 0.327288
Si Si3 0.724040 0.632383 0.169410
Si Si4 0.333864 0.780599 0.326587
Si Si5 0.374734 0.005437 0.671656
Si Si6 0.766256 0.846802 0.826985
Si Si7 0.245380 0.499209 0.673190
Si Si8 0.938413 0.633715 0.172991
O O1 0.597942 0.784620 0.743183
O O2 0.672071 0.685889 0.800944
O O3 0.706041 0.816841 0.768012
O O4 0.645127 0.780573 0.000000
O O5 0.434651 0.158757 0.500000
O O6 0.498758 0.148226 0.263022
O O7 0.403531 0.077888 0.280918
O O8 0.783382 0.667106 0.220667
O O9 0.714525 0.562271 0.263998
O O10 0.726751 0.611537 0.000000
O O11 0.337477 0.780203 0.500000
O O12 0.318477 0.702132 0.268365
O O13 0.393784 0.808808 0.261801
O O14 0.360243 0.003171 0.500000
O O15 0.317275 0.993687 0.760462
O O16 0.418588 0.944182 0.715613
O O17 0.774265 0.927037 0.778554
O O18 0.764081 0.838917 0.000000
O O19 0.241131 0.493303 0.500000
O O20 0.940818 0.640291 0.000000
#
# Coordination Sequence:
#
# PCOD8235398 Si02
#       8
#     8   8   8   8   8   8   8   8
#     4   9  17  31  47  62  86 119 150 179 215 268
#     4  10  19  28  43  67  91 116 150 190 221 247
#     4   9  17  30  48  65  83 115 153 180 214 267
#     4   8  13  25  45  63  80 109 149 184 210 252
#     4  10  18  29  42  60  91 125 155 177 205 257
#     4   8  15  26  41  62  86 112 142 176 219 263
#     4  11  19  27  43  67  93 115 141 182 226 262
#     4   9  16  27  44  64  86 117 155 187 214 249
#
# _framework density 15.632427
#
# number of rings (size 3 to 8) (size 9 to 14) (size 15 to 20)
#    0.000    2.750    2.500    2.250    0.000    2.000 
#    0.000    0.625    0.000    1.500    0.000    0.875 
#    0.000    7.000    0.000    0.000    0.000    0.000 
#
# Total GULP energy -793233.675558 kJ/mol
# GULP energy per Si atom -12394.276181 kJ/mol
# Density = 1.559685 g / cm^3
# Si number density = 15.632427 Si / 1000 Ang^3
#
#
#
# Elastic Constant Matrix: (Units=GPa)
#
#
# Indices 1 2 3 4 5 6 
#
# 1 69.2233 46.1538 14.5760 0.0000 0.0000 0.0000
# 2 46.1538 112.6106 28.5919 0.0000 0.0000 0.0000
# 3 14.5760 28.5919 25.0952 0.0000 0.0000 0.0000
# 4 0.0000 0.0000 0.0000 19.9997 0.0000 0.0000
# 5 0.0000 0.0000 0.0000 0.0000 17.3685 0.0000
# 6 0.0000 0.0000 0.0000 0.0000 0.0000 23.8396
#
#
#
# Elastic Compliance Matrix: (Units=1/GPa)
#
#
# Indices 1 2 3 4 5 6 
#
# 1 0.020060 -0.007406 -0.003214 0.000000 0.000000 0.000000
# 2 -0.007406 0.015229 -0.013049 0.000000 0.000000 0.000000
# 3 -0.003214 -0.013049 0.056582 0.000000 0.000000 0.000000
# 4 0.000000 0.000000 0.000000 0.050001 0.000000 0.000000
# 5 0.000000 0.000000 0.000000 0.000000 0.057575 0.000000
# 6 0.000000 0.000000 0.000000 0.000000 0.000000 0.041947
#
#
# Mechanical properties :
#
#
# Convention : Reuss Voigt Hill
#
# Bulk Modulus (GPa) = 22.45493 42.84140 32.64816
# Shear Modulus (GPa) = 16.47031 20.08206 18.27618
#
# Velocity S-wave (km/s) = 3.24944 3.58808 3.42295
# Velocity P-wave (km/s) = 5.33610 6.68062 6.04585
#
# Compressibility (1/GPa) = 0.04453364
#
# Stress axis : x y z
#
# Youngs Moduli (GPa) = 49.84927 65.66600 17.67343
#
# Poissons Ratio (x) = 0.48631 0.05680
# Poissons Ratio (y) = 0.36917 0.23062
# Poissons Ratio (z) = 0.16022 0.85687
#
# Static dielectric constant tensor:
#      x y z
#    x 3.054950 0.000000 0.000000 
#    y 0.000000 3.248570 0.000000 
#    z 0.000000 0.000000 2.648130 
# 
# 
# High freq. dielectric constant tensor:
#      x y z
#    x 1.576310 0.000000 0.000000 
#    y 0.000000 1.602020 0.000000 
#    z 0.000000 0.000000 1.566360 
# 
# From -- ./inp_files/8416.got.cif
#   From: 2010.06.25/outbox.cif.g09.slc.cpg/sg58_5_cif.got.tgz:8416.got - 2010.06.26 21:38:00.
