data_PCOD8235507
_publ_section_title
;
Structure prediction by ZEFSAII (Michael W. Deem and Ramdas Pophale) SiO2 
 PCOD8235507
Probable space group: P N N M
;
_chemical_formula_sum "Si O2"
_cell_formula_units_Z 56
_cell_length_a 20.115457
_cell_length_b 15.236944
_cell_length_c 9.020670
_cell_angle_alpha 90.000000
_cell_angle_beta 90.000000
_cell_angle_gamma 90.000000
_cell_volume 2764.818142
_symmetry_space_group_name_H-M "P N N M"
_symmetry_group_IT_number 58
_symmetry_cell_setting 'orthorhombic'
loop_
_space_group_symop_operation_xyz
x,y,z
-x,-y,z
1/2+x,1/2-y,1/2-z
1/2-x,1/2+y,1/2-z
-x,-y,-z
x,y,-z
1/2-x,1/2+y,1/2+z
1/2+x,1/2-y,1/2+z
loop_
_atom_site_type_symbol
_atom_site_label
_atom_site_fract_x
_atom_site_fract_y
_atom_site_fract_z
Si Si1 0.569405 0.825404 0.173670
Si Si2 0.430447 0.819275 0.676095
Si Si3 0.140202 0.842784 0.328211
Si Si4 0.779011 0.010332 0.175324
Si Si5 0.628287 0.357039 0.672239
Si Si6 0.997339 0.901053 0.340983
Si Si7 0.873321 0.510105 0.325173
O O1 0.502417 0.792542 0.256420
O O2 0.633914 0.762133 0.204960
O O3 0.588944 0.922406 0.226456
O O4 0.553422 0.824318 0.000000
O O5 0.438121 0.824781 0.500000
O O6 0.373441 0.746327 0.720291
O O7 0.408032 0.911564 0.739509
O O8 0.155862 0.860925 0.500000
O O9 0.194768 0.896138 0.235776
O O10 0.068329 0.875116 0.277340
O O11 0.702955 0.001655 0.223646
O O12 0.817232 0.923916 0.243944
O O13 0.787360 0.012962 0.000000
O O14 0.640609 0.362995 0.500000
O O15 0.555293 0.389231 0.711570
O O16 0.981807 0.851339 0.500000
O O17 0.000000 0.000000 0.385797
O O18 0.880246 0.526003 0.500000
#
# Coordination Sequence:
#
# PCOD8235507 Si02
#       7
#     8   8   8   8   8   8   8
#     4  10  21  39  63  86 111 149 193 236 283 338
#     4  11  23  38  60  89 116 144 185 241 293 333
#     4  10  20  34  57  88 116 147 186 232 284 337
#     4  10  22  39  57  81 116 154 190 228 276 340
#     4  10  21  35  55  84 115 148 183 226 282 338
#     4  10  18  30  51  82 116 146 182 228 278 332
#     4  10  23  42  60  79 109 153 198 235 276 334
#
# _framework density 20.254496
#
# number of rings (size 3 to 8) (size 9 to 14) (size 15 to 20)
#    0.000    1.857    2.857    0.857    0.000    6.000 
#    0.000    2.857    0.000    0.000    0.000    0.000 
#    0.000    0.000    0.000    0.000    0.000    0.000 
#
# Total GULP energy -693746.690630 kJ/mol
# GULP energy per Si atom -12388.333761 kJ/mol
# Density = 2.020840 g / cm^3
# Si number density = 20.254496 Si / 1000 Ang^3
#
#
#
# Elastic Constant Matrix: (Units=GPa)
#
#
# Indices 1 2 3 4 5 6 
#
# 1 74.3623 31.9738 23.9699 0.0000 0.0000 0.0000
# 2 31.9738 124.2735 30.6003 0.0000 0.0000 0.0000
# 3 23.9699 30.6003 26.5010 0.0000 0.0000 0.0000
# 4 0.0000 0.0000 0.0000 28.0342 0.0000 0.0000
# 5 0.0000 0.0000 0.0000 0.0000 24.9812 0.0000
# 6 0.0000 0.0000 0.0000 0.0000 0.0000 10.2229
#
#
#
# Elastic Compliance Matrix: (Units=1/GPa)
#
#
# Indices 1 2 3 4 5 6 
#
# 1 0.019057 -0.000921 -0.016174 0.000000 0.000000 0.000000
# 2 -0.000921 0.011288 -0.012201 0.000000 0.000000 0.000000
# 3 -0.016174 -0.012201 0.066452 0.000000 0.000000 0.000000
# 4 0.000000 0.000000 0.000000 0.035671 0.000000 0.000000
# 5 0.000000 0.000000 0.000000 0.000000 0.040030 0.000000
# 6 0.000000 0.000000 0.000000 0.000000 0.000000 0.097819
#
#
# Mechanical properties :
#
#
# Convention : Reuss Voigt Hill
#
# Bulk Modulus (GPa) = 26.17420 44.24720 35.21070
# Shear Modulus (GPa) = 14.63509 21.88718 18.26113
#
# Velocity S-wave (km/s) = 2.69096 3.29083 3.00590
# Velocity P-wave (km/s) = 4.75455 6.02764 5.42854
#
# Compressibility (1/GPa) = 0.03820556
#
# Stress axis : x y z
#
# Youngs Moduli (GPa) = 52.47417 88.58957 15.04835
#
# Poissons Ratio (x) = 0.08155 0.24339
# Poissons Ratio (y) = 0.04830 0.18361
# Poissons Ratio (z) = 0.84871 1.08092
#
# Static dielectric constant tensor:
#      x y z
#    x 3.598420 0.000000 0.000000 
#    y 0.000000 4.149720 0.000000 
#    z 0.000000 0.000000 3.462330 
# 
# 
# High freq. dielectric constant tensor:
#      x y z
#    x 1.775660 0.000000 0.000000 
#    y 0.000000 1.814660 0.000000 
#    z 0.000000 0.000000 1.771800 
# 
# From -- ./inp_files/9006.got.cif
#   From: 2010.06.25/outbox.cif.g09.slc.cpg/sg58_5_cif.got.tgz:9006.got - 2010.06.26 21:38:00.
