data_PCOD8235308
_publ_section_title
;
Structure prediction by ZEFSAII (Michael W. Deem and Ramdas Pophale) SiO2 
 PCOD8235308
Probable space group: P N N M
;
_chemical_formula_sum "Si O2"
_cell_formula_units_Z 48
_cell_length_a 15.481142
_cell_length_b 21.236278
_cell_length_c 7.679582
_cell_angle_alpha 90.000000
_cell_angle_beta 90.000000
_cell_angle_gamma 90.000000
_cell_volume 2524.753472
_symmetry_space_group_name_H-M "P N N M"
_symmetry_group_IT_number 58
_symmetry_cell_setting 'orthorhombic'
loop_
_space_group_symop_operation_xyz
x,y,z
-x,-y,z
1/2+x,1/2-y,1/2-z
1/2-x,1/2+y,1/2-z
-x,-y,-z
x,y,-z
1/2-x,1/2+y,1/2+z
1/2+x,1/2-y,1/2+z
loop_
_atom_site_type_symbol
_atom_site_label
_atom_site_fract_x
_atom_site_fract_y
_atom_site_fract_z
Si Si1 0.562523 0.053220 0.703877
Si Si2 0.577955 0.191497 0.802038
Si Si3 0.635830 0.486447 0.500000
Si Si4 0.231534 0.825647 0.792778
Si Si5 0.449563 0.297521 0.203687
Si Si6 0.488739 0.395061 0.500000
Si Si7 0.258328 0.465278 0.803170
O O1 0.547866 0.060777 0.500000
O O2 0.541473 0.120891 0.786769
O O3 0.658467 0.031870 0.750378
O O4 0.500000 0.000000 0.783472
O O5 0.674886 0.197473 0.718298
O O6 0.508140 0.239904 0.722456
O O7 0.588158 0.210716 0.000000
O O8 0.586568 0.420084 0.500000
O O9 0.573849 0.545947 0.500000
O O10 0.692960 0.487601 0.674450
O O11 0.152608 0.780627 0.731567
O O12 0.208969 0.893809 0.714401
O O13 0.234368 0.831658 0.000000
O O14 0.472952 0.356919 0.322785
O O15 0.467269 0.312038 0.000000
O O16 0.273954 0.488813 0.000000
#
# Coordination Sequence:
#
# PCOD8235308 Si02
#       7
#     8   8   4   8   8   4   8
#     4   9  19  34  55  85 114 146 188 232 281 332
#     4   9  21  35  56  85 111 146 191 231 278 336
#     4  11  22  38  55  86 108 142 199 228 275 349
#     4  10  17  34  58  82 110 145 188 232 274 328
#     4  11  21  38  58  83 113 147 189 232 280 338
#     4  11  24  38  58  80 115 148 178 238 290 327
#     4  10  18  33  57  81 109 147 187 230 273 327
#
# _framework density 19.011756999999999
#
# number of rings (size 3 to 8) (size 9 to 14) (size 15 to 20)
#    0.000    2.000    3.333    0.500    2.333    1.667 
#    0.000    3.333    0.000    6.000    0.000    0.000 
#    0.000    0.000    0.000    0.000    0.000    0.000 
#
# Total GULP energy -594971.087260 kJ/mol
# GULP energy per Si atom -12395.230985 kJ/mol
# Density = 1.896849 g / cm^3
# Si number density = 19.011757 Si / 1000 Ang^3
#
#
#
# Elastic Constant Matrix: (Units=GPa)
#
#
# Indices 1 2 3 4 5 6 
#
# 1 141.0780 73.5773 31.7909 0.0000 0.0000 0.0000
# 2 73.5773 79.6120 28.8116 0.0000 0.0000 0.0000
# 3 31.7909 28.8116 75.3219 0.0000 0.0000 0.0000
# 4 0.0000 0.0000 0.0000 12.7849 0.0000 0.0000
# 5 0.0000 0.0000 0.0000 0.0000 23.3287 0.0000
# 6 0.0000 0.0000 0.0000 0.0000 0.0000 40.4389
#
#
#
# Elastic Compliance Matrix: (Units=1/GPa)
#
#
# Indices 1 2 3 4 5 6 
#
# 1 0.013761 -0.012322 -0.001095 0.000000 0.000000 0.000000
# 2 -0.012322 0.025612 -0.004596 0.000000 0.000000 0.000000
# 3 -0.001095 -0.004596 0.015497 0.000000 0.000000 0.000000
# 4 0.000000 0.000000 0.000000 0.078217 0.000000 0.000000
# 5 0.000000 0.000000 0.000000 0.000000 0.042866 0.000000
# 6 0.000000 0.000000 0.000000 0.000000 0.000000 0.024729
#
#
# Mechanical properties :
#
#
# Convention : Reuss Voigt Hill
#
# Bulk Modulus (GPa) = 53.06770 62.70796 57.88783
# Shear Modulus (GPa) = 20.57698 26.09928 23.33813
#
# Velocity S-wave (km/s) = 3.29345 3.70915 3.50746
# Velocity P-wave (km/s) = 6.51430 7.16932 6.84964
#
# Compressibility (1/GPa) = 0.01884385
#
# Stress axis : x y z
#
# Youngs Moduli (GPa) = 72.66713 39.04368 64.53010
#
# Poissons Ratio (x) = 0.48110 0.07065
# Poissons Ratio (y) = 0.89541 0.29660
# Poissons Ratio (z) = 0.07956 0.17946
#
# Static dielectric constant tensor:
#      x y z
#    x 4.028460 0.000000 0.000000 
#    y 0.000000 3.350390 0.000000 
#    z 0.000000 0.000000 3.456000 
# 
# 
# High freq. dielectric constant tensor:
#      x y z
#    x 1.750370 0.000000 0.000000 
#    y 0.000000 1.700640 0.000000 
#    z 0.000000 0.000000 1.745160 
# 
# From -- ./inp_files/6071.got.cif
#   From: 2010.06.25/outbox.cif.g09.slc.cpg/sg58_4_cif.got.tgz:6071.got - 2010.06.26 21:38:00.
