data_PCOD8235808
_publ_section_title
;
Structure prediction by ZEFSAII (Michael W. Deem and Ramdas Pophale) SiO2 
 PCOD8235808
Probable space group: P N N M
;
_chemical_formula_sum "Si O2"
_cell_formula_units_Z 48
_cell_length_a 18.307757
_cell_length_b 9.120910
_cell_length_c 14.797073
_cell_angle_alpha 90.000000
_cell_angle_beta 90.000000
_cell_angle_gamma 90.000000
_cell_volume 2470.865617
_symmetry_space_group_name_H-M "P N N M"
_symmetry_group_IT_number 58
_symmetry_cell_setting 'orthorhombic'
loop_
_space_group_symop_operation_xyz
x,y,z
-x,-y,z
1/2+x,1/2-y,1/2-z
1/2-x,1/2+y,1/2-z
-x,-y,-z
x,y,-z
1/2-x,1/2+y,1/2+z
1/2+x,1/2-y,1/2+z
loop_
_atom_site_type_symbol
_atom_site_label
_atom_site_fract_x
_atom_site_fract_y
_atom_site_fract_z
Si Si1 0.192110 0.537215 0.695976
Si Si2 0.729795 0.817111 0.500000
Si Si3 0.694679 0.310957 0.814038
Si Si4 0.529768 0.345460 0.831661
Si Si5 0.540952 0.151357 0.000000
Si Si6 0.951150 0.355464 0.200506
Si Si7 0.302895 0.972462 0.000000
Si Si8 0.435396 0.121601 0.500000
O O1 0.265202 0.608960 0.732488
O O2 0.195871 0.362400 0.703623
O O3 0.125120 0.606287 0.751370
O O4 0.190325 0.575308 0.588541
O O5 0.771414 0.864354 0.591058
O O6 0.730910 0.635380 0.500000
O O7 0.652735 0.906372 0.500000
O O8 0.613314 0.368664 0.807543
O O9 0.500000 0.500000 0.863434
O O10 0.487481 0.285044 0.745076
O O11 0.514937 0.232429 0.911197
O O12 0.500000 0.000000 0.000000
O O13 0.628486 0.140272 0.000000
O O14 0.944024 0.298480 0.096542
O O15 0.000000 0.500000 0.208156
O O16 0.500000 0.000000 0.500000
#
# Coordination Sequence:
#
# PCOD8235808 Si02
#       8
#     8   4   8   8   4   8   4   4
#     4  11  22  40  65  90 124 169 223 264 333 398
#     4  10  18  39  62  83 123 166 210 263 331 379
#     4  11  23  40  63  91 127 172 217 272 331 401
#     4  12  25  39  64 101 138 169 218 283 335 394
#     4  12  21  42  67  93 131 180 218 259 331 416
#     4  11  21  42  65  91 127 175 220 270 331 406
#     4  10  20  37  61  89 120 168 216 262 321 407
#     4  10  22  36  66  99 118 169 234 274 321 392
#
# _framework density 19.426390999999999
#
# number of rings (size 3 to 8) (size 9 to 14) (size 15 to 20)
#    0.000    1.000    6.667    1.750    2.333    0.000 
#    0.000    2.917    0.000    0.000    0.000    0.000 
#    0.000    0.000    0.000    0.000    0.000    0.000 
#
# Total GULP energy -594758.987514 kJ/mol
# GULP energy per Si atom -12390.812240 kJ/mol
# Density = 1.938218 g / cm^3
# Si number density = 19.426391 Si / 1000 Ang^3
#
#
#
# Elastic Constant Matrix: (Units=GPa)
#
#
# Indices 1 2 3 4 5 6 
#
# 1 141.2528 59.8634 58.8701 0.0000 0.0000 0.0000
# 2 59.8634 64.2370 49.8105 0.0000 0.0000 0.0000
# 3 58.8701 49.8105 186.5022 0.0000 0.0000 0.0000
# 4 0.0000 0.0000 0.0000 -14.4439 0.0000 0.0000
# 5 0.0000 0.0000 0.0000 0.0000 49.3490 0.0000
# 6 0.0000 0.0000 0.0000 0.0000 0.0000 35.5788
#
#
#
# Elastic Compliance Matrix: (Units=1/GPa)
#
#
# Indices 1 2 3 4 5 6 
#
# 1 0.011846 -0.010266 -0.000997 0.000000 0.000000 0.000000
# 2 -0.010266 0.028530 -0.004379 0.000000 0.000000 0.000000
# 3 -0.000997 -0.004379 0.006846 0.000000 0.000000 0.000000
# 4 0.000000 0.000000 0.000000 -0.069233 0.000000 0.000000
# 5 0.000000 0.000000 0.000000 0.000000 0.020264 0.000000
# 6 0.000000 0.000000 0.000000 0.000000 0.000000 0.028107
#
#
# Mechanical properties :
#
#
# Convention : Reuss Voigt Hill
#
# Bulk Modulus (GPa) = 62.74676 81.00888 71.87782
# Shear Modulus (GPa) = 79.41905 28.99332 54.20618
#
# Velocity S-wave (km/s) = 6.40084 3.86744 5.28810
# Velocity P-wave (km/s) = 9.32725 7.85708 8.62355
#
# Compressibility (1/GPa) = 0.01593708
#
# Stress axis : x y z
#
# Youngs Moduli (GPa) = 84.41689 35.05062 146.06434
#
# Poissons Ratio (x) = 0.35983 0.14568
# Poissons Ratio (y) = 0.86663 0.63965
# Poissons Ratio (z) = 0.08420 0.15350
#
# Static dielectric constant tensor:
#      x y z
#    x 3.775490 0.000000 0.000000 
#    y 0.000000 3.208750 0.000000 
#    z 0.000000 0.000000 4.039370 
# 
# 
# High freq. dielectric constant tensor:
#      x y z
#    x 1.767310 0.000000 0.000000 
#    y 0.000000 1.721440 0.000000 
#    z 0.000000 0.000000 1.781370 
# 
# From -- ./inp_files/19881.got.cif
#   From: 2010.06.25/outbox.cif.g09.slc.cpg/sg58_10_cif.got.tgz:19881.got - 2010.06.26 21:38:00.
