data_PCOD8235060
_publ_section_title
;
Structure prediction by ZEFSAII (Michael W. Deem and Ramdas Pophale) SiO2 
 PCOD8235060
Probable space group: P B C M
;
_chemical_formula_sum "Si O2"
_cell_formula_units_Z 48
_cell_length_a 10.923227
_cell_length_b 9.184126
_cell_length_c 23.054956
_cell_angle_alpha 90.000000
_cell_angle_beta 90.000000
_cell_angle_gamma 90.000000
_cell_volume 2312.879943
_symmetry_space_group_name_H-M "P B C M"
_symmetry_group_IT_number 57
_symmetry_cell_setting 'orthorhombic'
loop_
_space_group_symop_operation_xyz
x,y,z
-x,-y,1/2+z
x,1/2-y,-z
-x,1/2+y,1/2-z
-x,-y,-z
x,y,1/2-z
-x,1/2+y,z
x,1/2-y,1/2+z
loop_
_atom_site_type_symbol
_atom_site_label
_atom_site_fract_x
_atom_site_fract_y
_atom_site_fract_z
Si Si1 0.343910 0.429582 0.750000
Si Si2 0.473116 0.868244 0.958089
Si Si3 0.584056 0.601908 0.750000
Si Si4 0.091850 0.723206 0.183662
Si Si5 0.710908 0.010355 0.365348
Si Si6 0.742203 0.772554 0.934622
Si Si7 0.140342 0.455346 0.655925
O O1 0.442373 0.558644 0.750000
O O2 0.413111 0.275895 0.750000
O O3 0.263543 0.447057 0.692907
O O4 0.388109 0.908554 0.904767
O O5 0.597904 0.804952 0.931395
O O6 0.408219 0.750000 0.000000
O O7 0.500000 0.000000 0.000000
O O8 0.650632 0.539005 0.694061
O O9 0.137084 0.738909 0.250000
O O10 0.181290 0.622978 0.146683
O O11 0.957231 0.654865 0.183524
O O12 0.086684 0.882105 0.154356
O O13 0.768798 0.872921 0.398122
O O14 0.822388 0.904796 0.908704
O O15 0.787535 0.750000 0.000000
#
# Coordination Sequence:
#
# PCOD8235060 Si02
#       7
#     4   8   4   8   8   8   8
#     4  12  26  43  73  98 152 181 230 292 352 437
#     4  11  23  43  71 101 140 193 238 288 357 429
#     4  12  28  41  65 112 144 177 230 288 370 411
#     4  12  26  46  74 103 141 188 240 288 365 426
#     4  12  25  43  69 102 145 183 233 293 354 428
#     4  11  24  46  69 101 140 189 238 297 352 425
#     4  12  26  47  73 103 139 188 240 296 351 422
#
# _framework density 20.753347000000002
#
# number of rings (size 3 to 8) (size 9 to 14) (size 15 to 20)
#    0.000    0.333    7.500    2.000    4.667    0.000 
#    0.000    4.167    0.000    0.000    0.000    0.000 
#    0.000    0.000    0.000    0.000    0.000    0.000 
#
# Total GULP energy -595472.958265 kJ/mol
# GULP energy per Si atom -12405.686631 kJ/mol
# Density = 2.070611 g / cm^3
# Si number density = 20.753347 Si / 1000 Ang^3
#
#
#
# Elastic Constant Matrix: (Units=GPa)
#
#
# Indices 1 2 3 4 5 6 
#
# 1 80.8013 56.0244 40.1594 0.0000 0.0000 0.0000
# 2 56.0244 157.0322 52.5064 0.0000 0.0000 0.0000
# 3 40.1594 52.5064 143.2394 0.0000 0.0000 0.0000
# 4 0.0000 0.0000 0.0000 40.5303 0.0000 0.0000
# 5 0.0000 0.0000 0.0000 0.0000 -26.8850 0.0000
# 6 0.0000 0.0000 0.0000 0.0000 0.0000 44.0619
#
#
#
# Elastic Compliance Matrix: (Units=1/GPa)
#
#
# Indices 1 2 3 4 5 6 
#
# 1 0.017495 -0.005244 -0.002983 0.000000 0.000000 0.000000
# 2 -0.005244 0.008830 -0.001766 0.000000 0.000000 0.000000
# 3 -0.002983 -0.001766 0.008465 0.000000 0.000000 0.000000
# 4 0.000000 0.000000 0.000000 0.024673 0.000000 0.000000
# 5 0.000000 0.000000 0.000000 0.000000 -0.037196 0.000000
# 6 0.000000 0.000000 0.000000 0.000000 0.000000 0.022695
#
#
# Mechanical properties :
#
#
# Convention : Reuss Voigt Hill
#
# Bulk Modulus (GPa) = 67.55380 75.38369 71.46874
# Shear Modulus (GPa) = 71.54857 27.03364 49.29110
#
# Velocity S-wave (km/s) = 5.87797 3.61309 4.87878
# Velocity P-wave (km/s) = 8.87067 7.33542 8.13932
#
# Compressibility (1/GPa) = 0.01480302
#
# Stress axis : x y z
#
# Youngs Moduli (GPa) = 57.16059 113.25381 118.13362
#
# Poissons Ratio (x) = 0.59393 0.35234
# Poissons Ratio (y) = 0.29977 0.20866
# Poissons Ratio (z) = 0.17048 0.20004
#
# Static dielectric constant tensor:
#      x y z
#    x 4.380990 0.000000 0.000000 
#    y 0.000000 3.963970 0.000000 
#    z 0.000000 0.000000 3.969010 
# 
# 
# High freq. dielectric constant tensor:
#      x y z
#    x 1.804190 0.000000 0.000000 
#    y 0.000000 1.832060 0.000000 
#    z 0.000000 0.000000 1.821160 
# 
# From -- ./inp_files/27130.got.cif
#   From: 2010.03.12/outbox.cif.g09.slc.cpg/sg57_14_cif.got.tgz:27130.got - 2010.04.16 15:48:40.
