data_PCOD8235412
_publ_section_title
;
Structure prediction by ZEFSAII (Michael W. Deem and Ramdas Pophale) SiO2 
 PCOD8235412
Probable space group: P N N M
;
_chemical_formula_sum "Si O2"
_cell_formula_units_Z 64
_cell_length_a 28.925818
_cell_length_b 12.605857
_cell_length_c 9.381614
_cell_angle_alpha 90.000000
_cell_angle_beta 90.000000
_cell_angle_gamma 90.000000
_cell_volume 3420.862244
_symmetry_space_group_name_H-M "P N N M"
_symmetry_group_IT_number 58
_symmetry_cell_setting 'orthorhombic'
loop_
_space_group_symop_operation_xyz
x,y,z
-x,-y,z
1/2+x,1/2-y,1/2-z
1/2-x,1/2+y,1/2-z
-x,-y,-z
x,y,-z
1/2-x,1/2+y,1/2+z
1/2+x,1/2-y,1/2+z
loop_
_atom_site_type_symbol
_atom_site_label
_atom_site_fract_x
_atom_site_fract_y
_atom_site_fract_z
Si Si1 0.626218 0.285795 0.832793
Si Si2 0.666685 0.709939 0.832694
Si Si3 0.660352 0.103688 0.656711
Si Si4 0.284587 0.100361 0.330892
Si Si5 0.570671 0.803133 0.838555
Si Si6 0.530290 0.191107 0.836609
Si Si7 0.438226 0.992274 0.343011
Si Si8 0.314940 0.523347 0.832207
O O1 0.662549 0.204423 0.760907
O O2 0.572497 0.267306 0.787669
O O3 0.641370 0.404055 0.785038
O O4 0.633040 0.270389 0.000000
O O5 0.695920 0.797610 0.749586
O O6 0.611528 0.720750 0.804082
O O7 0.680587 0.595072 0.768314
O O8 0.678000 0.721029 0.000000
O O9 0.680647 0.133185 0.500000
O O10 0.607073 0.077129 0.641452
O O11 0.688181 0.004413 0.720951
O O12 0.290727 0.117518 0.500000
O O13 0.231753 0.082234 0.283804
O O14 0.519463 0.750149 0.818239
O O15 0.576504 0.901805 0.735663
O O16 0.575690 0.845100 0.000000
O O17 0.525826 0.082366 0.744063
O O18 0.538698 0.156785 0.000000
O O19 0.458325 0.018478 0.500000
O O20 0.314797 0.508760 0.000000
#
# Coordination Sequence:
#
# PCOD8235412 Si02
#       8
#     8   8   8   8   8   8   8   8
#     4   9  18  34  54  74 101 137 175 211 251 304
#     4  10  21  37  56  78 105 136 175 215 257 311
#     4   9  18  31  49  74 104 134 164 207 257 301
#     4  10  20  36  55  76 105 136 167 211 266 312
#     4  10  19  31  48  72 103 137 171 213 259 303
#     4   9  18  31  48  72 103 137 173 212 257 304
#     4  10  18  29  46  72 104 136 169 207 254 305
#     4   9  20  37  56  77 104 137 172 217 263 303
#
# _framework density 18.708732999999999
#
# number of rings (size 3 to 8) (size 9 to 14) (size 15 to 20)
#    0.000    2.500    1.250    0.750    1.750    3.000 
#    0.000    1.875    0.000    3.750    0.000    0.000 
#    0.000    6.000    0.000    0.000    0.000    0.000 
#
# Total GULP energy -793175.127672 kJ/mol
# GULP energy per Si atom -12393.361370 kJ/mol
# Density = 1.866615 g / cm^3
# Si number density = 18.708733 Si / 1000 Ang^3
#
#
#
# Elastic Constant Matrix: (Units=GPa)
#
#
# Indices 1 2 3 4 5 6 
#
# 1 110.2258 68.1108 32.5205 0.0000 0.0000 0.0000
# 2 68.1108 132.7836 43.7327 0.0000 0.0000 0.0000
# 3 32.5205 43.7327 56.4766 0.0000 0.0000 0.0000
# 4 0.0000 0.0000 0.0000 19.3056 0.0000 0.0000
# 5 0.0000 0.0000 0.0000 0.0000 15.2389 0.0000
# 6 0.0000 0.0000 0.0000 0.0000 0.0000 24.8896
#
#
#
# Elastic Compliance Matrix: (Units=1/GPa)
#
#
# Indices 1 2 3 4 5 6 
#
# 1 0.013723 -0.005955 -0.003290 0.000000 0.000000 0.000000
# 2 -0.005955 0.012694 -0.006400 0.000000 0.000000 0.000000
# 3 -0.003290 -0.006400 0.024557 0.000000 0.000000 0.000000
# 4 0.000000 0.000000 0.000000 0.051799 0.000000 0.000000
# 5 0.000000 0.000000 0.000000 0.000000 0.065621 0.000000
# 6 0.000000 0.000000 0.000000 0.000000 0.000000 0.040177
#
#
# Mechanical properties :
#
#
# Convention : Reuss Voigt Hill
#
# Bulk Modulus (GPa) = 50.80817 65.35709 58.08263
# Shear Modulus (GPa) = 20.29022 22.22828 21.25925
#
# Velocity S-wave (km/s) = 3.29680 3.45066 3.37460
# Velocity P-wave (km/s) = 6.45819 7.13343 6.80419
#
# Compressibility (1/GPa) = 0.01968188
#
# Stress axis : x y z
#
# Youngs Moduli (GPa) = 72.86982 78.77855 40.72141
#
# Poissons Ratio (x) = 0.46917 0.13399
# Poissons Ratio (y) = 0.43398 0.26062
# Poissons Ratio (z) = 0.23977 0.50419
#
# Static dielectric constant tensor:
#      x y z
#    x 3.697640 0.000000 0.000000 
#    y 0.000000 3.342960 0.000000 
#    z 0.000000 0.000000 3.537590 
# 
# 
# High freq. dielectric constant tensor:
#      x y z
#    x 1.740960 0.000000 0.000000 
#    y 0.000000 1.702390 0.000000 
#    z 0.000000 0.000000 1.708560 
# 
# From -- ./inp_files/11000.got.cif
#   From: 2010.06.25/outbox.cif.g09.slc.cpg/sg58_6_cif.got.tgz:11000.got - 2010.06.26 21:38:00.
