data_PCOD8235769
_publ_section_title
;
Structure prediction by ZEFSAII (Michael W. Deem and Ramdas Pophale) SiO2 
 PCOD8235769
Probable space group: P N N M
;
_chemical_formula_sum "Si O2"
_cell_formula_units_Z 44
_cell_length_a 14.997228
_cell_length_b 4.980916
_cell_length_c 27.811775
_cell_angle_alpha 90.000000
_cell_angle_beta 90.000000
_cell_angle_gamma 90.000000
_cell_volume 2077.537726
_symmetry_space_group_name_H-M "P N N M"
_symmetry_group_IT_number 58
_symmetry_cell_setting 'orthorhombic'
loop_
_space_group_symop_operation_xyz
x,y,z
-x,-y,z
1/2+x,1/2-y,1/2-z
1/2-x,1/2+y,1/2-z
-x,-y,-z
x,y,-z
1/2-x,1/2+y,1/2+z
1/2+x,1/2-y,1/2+z
loop_
_atom_site_type_symbol
_atom_site_label
_atom_site_fract_x
_atom_site_fract_y
_atom_site_fract_z
Si Si1 0.326406 0.209622 0.298924
Si Si2 0.742831 0.741211 0.397611
Si Si3 0.365555 0.255296 0.102254
Si Si4 0.000000 0.500000 0.674617
Si Si5 0.638798 0.851123 0.000000
Si Si6 0.868885 0.785904 0.257246
Si Si7 0.746267 0.854138 0.500000
O O1 0.333054 0.240140 0.356589
O O2 0.222262 0.234280 0.286807
O O3 0.382554 0.425425 0.267808
O O4 0.366853 0.923065 0.286532
O O5 0.781676 0.443078 0.395281
O O6 0.695152 0.791042 0.449753
O O7 0.825822 0.947553 0.389713
O O8 0.413427 0.223486 0.049490
O O9 0.436374 0.190230 0.143277
O O10 0.052086 0.284012 0.706657
O O11 0.728107 0.666943 0.000000
O O12 0.664774 0.165197 0.000000
#
# Coordination Sequence:
#
# PCOD8235769 Si02
#       7
#     8   8   8   4   4   8   4
#     4  10  20  38  53  73  99 141 177 221 271 318
#     4  10  18  35  54  77 103 139 178 217 269 317
#     4  10  21  31  53  74 106 144 179 223 257 310
#     4  12  24  37  52  82 108 143 190 230 266 308
#     4   8  16  33  44  72 104 140 180 210 258 298
#     4  10  23  34  53  73 103 135 184 228 258 312
#     4   8  16  28  52  77 102 127 172 227 254 305
#
# _framework density 21.178919
#
# number of rings (size 3 to 8) (size 9 to 14) (size 15 to 20)
#    0.000    2.182    1.818    1.091    5.091    3.273 
#    0.000    0.000    0.000    6.545    0.000    0.000 
#    0.000    4.364    0.000    0.000    0.000    0.545 
#
# Total GULP energy -545331.702591 kJ/mol
# GULP energy per Si atom -12393.902332 kJ/mol
# Density = 2.113071 g / cm^3
# Si number density = 21.178919 Si / 1000 Ang^3
#
#
#
# Elastic Constant Matrix: (Units=GPa)
#
#
# Indices 1 2 3 4 5 6 
#
# 1 13.7977 -4.4016 19.9946 0.0000 0.0000 0.0000
# 2 -4.4016 67.5444 -2.4570 0.0000 0.0000 0.0000
# 3 19.9946 -2.4570 162.0492 0.0000 0.0000 0.0000
# 4 0.0000 0.0000 0.0000 23.7714 0.0000 0.0000
# 5 0.0000 0.0000 0.0000 0.0000 20.1376 0.0000
# 6 0.0000 0.0000 0.0000 0.0000 0.0000 11.7942
#
#
#
# Elastic Compliance Matrix: (Units=1/GPa)
#
#
# Indices 1 2 3 4 5 6 
#
# 1 0.090238 0.005479 -0.011051 0.000000 0.000000 0.000000
# 2 0.005479 0.015146 -0.000446 0.000000 0.000000 0.000000
# 3 -0.011051 -0.000446 0.007528 0.000000 0.000000 0.000000
# 4 0.000000 0.000000 0.000000 0.042067 0.000000 0.000000
# 5 0.000000 0.000000 0.000000 0.000000 0.049658 0.000000
# 6 0.000000 0.000000 0.000000 0.000000 0.000000 0.084787
#
#
# Mechanical properties :
#
#
# Convention : Reuss Voigt Hill
#
# Bulk Modulus (GPa) = 9.91337 29.96258 19.93798
# Shear Modulus (GPa) = 14.92152 26.49101 20.70627
#
# Velocity S-wave (km/s) = 2.65721 3.54053 3.13018
# Velocity P-wave (km/s) = 3.75570 5.55805 4.74327
#
# Compressibility (1/GPa) = 0.10087388
#
# Stress axis : x y z
#
# Youngs Moduli (GPa) = 11.08181 66.02464 132.84201
#
# Poissons Ratio (x) = -0.36172 1.46804
# Poissons Ratio (y) = -0.06071 0.05929
# Poissons Ratio (z) = 0.12247 0.02947
#
# Static dielectric constant tensor:
#      x y z
#    x 3.053540 0.000000 0.000000 
#    y 0.000000 3.969670 0.000000 
#    z 0.000000 0.000000 4.432910 
# 
# 
# High freq. dielectric constant tensor:
#      x y z
#    x 1.733630 0.000000 0.000000 
#    y 0.000000 1.853970 0.000000 
#    z 0.000000 0.000000 1.859570 
# 
# From -- ./inp_files/33678.got.cif
#   From: 2010.06.25/outbox.cif.g09.slc.cpg/sg58_17_cif.got.tgz:33678.got - 2010.06.26 21:38:00.
