data_PCOD8235654
_publ_section_title
;
Structure prediction by ZEFSAII (Michael W. Deem and Ramdas Pophale) SiO2 
 PCOD8235654
Probable space group: P N N M
;
_chemical_formula_sum "Si O2"
_cell_formula_units_Z 64
_cell_length_a 20.851694
_cell_length_b 8.765437
_cell_length_c 18.071011
_cell_angle_alpha 90.000000
_cell_angle_beta 90.000000
_cell_angle_gamma 90.000000
_cell_volume 3302.914761
_symmetry_space_group_name_H-M "P N N M"
_symmetry_group_IT_number 58
_symmetry_cell_setting 'orthorhombic'
loop_
_space_group_symop_operation_xyz
x,y,z
-x,-y,z
1/2+x,1/2-y,1/2-z
1/2-x,1/2+y,1/2-z
-x,-y,-z
x,y,-z
1/2-x,1/2+y,1/2+z
1/2+x,1/2-y,1/2+z
loop_
_atom_site_type_symbol
_atom_site_label
_atom_site_fract_x
_atom_site_fract_y
_atom_site_fract_z
Si Si1 0.053910 0.302091 0.229287
Si Si2 0.260096 0.377332 0.817834
Si Si3 0.082712 0.638423 0.279000
Si Si4 0.429345 0.946377 0.420989
Si Si5 0.283549 0.457418 0.584900
Si Si6 0.829000 0.886305 0.220977
Si Si7 0.830470 0.350579 0.850938
Si Si8 0.164838 0.660432 0.584875
O O1 0.072431 0.460221 0.266781
O O2 0.068444 0.315964 0.141585
O O3 0.101633 0.165762 0.252619
O O4 0.980613 0.265725 0.253762
O O5 0.223314 0.249263 0.768331
O O6 0.310350 0.464420 0.766377
O O7 0.209819 0.495427 0.850095
O O8 0.294398 0.306431 0.889369
O O9 0.144399 0.696727 0.231583
O O10 0.100217 0.654542 0.365519
O O11 0.402283 0.882917 0.500000
O O12 0.500000 0.000000 0.434001
O O13 0.392570 0.101467 0.397880
O O14 0.304944 0.476315 0.500000
O O15 0.329853 0.565143 0.634303
O O16 0.290080 0.282519 0.610450
O O17 0.209134 0.509127 0.595285
O O18 0.143526 0.680939 0.500000
#
# Coordination Sequence:
#
# PCOD8235654 Si02
#       8
#     8   8   8   8   8   8   8   8
#     4  10  20  36  57  87 111 147 205 243 275 339
#     4  11  22  34  60  86 117 149 190 238 293 356
#     4  10  19  37  61  83 110 150 197 244 280 342
#     4  10  18  32  54  82 115 153 191 231 276 334
#     4  10  22  36  54  87 125 155 189 235 295 353
#     4  11  21  37  58  87 115 151 192 242 291 344
#     4  11  19  35  59  87 117 155 196 234 283 346
#     4  10  23  41  59  84 116 151 189 245 307 355
#
# _framework density 19.376823000000002
#
# number of rings (size 3 to 8) (size 9 to 14) (size 15 to 20)
#    0.000    1.625    5.000    3.375    1.750    1.500 
#    0.000    3.750    0.000    2.250    0.000    0.000 
#    0.000    0.000    0.000    0.000    0.000    0.000 
#
# Total GULP energy -793209.936741 kJ/mol
# GULP energy per Si atom -12393.905262 kJ/mol
# Density = 1.933272 g / cm^3
# Si number density = 19.376823 Si / 1000 Ang^3
#
#
#
# Elastic Constant Matrix: (Units=GPa)
#
#
# Indices 1 2 3 4 5 6 
#
# 1 80.7938 37.1695 54.5276 0.0000 0.0000 0.0000
# 2 37.1695 83.5479 37.7462 0.0000 0.0000 0.0000
# 3 54.5276 37.7462 139.3070 0.0000 0.0000 0.0000
# 4 0.0000 0.0000 0.0000 20.3147 0.0000 0.0000
# 5 0.0000 0.0000 0.0000 0.0000 21.8742 0.0000
# 6 0.0000 0.0000 0.0000 0.0000 0.0000 24.1768
#
#
#
# Elastic Compliance Matrix: (Units=1/GPa)
#
#
# Indices 1 2 3 4 5 6 
#
# 1 0.019008 -0.005806 -0.005867 0.000000 0.000000 0.000000
# 2 -0.005806 0.015412 -0.001904 0.000000 0.000000 0.000000
# 3 -0.005867 -0.001904 0.009991 0.000000 0.000000 0.000000
# 4 0.000000 0.000000 0.000000 0.049225 0.000000 0.000000
# 5 0.000000 0.000000 0.000000 0.000000 0.045716 0.000000
# 6 0.000000 0.000000 0.000000 0.000000 0.000000 0.041362
#
#
# Mechanical properties :
#
#
# Convention : Reuss Voigt Hill
#
# Bulk Modulus (GPa) = 57.94389 62.50393 60.22391
# Shear Modulus (GPa) = 23.40618 24.88682 24.14650
#
# Velocity S-wave (km/s) = 3.47932 3.58769 3.53392
# Velocity P-wave (km/s) = 6.79040 7.03485 6.91370
#
# Compressibility (1/GPa) = 0.01725807
#
# Stress axis : x y z
#
# Youngs Moduli (GPa) = 52.61028 64.88419 100.09416
#
# Poissons Ratio (x) = 0.37670 0.58724
# Poissons Ratio (y) = 0.30544 0.19053
# Poissons Ratio (z) = 0.30866 0.12351
#
# Static dielectric constant tensor:
#      x y z
#    x 3.626050 0.000000 0.000000 
#    y 0.000000 3.533580 0.000000 
#    z 0.000000 0.000000 4.140960 
# 
# 
# High freq. dielectric constant tensor:
#      x y z
#    x 1.747350 0.000000 0.000000 
#    y 0.000000 1.741870 0.000000 
#    z 0.000000 0.000000 1.747830 
# 
# From -- ./inp_files/27547.got.cif
#   From: 2010.06.25/outbox.cif.g09.slc.cpg/sg58_14_cif.got.tgz:27547.got - 2010.06.26 21:38:00.
