data_PCOD8235559
_publ_section_title
;
Structure prediction by ZEFSAII (Michael W. Deem and Ramdas Pophale) SiO2 
 PCOD8235559
Probable space group: P N N M
;
_chemical_formula_sum "Si O2"
_cell_formula_units_Z 48
_cell_length_a 20.282626
_cell_length_b 14.893440
_cell_length_c 8.777486
_cell_angle_alpha 90.000000
_cell_angle_beta 90.000000
_cell_angle_gamma 90.000000
_cell_volume 2651.486060
_symmetry_space_group_name_H-M "P N N M"
_symmetry_group_IT_number 58
_symmetry_cell_setting 'orthorhombic'
loop_
_space_group_symop_operation_xyz
x,y,z
-x,-y,z
1/2+x,1/2-y,1/2-z
1/2-x,1/2+y,1/2-z
-x,-y,-z
x,y,-z
1/2-x,1/2+y,1/2+z
1/2+x,1/2-y,1/2+z
loop_
_atom_site_type_symbol
_atom_site_label
_atom_site_fract_x
_atom_site_fract_y
_atom_site_fract_z
Si Si1 0.975575 0.729524 0.677374
Si Si2 0.804405 0.505557 0.318216
Si Si3 0.338739 0.813347 0.319755
Si Si4 0.056833 0.562336 0.677537
Si Si5 0.813613 0.885065 0.179796
Si Si6 0.460475 0.586651 0.680487
O O1 0.958061 0.736287 0.500000
O O2 0.913649 0.684747 0.761513
O O3 0.993948 0.826608 0.743553
O O4 0.039182 0.666520 0.705919
O O5 0.802438 0.507341 0.500000
O O6 0.797251 0.606684 0.256393
O O7 0.871647 0.460899 0.252968
O O8 0.744223 0.446418 0.250161
O O9 0.339149 0.825224 0.500000
O O10 0.304978 0.718964 0.270914
O O11 0.060511 0.539272 0.500000
O O12 0.000000 0.500000 0.752256
O O13 0.884724 0.921359 0.235819
O O14 0.810543 0.891939 0.000000
O O15 0.500000 0.500000 0.737890
O O16 0.465018 0.598549 0.500000
#
# Coordination Sequence:
#
# PCOD8235559 Si02
#       6
#     8   8   8   8   8   8
#     4  10  18  31  52  76  99 129 169 209 248 298
#     4  10  18  33  54  71  95 134 171 205 244 298
#     4  10  19  33  51  74 101 132 166 203 253 304
#     4   9  16  28  48  75 100 124 161 203 247 293
#     4   8  17  33  52  71  94 132 171 197 243 306
#     4   9  18  35  55  73 100 136 170 208 257 306
#
# _framework density 18.103055000000001
#
# number of rings (size 3 to 8) (size 9 to 14) (size 15 to 20)
#    0.000    2.667    1.667    2.000    0.000    0.333 
#    3.000    6.667    0.000    0.000    0.000    0.000 
#    0.000    0.000    0.000    0.000    0.000    0.000 
#
# Total GULP energy -595048.675244 kJ/mol
# GULP energy per Si atom -12396.847401 kJ/mol
# Density = 1.806185 g / cm^3
# Si number density = 18.103055 Si / 1000 Ang^3
#
#
#
# Elastic Constant Matrix: (Units=GPa)
#
#
# Indices 1 2 3 4 5 6 
#
# 1 115.1869 90.4646 19.0257 0.0000 0.0000 0.0000
# 2 90.4646 163.0407 29.1922 0.0000 0.0000 0.0000
# 3 19.0257 29.1922 31.1253 0.0000 0.0000 0.0000
# 4 0.0000 0.0000 0.0000 31.1765 0.0000 0.0000
# 5 0.0000 0.0000 0.0000 0.0000 14.4353 0.0000
# 6 0.0000 0.0000 0.0000 0.0000 0.0000 35.2756
#
#
#
# Elastic Compliance Matrix: (Units=1/GPa)
#
#
# Indices 1 2 3 4 5 6 
#
# 1 0.015460 -0.008276 -0.001688 0.000000 0.000000 0.000000
# 2 -0.008276 0.011801 -0.006010 0.000000 0.000000 0.000000
# 3 -0.001688 -0.006010 0.038797 0.000000 0.000000 0.000000
# 4 0.000000 0.000000 0.000000 0.032075 0.000000 0.000000
# 5 0.000000 0.000000 0.000000 0.000000 0.069274 0.000000
# 6 0.000000 0.000000 0.000000 0.000000 0.000000 0.028348
#
#
# Mechanical properties :
#
#
# Convention : Reuss Voigt Hill
#
# Bulk Modulus (GPa) = 29.31656 65.19088 47.25372
# Shear Modulus (GPa) = 20.91402 27.55551 24.23477
#
# Velocity S-wave (km/s) = 3.40262 3.90570 3.66281
# Velocity P-wave (km/s) = 5.62730 7.51189 6.63683
#
# Compressibility (1/GPa) = 0.03411041
#
# Stress axis : x y z
#
# Youngs Moduli (GPa) = 64.68294 84.73561 25.77541
#
# Poissons Ratio (x) = 0.70126 0.04352
# Poissons Ratio (y) = 0.53531 0.15490
# Poissons Ratio (z) = 0.10920 0.50924
#
# Static dielectric constant tensor:
#      x y z
#    x 3.494540 0.000000 0.000000 
#    y 0.000000 3.538830 0.000000 
#    z 0.000000 0.000000 3.043690 
# 
# 
# High freq. dielectric constant tensor:
#      x y z
#    x 1.686360 0.000000 0.000000 
#    y 0.000000 1.712000 0.000000 
#    z 0.000000 0.000000 1.670460 
# 
# From -- ./inp_files/4175.got.cif
#   From: 2010.06.25/outbox.cif.g09.slc.cpg/sg58_3_cif.got.tgz:4175.got - 2010.06.26 21:38:00.
