data_PCOD8235209
_publ_section_title
;
Structure prediction by ZEFSAII (Michael W. Deem and Ramdas Pophale) SiO2 
 PCOD8235209
Probable space group: P N N M
;
_chemical_formula_sum "Si O2"
_cell_formula_units_Z 44
_cell_length_a 12.804019
_cell_length_b 19.394789
_cell_length_c 9.665950
_cell_angle_alpha 90.000000
_cell_angle_beta 90.000000
_cell_angle_gamma 90.000000
_cell_volume 2400.357416
_symmetry_space_group_name_H-M "P N N M"
_symmetry_group_IT_number 58
_symmetry_cell_setting 'orthorhombic'
loop_
_space_group_symop_operation_xyz
x,y,z
-x,-y,z
1/2+x,1/2-y,1/2-z
1/2-x,1/2+y,1/2-z
-x,-y,-z
x,y,-z
1/2-x,1/2+y,1/2+z
1/2+x,1/2-y,1/2+z
loop_
_atom_site_type_symbol
_atom_site_label
_atom_site_fract_x
_atom_site_fract_y
_atom_site_fract_z
Si Si1 0.430486 0.856441 0.345303
Si Si2 0.808354 0.151900 0.338787
Si Si3 0.000000 0.500000 0.244256
Si Si4 0.387276 0.468673 0.662376
Si Si5 0.895140 0.301492 0.662501
Si Si6 0.704305 0.938209 0.155639
O O1 0.437874 0.825634 0.500000
O O2 0.311456 0.856657 0.293784
O O3 0.495042 0.807380 0.242381
O O4 0.474278 0.934264 0.350261
O O5 0.824844 0.134093 0.500000
O O6 0.879739 0.102325 0.246353
O O7 0.842155 0.229417 0.304570
O O8 0.900421 0.484084 0.339931
O O9 0.500000 0.500000 0.689999
O O10 0.368102 0.453615 0.500000
O O11 0.300963 0.521673 0.726679
O O12 0.918121 0.312118 0.500000
O O13 0.817950 0.362217 0.719185
O O14 0.740399 0.926854 0.000000
#
# Coordination Sequence:
#
# PCOD8235209 Si02
#       6
#     8   8   4   8   8   8
#     4  10  20  33  54  82 110 139 177 229 283 325
#     4  10  21  38  56  79 112 150 183 224 280 335
#     4  10  16  30  54  80 107 138 171 230 279 330
#     4  10  21  36  56  82 110 145 189 233 272 321
#     4   9  20  36  54  76 108 145 184 222 271 333
#     4   9  17  31  52  80 106 139 182 228 274 324
#
# _framework density 18.330603
#
# number of rings (size 3 to 8) (size 9 to 14) (size 15 to 20)
#    0.000    2.364    1.818    0.545    0.000    4.000 
#    0.000    3.636    0.000    2.182    0.000    0.000 
#    0.000    0.000    0.000    0.000    0.000    0.000 
#
# Total GULP energy -545493.097325 kJ/mol
# GULP energy per Si atom -12397.570394 kJ/mol
# Density = 1.828888 g / cm^3
# Si number density = 18.330603 Si / 1000 Ang^3
#
#
#
# Elastic Constant Matrix: (Units=GPa)
#
#
# Indices 1 2 3 4 5 6 
#
# 1 126.5544 67.2398 35.6035 0.0000 0.0000 0.0000
# 2 67.2398 120.6241 43.5762 0.0000 0.0000 0.0000
# 3 35.6035 43.5762 53.9504 0.0000 0.0000 0.0000
# 4 0.0000 0.0000 0.0000 26.3029 0.0000 0.0000
# 5 0.0000 0.0000 0.0000 0.0000 24.9360 0.0000
# 6 0.0000 0.0000 0.0000 0.0000 0.0000 27.3465
#
#
#
# Elastic Compliance Matrix: (Units=1/GPa)
#
#
# Indices 1 2 3 4 5 6 
#
# 1 0.011665 -0.005255 -0.003454 0.000000 0.000000 0.000000
# 2 -0.005255 0.014073 -0.007899 0.000000 0.000000 0.000000
# 3 -0.003454 -0.007899 0.027195 0.000000 0.000000 0.000000
# 4 0.000000 0.000000 0.000000 0.038019 0.000000 0.000000
# 5 0.000000 0.000000 0.000000 0.000000 0.040103 0.000000
# 6 0.000000 0.000000 0.000000 0.000000 0.000000 0.036568
#
#
# Mechanical properties :
#
#
# Convention : Reuss Voigt Hill
#
# Bulk Modulus (GPa) = 50.71577 65.99642 58.35609
# Shear Modulus (GPa) = 24.10672 26.03103 25.06888
#
# Velocity S-wave (km/s) = 3.63038 3.77249 3.70212
# Velocity P-wave (km/s) = 6.73054 7.42005 7.08369
#
# Compressibility (1/GPa) = 0.01971773
#
# Stress axis : x y z
#
# Youngs Moduli (GPa) = 85.72332 71.05769 36.77142
#
# Poissons Ratio (x) = 0.37340 0.12700
# Poissons Ratio (y) = 0.45047 0.29046
# Poissons Ratio (z) = 0.29608 0.56129
#
# Static dielectric constant tensor:
#      x y z
#    x 3.414130 0.000000 0.000000 
#    y 0.000000 3.416580 0.000000 
#    z 0.000000 0.000000 3.140510 
# 
# 
# High freq. dielectric constant tensor:
#      x y z
#    x 1.712510 0.000000 0.000000 
#    y 0.000000 1.712330 0.000000 
#    z 0.000000 0.000000 1.690000 
# 
# From -- ./inp_files/5680.got.cif
#   From: 2010.06.25/outbox.cif.g09.slc.cpg/sg58_3_cif.got.tgz:5680.got - 2010.06.26 21:38:00.
