data_PCOD8235500
_publ_section_title
;
Structure prediction by ZEFSAII (Michael W. Deem and Ramdas Pophale) SiO2 
 PCOD8235500
Probable space group: P N N M
;
_chemical_formula_sum "Si O2"
_cell_formula_units_Z 64
_cell_length_a 15.402886
_cell_length_b 24.803175
_cell_length_c 8.700080
_cell_angle_alpha 90.000000
_cell_angle_beta 90.000000
_cell_angle_gamma 90.000000
_cell_volume 3323.782713
_symmetry_space_group_name_H-M "P N N M"
_symmetry_group_IT_number 58
_symmetry_cell_setting 'orthorhombic'
loop_
_space_group_symop_operation_xyz
x,y,z
-x,-y,z
1/2+x,1/2-y,1/2-z
1/2-x,1/2+y,1/2-z
-x,-y,-z
x,y,-z
1/2-x,1/2+y,1/2+z
1/2+x,1/2-y,1/2+z
loop_
_atom_site_type_symbol
_atom_site_label
_atom_site_fract_x
_atom_site_fract_y
_atom_site_fract_z
Si Si1 0.801167 0.186376 0.318198
Si Si2 0.693343 0.467910 0.178643
Si Si3 0.120174 0.308748 0.318490
Si Si4 0.441730 0.918435 0.318108
Si Si5 0.615667 0.966159 0.678353
Si Si6 0.513772 0.721845 0.819225
Si Si7 0.859547 0.077092 0.821197
Si Si8 0.033761 0.103746 0.320545
O O1 0.793697 0.189992 0.500000
O O2 0.713680 0.210645 0.245089
O O3 0.886358 0.219555 0.257508
O O4 0.811450 0.123826 0.273229
O O5 0.788685 0.443370 0.213800
O O6 0.683277 0.520276 0.282442
O O7 0.625892 0.421611 0.225038
O O8 0.683919 0.484337 0.000000
O O9 0.123741 0.303244 0.500000
O O10 0.101944 0.369644 0.271236
O O11 0.043326 0.270658 0.249054
O O12 0.432125 0.907620 0.500000
O O13 0.542305 0.924714 0.261192
O O14 0.393466 0.972647 0.259797
O O15 0.595701 0.971770 0.500000
O O16 0.464717 0.666512 0.775283
O O17 0.518384 0.728814 0.000000
O O18 0.960438 0.072814 0.775208
O O19 0.849375 0.089832 0.000000
O O20 0.012414 0.095946 0.500000
#
# Coordination Sequence:
#
# PCOD8235500 Si02
#       8
#     8   8   8   8   8   8   8   8
#     4  10  20  38  60  79 102 141 186 223 262 319
#     4  10  18  30  51  77 103 140 186 219 259 320
#     4  11  21  35  56  84 112 139 174 224 277 319
#     4   9  17  33  54  76 104 139 177 217 261 312
#     4   8  16  31  51  75 104 135 174 224 259 297
#     4   8  18  37  55  73 105 143 178 220 269 314
#     4  11  21  32  50  78 110 138 171 221 276 320
#     4   9  18  34  53  71  99 144 188 221 259 317
#
# _framework density 19.255168999999999
#
# number of rings (size 3 to 8) (size 9 to 14) (size 15 to 20)
#    0.000    2.500    0.000    4.500    0.000    3.000 
#    2.250    8.125    0.000    0.000    0.000    0.000 
#    0.000    0.000    0.000    0.000    0.000    0.000 
#
# Total GULP energy -793344.889790 kJ/mol
# GULP energy per Si atom -12396.013903 kJ/mol
# Density = 1.921134 g / cm^3
# Si number density = 19.255169 Si / 1000 Ang^3
#
#
#
# Elastic Constant Matrix: (Units=GPa)
#
#
# Indices 1 2 3 4 5 6 
#
# 1 154.6144 51.3534 27.3592 0.0000 0.0000 0.0000
# 2 51.3534 58.6989 13.6941 0.0000 0.0000 0.0000
# 3 27.3592 13.6941 49.0908 0.0000 0.0000 0.0000
# 4 0.0000 0.0000 0.0000 15.9160 0.0000 0.0000
# 5 0.0000 0.0000 0.0000 0.0000 18.5739 0.0000
# 6 0.0000 0.0000 0.0000 0.0000 0.0000 29.6734
#
#
#
# Elastic Compliance Matrix: (Units=1/GPa)
#
#
# Indices 1 2 3 4 5 6 
#
# 1 0.009566 -0.007621 -0.003205 0.000000 0.000000 0.000000
# 2 -0.007621 0.024294 -0.002529 0.000000 0.000000 0.000000
# 3 -0.003205 -0.002529 0.022862 0.000000 0.000000 0.000000
# 4 0.000000 0.000000 0.000000 0.062830 0.000000 0.000000
# 5 0.000000 0.000000 0.000000 0.000000 0.053839 0.000000
# 6 0.000000 0.000000 0.000000 0.000000 0.000000 0.033700
#
#
# Mechanical properties :
#
#
# Convention : Reuss Voigt Hill
#
# Bulk Modulus (GPa) = 33.32201 49.69085 41.50643
# Shear Modulus (GPa) = 20.50801 24.16582 22.33691
#
# Velocity S-wave (km/s) = 3.26707 3.54648 3.40964
# Velocity P-wave (km/s) = 5.61914 6.52936 6.09128
#
# Compressibility (1/GPa) = 0.03001019
#
# Stress axis : x y z
#
# Youngs Moduli (GPa) = 104.53421 41.16279 43.73987
#
# Poissons Ratio (x) = 0.31372 0.14020
# Poissons Ratio (y) = 0.79669 0.11063
# Poissons Ratio (z) = 0.33508 0.10412
#
# Static dielectric constant tensor:
#      x y z
#    x 3.929600 0.000000 0.000000 
#    y 0.000000 3.423540 0.000000 
#    z 0.000000 0.000000 3.206440 
# 
# 
# High freq. dielectric constant tensor:
#      x y z
#    x 1.767570 0.000000 0.000000 
#    y 0.000000 1.727980 0.000000 
#    z 0.000000 0.000000 1.718600 
# 
# From -- ./inp_files/6750.got.cif
#   From: 2010.06.25/outbox.cif.g09.slc.cpg/sg58_4_cif.got.tgz:6750.got - 2010.06.26 21:38:00.
