data_PCOD8235286
_publ_section_title
;
Structure prediction by ZEFSAII (Michael W. Deem and Ramdas Pophale) SiO2 
 PCOD8235286
Probable space group: P N N M
;
_chemical_formula_sum "Si O2"
_cell_formula_units_Z 56
_cell_length_a 9.232162
_cell_length_b 16.487475
_cell_length_c 19.064738
_cell_angle_alpha 90.000000
_cell_angle_beta 90.000000
_cell_angle_gamma 90.000000
_cell_volume 2901.939861
_symmetry_space_group_name_H-M "P N N M"
_symmetry_group_IT_number 58
_symmetry_cell_setting 'orthorhombic'
loop_
_space_group_symop_operation_xyz
x,y,z
-x,-y,z
1/2+x,1/2-y,1/2-z
1/2-x,1/2+y,1/2-z
-x,-y,-z
x,y,-z
1/2-x,1/2+y,1/2+z
1/2+x,1/2-y,1/2+z
loop_
_atom_site_type_symbol
_atom_site_label
_atom_site_fract_x
_atom_site_fract_y
_atom_site_fract_z
Si Si1 0.779680 0.837210 0.672069
Si Si2 0.848897 0.662684 0.325143
Si Si3 0.067623 0.925274 0.674856
Si Si4 0.817063 0.684274 0.840910
Si Si5 0.554095 0.911754 0.417161
Si Si6 0.177874 0.649570 0.322117
Si Si7 0.158172 0.985583 0.175241
O O1 0.790315 0.746200 0.641593
O O2 0.715727 0.896757 0.612411
O O3 0.672471 0.838818 0.738339
O O4 0.939924 0.863694 0.697507
O O5 0.842742 0.669725 0.241076
O O6 0.745367 0.591698 0.355201
O O7 0.013472 0.648099 0.349932
O O8 0.187667 0.875196 0.632750
O O9 0.139157 0.970256 0.741829
O O10 0.000000 0.000000 0.628923
O O11 0.770849 0.777002 0.856374
O O12 0.956295 0.660904 0.886281
O O13 0.555403 0.906124 0.500000
O O14 0.500000 0.000000 0.391443
O O15 0.248595 0.564529 0.342065
O O16 0.000000 0.000000 0.140099
#
# Coordination Sequence:
#
# PCOD8235286 Si02
#       7
#     8   8   8   8   8   8   8
#     4  11  20  34  54  76 113 146 194 239 287 345
#     4  10  21  31  52  84 113 149 181 229 308 357
#     4  10  17  31  48  75 104 147 181 224 282 337
#     4  10  21  32  54  78 110 145 192 241 288 346
#     4  11  25  41  57  79 111 165 216 242 274 334
#     4  11  19  32  51  85 116 148 179 231 310 360
#     4  10  20  29  48  80 119 146 175 215 287 370
#
# _framework density 19.297436000000001
#
# number of rings (size 3 to 8) (size 9 to 14) (size 15 to 20)
#    0.000    1.571    5.714    1.286    4.000    0.000 
#    0.000    0.714    0.000    2.571    0.000    2.000 
#    0.000    2.286    0.000    0.000    0.000    0.000 
#
# Total GULP energy -694152.735442 kJ/mol
# GULP energy per Si atom -12395.584561 kJ/mol
# Density = 1.925351 g / cm^3
# Si number density = 19.297436 Si / 1000 Ang^3
#
#
#
# Elastic Constant Matrix: (Units=GPa)
#
#
# Indices 1 2 3 4 5 6 
#
# 1 89.9279 30.0696 4.1867 0.0000 0.0000 0.0000
# 2 30.0696 135.4043 4.8030 0.0000 0.0000 0.0000
# 3 4.1867 4.8030 24.3335 0.0000 0.0000 0.0000
# 4 0.0000 0.0000 0.0000 13.9095 0.0000 0.0000
# 5 0.0000 0.0000 0.0000 0.0000 11.7664 0.0000
# 6 0.0000 0.0000 0.0000 0.0000 0.0000 45.4476
#
#
#
# Elastic Compliance Matrix: (Units=1/GPa)
#
#
# Indices 1 2 3 4 5 6 
#
# 1 0.012070 -0.002625 -0.001559 0.000000 0.000000 0.000000
# 2 -0.002625 0.008008 -0.001129 0.000000 0.000000 0.000000
# 3 -0.001559 -0.001129 0.041587 0.000000 0.000000 0.000000
# 4 0.000000 0.000000 0.000000 0.071893 0.000000 0.000000
# 5 0.000000 0.000000 0.000000 0.000000 0.084988 0.000000
# 6 0.000000 0.000000 0.000000 0.000000 0.000000 0.022003
#
#
# Mechanical properties :
#
#
# Convention : Reuss Voigt Hill
#
# Bulk Modulus (GPa) = 19.59257 36.42047 28.00652
# Shear Modulus (GPa) = 18.64359 28.26512 23.45435
#
# Velocity S-wave (km/s) = 3.11161 3.83130 3.49006
# Velocity P-wave (km/s) = 4.80463 6.20371 5.54845
#
# Compressibility (1/GPa) = 0.05103975
#
# Stress axis : x y z
#
# Youngs Moduli (GPa) = 82.84738 124.87003 24.04615
#
# Poissons Ratio (x) = 0.32781 0.03748
# Poissons Ratio (y) = 0.21749 0.02715
# Poissons Ratio (z) = 0.12912 0.14098
#
# Static dielectric constant tensor:
#      x y z
#    x 3.792750 0.000000 0.000000 
#    y 0.000000 3.967890 0.000000 
#    z 0.000000 0.000000 2.678110 
# 
# 
# High freq. dielectric constant tensor:
#      x y z
#    x 1.772970 0.000000 0.000000 
#    y 0.000000 1.777780 0.000000 
#    z 0.000000 0.000000 1.646310 
# 
# From -- ./inp_files/28938.got.cif
#   From: 2010.06.25/outbox.cif.g09.slc.cpg/sg58_15_cif.got.tgz:28938.got - 2010.06.26 21:38:00.
