data_PCOD8235307
_publ_section_title
;
Structure prediction by ZEFSAII (Michael W. Deem and Ramdas Pophale) SiO2 
 PCOD8235307
Probable space group: P N N M
;
_chemical_formula_sum "Si O2"
_cell_formula_units_Z 48
_cell_length_a 19.753000
_cell_length_b 9.007200
_cell_length_c 14.732895
_cell_angle_alpha 90.000000
_cell_angle_beta 90.000000
_cell_angle_gamma 90.000000
_cell_volume 2621.265210
_symmetry_space_group_name_H-M "P N N M"
_symmetry_group_IT_number 58
_symmetry_cell_setting 'orthorhombic'
loop_
_space_group_symop_operation_xyz
x,y,z
-x,-y,z
1/2+x,1/2-y,1/2-z
1/2-x,1/2+y,1/2-z
-x,-y,-z
x,y,-z
1/2-x,1/2+y,1/2+z
1/2+x,1/2-y,1/2+z
loop_
_atom_site_type_symbol
_atom_site_label
_atom_site_fract_x
_atom_site_fract_y
_atom_site_fract_z
Si Si1 0.583675 0.349535 0.815659
Si Si2 0.695134 0.128940 0.800072
Si Si3 0.845183 0.895149 0.500000
Si Si4 0.429263 0.314005 0.187341
Si Si5 0.176388 0.665640 0.194674
Si Si6 0.285867 0.975930 0.000000
Si Si7 0.144552 0.778430 0.500000
Si Si8 0.197264 0.733629 0.000000
O O1 0.635488 0.238834 0.764804
O O2 0.605654 0.358079 0.918882
O O3 0.586547 0.518229 0.779372
O O4 0.508907 0.282107 0.808530
O O5 0.765939 0.213094 0.787698
O O6 0.700961 0.992634 0.730739
O O7 0.680228 0.079245 0.904396
O O8 0.817557 0.063806 0.500000
O O9 0.778218 0.797581 0.500000
O O10 0.393777 0.205970 0.258395
O O11 0.403399 0.270368 0.087633
O O12 0.161151 0.662570 0.086779
O O13 0.206325 0.916504 0.000000
O O14 0.296253 0.153943 0.000000
#
# Coordination Sequence:
#
# PCOD8235307 Si02
#       8
#     8   8   4   8   8   4   4   4
#     4  10  19  36  55  82 114 150 180 232 286 347
#     4  11  21  35  57  78 113 143 189 229 283 334
#     4  10  17  34  55  80 116 153 176 214 293 357
#     4  10  21  34  57  83 117 148 187 228 285 341
#     4  11  22  36  55  83 108 153 190 233 275 332
#     4  10  18  34  50  83 110 143 176 227 276 330
#     4  10  19  31  50  88 116 148 180 221 277 349
#     4  10  22  37  55  74 117 156 183 230 283 324
#
# _framework density 18.311769000000002
#
# number of rings (size 3 to 8) (size 9 to 14) (size 15 to 20)
#    0.000    1.667    5.000    1.500    2.333    2.667 
#    0.000    0.833    0.000    4.000    0.000    0.000 
#    0.000    0.000    0.000    0.000    0.000    0.000 
#
# Total GULP energy -594742.533248 kJ/mol
# GULP energy per Si atom -12390.469443 kJ/mol
# Density = 1.827009 g / cm^3
# Si number density = 18.311769 Si / 1000 Ang^3
#
#
#
# Elastic Constant Matrix: (Units=GPa)
#
#
# Indices 1 2 3 4 5 6 
#
# 1 66.0467 21.4074 26.4794 0.0000 0.0000 0.0000
# 2 21.4074 95.5790 31.8668 0.0000 0.0000 0.0000
# 3 26.4794 31.8668 99.3519 0.0000 0.0000 0.0000
# 4 0.0000 0.0000 0.0000 29.6993 0.0000 0.0000
# 5 0.0000 0.0000 0.0000 0.0000 16.7178 0.0000
# 6 0.0000 0.0000 0.0000 0.0000 0.0000 31.8767
#
#
#
# Elastic Compliance Matrix: (Units=1/GPa)
#
#
# Indices 1 2 3 4 5 6 
#
# 1 0.017533 -0.002653 -0.003822 0.000000 0.000000 0.000000
# 2 -0.002653 0.012117 -0.003179 0.000000 0.000000 0.000000
# 3 -0.003822 -0.003179 0.012104 0.000000 0.000000 0.000000
# 4 0.000000 0.000000 0.000000 0.033671 0.000000 0.000000
# 5 0.000000 0.000000 0.000000 0.000000 0.059816 0.000000
# 6 0.000000 0.000000 0.000000 0.000000 0.000000 0.031371
#
#
# Mechanical properties :
#
#
# Convention : Reuss Voigt Hill
#
# Bulk Modulus (GPa) = 44.55319 46.72051 45.63685
# Shear Modulus (GPa) = 25.85297 27.74036 26.79667
#
# Velocity S-wave (km/s) = 3.76150 3.89638 3.82954
# Velocity P-wave (km/s) = 6.57635 6.76844 6.67308
#
# Compressibility (1/GPa) = 0.02244508
#
# Stress axis : x y z
#
# Youngs Moduli (GPa) = 57.03553 82.53056 82.61951
#
# Poissons Ratio (x) = 0.21892 0.31578
# Poissons Ratio (y) = 0.15130 0.26268
# Poissons Ratio (z) = 0.21799 0.26240
#
# Static dielectric constant tensor:
#      x y z
#    x 3.151800 0.000000 0.000000 
#    y 0.000000 3.722570 0.000000 
#    z 0.000000 0.000000 3.203900 
# 
# 
# High freq. dielectric constant tensor:
#      x y z
#    x 1.681420 0.000000 0.000000 
#    y 0.000000 1.722850 0.000000 
#    z 0.000000 0.000000 1.694630 
# 
# From -- ./inp_files/19923.got.cif
#   From: 2010.06.25/outbox.cif.g09.slc.cpg/sg58_10_cif.got.tgz:19923.got - 2010.06.26 21:38:00.
