data_PCOD8235704
_publ_section_title
;
Structure prediction by ZEFSAII (Michael W. Deem and Ramdas Pophale) SiO2 
 PCOD8235704
Probable space group: P N N M
;
_chemical_formula_sum "Si O2"
_cell_formula_units_Z 64
_cell_length_a 19.123951
_cell_length_b 19.219430
_cell_length_c 9.005162
_cell_angle_alpha 90.000000
_cell_angle_beta 90.000000
_cell_angle_gamma 90.000000
_cell_volume 3309.860239
_symmetry_space_group_name_H-M "P N N M"
_symmetry_group_IT_number 58
_symmetry_cell_setting 'orthorhombic'
loop_
_space_group_symop_operation_xyz
x,y,z
-x,-y,z
1/2+x,1/2-y,1/2-z
1/2-x,1/2+y,1/2-z
-x,-y,-z
x,y,-z
1/2-x,1/2+y,1/2+z
1/2+x,1/2-y,1/2+z
loop_
_atom_site_type_symbol
_atom_site_label
_atom_site_fract_x
_atom_site_fract_y
_atom_site_fract_z
Si Si1 0.297266 0.970322 0.322646
Si Si2 0.632241 0.169383 0.676512
Si Si3 0.339894 0.121660 0.328095
Si Si4 0.781642 0.803446 0.824172
Si Si5 0.476760 0.199018 0.328665
Si Si6 0.042088 0.837385 0.676297
Si Si7 0.106069 0.106800 0.671811
Si Si8 0.357234 0.453821 0.827964
O O1 0.297173 0.971492 0.500000
O O2 0.343230 0.905741 0.262724
O O3 0.219541 0.959915 0.256344
O O4 0.326635 0.044133 0.263497
O O5 0.631280 0.168999 0.500000
O O6 0.685330 0.229946 0.732310
O O7 0.553388 0.181056 0.737282
O O8 0.317827 0.125458 0.500000
O O9 0.294632 0.180913 0.244160
O O10 0.422756 0.135396 0.307690
O O11 0.831587 0.865591 0.772842
O O12 0.774525 0.802970 0.000000
O O13 0.483983 0.220336 0.500000
O O14 0.441810 0.262063 0.240030
O O15 0.045996 0.836997 0.500000
O O16 0.098893 0.890849 0.744354
O O17 0.965294 0.859768 0.729526
O O18 0.121893 0.124875 0.500000
O O19 0.099440 0.024379 0.694659
O O20 0.347026 0.436985 0.000000
#
# Coordination Sequence:
#
# PCOD8235704 Si02
#       8
#     8   8   8   8   8   8   8   8
#     4   9  17  32  55  80 103 133 180 230 266 303
#     4   9  19  34  53  79 108 139 176 219 268 316
#     4  10  21  37  58  80 105 141 180 224 270 311
#     4  11  21  34  56  81 110 142 173 216 269 324
#     4  10  21  37  54  78 113 143 174 221 273 322
#     4  10  20  32  53  82 110 143 183 220 263 317
#     4  10  18  33  55  79 109 143 179 220 263 317
#     4   9  17  30  51  79 109 137 176 226 264 304
#
# _framework density 19.336162999999999
#
# number of rings (size 3 to 8) (size 9 to 14) (size 15 to 20)
#    0.000    2.250    2.500    0.750    1.750    2.500 
#    0.000    3.125    0.000    3.750    0.000    1.750 
#    0.000    0.000    0.000    0.000    0.000    0.000 
#
# Total GULP energy -793472.208869 kJ/mol
# GULP energy per Si atom -12398.003264 kJ/mol
# Density = 1.929215 g / cm^3
# Si number density = 19.336163 Si / 1000 Ang^3
#
#
#
# Elastic Constant Matrix: (Units=GPa)
#
#
# Indices 1 2 3 4 5 6 
#
# 1 103.2682 59.8705 21.4937 0.0000 0.0000 0.0000
# 2 59.8705 117.3839 16.2353 0.0000 0.0000 0.0000
# 3 21.4937 16.2353 22.0724 0.0000 0.0000 0.0000
# 4 0.0000 0.0000 0.0000 21.4359 0.0000 0.0000
# 5 0.0000 0.0000 0.0000 0.0000 19.8375 0.0000
# 6 0.0000 0.0000 0.0000 0.0000 0.0000 38.3418
#
#
#
# Elastic Compliance Matrix: (Units=1/GPa)
#
#
# Indices 1 2 3 4 5 6 
#
# 1 0.015643 -0.006537 -0.010425 0.000000 0.000000 0.000000
# 2 -0.006537 0.012215 -0.002620 0.000000 0.000000 0.000000
# 3 -0.010425 -0.002620 0.057384 0.000000 0.000000 0.000000
# 4 0.000000 0.000000 0.000000 0.046651 0.000000 0.000000
# 5 0.000000 0.000000 0.000000 0.000000 0.050410 0.000000
# 6 0.000000 0.000000 0.000000 0.000000 0.000000 0.026081
#
#
# Mechanical properties :
#
#
# Convention : Reuss Voigt Hill
#
# Bulk Modulus (GPa) = 21.70142 48.65815 35.17978
# Shear Modulus (GPa) = 19.01820 25.59805 22.30813
#
# Velocity S-wave (km/s) = 3.13957 3.64241 3.40030
# Velocity P-wave (km/s) = 4.93864 6.55046 5.80080
#
# Compressibility (1/GPa) = 0.04607993
#
# Stress axis : x y z
#
# Youngs Moduli (GPa) = 63.92637 81.86422 17.42648
#
# Poissons Ratio (x) = 0.53512 0.18167
# Poissons Ratio (y) = 0.41787 0.04565
# Poissons Ratio (z) = 0.66642 0.21446
#
# Static dielectric constant tensor:
#      x y z
#    x 3.749830 0.000000 0.000000 
#    y 0.000000 3.670840 0.000000 
#    z 0.000000 0.000000 3.062510 
# 
# 
# High freq. dielectric constant tensor:
#      x y z
#    x 1.763630 0.000000 0.000000 
#    y 0.000000 1.759430 0.000000 
#    z 0.000000 0.000000 1.697880 
# 
# From -- ./inp_files/8375.got.cif
#   From: 2010.06.25/outbox.cif.g09.slc.cpg/sg58_5_cif.got.tgz:8375.got - 2010.06.26 21:38:00.
