data_PCOD8235302
_publ_section_title
;
Structure prediction by ZEFSAII (Michael W. Deem and Ramdas Pophale) SiO2 
 PCOD8235302
Probable space group: P N N M
;
_chemical_formula_sum "Si O2"
_cell_formula_units_Z 44
_cell_length_a 17.544355
_cell_length_b 6.513361
_cell_length_c 22.167596
_cell_angle_alpha 90.000000
_cell_angle_beta 90.000000
_cell_angle_gamma 90.000000
_cell_volume 2533.151438
_symmetry_space_group_name_H-M "P N N M"
_symmetry_group_IT_number 58
_symmetry_cell_setting 'orthorhombic'
loop_
_space_group_symop_operation_xyz
x,y,z
-x,-y,z
1/2+x,1/2-y,1/2-z
1/2-x,1/2+y,1/2-z
-x,-y,-z
x,y,-z
1/2-x,1/2+y,1/2+z
1/2+x,1/2-y,1/2+z
loop_
_atom_site_type_symbol
_atom_site_label
_atom_site_fract_x
_atom_site_fract_y
_atom_site_fract_z
Si Si1 0.646599 0.674571 0.214155
Si Si2 0.747305 0.085103 0.433073
Si Si3 0.697357 0.976727 0.884640
Si Si4 0.773110 0.353310 0.177730
Si Si5 0.397217 0.678801 0.066812
Si Si6 0.000000 0.000000 0.664669
O O1 0.651569 0.825768 0.158174
O O2 0.706777 0.486347 0.210205
O O3 0.659465 0.806053 0.275232
O O4 0.560341 0.595020 0.211376
O O5 0.716615 0.029328 0.500000
O O6 0.695324 0.979562 0.380860
O O7 0.832909 0.995610 0.423415
O O8 0.747745 0.331872 0.425398
O O9 0.744168 0.133231 0.843874
O O10 0.640164 0.096299 0.928685
O O11 0.459967 0.662220 0.119365
O O12 0.433839 0.657940 0.000000
#
# Coordination Sequence:
#
# PCOD8235302 Si02
#       6
#     8   8   8   8   8   4
#     4  11  21  34  53  73 103 137 183 218 260 308
#     4   9  18  33  52  77 101 130 179 220 253 311
#     4  10  17  33  52  70  98 143 180 211 255 295
#     4  10  19  34  54  72  99 141 177 217 260 311
#     4  10  20  33  47  71 109 147 177 207 248 299
#     4  12  21  36  46  78 109 140 180 228 244 306
#
# _framework density 17.369668000000001
#
# number of rings (size 3 to 8) (size 9 to 14) (size 15 to 20)
#    0.000    1.818    7.273    0.818    0.000    1.455 
#    0.000    0.909    0.000    0.000    0.000    0.636 
#    0.000    1.455    0.000    0.000    0.000    0.000 
#
# Total GULP energy -545226.989432 kJ/mol
# GULP energy per Si atom -12391.522487 kJ/mol
# Density = 1.733013 g / cm^3
# Si number density = 17.369668 Si / 1000 Ang^3
#
#
#
# Elastic Constant Matrix: (Units=GPa)
#
#
# Indices 1 2 3 4 5 6 
#
# 1 40.6357 18.6462 39.5491 0.0000 0.0000 0.0000
# 2 18.6462 101.5384 36.2337 0.0000 0.0000 0.0000
# 3 39.5491 36.2337 127.1759 0.0000 0.0000 0.0000
# 4 0.0000 0.0000 0.0000 19.2289 0.0000 0.0000
# 5 0.0000 0.0000 0.0000 0.0000 23.8391 0.0000
# 6 0.0000 0.0000 0.0000 0.0000 0.0000 14.9487
#
#
#
# Elastic Compliance Matrix: (Units=1/GPa)
#
#
# Indices 1 2 3 4 5 6 
#
# 1 0.036049 -0.002916 -0.010380 0.000000 0.000000 0.000000
# 2 -0.002916 0.011199 -0.002284 0.000000 0.000000 0.000000
# 3 -0.010380 -0.002284 0.011742 0.000000 0.000000 0.000000
# 4 0.000000 0.000000 0.000000 0.052005 0.000000 0.000000
# 5 0.000000 0.000000 0.000000 0.000000 0.041948 0.000000
# 6 0.000000 0.000000 0.000000 0.000000 0.000000 0.066895
#
#
# Mechanical properties :
#
#
# Convention : Reuss Voigt Hill
#
# Bulk Modulus (GPa) = 35.93170 50.91203 43.42186
# Shear Modulus (GPa) = 19.21052 23.26475 21.23764
#
# Velocity S-wave (km/s) = 3.32924 3.66374 3.50049
# Velocity P-wave (km/s) = 5.95901 6.87545 6.43357
#
# Compressibility (1/GPa) = 0.02783058
#
# Stress axis : x y z
#
# Youngs Moduli (GPa) = 27.73991 89.29387 85.16635
#
# Poissons Ratio (x) = 0.26038 0.88401
# Poissons Ratio (y) = 0.08089 0.19451
# Poissons Ratio (z) = 0.28793 0.20394
#
# Static dielectric constant tensor:
#      x y z
#    x 2.733830 0.000000 0.000000 
#    y 0.000000 3.498070 0.000000 
#    z 0.000000 0.000000 3.499730 
# 
# 
# High freq. dielectric constant tensor:
#      x y z
#    x 1.595550 0.000000 0.000000 
#    y 0.000000 1.687940 0.000000 
#    z 0.000000 0.000000 1.683840 
# 
# From -- ./inp_files/32308.got.cif
#   From: 2010.06.25/outbox.cif.g09.slc.cpg/sg58_17_cif.got.tgz:32308.got - 2010.06.26 21:38:00.
