data_PCOD8235389
_publ_section_title
;
Structure prediction by ZEFSAII (Michael W. Deem and Ramdas Pophale) SiO2 
 PCOD8235389
Probable space group: P N N M
;
_chemical_formula_sum "Si O2"
_cell_formula_units_Z 64
_cell_length_a 22.463742
_cell_length_b 17.229277
_cell_length_c 9.205859
_cell_angle_alpha 90.000000
_cell_angle_beta 90.000000
_cell_angle_gamma 90.000000
_cell_volume 3562.980739
_symmetry_space_group_name_H-M "P N N M"
_symmetry_group_IT_number 58
_symmetry_cell_setting 'orthorhombic'
loop_
_space_group_symop_operation_xyz
x,y,z
-x,-y,z
1/2+x,1/2-y,1/2-z
1/2-x,1/2+y,1/2-z
-x,-y,-z
x,y,-z
1/2-x,1/2+y,1/2+z
1/2+x,1/2-y,1/2+z
loop_
_atom_site_type_symbol
_atom_site_label
_atom_site_fract_x
_atom_site_fract_y
_atom_site_fract_z
Si Si1 0.471739 0.647432 0.328813
Si Si2 0.844628 0.284057 0.326249
Si Si3 0.062236 0.590871 0.328065
Si Si4 0.883113 0.720656 0.830044
Si Si5 0.606075 0.637868 0.326861
Si Si6 0.216877 0.162641 0.171927
Si Si7 0.129127 0.035093 0.827323
Si Si8 0.571313 0.081076 0.828458
O O1 0.475784 0.637603 0.500000
O O2 0.441371 0.729164 0.287093
O O3 0.538538 0.644750 0.265938
O O4 0.430946 0.576944 0.267047
O O5 0.845438 0.274353 0.500000
O O6 0.896383 0.340786 0.266990
O O7 0.852778 0.200852 0.251870
O O8 0.783204 0.322529 0.269556
O O9 0.061749 0.593368 0.500000
O O10 0.087477 0.506642 0.280404
O O11 0.995086 0.601516 0.271532
O O12 0.824406 0.765960 0.778278
O O13 0.882826 0.639048 0.747245
O O14 0.881674 0.703912 0.000000
O O15 0.609303 0.649434 0.500000
O O16 0.631383 0.554085 0.277596
O O17 0.187780 0.081711 0.230055
O O18 0.218197 0.158646 0.000000
O O19 0.126961 0.040488 0.000000
O O20 0.576178 0.091282 0.000000
#
# Coordination Sequence:
#
# PCOD8235389 Si02
#       8
#     8   8   8   8   8   8   8   8
#     4   8  14  25  45  71  98 123 144 176 229 280
#     4  10  19  33  49  63  87 127 162 184 219 274
#     4   8  16  30  47  65  89 122 155 185 221 271
#     4   9  16  28  46  68  91 118 152 186 221 270
#     4  10  18  28  47  76  99 112 141 194 239 267
#     4   8  16  31  48  63  86 122 161 188 211 261
#     4   8  14  27  47  70  92 119 154 187 218 265
#     4   9  16  29  47  69  93 115 148 193 232 265
#
# _framework density 17.962489000000001
#
# number of rings (size 3 to 8) (size 9 to 14) (size 15 to 20)
#    0.000    3.250    0.000    3.375    0.000    1.500 
#    2.250    2.500    0.000    5.250    0.000    0.000 
#    0.000    0.000    0.000    0.000    0.000    0.000 
#
# Total GULP energy -793155.191190 kJ/mol
# GULP energy per Si atom -12393.049862 kJ/mol
# Density = 1.792161 g / cm^3
# Si number density = 17.962489 Si / 1000 Ang^3
#
#
#
# Elastic Constant Matrix: (Units=GPa)
#
#
# Indices 1 2 3 4 5 6 
#
# 1 85.1139 43.7850 10.9227 0.0000 0.0000 0.0000
# 2 43.7850 126.3472 24.1256 0.0000 0.0000 0.0000
# 3 10.9227 24.1256 19.0079 0.0000 0.0000 0.0000
# 4 0.0000 0.0000 0.0000 27.2097 0.0000 0.0000
# 5 0.0000 0.0000 0.0000 0.0000 13.9654 0.0000
# 6 0.0000 0.0000 0.0000 0.0000 0.0000 20.7425
#
#
#
# Elastic Compliance Matrix: (Units=1/GPa)
#
#
# Indices 1 2 3 4 5 6 
#
# 1 0.014392 -0.004498 -0.002560 0.000000 0.000000 0.000000
# 2 -0.004498 0.011853 -0.012459 0.000000 0.000000 0.000000
# 3 -0.002560 -0.012459 0.069894 0.000000 0.000000 0.000000
# 4 0.000000 0.000000 0.000000 0.036752 0.000000 0.000000
# 5 0.000000 0.000000 0.000000 0.000000 0.071605 0.000000
# 6 0.000000 0.000000 0.000000 0.000000 0.000000 0.048210
#
#
# Mechanical properties :
#
#
# Convention : Reuss Voigt Hill
#
# Bulk Modulus (GPa) = 17.51221 43.12619 30.31920
# Shear Modulus (GPa) = 16.08881 22.49258 19.29070
#
# Velocity S-wave (km/s) = 2.99605 3.54248 3.28066
# Velocity P-wave (km/s) = 4.66250 6.38697 5.59161
#
# Compressibility (1/GPa) = 0.05710303
#
# Stress axis : x y z
#
# Youngs Moduli (GPa) = 69.48464 84.36981 14.30736
#
# Poissons Ratio (x) = 0.37953 0.03663
# Poissons Ratio (y) = 0.31257 0.17825
# Poissons Ratio (z) = 0.17791 1.05114
#
# Static dielectric constant tensor:
#      x y z
#    x 3.682850 0.000000 0.000000 
#    y 0.000000 3.525260 0.000000 
#    z 0.000000 0.000000 2.720270 
# 
# 
# High freq. dielectric constant tensor:
#      x y z
#    x 1.689510 0.000000 0.000000 
#    y 0.000000 1.706600 0.000000 
#    z 0.000000 0.000000 1.634400 
# 
# From -- ./inp_files/9257.got.cif
#   From: 2010.06.25/outbox.cif.g09.slc.cpg/sg58_5_cif.got.tgz:9257.got - 2010.06.26 21:38:00.
