data_PCOD8235628
_publ_section_title
;
Structure prediction by ZEFSAII (Michael W. Deem and Ramdas Pophale) SiO2 
 PCOD8235628
Probable space group: P N N M
;
_chemical_formula_sum "Si O2"
_cell_formula_units_Z 56
_cell_length_a 19.233949
_cell_length_b 18.901358
_cell_length_c 8.880635
_cell_angle_alpha 90.000000
_cell_angle_beta 90.000000
_cell_angle_gamma 90.000000
_cell_volume 3228.534924
_symmetry_space_group_name_H-M "P N N M"
_symmetry_group_IT_number 58
_symmetry_cell_setting 'orthorhombic'
loop_
_space_group_symop_operation_xyz
x,y,z
-x,-y,z
1/2+x,1/2-y,1/2-z
1/2-x,1/2+y,1/2-z
-x,-y,-z
x,y,-z
1/2-x,1/2+y,1/2+z
1/2+x,1/2-y,1/2+z
loop_
_atom_site_type_symbol
_atom_site_label
_atom_site_fract_x
_atom_site_fract_y
_atom_site_fract_z
Si Si1 0.274285 0.373496 0.172542
Si Si2 0.877205 0.250780 0.323892
Si Si3 0.517290 0.286769 0.674821
Si Si4 0.207601 0.019993 0.177495
Si Si5 0.554299 0.443267 0.321108
Si Si6 0.331698 0.755336 0.672001
Si Si7 0.269646 0.150477 0.322665
O O1 0.338483 0.322547 0.216225
O O2 0.274039 0.439679 0.282742
O O3 0.202049 0.331886 0.200281
O O4 0.280480 0.398787 0.000000
O O5 0.873294 0.265902 0.500000
O O6 0.840121 0.315635 0.240819
O O7 0.956419 0.247763 0.271211
O O8 0.495680 0.287470 0.500000
O O9 0.531746 0.365889 0.734386
O O10 0.586140 0.239790 0.702957
O O11 0.130699 0.037954 0.239791
O O12 0.262584 0.071644 0.256838
O O13 0.212599 0.030473 0.000000
O O14 0.500000 0.500000 0.254117
O O15 0.554885 0.446277 0.500000
O O16 0.317624 0.730530 0.500000
O O17 0.297552 0.696355 0.777398
O O18 0.275361 0.146170 0.500000
#
# Coordination Sequence:
#
# PCOD8235628 Si02
#       7
#     8   8   8   8   8   8   8
#     4   9  19  34  51  74 105 139 176 217 262 311
#     4  10  21  36  53  76 109 141 175 221 268 311
#     4  10  18  32  53  76 105 141 178 212 260 318
#     4  11  20  33  53  76 106 141 176 217 267 313
#     4   9  17  28  46  74 107 140 172 205 248 313
#     4   9  18  35  55  75 105 142 178 219 265 316
#     4  11  21  34  54  77 103 137 182 223 261 316
#
# _framework density 17.345329
#
# number of rings (size 3 to 8) (size 9 to 14) (size 15 to 20)
#    0.000    2.143    1.429    3.857    0.000    4.571 
#    0.000    0.000    0.000    3.857    0.000    6.000 
#    0.000    0.000    0.000    0.000    0.000    0.000 
#
# Total GULP energy -694550.055217 kJ/mol
# GULP energy per Si atom -12402.679557 kJ/mol
# Density = 1.730585 g / cm^3
# Si number density = 17.345329 Si / 1000 Ang^3
#
#
#
# Elastic Constant Matrix: (Units=GPa)
#
#
# Indices 1 2 3 4 5 6 
#
# 1 121.0820 55.6188 40.8263 0.0000 0.0000 0.0000
# 2 55.6188 71.9064 35.9804 0.0000 0.0000 0.0000
# 3 40.8263 35.9804 78.9461 0.0000 0.0000 0.0000
# 4 0.0000 0.0000 0.0000 28.1994 0.0000 0.0000
# 5 0.0000 0.0000 0.0000 0.0000 27.1128 0.0000
# 6 0.0000 0.0000 0.0000 0.0000 0.0000 26.4539
#
#
#
# Elastic Compliance Matrix: (Units=1/GPa)
#
#
# Indices 1 2 3 4 5 6 
#
# 1 0.013282 -0.008856 -0.002832 0.000000 0.000000 0.000000
# 2 -0.008856 0.023921 -0.006322 0.000000 0.000000 0.000000
# 3 -0.002832 -0.006322 0.017013 0.000000 0.000000 0.000000
# 4 0.000000 0.000000 0.000000 0.035462 0.000000 0.000000
# 5 0.000000 0.000000 0.000000 0.000000 0.036883 0.000000
# 6 0.000000 0.000000 0.000000 0.000000 0.000000 0.037802
#
#
# Mechanical properties :
#
#
# Convention : Reuss Voigt Hill
#
# Bulk Modulus (GPa) = 54.96267 59.64282 57.30275
# Shear Modulus (GPa) = 24.21919 25.65382 24.93650
#
# Velocity S-wave (km/s) = 3.74076 3.84995 3.79575
# Velocity P-wave (km/s) = 7.10027 7.36363 7.23315
#
# Compressibility (1/GPa) = 0.01819417
#
# Stress axis : x y z
#
# Youngs Moduli (GPa) = 75.29013 41.80497 58.77872
#
# Poissons Ratio (x) = 0.37023 0.16648
# Poissons Ratio (y) = 0.66678 0.37161
# Poissons Ratio (z) = 0.21325 0.26430
#
# Static dielectric constant tensor:
#      x y z
#    x 3.316330 0.000000 0.000000 
#    y 0.000000 3.164720 0.000000 
#    z 0.000000 0.000000 3.067010 
# 
# 
# High freq. dielectric constant tensor:
#      x y z
#    x 1.665290 0.000000 0.000000 
#    y 0.000000 1.659440 0.000000 
#    z 0.000000 0.000000 1.660990 
# 
# From -- ./inp_files/8175.got.cif
#   From: 2010.06.25/outbox.cif.g09.slc.cpg/sg58_5_cif.got.tgz:8175.got - 2010.06.26 21:38:00.
