data_PCOD8235271
_publ_section_title
;
Structure prediction by ZEFSAII (Michael W. Deem and Ramdas Pophale) SiO2 
 PCOD8235271
Probable space group: P N N M
;
_chemical_formula_sum "Si O2"
_cell_formula_units_Z 64
_cell_length_a 19.124950
_cell_length_b 23.056449
_cell_length_c 8.992652
_cell_angle_alpha 90.000000
_cell_angle_beta 90.000000
_cell_angle_gamma 90.000000
_cell_volume 3965.340783
_symmetry_space_group_name_H-M "P N N M"
_symmetry_group_IT_number 58
_symmetry_cell_setting 'orthorhombic'
loop_
_space_group_symop_operation_xyz
x,y,z
-x,-y,z
1/2+x,1/2-y,1/2-z
1/2-x,1/2+y,1/2-z
-x,-y,-z
x,y,-z
1/2-x,1/2+y,1/2+z
1/2+x,1/2-y,1/2+z
loop_
_atom_site_type_symbol
_atom_site_label
_atom_site_fract_x
_atom_site_fract_y
_atom_site_fract_z
Si Si1 0.727364 0.842939 0.674845
Si Si2 0.140984 0.563008 0.323735
Si Si3 0.637846 0.275232 0.171369
Si Si4 0.001529 0.249683 0.175055
Si Si5 0.849371 0.229087 0.175852
Si Si6 0.359989 0.940727 0.326279
Si Si7 0.719972 0.159297 0.174719
Si Si8 0.507145 0.882036 0.326485
O O1 0.715635 0.853797 0.500000
O O2 0.706895 0.900050 0.765473
O O3 0.808054 0.826861 0.708611
O O4 0.678634 0.790745 0.735694
O O5 0.140015 0.562965 0.500000
O O6 0.151778 0.498460 0.265921
O O7 0.068599 0.588579 0.264797
O O8 0.566170 0.286009 0.259105
O O9 0.670842 0.213525 0.215403
O O10 0.618441 0.275604 0.000000
O O11 0.929082 0.219747 0.229887
O O12 0.003081 0.316300 0.228974
O O13 0.008083 0.246842 0.000000
O O14 0.799297 0.176019 0.224582
O O15 0.844633 0.234164 0.000000
O O16 0.349547 0.953017 0.500000
O O17 0.302187 0.895044 0.272813
O O18 0.437020 0.917032 0.292402
O O19 0.715400 0.144334 0.000000
O O20 0.527293 0.883916 0.500000
#
# Coordination Sequence:
#
# PCOD8235271 Si02
#       8
#     8   8   8   8   8   8   8   8
#     4   9  17  34  52  67  94 132 165 195 239 296
#     4  12  24  34  48  71  96 127 168 213 245 275
#     4   9  18  30  49  73  99 128 158 198 247 287
#     4  10  17  29  50  73  99 132 166 196 232 288
#     4   8  15  29  50  70  93 128 162 193 240 290
#     4  11  22  35  50  68  94 133 170 200 239 289
#     4   9  17  31  49  70  95 124 161 204 241 280
#     4  10  20  34  49  67  97 136 171 197 230 287
#
# _framework density 16.139849000000002
#
# number of rings (size 3 to 8) (size 9 to 14) (size 15 to 20)
#    0.000    2.250    2.500    3.375    0.000    3.500 
#    0.000    2.500    0.000    0.000    0.000    0.875 
#    0.000    7.000    0.000    0.000    0.000    0.000 
#
# Total GULP energy -793503.175883 kJ/mol
# GULP energy per Si atom -12398.487123 kJ/mol
# Density = 1.610311 g / cm^3
# Si number density = 16.139849 Si / 1000 Ang^3
#
#
#
# Elastic Constant Matrix: (Units=GPa)
#
#
# Indices 1 2 3 4 5 6 
#
# 1 128.9063 57.3108 47.1067 0.0000 0.0000 0.0000
# 2 57.3108 79.8199 44.4636 0.0000 0.0000 0.0000
# 3 47.1067 44.4636 62.0455 0.0000 0.0000 0.0000
# 4 0.0000 0.0000 0.0000 15.4950 0.0000 0.0000
# 5 0.0000 0.0000 0.0000 0.0000 26.3559 0.0000
# 6 0.0000 0.0000 0.0000 0.0000 0.0000 21.2967
#
#
#
# Elastic Compliance Matrix: (Units=1/GPa)
#
#
# Indices 1 2 3 4 5 6 
#
# 1 0.012259 -0.006021 -0.004993 0.000000 0.000000 0.000000
# 2 -0.006021 0.023809 -0.012491 0.000000 0.000000 0.000000
# 3 -0.004993 -0.012491 0.028860 0.000000 0.000000 0.000000
# 4 0.000000 0.000000 0.000000 0.064537 0.000000 0.000000
# 5 0.000000 0.000000 0.000000 0.000000 0.037942 0.000000
# 6 0.000000 0.000000 0.000000 0.000000 0.000000 0.046956
#
#
# Mechanical properties :
#
#
# Convention : Reuss Voigt Hill
#
# Bulk Modulus (GPa) = 55.80924 63.17045 59.48984
# Shear Modulus (GPa) = 18.70243 20.75556 19.72900
#
# Velocity S-wave (km/s) = 3.40777 3.58995 3.50005
# Velocity P-wave (km/s) = 7.08078 7.51053 7.29882
#
# Compressibility (1/GPa) = 0.01791818
#
# Stress axis : x y z
#
# Youngs Moduli (GPa) = 81.57398 42.00014 34.65058
#
# Poissons Ratio (x) = 0.25287 0.17300
# Poissons Ratio (y) = 0.49113 0.43284
# Poissons Ratio (z) = 0.40727 0.52464
#
# Static dielectric constant tensor:
#      x y z
#    x 3.269310 0.000000 0.000000 
#    y 0.000000 2.953860 0.000000 
#    z 0.000000 0.000000 2.900360 
# 
# 
# High freq. dielectric constant tensor:
#      x y z
#    x 1.621660 0.000000 0.000000 
#    y 0.000000 1.595990 0.000000 
#    z 0.000000 0.000000 1.609280 
# 
# From -- ./inp_files/8483.got.cif
#   From: 2010.06.25/outbox.cif.g09.slc.cpg/sg58_5_cif.got.tgz:8483.got - 2010.06.26 21:38:00.
