data_PCOD8235612
_publ_section_title
;
Structure prediction by ZEFSAII (Michael W. Deem and Ramdas Pophale) SiO2 
 PCOD8235612
Probable space group: P N N M
;
_chemical_formula_sum "Si O2"
_cell_formula_units_Z 56
_cell_length_a 19.684235
_cell_length_b 17.568148
_cell_length_c 8.890337
_cell_angle_alpha 90.000000
_cell_angle_beta 90.000000
_cell_angle_gamma 90.000000
_cell_volume 3074.416813
_symmetry_space_group_name_H-M "P N N M"
_symmetry_group_IT_number 58
_symmetry_cell_setting 'orthorhombic'
loop_
_space_group_symop_operation_xyz
x,y,z
-x,-y,z
1/2+x,1/2-y,1/2-z
1/2-x,1/2+y,1/2-z
-x,-y,-z
x,y,-z
1/2-x,1/2+y,1/2+z
1/2+x,1/2-y,1/2+z
loop_
_atom_site_type_symbol
_atom_site_label
_atom_site_fract_x
_atom_site_fract_y
_atom_site_fract_z
Si Si1 0.113116 0.782719 0.322698
Si Si2 0.470703 0.687902 0.676134
Si Si3 0.688892 0.569031 0.177576
Si Si4 0.570254 0.460147 0.177772
Si Si5 0.100719 0.628083 0.178429
Si Si6 0.836639 0.529909 0.820604
Si Si7 0.448779 0.856819 0.675428
O O1 0.104862 0.773876 0.500000
O O2 0.170792 0.844170 0.279948
O O3 0.135294 0.702373 0.251397
O O4 0.042766 0.813985 0.258177
O O5 0.483406 0.676649 0.500000
O O6 0.423521 0.621422 0.741475
O O7 0.433089 0.768202 0.708271
O O8 0.632044 0.511207 0.240475
O O9 0.762418 0.548599 0.246732
O O10 0.690511 0.559282 0.000000
O O11 0.500000 0.500000 0.224510
O O12 0.574055 0.447760 0.000000
O O13 0.142327 0.554490 0.231336
O O14 0.023243 0.621076 0.238737
O O15 0.101620 0.638851 0.000000
O O16 0.890441 0.590450 0.751309
O O17 0.835689 0.535531 0.000000
O O18 0.449710 0.874381 0.500000
#
# Coordination Sequence:
#
# PCOD8235612 Si02
#       7
#     8   8   8   8   8   8   8
#     4  10  18  32  51  72  99 133 167 201 247 298
#     4  10  19  31  50  79 102 122 162 209 256 295
#     4   9  18  31  48  69  94 134 174 198 235 297
#     4  10  18  32  51  70  97 132 169 205 240 292
#     4   9  17  30  52  79  99 122 163 211 254 291
#     4   9  16  30  51  73  98 129 169 208 244 295
#     4   8  15  28  48  74 100 124 157 205 250 290
#
# _framework density 18.214836999999999
#
# number of rings (size 3 to 8) (size 9 to 14) (size 15 to 20)
#    0.000    2.714    1.429    2.143    0.000    2.000 
#    2.571    0.000    0.000    9.429    0.000    0.000 
#    0.000    0.000    0.000    0.000    0.000    0.000 
#
# Total GULP energy -694253.551606 kJ/mol
# GULP energy per Si atom -12397.384850 kJ/mol
# Density = 1.817338 g / cm^3
# Si number density = 18.214837 Si / 1000 Ang^3
#
#
#
# Elastic Constant Matrix: (Units=GPa)
#
#
# Indices 1 2 3 4 5 6 
#
# 1 132.6062 95.9350 22.3539 0.0000 0.0000 0.0000
# 2 95.9350 175.0855 38.9097 0.0000 0.0000 0.0000
# 3 22.3539 38.9097 34.8634 0.0000 0.0000 0.0000
# 4 0.0000 0.0000 0.0000 28.3696 0.0000 0.0000
# 5 0.0000 0.0000 0.0000 0.0000 11.3531 0.0000
# 6 0.0000 0.0000 0.0000 0.0000 0.0000 27.6661
#
#
#
# Elastic Compliance Matrix: (Units=1/GPa)
#
#
# Indices 1 2 3 4 5 6 
#
# 1 0.012500 -0.006740 -0.000493 0.000000 0.000000 0.000000
# 2 -0.006740 0.011229 -0.008211 0.000000 0.000000 0.000000
# 3 -0.000493 -0.008211 0.038163 0.000000 0.000000 0.000000
# 4 0.000000 0.000000 0.000000 0.035249 0.000000 0.000000
# 5 0.000000 0.000000 0.000000 0.000000 0.088081 0.000000
# 6 0.000000 0.000000 0.000000 0.000000 0.000000 0.036145
#
#
# Mechanical properties :
#
#
# Convention : Reuss Voigt Hill
#
# Bulk Modulus (GPa) = 32.25254 72.99470 52.62362
# Shear Modulus (GPa) = 19.04104 25.83488 22.43796
#
# Velocity S-wave (km/s) = 3.23671 3.77017 3.51358
# Velocity P-wave (km/s) = 5.63148 7.68854 6.73896
#
# Compressibility (1/GPa) = 0.03100531
#
# Stress axis : x y z
#
# Youngs Moduli (GPa) = 79.99958 89.05423 26.20307
#
# Poissons Ratio (x) = 0.60019 0.01292
# Poissons Ratio (y) = 0.53917 0.21515
# Poissons Ratio (z) = 0.03944 0.73123
#
# Static dielectric constant tensor:
#      x y z
#    x 3.487610 0.000000 0.000000 
#    y 0.000000 3.591220 0.000000 
#    z 0.000000 0.000000 2.951730 
# 
# 
# High freq. dielectric constant tensor:
#      x y z
#    x 1.689860 0.000000 0.000000 
#    y 0.000000 1.722990 0.000000 
#    z 0.000000 0.000000 1.662440 
# 
# From -- ./inp_files/8176.got.cif
#   From: 2010.06.25/outbox.cif.g09.slc.cpg/sg58_5_cif.got.tgz:8176.got - 2010.06.26 21:38:00.
