data_PCOD8235950
_publ_section_title
;
Structure prediction by ZEFSAII (Michael W. Deem and Ramdas Pophale) SiO2 
 PCOD8235950
Probable space group: P N N M
;
_chemical_formula_sum "Si O2"
_cell_formula_units_Z 56
_cell_length_a 19.186375
_cell_length_b 19.321388
_cell_length_c 8.902608
_cell_angle_alpha 90.000000
_cell_angle_beta 90.000000
_cell_angle_gamma 90.000000
_cell_volume 3300.262627
_symmetry_space_group_name_H-M "P N N M"
_symmetry_group_IT_number 58
_symmetry_cell_setting 'orthorhombic'
loop_
_space_group_symop_operation_xyz
x,y,z
-x,-y,z
1/2+x,1/2-y,1/2-z
1/2-x,1/2+y,1/2-z
-x,-y,-z
x,y,-z
1/2-x,1/2+y,1/2+z
1/2+x,1/2-y,1/2+z
loop_
_atom_site_type_symbol
_atom_site_label
_atom_site_fract_x
_atom_site_fract_y
_atom_site_fract_z
Si Si1 0.479250 0.710777 0.677722
Si Si2 0.294182 0.518242 0.675950
Si Si3 0.054311 0.056732 0.821038
Si Si4 0.769860 0.133693 0.823389
Si Si5 0.345311 0.759674 0.174928
Si Si6 0.740020 0.839066 0.826692
Si Si7 0.376799 0.265814 0.825311
O O1 0.481618 0.713295 0.500000
O O2 0.467800 0.632550 0.737684
O O3 0.417432 0.760239 0.735035
O O4 0.550657 0.741338 0.740725
O O5 0.304244 0.509830 0.500000
O O6 0.369694 0.537508 0.744695
O O7 0.265812 0.445072 0.737778
O O8 0.238661 0.579102 0.712789
O O9 0.054859 0.057124 0.000000
O O10 0.000000 0.000000 0.759146
O O11 0.696215 0.169774 0.786061
O O12 0.833089 0.170094 0.737857
O O13 0.786320 0.138682 0.000000
O O14 0.298598 0.694850 0.223362
O O15 0.361943 0.753676 0.000000
O O16 0.664622 0.805971 0.795717
O O17 0.762615 0.827442 0.000000
O O18 0.390302 0.278358 0.000000
#
# Coordination Sequence:
#
# PCOD8235950 Si02
#       7
#     8   8   8   8   8   8   8
#     4  11  20  32  51  71  95 132 170 200 242 292
#     4   9  15  28  50  73  95 123 167 205 232 279
#     4   9  16  25  44  72  96 120 155 196 231 278
#     4   9  18  32  52  74  97 129 164 200 240 289
#     4  10  19  31  48  73 102 127 159 202 246 290
#     4   9  17  32  52  71  93 129 170 203 239 287
#     4  10  20  32  48  72 102 129 160 205 250 290
#
# _framework density 16.968346
#
# number of rings (size 3 to 8) (size 9 to 14) (size 15 to 20)
#    0.000    2.429    1.429    2.143    0.000    3.429 
#    0.000    0.714    0.000    2.571    0.000    6.000 
#    0.000    0.000    0.000    0.000    0.000    0.000 
#
# Total GULP energy -694319.498832 kJ/mol
# GULP energy per Si atom -12398.562479 kJ/mol
# Density = 1.692972 g / cm^3
# Si number density = 16.968346 Si / 1000 Ang^3
#
#
#
# Elastic Constant Matrix: (Units=GPa)
#
#
# Indices 1 2 3 4 5 6 
#
# 1 131.6296 74.5954 44.3981 0.0000 0.0000 0.0000
# 2 74.5954 124.2062 30.7694 0.0000 0.0000 0.0000
# 3 44.3981 30.7694 50.8127 0.0000 0.0000 0.0000
# 4 0.0000 0.0000 0.0000 18.5710 0.0000 0.0000
# 5 0.0000 0.0000 0.0000 0.0000 28.6252 0.0000
# 6 0.0000 0.0000 0.0000 0.0000 0.0000 24.5820
#
#
#
# Elastic Compliance Matrix: (Units=1/GPa)
#
#
# Indices 1 2 3 4 5 6 
#
# 1 0.014030 -0.006340 -0.008420 0.000000 0.000000 0.000000
# 2 -0.006340 0.012337 -0.001931 0.000000 0.000000 0.000000
# 3 -0.008420 -0.001931 0.028206 0.000000 0.000000 0.000000
# 4 0.000000 0.000000 0.000000 0.053847 0.000000 0.000000
# 5 0.000000 0.000000 0.000000 0.000000 0.034934 0.000000
# 6 0.000000 0.000000 0.000000 0.000000 0.000000 0.040680
#
#
# Mechanical properties :
#
#
# Convention : Reuss Voigt Hill
#
# Bulk Modulus (GPa) = 47.18791 67.35270 57.27031
# Shear Modulus (GPa) = 22.27363 24.81468 23.54416
#
# Velocity S-wave (km/s) = 3.62699 3.82830 3.72900
# Velocity P-wave (km/s) = 6.73868 7.70198 7.23638
#
# Compressibility (1/GPa) = 0.02119187
#
# Stress axis : x y z
#
# Youngs Moduli (GPa) = 71.27537 81.05473 35.45350
#
# Poissons Ratio (x) = 0.51392 0.29850
# Poissons Ratio (y) = 0.45191 0.06846
# Poissons Ratio (z) = 0.60011 0.15650
#
# Static dielectric constant tensor:
#      x y z
#    x 3.188700 0.000000 0.000000 
#    y 0.000000 3.369770 0.000000 
#    z 0.000000 0.000000 2.996950 
# 
# 
# High freq. dielectric constant tensor:
#      x y z
#    x 1.647580 0.000000 0.000000 
#    y 0.000000 1.648850 0.000000 
#    z 0.000000 0.000000 1.635130 
# 
# From -- ./inp_files/6438.got.cif
#   From: 2010.06.25/outbox.cif.g09.slc.cpg/sg58_4_cif.got.tgz:6438.got - 2010.06.26 21:38:00.
