data_PCOD8235593
_publ_section_title
;
Structure prediction by ZEFSAII (Michael W. Deem and Ramdas Pophale) SiO2 
 PCOD8235593
Probable space group: P N N M
;
_chemical_formula_sum "Si O2"
_cell_formula_units_Z 64
_cell_length_a 33.264163
_cell_length_b 11.726541
_cell_length_c 9.115974
_cell_angle_alpha 90.000000
_cell_angle_beta 90.000000
_cell_angle_gamma 90.000000
_cell_volume 3555.900534
_symmetry_space_group_name_H-M "P N N M"
_symmetry_group_IT_number 58
_symmetry_cell_setting 'orthorhombic'
loop_
_space_group_symop_operation_xyz
x,y,z
-x,-y,z
1/2+x,1/2-y,1/2-z
1/2-x,1/2+y,1/2-z
-x,-y,-z
x,y,-z
1/2-x,1/2+y,1/2+z
1/2+x,1/2-y,1/2+z
loop_
_atom_site_type_symbol
_atom_site_label
_atom_site_fract_x
_atom_site_fract_y
_atom_site_fract_z
Si Si1 0.268365 0.311602 0.828141
Si Si2 0.448226 0.612453 0.169817
Si Si3 0.538476 0.647292 0.168893
Si Si4 0.668727 0.548497 0.330841
Si Si5 0.812915 0.647284 0.327211
Si Si6 0.128805 0.189287 0.827286
Si Si7 0.328776 0.111742 0.169177
Si Si8 0.891670 0.250440 0.169683
O O1 0.292798 0.420673 0.767787
O O2 0.226226 0.298725 0.746834
O O3 0.292476 0.196515 0.791140
O O4 0.260843 0.327694 0.000000
O O5 0.491409 0.671741 0.195000
O O6 0.450917 0.480934 0.218103
O O7 0.416711 0.676703 0.272497
O O8 0.435267 0.622177 0.000000
O O9 0.564030 0.737491 0.262414
O O10 0.549870 0.663938 0.000000
O O11 0.682084 0.555848 0.500000
O O12 0.654353 0.423012 0.287597
O O13 0.632466 0.634518 0.297153
O O14 0.811773 0.670162 0.500000
O O15 0.852109 0.704790 0.257692
O O16 0.814388 0.513918 0.289239
O O17 0.128594 0.212712 0.000000
O O18 0.368594 0.142654 0.260068
O O19 0.340619 0.122363 0.000000
O O20 0.896504 0.276091 0.000000
#
# Coordination Sequence:
#
# PCOD8235593 Si02
#       8
#     8   8   8   8   8   8   8   8
#     4  10  21  37  58  82 104 135 177 225 273 317
#     4   9  18  32  51  78 113 149 184 220 263 323
#     4   9  17  30  51  80 113 147 181 219 265 320
#     4   9  19  34  51  76 110 143 174 215 266 321
#     4  11  24  40  57  78 106 144 184 223 273 327
#     4  11  22  36  54  79 113 148 181 223 272 322
#     4   9  21  40  57  75 105 142 180 223 268 320
#     4  10  18  31  54  82 109 140 178 219 267 318
#
# _framework density 17.998253999999999
#
# number of rings (size 3 to 8) (size 9 to 14) (size 15 to 20)
#    0.000    2.250    1.250    2.250    1.750    3.500 
#    0.000    1.250    0.000    0.750    0.000    5.250 
#    0.000    0.000    0.000    0.000    0.000    0.000 
#
# Total GULP energy -793833.982161 kJ/mol
# GULP energy per Si atom -12403.655971 kJ/mol
# Density = 1.795729 g / cm^3
# Si number density = 17.998254 Si / 1000 Ang^3
#
#
#
# Elastic Constant Matrix: (Units=GPa)
#
#
# Indices 1 2 3 4 5 6 
#
# 1 116.3809 41.3151 62.5512 0.0000 0.0000 0.0000
# 2 41.3151 72.5785 43.8188 0.0000 0.0000 0.0000
# 3 62.5512 43.8188 91.0773 0.0000 0.0000 0.0000
# 4 0.0000 0.0000 0.0000 23.1099 0.0000 0.0000
# 5 0.0000 0.0000 0.0000 0.0000 38.7609 0.0000
# 6 0.0000 0.0000 0.0000 0.0000 0.0000 23.9815
#
#
#
# Elastic Compliance Matrix: (Units=1/GPa)
#
#
# Indices 1 2 3 4 5 6 
#
# 1 0.014089 -0.003070 -0.008199 0.000000 0.000000 0.000000
# 2 -0.003070 0.020088 -0.007556 0.000000 0.000000 0.000000
# 3 -0.008199 -0.007556 0.020246 0.000000 0.000000 0.000000
# 4 0.000000 0.000000 0.000000 0.043271 0.000000 0.000000
# 5 0.000000 0.000000 0.000000 0.000000 0.025799 0.000000
# 6 0.000000 0.000000 0.000000 0.000000 0.000000 0.041699
#
#
# Mechanical properties :
#
#
# Convention : Reuss Voigt Hill
#
# Bulk Modulus (GPa) = 59.62177 63.93409 61.77793
# Shear Modulus (GPa) = 23.98837 25.99391 24.99114
#
# Velocity S-wave (km/s) = 3.65474 3.80445 3.73034
# Velocity P-wave (km/s) = 7.14197 7.40931 7.27687
#
# Compressibility (1/GPa) = 0.01677240
#
# Stress axis : x y z
#
# Youngs Moduli (GPa) = 70.97629 49.78168 49.39160
#
# Poissons Ratio (x) = 0.15283 0.40498
# Poissons Ratio (y) = 0.21789 0.37321
# Poissons Ratio (z) = 0.58196 0.37616
#
# Static dielectric constant tensor:
#      x y z
#    x 3.299900 0.000000 0.000000 
#    y 0.000000 3.148520 0.000000 
#    z 0.000000 0.000000 3.319700 
# 
# 
# High freq. dielectric constant tensor:
#      x y z
#    x 1.698590 0.000000 0.000000 
#    y 0.000000 1.671400 0.000000 
#    z 0.000000 0.000000 1.703110 
# 
# From -- ./inp_files/11066.got.cif
#   From: 2010.06.25/outbox.cif.g09.slc.cpg/sg58_6_cif.got.tgz:11066.got - 2010.06.26 21:38:00.
