data_PCOD8235541
_publ_section_title
;
Structure prediction by ZEFSAII (Michael W. Deem and Ramdas Pophale) SiO2 
 PCOD8235541
Probable space group: P N N M
;
_chemical_formula_sum "Si O2"
_cell_formula_units_Z 56
_cell_length_a 21.041182
_cell_length_b 14.968251
_cell_length_c 8.930208
_cell_angle_alpha 90.000000
_cell_angle_beta 90.000000
_cell_angle_gamma 90.000000
_cell_volume 2812.566273
_symmetry_space_group_name_H-M "P N N M"
_symmetry_group_IT_number 58
_symmetry_cell_setting 'orthorhombic'
loop_
_space_group_symop_operation_xyz
x,y,z
-x,-y,z
1/2+x,1/2-y,1/2-z
1/2-x,1/2+y,1/2-z
-x,-y,-z
x,y,-z
1/2-x,1/2+y,1/2+z
1/2+x,1/2-y,1/2+z
loop_
_atom_site_type_symbol
_atom_site_label
_atom_site_fract_x
_atom_site_fract_y
_atom_site_fract_z
Si Si1 0.263762 0.493967 0.832573
Si Si2 0.629692 0.076970 0.333846
Si Si3 0.531096 0.741986 0.177560
Si Si4 0.440409 0.063445 0.833704
Si Si5 0.391769 0.745492 0.824124
Si Si6 0.836257 0.173143 0.678435
Si Si7 0.735247 0.321348 0.677130
O O1 0.205449 0.424851 0.840857
O O2 0.318231 0.427357 0.768134
O O3 0.249005 0.577941 0.727452
O O4 0.280581 0.529107 0.000000
O O5 0.602224 0.097423 0.500000
O O6 0.606170 0.149750 0.215066
O O7 0.610045 0.978759 0.279193
O O8 0.539013 0.842705 0.237344
O O9 0.461103 0.704783 0.225047
O O10 0.591528 0.686442 0.239434
O O11 0.532503 0.744166 0.000000
O O12 0.500000 0.000000 0.844177
O O13 0.410065 0.075960 0.000000
O O14 0.335545 0.698480 0.735168
O O15 0.379979 0.733914 0.000000
O O16 0.834248 0.177756 0.500000
O O17 0.788328 0.251295 0.739528
O O18 0.733535 0.317250 0.500000
#
# Coordination Sequence:
#
# PCOD8235541 Si02
#       7
#     8   8   8   8   8   8   8
#     4  10  21  38  58  83 113 147 192 242 286 341
#     4  11  21  34  53  81 117 152 189 235 295 348
#     4   9  18  33  55  81 111 150 194 239 285 341
#     4  10  18  31  50  78 112 147 191 235 282 348
#     4  11  21  36  58  84 114 149 191 235 285 345
#     4   9  18  36  59  82 113 149 190 238 286 337
#     4  11  22  39  62  88 115 151 193 239 294 344
#
# _framework density 19.910641999999999
#
# number of rings (size 3 to 8) (size 9 to 14) (size 15 to 20)
#    0.000    1.857    2.857    2.143    0.000    2.571 
#    0.000    0.714    0.000    9.429    0.000    0.000 
#    0.000    0.000    0.000    0.000    0.000    0.000 
#
# Total GULP energy -693981.653164 kJ/mol
# GULP energy per Si atom -12392.529521 kJ/mol
# Density = 1.986532 g / cm^3
# Si number density = 19.910642 Si / 1000 Ang^3
#
#
#
# Elastic Constant Matrix: (Units=GPa)
#
#
# Indices 1 2 3 4 5 6 
#
# 1 117.7670 21.7167 22.1801 0.0000 0.0000 0.0000
# 2 21.7167 58.7086 14.5240 0.0000 0.0000 0.0000
# 3 22.1801 14.5240 53.3931 0.0000 0.0000 0.0000
# 4 0.0000 0.0000 0.0000 25.9753 0.0000 0.0000
# 5 0.0000 0.0000 0.0000 0.0000 22.6649 0.0000
# 6 0.0000 0.0000 0.0000 0.0000 0.0000 33.7649
#
#
#
# Elastic Compliance Matrix: (Units=1/GPa)
#
#
# Indices 1 2 3 4 5 6 
#
# 1 0.009610 -0.002752 -0.003243 0.000000 0.000000 0.000000
# 2 -0.002752 0.019051 -0.004039 0.000000 0.000000 0.000000
# 3 -0.003243 -0.004039 0.021175 0.000000 0.000000 0.000000
# 4 0.000000 0.000000 0.000000 0.038498 0.000000 0.000000
# 5 0.000000 0.000000 0.000000 0.000000 0.044121 0.000000
# 6 0.000000 0.000000 0.000000 0.000000 0.000000 0.029617
#
#
# Mechanical properties :
#
#
# Convention : Reuss Voigt Hill
#
# Bulk Modulus (GPa) = 33.59496 38.52339 36.05918
# Shear Modulus (GPa) = 26.03325 27.91086 26.97206
#
# Velocity S-wave (km/s) = 3.61987 3.74813 3.68456
# Velocity P-wave (km/s) = 5.86351 6.17426 6.02089
#
# Compressibility (1/GPa) = 0.02976637
#
# Stress axis : x y z
#
# Youngs Moduli (GPa) = 104.06126 52.49188 47.22560
#
# Poissons Ratio (x) = 0.14448 0.15317
# Poissons Ratio (y) = 0.28641 0.19073
# Poissons Ratio (z) = 0.33750 0.21200
#
# Static dielectric constant tensor:
#      x y z
#    x 3.991700 0.000000 0.000000 
#    y 0.000000 3.592770 0.000000 
#    z 0.000000 0.000000 3.379550 
# 
# 
# High freq. dielectric constant tensor:
#      x y z
#    x 1.788140 0.000000 0.000000 
#    y 0.000000 1.761550 0.000000 
#    z 0.000000 0.000000 1.742830 
# 
# From -- ./inp_files/8982.got.cif
#   From: 2010.06.25/outbox.cif.g09.slc.cpg/sg58_5_cif.got.tgz:8982.got - 2010.06.26 21:38:00.
