data_PCOD8235277
_publ_section_title
;
Structure prediction by ZEFSAII (Michael W. Deem and Ramdas Pophale) SiO2 
 PCOD8235277
Probable space group: P N N M
;
_chemical_formula_sum "Si O2"
_cell_formula_units_Z 52
_cell_length_a 11.680443
_cell_length_b 18.630996
_cell_length_c 13.665038
_cell_angle_alpha 90.000000
_cell_angle_beta 90.000000
_cell_angle_gamma 90.000000
_cell_volume 2973.762159
_symmetry_space_group_name_H-M "P N N M"
_symmetry_group_IT_number 58
_symmetry_cell_setting 'orthorhombic'
loop_
_space_group_symop_operation_xyz
x,y,z
-x,-y,z
1/2+x,1/2-y,1/2-z
1/2-x,1/2+y,1/2-z
-x,-y,-z
x,y,-z
1/2-x,1/2+y,1/2+z
1/2+x,1/2-y,1/2+z
loop_
_atom_site_type_symbol
_atom_site_label
_atom_site_fract_x
_atom_site_fract_y
_atom_site_fract_z
Si Si1 0.283929 0.280590 0.610910
Si Si2 0.782796 0.650236 0.889853
Si Si3 0.429030 0.283501 0.205304
Si Si4 0.924726 0.649150 0.295376
Si Si5 0.286334 0.012583 0.611241
Si Si6 0.635230 0.356891 0.112402
Si Si7 0.000000 0.500000 0.755434
O O1 0.325457 0.292435 0.500000
O O2 0.392466 0.292387 0.681536
O O3 0.183939 0.337785 0.634717
O O4 0.235775 0.200812 0.628037
O O5 0.679241 0.703186 0.864418
O O6 0.889829 0.663005 0.818031
O O7 0.739492 0.568253 0.877661
O O8 0.825116 0.665552 0.000000
O O9 0.472733 0.203569 0.179913
O O10 0.528960 0.340599 0.183288
O O11 0.964833 0.567290 0.312400
O O12 0.322973 0.029690 0.500000
O O13 0.184090 0.065608 0.642940
O O14 0.396369 0.026771 0.677330
O O15 0.592224 0.355345 0.000000
#
# Coordination Sequence:
#
# PCOD8235277 Si02
#       7
#     8   8   8   8   8   8   4
#     4   9  18  32  47  65  92 125 160 196 229 263
#     4   9  18  31  47  71 100 122 143 181 231 281
#     4  10  18  30  47  68  93 125 157 186 223 273
#     4   9  19  31  47  71  94 118 155 193 230 275
#     4   9  17  28  45  73 102 123 144 174 226 295
#     4   9  17  29  47  72  98 122 150 185 227 280
#     4  10  17  30  49  68  92 124 152 190 236 270
#
# _framework density 17.486267999999999
#
# number of rings (size 3 to 8) (size 9 to 14) (size 15 to 20)
#    0.000    2.769    0.000    1.615    0.000    2.462 
#    0.000    2.692    0.000    0.000    0.000   19.385 
#    0.000    0.000    0.000    0.000    0.000    0.000 
#
# Total GULP energy -644815.831509 kJ/mol
# GULP energy per Si atom -12400.304452 kJ/mol
# Density = 1.744647 g / cm^3
# Si number density = 17.486268 Si / 1000 Ang^3
#
#
#
# Elastic Constant Matrix: (Units=GPa)
#
#
# Indices 1 2 3 4 5 6 
#
# 1 67.6753 33.0184 22.6228 0.0000 0.0000 0.0000
# 2 33.0184 89.5624 12.9176 0.0000 0.0000 0.0000
# 3 22.6228 12.9176 69.9781 0.0000 0.0000 0.0000
# 4 0.0000 0.0000 0.0000 22.0432 0.0000 0.0000
# 5 0.0000 0.0000 0.0000 0.0000 23.6125 0.0000
# 6 0.0000 0.0000 0.0000 0.0000 0.0000 28.0194
#
#
#
# Elastic Compliance Matrix: (Units=1/GPa)
#
#
# Indices 1 2 3 4 5 6 
#
# 1 0.019678 -0.006510 -0.005160 0.000000 0.000000 0.000000
# 2 -0.006510 0.013625 -0.000410 0.000000 0.000000 0.000000
# 3 -0.005160 -0.000410 0.016034 0.000000 0.000000 0.000000
# 4 0.000000 0.000000 0.000000 0.045365 0.000000 0.000000
# 5 0.000000 0.000000 0.000000 0.000000 0.042350 0.000000
# 6 0.000000 0.000000 0.000000 0.000000 0.000000 0.035690
#
#
# Mechanical properties :
#
#
# Convention : Reuss Voigt Hill
#
# Bulk Modulus (GPa) = 39.72098 40.48149 40.10124
# Shear Modulus (GPa) = 24.35533 25.31218 24.83375
#
# Velocity S-wave (km/s) = 3.73611 3.80879 3.77262
# Velocity P-wave (km/s) = 6.43243 6.52252 6.47763
#
# Compressibility (1/GPa) = 0.02517561
#
# Stress axis : x y z
#
# Youngs Moduli (GPa) = 50.81941 73.39635 62.36754
#
# Poissons Ratio (x) = 0.47782 0.32180
# Poissons Ratio (y) = 0.33084 0.02560
# Poissons Ratio (z) = 0.26221 0.03012
#
# Static dielectric constant tensor:
#      x y z
#    x 3.113840 0.000000 0.000000 
#    y 0.000000 3.311520 0.000000 
#    z 0.000000 0.000000 3.212970 
# 
# 
# High freq. dielectric constant tensor:
#      x y z
#    x 1.668420 0.000000 0.000000 
#    y 0.000000 1.672440 0.000000 
#    z 0.000000 0.000000 1.658790 
# 
# From -- ./inp_files/21436.got.cif
#   From: 2010.06.25/outbox.cif.g09.slc.cpg/sg58_11_cif.got.tgz:21436.got - 2010.06.26 21:38:00.
