data_PCOD8235683
_publ_section_title
;
Structure prediction by ZEFSAII (Michael W. Deem and Ramdas Pophale) SiO2 
 PCOD8235683
Probable space group: P N N M
;
_chemical_formula_sum "Si O2"
_cell_formula_units_Z 64
_cell_length_a 12.784392
_cell_length_b 29.457738
_cell_length_c 8.920041
_cell_angle_alpha 90.000000
_cell_angle_beta 90.000000
_cell_angle_gamma 90.000000
_cell_volume 3359.280929
_symmetry_space_group_name_H-M "P N N M"
_symmetry_group_IT_number 58
_symmetry_cell_setting 'orthorhombic'
loop_
_space_group_symop_operation_xyz
x,y,z
-x,-y,z
1/2+x,1/2-y,1/2-z
1/2-x,1/2+y,1/2-z
-x,-y,-z
x,y,-z
1/2-x,1/2+y,1/2+z
1/2+x,1/2-y,1/2+z
loop_
_atom_site_type_symbol
_atom_site_label
_atom_site_fract_x
_atom_site_fract_y
_atom_site_fract_z
Si Si1 0.912680 0.922599 0.172777
Si Si2 0.826861 0.565967 0.177404
Si Si3 0.777892 0.464999 0.177543
Si Si4 0.627923 0.800991 0.675202
Si Si5 0.329234 0.677044 0.334057
Si Si6 0.614300 0.612352 0.177941
Si Si7 0.544602 0.895498 0.679016
Si Si8 0.942897 0.204977 0.172830
O O1 0.836463 0.959138 0.248966
O O2 0.855803 0.874966 0.192368
O O3 0.025121 0.920260 0.253205
O O4 0.931490 0.935366 0.000000
O O5 0.820328 0.513871 0.229186
O O6 0.726132 0.593767 0.234383
O O7 0.933430 0.587585 0.244411
O O8 0.832176 0.568562 0.000000
O O9 0.861581 0.427940 0.236427
O O10 0.763365 0.461943 0.000000
O O11 0.608447 0.798787 0.500000
O O12 0.749881 0.806938 0.707818
O O13 0.564431 0.844339 0.740465
O O14 0.592804 0.752885 0.744458
O O15 0.280944 0.684160 0.500000
O O16 0.432536 0.706767 0.315189
O O17 0.605890 0.664121 0.232193
O O18 0.603339 0.610713 0.000000
O O19 0.544230 0.896485 0.500000
O O20 0.907661 0.198363 0.000000
#
# Coordination Sequence:
#
# PCOD8235683 Si02
#       8
#     8   8   8   8   8   8   8   8
#     4  10  20  35  55  77 107 142 177 222 273 319
#     4   9  19  33  52  81 113 141 173 222 274 317
#     4  10  18  32  57  84 107 137 181 224 264 318
#     4  10  19  32  54  81 104 133 178 221 261 318
#     4   9  18  33  51  71 101 137 170 212 265 311
#     4  10  20  35  55  78 106 142 185 226 266 321
#     4   9  17  31  53  81 110 139 174 220 271 321
#     4   9  20  36  52  75 108 142 173 218 276 324
#
# _framework density 19.051696
#
# number of rings (size 3 to 8) (size 9 to 14) (size 15 to 20)
#    0.000    2.500    1.250    1.875    0.000    5.500 
#    0.000    6.250    0.000    5.250    0.000    0.000 
#    0.000    0.000    0.000    0.000    0.000    0.000 
#
# Total GULP energy -793477.051436 kJ/mol
# GULP energy per Si atom -12398.078929 kJ/mol
# Density = 1.900833 g / cm^3
# Si number density = 19.051696 Si / 1000 Ang^3
#
#
#
# Elastic Constant Matrix: (Units=GPa)
#
#
# Indices 1 2 3 4 5 6 
#
# 1 121.8622 56.8751 27.3973 0.0000 0.0000 0.0000
# 2 56.8751 91.0035 21.2814 0.0000 0.0000 0.0000
# 3 27.3973 21.2814 41.3398 0.0000 0.0000 0.0000
# 4 0.0000 0.0000 0.0000 19.8031 0.0000 0.0000
# 5 0.0000 0.0000 0.0000 0.0000 19.7724 0.0000
# 6 0.0000 0.0000 0.0000 0.0000 0.0000 20.4739
#
#
#
# Elastic Compliance Matrix: (Units=1/GPa)
#
#
# Indices 1 2 3 4 5 6 
#
# 1 0.012368 -0.006609 -0.004795 0.000000 0.000000 0.000000
# 2 -0.006609 0.016024 -0.003869 0.000000 0.000000 0.000000
# 3 -0.004795 -0.003869 0.029359 0.000000 0.000000 0.000000
# 4 0.000000 0.000000 0.000000 0.050497 0.000000 0.000000
# 5 0.000000 0.000000 0.000000 0.000000 0.050575 0.000000
# 6 0.000000 0.000000 0.000000 0.000000 0.000000 0.048843
#
#
# Mechanical properties :
#
#
# Convention : Reuss Voigt Hill
#
# Bulk Modulus (GPa) = 36.75646 51.70146 44.22896
# Shear Modulus (GPa) = 20.21997 21.92000 21.06998
#
# Velocity S-wave (km/s) = 3.26133 3.39566 3.32917
# Velocity P-wave (km/s) = 5.78935 6.52460 6.16794
#
# Compressibility (1/GPa) = 0.02720610
#
# Stress axis : x y z
#
# Youngs Moduli (GPa) = 80.85166 62.40785 34.06082
#
# Poissons Ratio (x) = 0.41243 0.16332
# Poissons Ratio (y) = 0.53432 0.13178
# Poissons Ratio (z) = 0.38767 0.24146
#
# Static dielectric constant tensor:
#      x y z
#    x 3.627410 0.000000 0.000000 
#    y 0.000000 3.645480 0.000000 
#    z 0.000000 0.000000 3.175350 
# 
# 
# High freq. dielectric constant tensor:
#      x y z
#    x 1.745340 0.000000 0.000000 
#    y 0.000000 1.745210 0.000000 
#    z 0.000000 0.000000 1.707470 
# 
# From -- ./inp_files/4735.got.cif
#   From: 2010.06.25/outbox.cif.g09.slc.cpg/sg58_3_cif.got.tgz:4735.got - 2010.06.26 21:38:00.
