data_PCOD8235824
_publ_section_title
;
Structure prediction by ZEFSAII (Michael W. Deem and Ramdas Pophale) SiO2 
 PCOD8235824
Probable space group: P N N M
;
_chemical_formula_sum "Si O2"
_cell_formula_units_Z 64
_cell_length_a 18.005345
_cell_length_b 26.263795
_cell_length_c 8.955212
_cell_angle_alpha 90.000000
_cell_angle_beta 90.000000
_cell_angle_gamma 90.000000
_cell_volume 4234.818471
_symmetry_space_group_name_H-M "P N N M"
_symmetry_group_IT_number 58
_symmetry_cell_setting 'orthorhombic'
loop_
_space_group_symop_operation_xyz
x,y,z
-x,-y,z
1/2+x,1/2-y,1/2-z
1/2-x,1/2+y,1/2-z
-x,-y,-z
x,y,-z
1/2-x,1/2+y,1/2+z
1/2+x,1/2-y,1/2+z
loop_
_atom_site_type_symbol
_atom_site_label
_atom_site_fract_x
_atom_site_fract_y
_atom_site_fract_z
Si Si1 0.803529 0.798812 0.165219
Si Si2 0.830126 0.646720 0.326389
Si Si3 0.296057 0.300953 0.166746
Si Si4 0.086395 0.557545 0.828075
Si Si5 0.418091 0.241751 0.323159
Si Si6 0.425944 0.754624 0.173329
Si Si7 0.339524 0.147773 0.824682
Si Si8 0.584356 0.059344 0.328046
O O1 0.752705 0.749312 0.161195
O O2 0.869993 0.791445 0.283017
O O3 0.748012 0.844438 0.214015
O O4 0.836979 0.808843 0.000000
O O5 0.812438 0.645183 0.500000
O O6 0.751686 0.654446 0.243305
O O7 0.887878 0.691600 0.288281
O O8 0.864544 0.593507 0.276280
O O9 0.369981 0.288914 0.260771
O O10 0.318643 0.318279 0.000000
O O11 0.139297 0.591003 0.723731
O O12 0.107315 0.498943 0.800595
O O13 0.001192 0.567655 0.783498
O O14 0.099359 0.572326 0.000000
O O15 0.411956 0.241006 0.500000
O O16 0.502161 0.250822 0.274455
O O17 0.391342 0.187516 0.261673
O O18 0.446742 0.749919 0.000000
O O19 0.353498 0.155900 0.000000
O O20 0.596751 0.074669 0.500000
#
# Coordination Sequence:
#
# PCOD8235824 Si02
#       8
#     8   8   8   8   8   8   8   8
#     4   8  16  29  42  58  81 109 138 170 209 250
#     4  10  19  29  43  63  85 112 146 179 212 253
#     4   9  17  30  45  60  82 110 140 175 212 250
#     4   9  18  31  45  61  83 112 147 182 215 251
#     4  11  20  29  43  62  86 114 143 174 209 251
#     4  10  19  29  42  62  86 111 142 176 208 247
#     4  10  19  30  44  62  85 112 143 177 214 254
#     4   9  18  31  44  60  84 114 146 181 217 250
#
# _framework density 15.112807999999999
#
# number of rings (size 3 to 8) (size 9 to 14) (size 15 to 20)
#    0.000    2.500    0.000    4.875    0.000    8.000 
#    0.000    1.250    0.000    0.000    0.000    0.000 
#    0.000    1.000    0.000   10.500    0.000    5.750 
#
# Total GULP energy -793561.511609 kJ/mol
# GULP energy per Si atom -12399.398619 kJ/mol
# Density = 1.507841 g / cm^3
# Si number density = 15.112808 Si / 1000 Ang^3
#
#
#
# Elastic Constant Matrix: (Units=GPa)
#
#
# Indices 1 2 3 4 5 6 
#
# 1 77.3680 41.8106 52.5974 0.0000 0.0000 0.0000
# 2 41.8106 63.6711 36.8139 0.0000 0.0000 0.0000
# 3 52.5974 36.8139 98.5075 0.0000 0.0000 0.0000
# 4 0.0000 0.0000 0.0000 23.9665 0.0000 0.0000
# 5 0.0000 0.0000 0.0000 0.0000 28.0086 0.0000
# 6 0.0000 0.0000 0.0000 0.0000 0.0000 26.5251
#
#
#
# Elastic Compliance Matrix: (Units=1/GPa)
#
#
# Indices 1 2 3 4 5 6 
#
# 1 0.025348 -0.011251 -0.009330 0.000000 0.000000 0.000000
# 2 -0.011251 0.025028 -0.003346 0.000000 0.000000 0.000000
# 3 -0.009330 -0.003346 0.016384 0.000000 0.000000 0.000000
# 4 0.000000 0.000000 0.000000 0.041725 0.000000 0.000000
# 5 0.000000 0.000000 0.000000 0.000000 0.035703 0.000000
# 6 0.000000 0.000000 0.000000 0.000000 0.000000 0.037700
#
#
# Mechanical properties :
#
#
# Convention : Reuss Voigt Hill
#
# Bulk Modulus (GPa) = 52.89203 55.77669 54.33436
# Shear Modulus (GPa) = 21.18246 22.92168 22.05207
#
# Velocity S-wave (km/s) = 3.74789 3.89872 3.82404
# Velocity P-wave (km/s) = 7.33505 7.56662 7.45173
#
# Compressibility (1/GPa) = 0.01890644
#
# Stress axis : x y z
#
# Youngs Moduli (GPa) = 39.45087 39.95447 61.03647
#
# Poissons Ratio (x) = 0.44952 0.56946
# Poissons Ratio (y) = 0.44385 0.20425
# Poissons Ratio (z) = 0.36807 0.13370
#
# Static dielectric constant tensor:
#      x y z
#    x 2.918510 0.000000 0.000000 
#    y 0.000000 2.738170 0.000000 
#    z 0.000000 0.000000 2.989240 
# 
# 
# High freq. dielectric constant tensor:
#      x y z
#    x 1.565840 0.000000 0.000000 
#    y 0.000000 1.544170 0.000000 
#    z 0.000000 0.000000 1.592350 
# 
# From -- ./inp_files/8462.got.cif
#   From: 2010.06.25/outbox.cif.g09.slc.cpg/sg58_5_cif.got.tgz:8462.got - 2010.06.26 21:38:00.
