data_PCOD8235852
_publ_section_title
;
Structure prediction by ZEFSAII (Michael W. Deem and Ramdas Pophale) SiO2 
 PCOD8235852
Probable space group: P N N M
;
_chemical_formula_sum "Si O2"
_cell_formula_units_Z 64
_cell_length_a 27.216555
_cell_length_b 14.072275
_cell_length_c 10.332414
_cell_angle_alpha 90.000000
_cell_angle_beta 90.000000
_cell_angle_gamma 90.000000
_cell_volume 3957.302644
_symmetry_space_group_name_H-M "P N N M"
_symmetry_group_IT_number 58
_symmetry_cell_setting 'orthorhombic'
loop_
_space_group_symop_operation_xyz
x,y,z
-x,-y,z
1/2+x,1/2-y,1/2-z
1/2-x,1/2+y,1/2-z
-x,-y,-z
x,y,-z
1/2-x,1/2+y,1/2+z
1/2+x,1/2-y,1/2+z
loop_
_atom_site_type_symbol
_atom_site_label
_atom_site_fract_x
_atom_site_fract_y
_atom_site_fract_z
Si Si1 0.375977 0.402986 0.146173
Si Si2 0.688350 0.993119 0.150753
Si Si3 0.145858 0.319018 0.645221
Si Si4 0.556944 0.502862 0.647194
Si Si5 0.126397 0.166826 0.145057
Si Si6 0.207790 0.040600 0.735188
Si Si7 0.321526 0.218125 0.146376
Si Si8 0.247429 0.224675 0.635785
O O1 0.417201 0.427597 0.250633
O O2 0.325059 0.459192 0.169460
O O3 0.367191 0.289669 0.160148
O O4 0.394082 0.426483 0.000000
O O5 0.648477 0.072026 0.198863
O O6 0.743939 0.006527 0.202520
O O7 0.664886 0.890079 0.185740
O O8 0.693307 0.007591 0.000000
O O9 0.121597 0.309435 0.500000
O O10 0.119810 0.250688 0.749484
O O11 0.202778 0.296086 0.635301
O O12 0.500000 0.500000 0.682155
O O13 0.565658 0.540108 0.500000
O O14 0.577993 0.397004 0.662345
O O15 0.174534 0.100753 0.163212
O O16 0.128863 0.210088 0.000000
O O17 0.227078 0.116897 0.632116
O O18 0.279026 0.253245 0.240950
O O19 0.300659 0.220632 0.000000
O O20 0.277127 0.237546 0.500000
#
# Coordination Sequence:
#
# PCOD8235852 Si02
#       8
#     8   8   8   8   8   8   8   8
#     4  10  19  30  45  66  91 117 144 178 222 262
#     4   9  16  27  41  58  85 123 163 192 213 242
#     4   9  17  27  40  59  84 116 150 184 218 249
#     4   9  19  35  53  72  91 110 133 165 212 272
#     4   9  17  29  46  66  87 110 138 174 216 262
#     4   9  16  26  40  60  87 119 151 184 217 253
#     4   9  18  29  40  57  83 116 152 186 215 246
#     4   9  16  25  37  55  81 113 151 189 219 248
#
# _framework density 16.172632
#
# number of rings (size 3 to 8) (size 9 to 14) (size 15 to 20)
#    0.000    2.875    0.000    1.500    0.000    7.250 
#    0.000    3.125    0.000    0.000    0.000    0.875 
#    0.000    7.000    0.000    0.000    0.000    0.000 
#
# Total GULP energy -792840.773810 kJ/mol
# GULP energy per Si atom -12388.137091 kJ/mol
# Density = 1.613582 g / cm^3
# Si number density = 16.172632 Si / 1000 Ang^3
#
#
#
# Elastic Constant Matrix: (Units=GPa)
#
#
# Indices 1 2 3 4 5 6 
#
# 1 60.1542 31.1546 43.3904 0.0000 0.0000 0.0000
# 2 31.1546 76.9664 43.1017 0.0000 0.0000 0.0000
# 3 43.3904 43.1017 103.2185 0.0000 0.0000 0.0000
# 4 0.0000 0.0000 0.0000 16.5177 0.0000 0.0000
# 5 0.0000 0.0000 0.0000 0.0000 18.6700 0.0000
# 6 0.0000 0.0000 0.0000 0.0000 0.0000 12.3798
#
#
#
# Elastic Compliance Matrix: (Units=1/GPa)
#
#
# Indices 1 2 3 4 5 6 
#
# 1 0.025620 -0.005664 -0.008405 0.000000 0.000000 0.000000
# 2 -0.005664 0.018210 -0.005223 0.000000 0.000000 0.000000
# 3 -0.008405 -0.005223 0.015403 0.000000 0.000000 0.000000
# 4 0.000000 0.000000 0.000000 0.060541 0.000000 0.000000
# 5 0.000000 0.000000 0.000000 0.000000 0.053562 0.000000
# 6 0.000000 0.000000 0.000000 0.000000 0.000000 0.080777
#
#
# Mechanical properties :
#
#
# Convention : Reuss Voigt Hill
#
# Bulk Modulus (GPa) = 48.42877 52.84805 50.63841
# Shear Modulus (GPa) = 16.69007 17.69300 17.19153
#
# Velocity S-wave (km/s) = 3.21595 3.31117 3.26391
# Velocity P-wave (km/s) = 6.61813 6.88236 6.75154
#
# Compressibility (1/GPa) = 0.02064888
#
# Stress axis : x y z
#
# Youngs Moduli (GPa) = 39.03223 54.91384 64.92430
#
# Poissons Ratio (x) = 0.31101 0.54568
# Poissons Ratio (y) = 0.22106 0.33912
# Poissons Ratio (z) = 0.32806 0.28684
#
# Static dielectric constant tensor:
#      x y z
#    x 2.632950 0.000000 0.000000 
#    y 0.000000 3.442920 0.000000 
#    z 0.000000 0.000000 3.249580 
# 
# 
# High freq. dielectric constant tensor:
#      x y z
#    x 1.563270 0.000000 0.000000 
#    y 0.000000 1.626910 0.000000 
#    z 0.000000 0.000000 1.631970 
# 
# From -- ./inp_files/11127.got.cif
#   From: 2010.06.25/outbox.cif.g09.slc.cpg/sg58_6_cif.got.tgz:11127.got - 2010.06.26 21:38:00.
