data_PCOD8235988
_publ_section_title
;
Structure prediction by ZEFSAII (Michael W. Deem and Ramdas Pophale) SiO2 
 PCOD8235988
Probable space group: P N N M
;
_chemical_formula_sum "Si O2"
_cell_formula_units_Z 64
_cell_length_a 9.539892
_cell_length_b 18.009003
_cell_length_c 21.958210
_cell_angle_alpha 90.000000
_cell_angle_beta 90.000000
_cell_angle_gamma 90.000000
_cell_volume 3772.507073
_symmetry_space_group_name_H-M "P N N M"
_symmetry_group_IT_number 58
_symmetry_cell_setting 'orthorhombic'
loop_
_space_group_symop_operation_xyz
x,y,z
-x,-y,z
1/2+x,1/2-y,1/2-z
1/2-x,1/2+y,1/2-z
-x,-y,-z
x,y,-z
1/2-x,1/2+y,1/2+z
1/2+x,1/2-y,1/2+z
loop_
_atom_site_type_symbol
_atom_site_label
_atom_site_fract_x
_atom_site_fract_y
_atom_site_fract_z
Si Si1 0.696928 0.062033 0.929947
Si Si2 0.601095 0.434132 0.240066
Si Si3 0.322573 0.585603 0.626252
Si Si4 0.472950 0.134314 0.846146
Si Si5 0.055844 0.825087 0.067375
Si Si6 0.417602 0.223802 0.679457
Si Si7 0.084666 0.567602 0.218423
Si Si8 0.602729 0.270073 0.212067
O O1 0.553623 0.086480 0.897025
O O2 0.801201 0.130425 0.925070
O O3 0.767944 0.993788 0.895526
O O4 0.663148 0.041381 0.000000
O O5 0.500000 0.500000 0.217409
O O6 0.584394 0.420592 0.312423
O O7 0.758671 0.461107 0.229073
O O8 0.570110 0.357968 0.202479
O O9 0.190215 0.640007 0.636173
O O10 0.423489 0.620707 0.575986
O O11 0.487944 0.092340 0.781796
O O12 0.529947 0.218907 0.839691
O O13 0.059162 0.756947 0.113322
O O14 0.044951 0.791123 0.000000
O O15 0.420412 0.135156 0.670935
O O16 0.545512 0.249714 0.721452
O O17 0.269504 0.246030 0.710728
O O18 0.000000 0.500000 0.189205
#
# Coordination Sequence:
#
# PCOD8235988 Si02
#       8
#     8   8   8   8   8   8   8   8
#     4  11  22  35  53  73 102 148 187 215 256 308
#     4  10  19  31  50  76 106 134 170 209 265 315
#     4  11  21  33  48  77 106 142 180 218 254 301
#     4  10  20  35  52  72 111 141 176 220 259 307
#     4  11  22  36  52  74 106 143 181 220 259 306
#     4  10  20  35  55  76 104 136 176 218 262 316
#     4   9  19  33  50  78 103 132 165 214 269 314
#     4  10  20  34  53  78 104 138 177 216 262 318
#
# _framework density 16.964846000000001
#
# number of rings (size 3 to 8) (size 9 to 14) (size 15 to 20)
#    0.000    1.750    2.500    4.125    0.000    4.500 
#    0.000    0.000    0.000    0.375    0.000    0.000 
#    0.000    3.000    0.000    0.000    0.000    0.000 
#
# Total GULP energy -793579.492896 kJ/mol
# GULP energy per Si atom -12399.679576 kJ/mol
# Density = 1.692623 g / cm^3
# Si number density = 16.964846 Si / 1000 Ang^3
#
#
#
# Elastic Constant Matrix: (Units=GPa)
#
#
# Indices 1 2 3 4 5 6 
#
# 1 66.5213 31.6882 18.2730 0.0000 0.0000 0.0000
# 2 31.6882 83.0786 28.8903 0.0000 0.0000 0.0000
# 3 18.2730 28.8903 63.8183 0.0000 0.0000 0.0000
# 4 0.0000 0.0000 0.0000 22.2044 0.0000 0.0000
# 5 0.0000 0.0000 0.0000 0.0000 19.1643 0.0000
# 6 0.0000 0.0000 0.0000 0.0000 0.0000 29.9134
#
#
#
# Elastic Compliance Matrix: (Units=1/GPa)
#
#
# Indices 1 2 3 4 5 6 
#
# 1 0.018707 -0.006258 -0.002523 0.000000 0.000000 0.000000
# 2 -0.006258 0.016379 -0.005623 0.000000 0.000000 0.000000
# 3 -0.002523 -0.005623 0.018938 0.000000 0.000000 0.000000
# 4 0.000000 0.000000 0.000000 0.045036 0.000000 0.000000
# 5 0.000000 0.000000 0.000000 0.000000 0.052180 0.000000
# 6 0.000000 0.000000 0.000000 0.000000 0.000000 0.033430
#
#
# Mechanical properties :
#
#
# Convention : Reuss Voigt Hill
#
# Bulk Modulus (GPa) = 39.65874 41.23569 40.44722
# Shear Modulus (GPa) = 22.53439 23.22754 22.88096
#
# Velocity S-wave (km/s) = 3.64854 3.70423 3.67649
# Velocity P-wave (km/s) = 6.41692 6.53103 6.47423
#
# Compressibility (1/GPa) = 0.02521512
#
# Stress axis : x y z
#
# Youngs Moduli (GPa) = 53.45622 61.05372 52.80527
#
# Poissons Ratio (x) = 0.38206 0.13325
# Poissons Ratio (y) = 0.33452 0.29692
# Poissons Ratio (z) = 0.13489 0.34330
#
# Static dielectric constant tensor:
#      x y z
#    x 3.308680 0.000000 0.000000 
#    y 0.000000 3.237170 0.000000 
#    z 0.000000 0.000000 2.993270 
# 
# 
# High freq. dielectric constant tensor:
#      x y z
#    x 1.670110 0.000000 0.000000 
#    y 0.000000 1.651040 0.000000 
#    z 0.000000 0.000000 1.616800 
# 
# From -- ./inp_files/29107.got.cif
#   From: 2010.06.25/outbox.cif.g09.slc.cpg/sg58_15_cif.got.tgz:29107.got - 2010.06.26 21:38:00.
