data_PCOD8235241
_publ_section_title
;
Structure prediction by ZEFSAII (Michael W. Deem and Ramdas Pophale) SiO2 
 PCOD8235241
Probable space group: P N N M
;
_chemical_formula_sum "Si O2"
_cell_formula_units_Z 64
_cell_length_a 14.427111
_cell_length_b 30.359361
_cell_length_c 9.218065
_cell_angle_alpha 90.000000
_cell_angle_beta 90.000000
_cell_angle_gamma 90.000000
_cell_volume 4037.492845
_symmetry_space_group_name_H-M "P N N M"
_symmetry_group_IT_number 58
_symmetry_cell_setting 'orthorhombic'
loop_
_space_group_symop_operation_xyz
x,y,z
-x,-y,z
1/2+x,1/2-y,1/2-z
1/2-x,1/2+y,1/2-z
-x,-y,-z
x,y,-z
1/2-x,1/2+y,1/2+z
1/2+x,1/2-y,1/2+z
loop_
_atom_site_type_symbol
_atom_site_label
_atom_site_fract_x
_atom_site_fract_y
_atom_site_fract_z
Si Si1 0.008934 0.175448 0.337690
Si Si2 0.977884 0.722937 0.665470
Si Si3 0.106160 0.046993 0.327720
Si Si4 0.300396 0.632463 0.168025
Si Si5 0.894008 0.050610 0.671183
Si Si6 0.349010 0.366650 0.329276
Si Si7 0.654086 0.799944 0.326742
Si Si8 0.770100 0.715849 0.671918
O O1 0.982787 0.158375 0.500000
O O2 0.990827 0.226814 0.325000
O O3 0.949457 0.150257 0.218696
O O4 0.116247 0.166530 0.306382
O O5 0.980635 0.705832 0.500000
O O6 0.051605 0.695829 0.760314
O O7 0.875024 0.717208 0.732787
O O8 0.107532 0.048550 0.500000
O O9 0.174670 0.084624 0.261311
O O10 0.000808 0.057510 0.280461
O O11 0.137552 0.998313 0.276892
O O12 0.209026 0.656493 0.230372
O O13 0.283365 0.624187 0.000000
O O14 0.881036 0.056125 0.500000
O O15 0.829680 0.086421 0.752342
O O16 0.347658 0.373564 0.500000
O O17 0.273179 0.330787 0.279034
O O18 0.646875 0.798667 0.500000
O O19 0.708102 0.756384 0.268532
O O20 0.773658 0.720499 0.500000
#
# Coordination Sequence:
#
# PCOD8235241 Si02
#       8
#     8   8   8   8   8   8   8   8
#     4  10  17  27  46  66  86 117 155 186 212 256
#     4  10  19  32  47  64  88 121 156 187 218 258
#     4   8  14  25  45  69  88 114 150 186 217 262
#     4   9  15  26  47  68  87 118 154 178 214 270
#     4   9  16  28  46  66  89 115 151 188 218 260
#     4  11  20  29  43  65  93 123 151 180 220 266
#     4  10  18  30  47  67  90 117 149 186 222 263
#     4   9  18  31  45  62  89 124 152 175 217 272
#
# _framework density 15.851423
#
# number of rings (size 3 to 8) (size 9 to 14) (size 15 to 20)
#    0.000    2.500    3.750    1.125    0.000    0.000 
#    0.000    3.750    0.000    0.000    0.000    0.875 
#    0.000    7.000    0.000    0.000    0.000    0.000 
#
# Total GULP energy -793133.155537 kJ/mol
# GULP energy per Si atom -12392.705555 kJ/mol
# Density = 1.581534 g / cm^3
# Si number density = 15.851423 Si / 1000 Ang^3
#
#
#
# Elastic Constant Matrix: (Units=GPa)
#
#
# Indices 1 2 3 4 5 6 
#
# 1 66.3993 37.6353 18.1306 0.0000 0.0000 0.0000
# 2 37.6353 105.4423 26.1305 0.0000 0.0000 0.0000
# 3 18.1306 26.1305 30.0643 0.0000 0.0000 0.0000
# 4 0.0000 0.0000 0.0000 19.0509 0.0000 0.0000
# 5 0.0000 0.0000 0.0000 0.0000 20.8061 0.0000
# 6 0.0000 0.0000 0.0000 0.0000 0.0000 25.8623
#
#
#
# Elastic Compliance Matrix: (Units=1/GPa)
#
#
# Indices 1 2 3 4 5 6 
#
# 1 0.020129 -0.005323 -0.007513 0.000000 0.000000 0.000000
# 2 -0.005323 0.013495 -0.008519 0.000000 0.000000 0.000000
# 3 -0.007513 -0.008519 0.045197 0.000000 0.000000 0.000000
# 4 0.000000 0.000000 0.000000 0.052491 0.000000 0.000000
# 5 0.000000 0.000000 0.000000 0.000000 0.048063 0.000000
# 6 0.000000 0.000000 0.000000 0.000000 0.000000 0.038666
#
#
# Mechanical properties :
#
#
# Convention : Reuss Voigt Hill
#
# Bulk Modulus (GPa) = 27.69188 40.63319 34.16253
# Shear Modulus (GPa) = 18.32933 21.14450 19.73691
#
# Velocity S-wave (km/s) = 3.40416 3.65625 3.53245
# Velocity P-wave (km/s) = 5.74096 6.59648 6.18354
#
# Compressibility (1/GPa) = 0.03611167
#
# Stress axis : x y z
#
# Youngs Moduli (GPa) = 49.68042 74.10203 22.12534
#
# Poissons Ratio (x) = 0.39443 0.16622
# Poissons Ratio (y) = 0.26444 0.18849
# Poissons Ratio (z) = 0.37323 0.63129
#
# Static dielectric constant tensor:
#      x y z
#    x 2.930290 0.000000 0.000000 
#    y 0.000000 3.378910 0.000000 
#    z 0.000000 0.000000 2.685170 
# 
# 
# High freq. dielectric constant tensor:
#      x y z
#    x 1.582420 0.000000 0.000000 
#    y 0.000000 1.611050 0.000000 
#    z 0.000000 0.000000 1.571730 
# 
# From -- ./inp_files/7158.got.cif
#   From: 2010.06.25/outbox.cif.g09.slc.cpg/sg58_4_cif.got.tgz:7158.got - 2010.06.26 21:38:00.
