data_PCOD8235340
_publ_section_title
;
Structure prediction by ZEFSAII (Michael W. Deem and Ramdas Pophale) SiO2 
 PCOD8235340
Probable space group: P N N M
;
_chemical_formula_sum "Si O2"
_cell_formula_units_Z 56
_cell_length_a 17.780819
_cell_length_b 22.492497
_cell_length_c 8.671352
_cell_angle_alpha 90.000000
_cell_angle_beta 90.000000
_cell_angle_gamma 90.000000
_cell_volume 3467.977318
_symmetry_space_group_name_H-M "P N N M"
_symmetry_group_IT_number 58
_symmetry_cell_setting 'orthorhombic'
loop_
_space_group_symop_operation_xyz
x,y,z
-x,-y,z
1/2+x,1/2-y,1/2-z
1/2-x,1/2+y,1/2-z
-x,-y,-z
x,y,-z
1/2-x,1/2+y,1/2+z
1/2+x,1/2-y,1/2+z
loop_
_atom_site_type_symbol
_atom_site_label
_atom_site_fract_x
_atom_site_fract_y
_atom_site_fract_z
Si Si1 0.725441 0.694730 0.822408
Si Si2 0.616814 0.159142 0.323705
Si Si3 0.121590 0.655130 0.679881
Si Si4 0.581260 0.718234 0.680670
Si Si5 0.732962 0.316693 0.178763
Si Si6 0.426918 0.718582 0.180052
Si Si7 0.506892 0.932714 0.680432
O O1 0.793069 0.646862 0.801944
O O2 0.642809 0.674629 0.763877
O O3 0.745118 0.749068 0.711400
O O4 0.720097 0.715648 0.000000
O O5 0.600220 0.178163 0.500000
O O6 0.588700 0.212576 0.217532
O O7 0.572187 0.099468 0.280945
O O8 0.113461 0.666704 0.500000
O O9 0.090395 0.713158 0.767668
O O10 0.209435 0.642331 0.723587
O O11 0.074490 0.597756 0.728080
O O12 0.591819 0.713265 0.500000
O O13 0.498885 0.694732 0.727230
O O14 0.644835 0.323075 0.225375
O O15 0.744738 0.331236 0.000000
O O16 0.443895 0.714126 0.000000
O O17 0.525870 0.930106 0.500000
O O18 0.500000 0.000000 0.739355
#
# Coordination Sequence:
#
# PCOD8235340 Si02
#       7
#     8   8   8   8   8   8   8
#     4   9  16  26  40  59  82 109 144 177 211 254
#     4   9  17  29  44  60  82 114 145 180 219 256
#     4  11  20  30  44  61  84 114 148 184 222 256
#     4  11  19  27  41  61  87 117 146 175 214 260
#     4   9  17  28  42  60  83 111 143 174 213 261
#     4  10  18  27  42  64  87 114 144 177 214 257
#     4  10  20  33  48  65  86 116 153 188 223 261
#
# _framework density 16.147741
#
# number of rings (size 3 to 8) (size 9 to 14) (size 15 to 20)
#    0.000    2.143    1.429    5.571    0.000    2.571 
#    0.000    0.000    0.000    0.000    0.000    0.000 
#    0.000    1.143    0.000   13.143    0.000    3.714 
#
# Total GULP energy -693953.527535 kJ/mol
# GULP energy per Si atom -12392.027277 kJ/mol
# Density = 1.611099 g / cm^3
# Si number density = 16.147741 Si / 1000 Ang^3
#
#
#
# Elastic Constant Matrix: (Units=GPa)
#
#
# Indices 1 2 3 4 5 6 
#
# 1 155.8724 41.5647 42.5179 0.0000 0.0000 0.0000
# 2 41.5647 46.6187 18.7328 0.0000 0.0000 0.0000
# 3 42.5179 18.7328 60.9234 0.0000 0.0000 0.0000
# 4 0.0000 0.0000 0.0000 12.1390 0.0000 0.0000
# 5 0.0000 0.0000 0.0000 0.0000 26.2577 0.0000
# 6 0.0000 0.0000 0.0000 0.0000 0.0000 15.8910
#
#
#
# Elastic Compliance Matrix: (Units=1/GPa)
#
#
# Indices 1 2 3 4 5 6 
#
# 1 0.009404 -0.006558 -0.004547 0.000000 0.000000 0.000000
# 2 -0.006558 0.029047 -0.004355 0.000000 0.000000 0.000000
# 3 -0.004547 -0.004355 0.020926 0.000000 0.000000 0.000000
# 4 0.000000 0.000000 0.000000 0.082379 0.000000 0.000000
# 5 0.000000 0.000000 0.000000 0.000000 0.038084 0.000000
# 6 0.000000 0.000000 0.000000 0.000000 0.000000 0.062929
#
#
# Mechanical properties :
#
#
# Convention : Reuss Voigt Hill
#
# Bulk Modulus (GPa) = 35.13824 52.11614 43.62719
# Shear Modulus (GPa) = 17.65688 21.56415 19.61051
#
# Velocity S-wave (km/s) = 3.31033 3.65832 3.48867
# Velocity P-wave (km/s) = 6.03480 7.08442 6.58057
#
# Compressibility (1/GPa) = 0.02845902
#
# Stress axis : x y z
#
# Youngs Moduli (GPa) = 106.33224 34.42646 47.78672
#
# Poissons Ratio (x) = 0.22576 0.21728
# Poissons Ratio (y) = 0.69731 0.20810
# Poissons Ratio (z) = 0.48348 0.14992
#
# Static dielectric constant tensor:
#      x y z
#    x 3.882610 0.000000 0.000000 
#    y 0.000000 2.525180 0.000000 
#    z 0.000000 0.000000 3.093410 
# 
# 
# High freq. dielectric constant tensor:
#      x y z
#    x 1.647720 0.000000 0.000000 
#    y 0.000000 1.533050 0.000000 
#    z 0.000000 0.000000 1.633670 
# 
# From -- ./inp_files/8441.got.cif
#   From: 2010.06.25/outbox.cif.g09.slc.cpg/sg58_5_cif.got.tgz:8441.got - 2010.06.26 21:38:00.
