data_PCOD8235915
_publ_section_title
;
Structure prediction by ZEFSAII (Michael W. Deem and Ramdas Pophale) SiO2 
 PCOD8235915
Probable space group: P N N M
;
_chemical_formula_sum "Si O2"
_cell_formula_units_Z 64
_cell_length_a 14.598031
_cell_length_b 27.988729
_cell_length_c 8.611485
_cell_angle_alpha 90.000000
_cell_angle_beta 90.000000
_cell_angle_gamma 90.000000
_cell_volume 3518.483414
_symmetry_space_group_name_H-M "P N N M"
_symmetry_group_IT_number 58
_symmetry_cell_setting 'orthorhombic'
loop_
_space_group_symop_operation_xyz
x,y,z
-x,-y,z
1/2+x,1/2-y,1/2-z
1/2-x,1/2+y,1/2-z
-x,-y,-z
x,y,-z
1/2-x,1/2+y,1/2+z
1/2+x,1/2-y,1/2+z
loop_
_atom_site_type_symbol
_atom_site_label
_atom_site_fract_x
_atom_site_fract_y
_atom_site_fract_z
Si Si1 0.395190 0.279847 0.684551
Si Si2 0.906482 0.946835 0.682357
Si Si3 0.773612 0.134916 0.183362
Si Si4 0.098316 0.220479 0.815591
Si Si5 0.099792 0.326957 0.182718
Si Si6 0.391533 0.172439 0.317107
Si Si7 0.717882 0.367184 0.317245
Si Si8 0.600073 0.549103 0.683686
O O1 0.395301 0.281532 0.500000
O O2 0.324866 0.318514 0.754581
O O3 0.496886 0.293044 0.744959
O O4 0.368948 0.226462 0.738960
O O5 0.924482 0.944131 0.500000
O O6 0.824228 0.912390 0.730529
O O7 0.999190 0.931736 0.771669
O O8 0.877271 0.000268 0.728199
O O9 0.668646 0.135085 0.239822
O O10 0.824591 0.087244 0.240822
O O11 0.777188 0.136914 0.000000
O O12 0.123812 0.273566 0.754628
O O13 0.168840 0.180931 0.753314
O O14 0.098354 0.221703 0.000000
O O15 0.995877 0.340687 0.227984
O O16 0.112378 0.329352 0.000000
O O17 0.375824 0.166901 0.500000
O O18 0.324932 0.136402 0.225931
O O19 0.704669 0.373851 0.500000
O O20 0.603644 0.540564 0.500000
#
# Coordination Sequence:
#
# PCOD8235915 Si02
#       8
#     8   8   8   8   8   8   8   8
#     4   8  14  27  46  69 100 134 165 199 240 287
#     4  11  22  36  54  77 104 131 161 200 247 298
#     4  10  19  30  50  76 100 130 166 204 245 292
#     4   8  15  28  46  70 100 134 169 202 242 292
#     4   9  18  32  49  69  99 137 172 208 247 289
#     4   9  18  32  48  68  98 136 173 207 244 285
#     4  11  20  31  51  75 100 132 169 208 249 294
#     4  10  20  36  56  78 104 132 162 198 246 299
#
# _framework density 18.189655999999999
#
# number of rings (size 3 to 8) (size 9 to 14) (size 15 to 20)
#    0.000    2.500    0.000    5.625    0.000    3.500 
#    0.000    0.625    0.000    4.500    0.000    5.250 
#    0.000    0.000    0.000    0.000    0.000    0.000 
#
# Total GULP energy -793490.350911 kJ/mol
# GULP energy per Si atom -12398.286733 kJ/mol
# Density = 1.814826 g / cm^3
# Si number density = 18.189656 Si / 1000 Ang^3
#
#
#
# Elastic Constant Matrix: (Units=GPa)
#
#
# Indices 1 2 3 4 5 6 
#
# 1 118.2311 68.3905 17.7414 0.0000 0.0000 0.0000
# 2 68.3905 87.7390 20.5072 0.0000 0.0000 0.0000
# 3 17.7414 20.5072 32.8100 0.0000 0.0000 0.0000
# 4 0.0000 0.0000 0.0000 20.0851 0.0000 0.0000
# 5 0.0000 0.0000 0.0000 0.0000 28.4235 0.0000
# 6 0.0000 0.0000 0.0000 0.0000 0.0000 33.5350
#
#
#
# Elastic Compliance Matrix: (Units=1/GPa)
#
#
# Indices 1 2 3 4 5 6 
#
# 1 0.015429 -0.011801 -0.000967 0.000000 0.000000 0.000000
# 2 -0.011801 0.022373 -0.007603 0.000000 0.000000 0.000000
# 3 -0.000967 -0.007603 0.035753 0.000000 0.000000 0.000000
# 4 0.000000 0.000000 0.000000 0.049788 0.000000 0.000000
# 5 0.000000 0.000000 0.000000 0.000000 0.035182 0.000000
# 6 0.000000 0.000000 0.000000 0.000000 0.000000 0.029820
#
#
# Mechanical properties :
#
#
# Convention : Reuss Voigt Hill
#
# Bulk Modulus (GPa) = 30.47462 50.22871 40.35166
# Shear Modulus (GPa) = 20.83121 25.21812 23.02467
#
# Velocity S-wave (km/s) = 3.38779 3.72748 3.56168
# Velocity P-wave (km/s) = 5.66507 6.79701 6.25669
#
# Compressibility (1/GPa) = 0.03281419
#
# Stress axis : x y z
#
# Youngs Moduli (GPa) = 64.81219 44.69732 27.96936
#
# Poissons Ratio (x) = 0.52746 0.02705
# Poissons Ratio (y) = 0.76482 0.21264
# Poissons Ratio (z) = 0.06269 0.33982
#
# Static dielectric constant tensor:
#      x y z
#    x 3.467950 0.000000 0.000000 
#    y 0.000000 3.357520 0.000000 
#    z 0.000000 0.000000 3.025140 
# 
# 
# High freq. dielectric constant tensor:
#      x y z
#    x 1.706350 0.000000 0.000000 
#    y 0.000000 1.686680 0.000000 
#    z 0.000000 0.000000 1.683490 
# 
# From -- ./inp_files/7171.got.cif
#   From: 2010.06.25/outbox.cif.g09.slc.cpg/sg58_4_cif.got.tgz:7171.got - 2010.06.26 21:38:00.
