data_PCOD8235804
_publ_section_title
;
Structure prediction by ZEFSAII (Michael W. Deem and Ramdas Pophale) SiO2 
 PCOD8235804
Probable space group: P N N M
;
_chemical_formula_sum "Si O2"
_cell_formula_units_Z 48
_cell_length_a 8.571960
_cell_length_b 14.206119
_cell_length_c 18.245470
_cell_angle_alpha 90.000000
_cell_angle_beta 90.000000
_cell_angle_gamma 90.000000
_cell_volume 2221.829042
_symmetry_space_group_name_H-M "P N N M"
_symmetry_group_IT_number 58
_symmetry_cell_setting 'orthorhombic'
loop_
_space_group_symop_operation_xyz
x,y,z
-x,-y,z
1/2+x,1/2-y,1/2-z
1/2-x,1/2+y,1/2-z
-x,-y,-z
x,y,-z
1/2-x,1/2+y,1/2+z
1/2+x,1/2-y,1/2+z
loop_
_atom_site_type_symbol
_atom_site_label
_atom_site_fract_x
_atom_site_fract_y
_atom_site_fract_z
Si Si1 0.184743 0.983631 0.156993
Si Si2 0.373167 0.418652 0.000000
Si Si3 0.636212 0.786596 0.000000
Si Si4 0.347797 0.437100 0.500000
Si Si5 0.862659 0.327521 0.665631
Si Si6 0.667734 0.165056 0.744816
Si Si7 0.489536 0.754675 0.500000
Si Si8 0.908622 0.588631 0.898428
O O1 0.284521 0.072202 0.186997
O O2 0.207670 0.890797 0.206241
O O3 0.000000 0.000000 0.157183
O O4 0.245858 0.961600 0.074182
O O5 0.500000 0.500000 0.000000
O O6 0.267544 0.421712 0.072402
O O7 0.449635 0.315171 0.000000
O O8 0.595109 0.832749 0.921430
O O9 0.821908 0.792751 0.000000
O O10 0.500000 0.500000 0.500000
O O11 0.380189 0.325070 0.500000
O O12 0.742453 0.247757 0.694590
O O13 0.024704 0.302232 0.704931
O O14 0.594522 0.090175 0.688651
O O15 0.500463 0.819472 0.572202
O O16 0.000000 0.500000 0.928433
#
# Coordination Sequence:
#
# PCOD8235804 Si02
#       8
#     8   4   4   4   8   8   4   8
#     4  11  24  43  68 101 133 175 226 277 338 404
#     4  10  20  39  65  93 133 164 230 268 335 394
#     4  10  20  43  65  94 131 184 221 279 344 392
#     4  10  22  37  68 100 127 171 232 270 330 409
#     4  12  24  46  70  96 141 181 227 285 341 410
#     4  12  26  43  67 100 134 178 225 277 348 405
#     4  10  18  37  65  91 128 176 226 263 330 408
#     4  10  21  41  64  91 130 179 220 270 332 405
#
# _framework density 21.603821
#
# number of rings (size 3 to 8) (size 9 to 14) (size 15 to 20)
#    0.000    1.333    3.333    6.000    2.333    1.333 
#    6.000    3.333    0.000    0.000    0.000    0.000 
#    0.000    0.000    0.000    0.000    0.000    0.000 
#
# Total GULP energy -594651.436906 kJ/mol
# GULP energy per Si atom -12388.571602 kJ/mol
# Density = 2.155465 g / cm^3
# Si number density = 21.603821 Si / 1000 Ang^3
#
#
#
# Elastic Constant Matrix: (Units=GPa)
#
#
# Indices 1 2 3 4 5 6 
#
# 1 69.1714 39.6020 31.5542 0.0000 0.0000 0.0000
# 2 39.6020 112.7015 28.3765 0.0000 0.0000 0.0000
# 3 31.5542 28.3765 149.1975 0.0000 0.0000 0.0000
# 4 0.0000 0.0000 0.0000 25.5651 0.0000 0.0000
# 5 0.0000 0.0000 0.0000 0.0000 54.4876 0.0000
# 6 0.0000 0.0000 0.0000 0.0000 0.0000 38.8838
#
#
#
# Elastic Compliance Matrix: (Units=1/GPa)
#
#
# Indices 1 2 3 4 5 6 
#
# 1 0.019239 -0.006025 -0.002923 0.000000 0.000000 0.000000
# 2 -0.006025 0.011206 -0.000857 0.000000 0.000000 0.000000
# 3 -0.002923 -0.000857 0.007484 0.000000 0.000000 0.000000
# 4 0.000000 0.000000 0.000000 0.039116 0.000000 0.000000
# 5 0.000000 0.000000 0.000000 0.000000 0.018353 0.000000
# 6 0.000000 0.000000 0.000000 0.000000 0.000000 0.025718
#
#
# Mechanical properties :
#
#
# Convention : Reuss Voigt Hill
#
# Bulk Modulus (GPa) = 54.58709 58.90400 56.74554
# Shear Modulus (GPa) = 34.05267 39.22313 36.63790
#
# Velocity S-wave (km/s) = 3.97449 4.26557 4.12260
# Velocity P-wave (km/s) = 6.81060 7.18226 6.99890
#
# Compressibility (1/GPa) = 0.01831935
#
# Stress axis : x y z
#
# Youngs Moduli (GPa) = 51.97648 89.23991 133.62233
#
# Poissons Ratio (x) = 0.53763 0.39060
# Poissons Ratio (y) = 0.31313 0.11453
# Poissons Ratio (z) = 0.15194 0.07649
#
# Static dielectric constant tensor:
#      x y z
#    x 3.533130 0.000000 0.000000 
#    y 0.000000 3.975360 0.000000 
#    z 0.000000 0.000000 4.148800 
# 
# 
# High freq. dielectric constant tensor:
#      x y z
#    x 1.818760 0.000000 0.000000 
#    y 0.000000 1.856250 0.000000 
#    z 0.000000 0.000000 1.866600 
# 
# From -- ./inp_files/25368.got.cif
#   From: 2010.06.25/outbox.cif.g09.slc.cpg/sg58_13_cif.got.tgz:25368.got - 2010.06.26 21:38:00.
