data_PCOD8235900
_publ_section_title
;
Structure prediction by ZEFSAII (Michael W. Deem and Ramdas Pophale) SiO2 
 PCOD8235900
Probable space group: P N N M
;
_chemical_formula_sum "Si O2"
_cell_formula_units_Z 64
_cell_length_a 12.263149
_cell_length_b 30.065713
_cell_length_c 9.098985
_cell_angle_alpha 90.000000
_cell_angle_beta 90.000000
_cell_angle_gamma 90.000000
_cell_volume 3354.798666
_symmetry_space_group_name_H-M "P N N M"
_symmetry_group_IT_number 58
_symmetry_cell_setting 'orthorhombic'
loop_
_space_group_symop_operation_xyz
x,y,z
-x,-y,z
1/2+x,1/2-y,1/2-z
1/2-x,1/2+y,1/2-z
-x,-y,-z
x,y,-z
1/2-x,1/2+y,1/2+z
1/2+x,1/2-y,1/2+z
loop_
_atom_site_type_symbol
_atom_site_label
_atom_site_fract_x
_atom_site_fract_y
_atom_site_fract_z
Si Si1 0.063398 0.219070 0.169546
Si Si2 0.671489 0.121379 0.674508
Si Si3 0.488840 0.186482 0.325864
Si Si4 0.119868 0.848196 0.832210
Si Si5 0.028797 0.926076 0.333732
Si Si6 0.752178 0.028811 0.672668
Si Si7 0.783031 0.935043 0.667851
Si Si8 0.249729 0.663263 0.824106
O O1 0.049267 0.269152 0.231813
O O2 0.153944 0.193808 0.263721
O O3 0.942511 0.198399 0.185632
O O4 0.101237 0.218149 0.000000
O O5 0.684125 0.122207 0.500000
O O6 0.557798 0.143231 0.725545
O O7 0.769767 0.151033 0.737959
O O8 0.678251 0.069960 0.732970
O O9 0.483995 0.188852 0.500000
O O10 0.365573 0.182404 0.266778
O O11 0.034061 0.884634 0.775934
O O12 0.151272 0.857822 0.000000
O O13 0.049461 0.908760 0.500000
O O14 0.121623 0.961253 0.289833
O O15 0.910428 0.947564 0.320295
O O16 0.734620 0.025083 0.500000
O O17 0.723750 0.979268 0.738546
O O18 0.745274 0.930597 0.500000
O O19 0.757547 0.887313 0.741458
O O20 0.260297 0.662913 0.000000
#
# Coordination Sequence:
#
# PCOD8235900 Si02
#       8
#     8   8   8   8   8   8   8   8
#     4  10  21  36  52  72 103 135 163 204 261 306
#     4   9  18  34  54  72  98 136 172 203 245 302
#     4   9  20  37  54  74 102 134 167 212 258 293
#     4  10  19  30  48  74 103 132 162 207 255 292
#     4   9  15  26  45  70 101 136 166 199 245 299
#     4   8  14  24  44  73 102 131 165 203 247 296
#     4   9  15  25  45  75 103 130 165 207 249 293
#     4  10  20  35  56  78 102 131 171 212 248 298
#
# _framework density 19.07715
#
# number of rings (size 3 to 8) (size 9 to 14) (size 15 to 20)
#    0.000    2.750    1.250    1.500    1.750    2.000 
#    0.000    1.875    0.000   12.750    0.000    0.000 
#    0.000    5.000    0.000    0.000    0.000    0.000 
#
# Total GULP energy -792853.109323 kJ/mol
# GULP energy per Si atom -12388.329833 kJ/mol
# Density = 1.903373 g / cm^3
# Si number density = 19.077150 Si / 1000 Ang^3
#
#
#
# Elastic Constant Matrix: (Units=GPa)
#
#
# Indices 1 2 3 4 5 6 
#
# 1 82.1889 59.0485 18.1285 0.0000 0.0000 0.0000
# 2 59.0485 151.2715 18.0512 0.0000 0.0000 0.0000
# 3 18.1285 18.0512 27.6851 0.0000 0.0000 0.0000
# 4 0.0000 0.0000 0.0000 16.3719 0.0000 0.0000
# 5 0.0000 0.0000 0.0000 0.0000 14.7806 0.0000
# 6 0.0000 0.0000 0.0000 0.0000 0.0000 18.9527
#
#
#
# Elastic Compliance Matrix: (Units=1/GPa)
#
#
# Indices 1 2 3 4 5 6 
#
# 1 0.018406 -0.006231 -0.007990 0.000000 0.000000 0.000000
# 2 -0.006231 0.009278 -0.001969 0.000000 0.000000 0.000000
# 3 -0.007990 -0.001969 0.042636 0.000000 0.000000 0.000000
# 4 0.000000 0.000000 0.000000 0.061080 0.000000 0.000000
# 5 0.000000 0.000000 0.000000 0.000000 0.067656 0.000000
# 6 0.000000 0.000000 0.000000 0.000000 0.000000 0.052763
#
#
# Mechanical properties :
#
#
# Convention : Reuss Voigt Hill
#
# Bulk Modulus (GPa) = 26.35730 50.17801 38.26765
# Shear Modulus (GPa) = 16.84371 21.08220 18.96296
#
# Velocity S-wave (km/s) = 2.97463 3.32791 3.15622
# Velocity P-wave (km/s) = 5.06400 6.41299 5.77800
#
# Compressibility (1/GPa) = 0.03794015
#
# Stress axis : x y z
#
# Youngs Moduli (GPa) = 54.32900 107.78135 23.45435
#
# Poissons Ratio (x) = 0.67164 0.18739
# Poissons Ratio (y) = 0.33855 0.04618
# Poissons Ratio (z) = 0.43407 0.21222
#
# Static dielectric constant tensor:
#      x y z
#    x 3.411210 0.000000 0.000000 
#    y 0.000000 3.917000 0.000000 
#    z 0.000000 0.000000 3.052780 
# 
# 
# High freq. dielectric constant tensor:
#      x y z
#    x 1.725770 0.000000 0.000000 
#    y 0.000000 1.757940 0.000000 
#    z 0.000000 0.000000 1.685310 
# 
# From -- ./inp_files/4727.got.cif
#   From: 2010.06.25/outbox.cif.g09.slc.cpg/sg58_3_cif.got.tgz:4727.got - 2010.06.26 21:38:00.
