data_PCOD8235145
_publ_section_title
;
Structure prediction by ZEFSAII (Michael W. Deem and Ramdas Pophale) SiO2 
 PCOD8235145
Probable space group: P B C M
;
_chemical_formula_sum "Si O2"
_cell_formula_units_Z 40
_cell_length_a 5.020921
_cell_length_b 19.877366
_cell_length_c 18.877453
_cell_angle_alpha 90.000000
_cell_angle_beta 90.000000
_cell_angle_gamma 90.000000
_cell_volume 1884.020484
_symmetry_space_group_name_H-M "P B C M"
_symmetry_group_IT_number 57
_symmetry_cell_setting 'orthorhombic'
loop_
_space_group_symop_operation_xyz
x,y,z
-x,-y,1/2+z
x,1/2-y,-z
-x,1/2+y,1/2-z
-x,-y,-z
x,y,1/2-z
-x,1/2+y,z
x,1/2-y,1/2+z
loop_
_atom_site_type_symbol
_atom_site_label
_atom_site_fract_x
_atom_site_fract_y
_atom_site_fract_z
Si Si1 0.017483 0.910762 0.113576
Si Si2 0.500535 0.643582 0.390798
Si Si3 0.006765 0.823282 0.522236
Si Si4 0.079347 0.681013 0.750000
Si Si5 0.419556 0.273400 0.750000
Si Si6 0.508886 0.994616 0.415595
O O1 0.038393 0.864568 0.181803
O O2 0.225394 0.972020 0.115864
O O3 0.721581 0.939690 0.109252
O O4 0.087760 0.866685 0.045319
O O5 0.769080 0.641017 0.436386
O O6 0.550242 0.678866 0.316901
O O7 0.413160 0.566069 0.380924
O O8 0.267565 0.684678 0.429484
O O9 0.905433 0.750000 0.500000
O O10 0.373636 0.712097 0.750000
O O11 0.874396 0.742631 0.750000
O O12 0.500000 0.000000 0.500000
#
# Coordination Sequence:
#
# PCOD8235145 Si02
#       6
#     8   8   8   4   4   8
#     4  12  24  43  70  97 135 178 219 278 335 391
#     4  12  25  41  68  95 133 176 218 275 337 384
#     4  12  23  40  66  98 126 175 230 270 323 396
#     4  12  28  48  68  98 140 176 222 276 338 398
#     4  12  26  48  64  96 140 176 218 284 332 402
#     4  12  23  44  70 101 136 170 226 282 325 398
#
# _framework density 21.231190999999999
#
# number of rings (size 3 to 8) (size 9 to 14) (size 15 to 20)
#    0.000    0.000    4.000    7.200    0.000    1.600 
#    0.000    0.000    0.000    0.000    0.000    0.000 
#    0.000    0.000    0.000    0.000    0.000    0.000 
#
# Total GULP energy -496388.727407 kJ/mol
# GULP energy per Si atom -12409.718185 kJ/mol
# Density = 2.118287 g / cm^3
# Si number density = 21.231191 Si / 1000 Ang^3
#
#
#
# Elastic Constant Matrix: (Units=GPa)
#
#
# Indices 1 2 3 4 5 6 
#
# 1 91.9842 4.6373 18.3493 0.0000 0.0000 0.0000
# 2 4.6373 108.5948 34.5574 0.0000 0.0000 0.0000
# 3 18.3493 34.5574 83.0439 0.0000 0.0000 0.0000
# 4 0.0000 0.0000 0.0000 25.5407 0.0000 0.0000
# 5 0.0000 0.0000 0.0000 0.0000 13.6914 0.0000
# 6 0.0000 0.0000 0.0000 0.0000 0.0000 43.6697
#
#
#
# Elastic Compliance Matrix: (Units=1/GPa)
#
#
# Indices 1 2 3 4 5 6 
#
# 1 0.011385 0.000362 -0.002666 0.000000 0.000000 0.000000
# 2 0.000362 0.010626 -0.004502 0.000000 0.000000 0.000000
# 3 -0.002666 -0.004502 0.014504 0.000000 0.000000 0.000000
# 4 0.000000 0.000000 0.000000 0.039153 0.000000 0.000000
# 5 0.000000 0.000000 0.000000 0.000000 0.073038 0.000000
# 6 0.000000 0.000000 0.000000 0.000000 0.000000 0.022899
#
#
# Mechanical properties :
#
#
# Convention : Reuss Voigt Hill
#
# Bulk Modulus (GPa) = 43.66171 44.30124 43.98147
# Shear Modulus (GPa) = 25.92664 31.65230 28.78947
#
# Velocity S-wave (km/s) = 3.49830 3.86533 3.68638
# Velocity P-wave (km/s) = 6.07676 6.39003 6.23536
#
# Compressibility (1/GPa) = 0.02290336
#
# Stress axis : x y z
#
# Youngs Moduli (GPa) = 87.83433 94.11205 68.94493
#
# Poissons Ratio (x) = -0.03410 0.18384
# Poissons Ratio (y) = -0.03183 0.31037
# Poissons Ratio (z) = 0.23420 0.42367
#
# Static dielectric constant tensor:
#      x y z
#    x 4.020580 0.000000 0.000000 
#    y 0.000000 4.004020 0.000000 
#    z 0.000000 0.000000 3.847080 
# 
# 
# High freq. dielectric constant tensor:
#      x y z
#    x 1.848730 0.000000 0.000000 
#    y 0.000000 1.849480 0.000000 
#    z 0.000000 0.000000 1.831910 
# 
# From -- ./inp_files/20035.got.cif
#   From: 2010.03.12/outbox.cif.g09.slc.cpg/sg57_11_cif.got.tgz:20035.got - 2010.04.16 15:48:40.
