data_PCOD8235235
_publ_section_title
;
Structure prediction by ZEFSAII (Michael W. Deem and Ramdas Pophale) SiO2 
 PCOD8235235
Probable space group: P N N M
;
_chemical_formula_sum "Si O2"
_cell_formula_units_Z 64
_cell_length_a 22.779846
_cell_length_b 20.659299
_cell_length_c 9.050558
_cell_angle_alpha 90.000000
_cell_angle_beta 90.000000
_cell_angle_gamma 90.000000
_cell_volume 4259.334233
_symmetry_space_group_name_H-M "P N N M"
_symmetry_group_IT_number 58
_symmetry_cell_setting 'orthorhombic'
loop_
_space_group_symop_operation_xyz
x,y,z
-x,-y,z
1/2+x,1/2-y,1/2-z
1/2-x,1/2+y,1/2-z
-x,-y,-z
x,y,-z
1/2-x,1/2+y,1/2+z
1/2+x,1/2-y,1/2+z
loop_
_atom_site_type_symbol
_atom_site_label
_atom_site_fract_x
_atom_site_fract_y
_atom_site_fract_z
Si Si1 0.227156 0.912499 0.331012
Si Si2 0.788156 0.941596 0.328291
Si Si3 0.890710 0.757690 0.835410
Si Si4 0.407737 0.538136 0.329610
Si Si5 0.994363 0.844937 0.169745
Si Si6 0.293652 0.803505 0.826301
Si Si7 0.408610 0.408787 0.827587
Si Si8 0.273127 0.680838 0.335951
O O1 0.242574 0.895495 0.500000
O O2 0.269060 0.872438 0.223661
O O3 0.159743 0.894583 0.297317
O O4 0.240154 0.988119 0.298439
O O5 0.788397 0.924651 0.500000
O O6 0.854317 0.940525 0.272812
O O7 0.751976 0.885011 0.244416
O O8 0.952746 0.785354 0.776711
O O9 0.861951 0.703493 0.727608
O O10 0.844680 0.818205 0.844935
O O11 0.898337 0.728035 0.000000
O O12 0.387506 0.531488 0.500000
O O13 0.460197 0.588104 0.311790
O O14 0.430384 0.469180 0.269966
O O15 0.052469 0.847562 0.272193
O O16 0.012624 0.833754 0.000000
O O17 0.254109 0.745694 0.753984
O O18 0.290738 0.797398 0.000000
O O19 0.419351 0.422689 0.000000
O O20 0.245268 0.682993 0.500000
#
# Coordination Sequence:
#
# PCOD8235235 Si02
#       8
#     8   8   8   8   8   8   8   8
#     4   9  19  33  42  54  82 114 139 168 212 253
#     4  10  18  27  42  62  82 105 138 178 209 240
#     4   8  16  29  43  58  77 102 130 164 209 248
#     4  10  17  27  39  51  73 106 139 169 204 242
#     4  10  18  28  40  55  75 103 136 168 203 243
#     4  10  18  28  45  64  77  99 139 177 206 244
#     4  10  21  30  37  53  76 105 138 172 207 238
#     4   9  16  28  43  59  80 105 132 165 209 250
#
# _framework density 15.025822
#
# number of rings (size 3 to 8) (size 9 to 14) (size 15 to 20)
#    0.750    1.750    1.250    3.375    0.000    6.000 
#    0.000    0.000    0.000    0.000    0.000    0.000 
#    0.000    0.000    0.000    1.125    0.000   21.000 
#
# Total GULP energy -793022.343919 kJ/mol
# GULP energy per Si atom -12390.974124 kJ/mol
# Density = 1.499162 g / cm^3
# Si number density = 15.025822 Si / 1000 Ang^3
#
#
#
# Elastic Constant Matrix: (Units=GPa)
#
#
# Indices 1 2 3 4 5 6 
#
# 1 2.0590 -4.1512 -2.1437 0.0000 0.0000 0.0000
# 2 -4.1512 37.6401 19.9400 0.0000 0.0000 0.0000
# 3 -2.1437 19.9400 80.0803 0.0000 0.0000 0.0000
# 4 0.0000 0.0000 0.0000 22.9462 0.0000 0.0000
# 5 0.0000 0.0000 0.0000 0.0000 19.7641 0.0000
# 6 0.0000 0.0000 0.0000 0.0000 0.0000 15.6949
#
#
#
# Elastic Compliance Matrix: (Units=1/GPa)
#
#
# Indices 1 2 3 4 5 6 
#
# 1 0.624564 0.069144 -0.000498 0.000000 0.000000 0.000000
# 2 0.069144 0.038259 -0.007676 0.000000 0.000000 0.000000
# 3 -0.000498 -0.007676 0.014385 0.000000 0.000000 0.000000
# 4 0.000000 0.000000 0.000000 0.043580 0.000000 0.000000
# 5 0.000000 0.000000 0.000000 0.000000 0.050597 0.000000
# 6 0.000000 0.000000 0.000000 0.000000 0.000000 0.063715
#
#
# Mechanical properties :
#
#
# Convention : Reuss Voigt Hill
#
# Bulk Modulus (GPa) = 1.25133 16.34107 8.79620
# Shear Modulus (GPa) = 5.10442 18.75666 11.93054
#
# Velocity S-wave (km/s) = 1.84512 3.53696 2.82086
# Velocity P-wave (km/s) = 2.31817 5.25157 4.05912
#
# Compressibility (1/GPa) = 0.79915113
#
# Stress axis : x y z
#
# Youngs Moduli (GPa) = 1.60112 26.13748 69.51510
#
# Poissons Ratio (x) = -1.80726 0.03459
# Poissons Ratio (y) = -0.11071 0.53357
# Poissons Ratio (z) = 0.00080 0.20062
#
# Static dielectric constant tensor:
#      x y z
#    x 2.516900 0.000000 0.000000 
#    y 0.000000 2.720940 0.000000 
#    z 0.000000 0.000000 2.958300 
# 
# 
# High freq. dielectric constant tensor:
#      x y z
#    x 1.524410 0.000000 0.000000 
#    y 0.000000 1.550170 0.000000 
#    z 0.000000 0.000000 1.587940 
# 
# From -- ./inp_files/10177.got.cif
#   From: 2010.06.25/outbox.cif.g09.slc.cpg/sg58_6_cif.got.tgz:10177.got - 2010.06.26 21:38:00.
