data_PCOD8235785
_publ_section_title
;
Structure prediction by ZEFSAII (Michael W. Deem and Ramdas Pophale) SiO2 
 PCOD8235785
Probable space group: P N N M
;
_chemical_formula_sum "Si O2"
_cell_formula_units_Z 64
_cell_length_a 11.777904
_cell_length_b 15.049955
_cell_length_c 18.705036
_cell_angle_alpha 90.000000
_cell_angle_beta 90.000000
_cell_angle_gamma 90.000000
_cell_volume 3315.597167
_symmetry_space_group_name_H-M "P N N M"
_symmetry_group_IT_number 58
_symmetry_cell_setting 'orthorhombic'
loop_
_space_group_symop_operation_xyz
x,y,z
-x,-y,z
1/2+x,1/2-y,1/2-z
1/2-x,1/2+y,1/2-z
-x,-y,-z
x,y,-z
1/2-x,1/2+y,1/2+z
1/2+x,1/2-y,1/2+z
loop_
_atom_site_type_symbol
_atom_site_label
_atom_site_fract_x
_atom_site_fract_y
_atom_site_fract_z
Si Si1 0.832234 0.198752 0.193342
Si Si2 0.133679 0.488384 0.915476
Si Si3 0.878108 0.475894 0.322211
Si Si4 0.666606 0.141384 0.080516
Si Si5 0.237831 0.606085 0.801300
Si Si6 0.949844 0.290244 0.360122
Si Si7 0.237668 0.319985 0.838216
Si Si8 0.932657 0.800130 0.233673
O O1 0.770168 0.192816 0.117758
O O2 0.834367 0.304127 0.213121
O O3 0.765136 0.147102 0.256957
O O4 0.959839 0.159020 0.190579
O O5 0.209558 0.566856 0.879795
O O6 0.178993 0.394209 0.886483
O O7 0.000000 0.500000 0.897209
O O8 0.154257 0.493214 0.000000
O O9 0.842660 0.547134 0.380874
O O10 0.794346 0.470975 0.254967
O O11 0.880005 0.381415 0.361606
O O12 0.000000 0.500000 0.289454
O O13 0.551063 0.200424 0.081654
O O14 0.702902 0.123763 0.000000
O O15 0.370703 0.628349 0.786006
O O16 0.856799 0.212546 0.375035
O O17 0.015996 0.275918 0.285210
O O18 0.149924 0.238488 0.827502
#
# Coordination Sequence:
#
# PCOD8235785 Si02
#       8
#     8   8   8   8   8   8   8   8
#     4  10  20  37  62  91 117 153 207 253 305 357
#     4  11  25  39  56  89 129 168 203 245 309 376
#     4  10  20  34  62  90 114 149 201 254 295 343
#     4  11  23  38  59  91 127 160 196 247 311 374
#     4  11  19  35  64  87 115 153 202 260 294 353
#     4  10  19  37  61  93 117 151 201 252 306 353
#     4  10  19  38  65  87 119 154 207 259 297 355
#     4  10  18  35  63  92 111 149 201 256 303 344
#
# _framework density 19.302707999999999
#
# number of rings (size 3 to 8) (size 9 to 14) (size 15 to 20)
#    0.000    1.625    6.250    1.875    1.750    3.250 
#    0.000    6.250    0.000    4.500    0.000    0.000 
#    0.000    0.000    0.000    0.000    0.000    0.000 
#
# Total GULP energy -792923.761156 kJ/mol
# GULP energy per Si atom -12389.433768 kJ/mol
# Density = 1.925877 g / cm^3
# Si number density = 19.302708 Si / 1000 Ang^3
#
#
#
# Elastic Constant Matrix: (Units=GPa)
#
#
# Indices 1 2 3 4 5 6 
#
# 1 142.2785 49.7138 62.1634 0.0000 0.0000 0.0000
# 2 49.7138 80.7769 43.0365 0.0000 0.0000 0.0000
# 3 62.1634 43.0365 121.9991 0.0000 0.0000 0.0000
# 4 0.0000 0.0000 0.0000 17.8371 0.0000 0.0000
# 5 0.0000 0.0000 0.0000 0.0000 20.1937 0.0000
# 6 0.0000 0.0000 0.0000 0.0000 0.0000 30.4834
#
#
#
# Elastic Compliance Matrix: (Units=1/GPa)
#
#
# Indices 1 2 3 4 5 6 
#
# 1 0.010118 -0.004286 -0.003644 0.000000 0.000000 0.000000
# 2 -0.004286 0.017060 -0.003834 0.000000 0.000000 0.000000
# 3 -0.003644 -0.003834 0.011406 0.000000 0.000000 0.000000
# 4 0.000000 0.000000 0.000000 0.056063 0.000000 0.000000
# 5 0.000000 0.000000 0.000000 0.000000 0.049520 0.000000
# 6 0.000000 0.000000 0.000000 0.000000 0.000000 0.032805
#
#
# Mechanical properties :
#
#
# Convention : Reuss Voigt Hill
#
# Bulk Modulus (GPa) = 66.41618 72.76465 69.59041
# Shear Modulus (GPa) = 24.32866 26.37890 25.35378
#
# Velocity S-wave (km/s) = 3.55403 3.70075 3.62813
# Velocity P-wave (km/s) = 7.16407 7.48593 7.32677
#
# Compressibility (1/GPa) = 0.01505657
#
# Stress axis : x y z
#
# Youngs Moduli (GPa) = 98.83453 58.61536 87.67313
#
# Poissons Ratio (x) = 0.25121 0.31945
# Poissons Ratio (y) = 0.42358 0.33618
# Poissons Ratio (z) = 0.36012 0.22476
#
# Static dielectric constant tensor:
#      x y z
#    x 3.822040 0.000000 0.000000 
#    y 0.000000 3.442000 0.000000 
#    z 0.000000 0.000000 3.250250 
# 
# 
# High freq. dielectric constant tensor:
#      x y z
#    x 1.759630 0.000000 0.000000 
#    y 0.000000 1.738430 0.000000 
#    z 0.000000 0.000000 1.719610 
# 
# From -- ./inp_files/26347.got.cif
#   From: 2010.06.25/outbox.cif.g09.slc.cpg/sg58_14_cif.got.tgz:26347.got - 2010.06.26 21:38:00.
