data_PCOD8235450
_publ_section_title
;
Structure prediction by ZEFSAII (Michael W. Deem and Ramdas Pophale) SiO2 
 PCOD8235450
Probable space group: P N N M
;
_chemical_formula_sum "Si O2"
_cell_formula_units_Z 64
_cell_length_a 23.298751
_cell_length_b 14.270041
_cell_length_c 9.393660
_cell_angle_alpha 90.000000
_cell_angle_beta 90.000000
_cell_angle_gamma 90.000000
_cell_volume 3123.148955
_symmetry_space_group_name_H-M "P N N M"
_symmetry_group_IT_number 58
_symmetry_cell_setting 'orthorhombic'
loop_
_space_group_symop_operation_xyz
x,y,z
-x,-y,z
1/2+x,1/2-y,1/2-z
1/2-x,1/2+y,1/2-z
-x,-y,-z
x,y,-z
1/2-x,1/2+y,1/2+z
1/2+x,1/2-y,1/2+z
loop_
_atom_site_type_symbol
_atom_site_label
_atom_site_fract_x
_atom_site_fract_y
_atom_site_fract_z
Si Si1 0.676697 0.456459 0.836876
Si Si2 0.588119 0.153650 0.835321
Si Si3 0.961731 0.355146 0.341553
Si Si4 0.323483 0.367074 0.336457
Si Si5 0.853777 0.477595 0.338540
Si Si6 0.546675 0.675072 0.664653
Si Si7 0.563018 0.358495 0.168849
Si Si8 0.780733 0.333057 0.163857
O O1 0.702118 0.543102 0.746045
O O2 0.611127 0.434760 0.791653
O O3 0.713970 0.361017 0.816033
O O4 0.679342 0.488479 0.000000
O O5 0.525590 0.107811 0.808367
O O6 0.587309 0.258756 0.772362
O O7 0.638075 0.083855 0.775254
O O8 0.602823 0.161225 0.000000
O O9 0.961289 0.308106 0.500000
O O10 0.918537 0.440426 0.336791
O O11 0.944009 0.278636 0.225257
O O12 0.304993 0.376597 0.500000
O O13 0.391913 0.374114 0.316749
O O14 0.295996 0.270132 0.273769
O O15 0.829262 0.476723 0.500000
O O16 0.814488 0.415571 0.240237
O O17 0.528510 0.679894 0.500000
O O18 0.496965 0.618955 0.751078
O O19 0.551237 0.355637 0.000000
O O20 0.799910 0.333634 0.000000
#
# Coordination Sequence:
#
# PCOD8235450 Si02
#       8
#     8   8   8   8   8   8   8   8
#     4  10  23  41  62  84 109 146 193 235 279 330
#     4   8  15  28  49  78 111 144 182 226 274 324
#     4   9  16  28  48  77 113 150 188 230 272 322
#     4  10  22  40  62  85 114 148 183 226 284 342
#     4  10  18  29  52  83 110 146 193 235 272 322
#     4  10  19  33  56  85 114 150 187 226 284 346
#     4   9  19  37  57  81 113 150 189 237 284 331
#     4  10  22  41  59  81 115 151 185 232 286 340
#
# _framework density 20.492137
#
# number of rings (size 3 to 8) (size 9 to 14) (size 15 to 20)
#    0.000    2.500    1.250    1.500    0.000    5.500 
#    0.000    7.500    0.000    3.750    0.000    0.000 
#    0.000    0.000    0.000    0.000    0.000    0.000 
#
# Total GULP energy -793015.028696 kJ/mol
# GULP energy per Si atom -12390.859823 kJ/mol
# Density = 2.044550 g / cm^3
# Si number density = 20.492137 Si / 1000 Ang^3
#
#
#
# Elastic Constant Matrix: (Units=GPa)
#
#
# Indices 1 2 3 4 5 6 
#
# 1 54.9667 28.2033 27.1204 0.0000 0.0000 0.0000
# 2 28.2033 79.8182 32.7276 0.0000 0.0000 0.0000
# 3 27.1204 32.7276 62.2843 0.0000 0.0000 0.0000
# 4 0.0000 0.0000 0.0000 24.2153 0.0000 0.0000
# 5 0.0000 0.0000 0.0000 0.0000 19.4484 0.0000
# 6 0.0000 0.0000 0.0000 0.0000 0.0000 27.3747
#
#
#
# Elastic Compliance Matrix: (Units=1/GPa)
#
#
# Indices 1 2 3 4 5 6 
#
# 1 0.024969 -0.005563 -0.007949 0.000000 0.000000 0.000000
# 2 -0.005563 0.017209 -0.006620 0.000000 0.000000 0.000000
# 3 -0.007949 -0.006620 0.022995 0.000000 0.000000 0.000000
# 4 0.000000 0.000000 0.000000 0.041296 0.000000 0.000000
# 5 0.000000 0.000000 0.000000 0.000000 0.051418 0.000000
# 6 0.000000 0.000000 0.000000 0.000000 0.000000 0.036530
#
#
# Mechanical properties :
#
#
# Convention : Reuss Voigt Hill
#
# Bulk Modulus (GPa) = 40.14714 41.46353 40.80534
# Shear Modulus (GPa) = 20.57737 21.47553 21.02645
#
# Velocity S-wave (km/s) = 3.17229 3.24078 3.20671
# Velocity P-wave (km/s) = 5.74908 5.85503 5.80229
#
# Compressibility (1/GPa) = 0.02490837
#
# Stress axis : x y z
#
# Youngs Moduli (GPa) = 40.04888 58.11040 43.48751
#
# Poissons Ratio (x) = 0.32330 0.34569
# Poissons Ratio (y) = 0.22281 0.28788
# Poissons Ratio (z) = 0.31835 0.38468
#
# Static dielectric constant tensor:
#      x y z
#    x 3.801640 0.000000 0.000000 
#    y 0.000000 3.721140 0.000000 
#    z 0.000000 0.000000 3.470900 
# 
# 
# High freq. dielectric constant tensor:
#      x y z
#    x 1.800000 0.000000 0.000000 
#    y 0.000000 1.801300 0.000000 
#    z 0.000000 0.000000 1.768310 
# 
# From -- ./inp_files/9953.got.cif
#   From: 2010.06.25/outbox.cif.g09.slc.cpg/sg58_5_cif.got.tgz:9953.got - 2010.06.26 21:38:00.
