data_PCOD8235281
_publ_section_title
;
Structure prediction by ZEFSAII (Michael W. Deem and Ramdas Pophale) SiO2 
 PCOD8235281
Probable space group: P N N M
;
_chemical_formula_sum "Si O2"
_cell_formula_units_Z 48
_cell_length_a 4.885987
_cell_length_b 19.728207
_cell_length_c 27.816850
_cell_angle_alpha 90.000000
_cell_angle_beta 90.000000
_cell_angle_gamma 90.000000
_cell_volume 2681.315211
_symmetry_space_group_name_H-M "P N N M"
_symmetry_group_IT_number 58
_symmetry_cell_setting 'orthorhombic'
loop_
_space_group_symop_operation_xyz
x,y,z
-x,-y,z
1/2+x,1/2-y,1/2-z
1/2-x,1/2+y,1/2-z
-x,-y,-z
x,y,-z
1/2-x,1/2+y,1/2+z
1/2+x,1/2-y,1/2+z
loop_
_atom_site_type_symbol
_atom_site_label
_atom_site_fract_x
_atom_site_fract_y
_atom_site_fract_z
Si Si1 0.101802 0.354749 0.102524
Si Si2 0.375789 0.341202 0.748746
Si Si3 0.403841 0.740001 0.897867
Si Si4 0.250039 0.956394 0.316768
Si Si5 0.382367 0.205206 0.804843
Si Si6 0.480674 0.149005 0.500000
Si Si7 0.512814 0.737657 0.000000
O O1 0.405612 0.325859 0.101411
O O2 0.093996 0.411577 0.143227
O O3 0.039940 0.389782 0.050330
O O4 0.897181 0.290872 0.113740
O O5 0.401679 0.413096 0.775059
O O6 0.407257 0.283433 0.789060
O O7 0.584558 0.327430 0.704450
O O8 0.074175 0.341302 0.727392
O O9 0.512289 0.795804 0.859786
O O10 0.425601 0.776559 0.950601
O O11 0.500000 0.000000 0.294586
O O12 0.000000 0.000000 0.339308
O O13 0.666094 0.218294 0.500000
O O14 0.162127 0.167902 0.500000
#
# Coordination Sequence:
#
# PCOD8235281 Si02
#       7
#     8   8   8   8   8   4   4
#     4  10  19  32  49  68  94 124 172 204 249 290
#     4  10  21  33  47  72  94 121 163 203 251 288
#     4  10  17  30  51  73  98 126 155 201 243 302
#     4  12  24  36  50  67  96 135 170 211 251 291
#     4  10  19  31  53  71  95 121 153 208 248 287
#     4   8  16  30  46  65  90 124 158 215 244 281
#     4   8  16  26  44  73  98 124 152 181 252 303
#
# _framework density 17.901664
#
# number of rings (size 3 to 8) (size 9 to 14) (size 15 to 20)
#    0.000    2.000    1.667    3.000    4.667    0.000 
#    0.000    0.833    0.000    0.000    0.000    0.000 
#    0.000    0.000    0.000   15.000    0.000    0.000 
#
# Total GULP energy -594684.755763 kJ/mol
# GULP energy per Si atom -12389.265745 kJ/mol
# Density = 1.786092 g / cm^3
# Si number density = 17.901664 Si / 1000 Ang^3
#
#
#
# Elastic Constant Matrix: (Units=GPa)
#
#
# Indices 1 2 3 4 5 6 
#
# 1 73.6536 12.2964 10.0924 0.0000 0.0000 0.0000
# 2 12.2964 34.1161 34.5493 0.0000 0.0000 0.0000
# 3 10.0924 34.5493 117.0477 0.0000 0.0000 0.0000
# 4 0.0000 0.0000 0.0000 11.1388 0.0000 0.0000
# 5 0.0000 0.0000 0.0000 0.0000 7.0525 0.0000
# 6 0.0000 0.0000 0.0000 0.0000 0.0000 11.8751
#
#
#
# Elastic Compliance Matrix: (Units=1/GPa)
#
#
# Indices 1 2 3 4 5 6 
#
# 1 0.014461 -0.005633 0.000416 0.000000 0.000000 0.000000
# 2 -0.005633 0.044004 -0.012503 0.000000 0.000000 0.000000
# 3 0.000416 -0.012503 0.012198 0.000000 0.000000 0.000000
# 4 0.000000 0.000000 0.000000 0.089776 0.000000 0.000000
# 5 0.000000 0.000000 0.000000 0.000000 0.141793 0.000000
# 6 0.000000 0.000000 0.000000 0.000000 0.000000 0.084210
#
#
# Mechanical properties :
#
#
# Convention : Reuss Voigt Hill
#
# Bulk Modulus (GPa) = 28.39137 37.63262 33.01200
# Shear Modulus (GPa) = 11.53075 17.20524 14.36799
#
# Velocity S-wave (km/s) = 2.54070 3.10352 2.83610
# Velocity P-wave (km/s) = 4.94984 5.82322 5.40420
#
# Compressibility (1/GPa) = 0.03522197
#
# Stress axis : x y z
#
# Youngs Moduli (GPa) = 69.15378 22.72538 81.97936
#
# Poissons Ratio (x) = 0.12802 -0.03409
# Poissons Ratio (y) = 0.38955 1.02498
# Poissons Ratio (z) = -0.02876 0.28413
#
# Static dielectric constant tensor:
#      x y z
#    x 3.484250 0.000000 0.000000 
#    y 0.000000 2.717620 0.000000 
#    z 0.000000 0.000000 3.644800 
# 
# 
# High freq. dielectric constant tensor:
#      x y z
#    x 1.722230 0.000000 0.000000 
#    y 0.000000 1.606380 0.000000 
#    z 0.000000 0.000000 1.700610 
# 
# From -- ./inp_files/32837.got.cif
#   From: 2010.06.25/outbox.cif.g09.slc.cpg/sg58_17_cif.got.tgz:32837.got - 2010.06.26 21:38:00.
