data_PCOD8235975
_publ_section_title
;
Structure prediction by ZEFSAII (Michael W. Deem and Ramdas Pophale) SiO2 
 PCOD8235975
Probable space group: P N N M
;
_chemical_formula_sum "Si O2"
_cell_formula_units_Z 36
_cell_length_a 15.874461
_cell_length_b 5.177266
_cell_length_c 24.231959
_cell_angle_alpha 90.000000
_cell_angle_beta 90.000000
_cell_angle_gamma 90.000000
_cell_volume 1991.535227
_symmetry_space_group_name_H-M "P N N M"
_symmetry_group_IT_number 58
_symmetry_cell_setting 'orthorhombic'
loop_
_space_group_symop_operation_xyz
x,y,z
-x,-y,z
1/2+x,1/2-y,1/2-z
1/2-x,1/2+y,1/2-z
-x,-y,-z
x,y,-z
1/2-x,1/2+y,1/2+z
1/2+x,1/2-y,1/2+z
loop_
_atom_site_type_symbol
_atom_site_label
_atom_site_fract_x
_atom_site_fract_y
_atom_site_fract_z
Si Si1 0.500000 0.500000 0.606305
Si Si2 0.776688 0.477398 0.127596
Si Si3 0.427014 0.158808 0.301916
Si Si4 0.319848 0.533781 0.563027
Si Si5 0.797894 0.077674 0.732368
O O1 0.524294 0.736201 0.644829
O O2 0.420534 0.566630 0.567643
O O3 0.851475 0.515258 0.173053
O O4 0.782460 0.197389 0.099746
O O5 0.693724 0.501574 0.167006
O O6 0.777094 0.699255 0.081837
O O7 0.389609 0.375556 0.260429
O O8 0.500000 0.000000 0.269399
O O9 0.295213 0.481660 0.500000
O O10 0.746480 0.346910 0.734593
#
# Coordination Sequence:
#
# PCOD8235975 Si02
#       5
#     4   8   8   8   8
#     4  10  19  32  44  72 104 134 163 204 240 296
#     4  10  20  35  47  70  99 131 170 210 242 292
#     4  10  19  31  50  72 103 133 167 201 251 304
#     4  11  21  33  50  68  97 135 176 209 241 278
#     4  10  20  33  51  71  97 136 168 202 254 304
#
# _framework density 18.076506999999999
#
# number of rings (size 3 to 8) (size 9 to 14) (size 15 to 20)
#    0.000    1.778    2.222    5.000    3.111    0.000 
#    0.000    3.333    0.000    0.000    0.000    0.000 
#    0.000    5.333    0.000    0.000    0.000    0.000 
#
# Total GULP energy -446080.328598 kJ/mol
# GULP energy per Si atom -12391.120239 kJ/mol
# Density = 1.803536 g / cm^3
# Si number density = 18.076507 Si / 1000 Ang^3
#
#
#
# Elastic Constant Matrix: (Units=GPa)
#
#
# Indices 1 2 3 4 5 6 
#
# 1 23.6784 17.0244 27.4336 0.0000 0.0000 0.0000
# 2 17.0244 96.3295 25.7998 0.0000 0.0000 0.0000
# 3 27.4336 25.7998 106.4989 0.0000 0.0000 0.0000
# 4 0.0000 0.0000 0.0000 24.4928 0.0000 0.0000
# 5 0.0000 0.0000 0.0000 0.0000 21.6459 0.0000
# 6 0.0000 0.0000 0.0000 0.0000 0.0000 24.9417
#
#
#
# Elastic Compliance Matrix: (Units=1/GPa)
#
#
# Indices 1 2 3 4 5 6 
#
# 1 0.064868 -0.007474 -0.014899 0.000000 0.000000 0.000000
# 2 -0.007474 0.011962 -0.000973 0.000000 0.000000 0.000000
# 3 -0.014899 -0.000973 0.013463 0.000000 0.000000 0.000000
# 4 0.000000 0.000000 0.000000 0.040828 0.000000 0.000000
# 5 0.000000 0.000000 0.000000 0.000000 0.046198 0.000000
# 6 0.000000 0.000000 0.000000 0.000000 0.000000 0.040093
#
#
# Mechanical properties :
#
#
# Convention : Reuss Voigt Hill
#
# Bulk Modulus (GPa) = 22.93445 40.78026 31.85735
# Shear Modulus (GPa) = 17.94436 24.63270 21.28853
#
# Velocity S-wave (km/s) = 3.15412 3.69547 3.43547
# Velocity P-wave (km/s) = 5.09702 6.38885 5.77914
#
# Compressibility (1/GPa) = 0.04360253
#
# Stress axis : x y z
#
# Youngs Moduli (GPa) = 15.41591 83.59521 74.27567
#
# Poissons Ratio (x) = 0.62477 1.10664
# Poissons Ratio (y) = 0.11521 0.07225
# Poissons Ratio (z) = 0.22968 0.08132
#
# Static dielectric constant tensor:
#      x y z
#    x 3.567070 0.000000 0.000000 
#    y 0.000000 3.386580 0.000000 
#    z 0.000000 0.000000 3.322430 
# 
# 
# High freq. dielectric constant tensor:
#      x y z
#    x 1.650300 0.000000 0.000000 
#    y 0.000000 1.718140 0.000000 
#    z 0.000000 0.000000 1.686270 
# 
# From -- ./inp_files/30168.got.cif
#   From: 2010.06.25/outbox.cif.g09.slc.cpg/sg58_16_cif.got.tgz:30168.got - 2010.06.26 21:38:00.
