data_PCOD8235770
_publ_section_title
;
Structure prediction by ZEFSAII (Michael W. Deem and Ramdas Pophale) SiO2 
 PCOD8235770
Probable space group: P N N M
;
_chemical_formula_sum "Si O2"
_cell_formula_units_Z 64
_cell_length_a 18.493237
_cell_length_b 8.846058
_cell_length_c 21.993988
_cell_angle_alpha 90.000000
_cell_angle_beta 90.000000
_cell_angle_gamma 90.000000
_cell_volume 3598.045920
_symmetry_space_group_name_H-M "P N N M"
_symmetry_group_IT_number 58
_symmetry_cell_setting 'orthorhombic'
loop_
_space_group_symop_operation_xyz
x,y,z
-x,-y,z
1/2+x,1/2-y,1/2-z
1/2-x,1/2+y,1/2-z
-x,-y,-z
x,y,-z
1/2-x,1/2+y,1/2+z
1/2+x,1/2-y,1/2+z
loop_
_atom_site_type_symbol
_atom_site_label
_atom_site_fract_x
_atom_site_fract_y
_atom_site_fract_z
Si Si1 0.414845 0.823707 0.792914
Si Si2 0.166140 0.776944 0.930983
Si Si3 0.140479 0.291897 0.837061
Si Si4 0.774659 0.804128 0.673126
Si Si5 0.215370 0.846771 0.290898
Si Si6 0.925659 0.324961 0.721052
Si Si7 0.428063 0.090438 0.354900
Si Si8 0.577134 0.434398 0.430481
O O1 0.397191 0.752405 0.726934
O O2 0.357202 0.751016 0.839430
O O3 0.497527 0.781935 0.810042
O O4 0.404146 0.003763 0.793783
O O5 0.232060 0.719551 0.889645
O O6 0.091483 0.693881 0.912156
O O7 0.145201 0.952321 0.923902
O O8 0.186543 0.736633 0.000000
O O9 0.226668 0.258285 0.833933
O O10 0.136884 0.471942 0.846925
O O11 0.097648 0.208738 0.890055
O O12 0.735228 0.693824 0.721382
O O13 0.778045 0.974629 0.698146
O O14 0.134642 0.788378 0.305377
O O15 0.934893 0.308682 0.793955
O O16 0.500000 0.000000 0.369045
O O17 0.500000 0.500000 0.407894
O O18 0.569019 0.380628 0.500000
#
# Coordination Sequence:
#
# PCOD8235770 Si02
#       8
#     8   8   8   8   8   8   8   8
#     4   9  20  33  55  83 112 142 176 219 291 334
#     4  11  24  39  55  76 110 158 195 228 270 321
#     4  10  19  33  51  79 104 144 181 220 276 314
#     4  11  22  37  54  83 111 145 188 232 280 337
#     4  11  21  33  54  81 111 144 178 230 290 329
#     4  10  18  35  54  84 114 142 174 224 284 347
#     4  11  18  34  55  75 113 146 184 224 261 322
#     4  10  23  38  51  75 109 149 193 227 261 312
#
# _framework density 17.787431999999999
#
# number of rings (size 3 to 8) (size 9 to 14) (size 15 to 20)
#    0.000    1.625    5.000    2.250    5.250    1.250 
#    0.000    0.000    0.000    0.000    0.000    4.375 
#    0.000    0.000    0.000    0.000    0.000    0.000 
#
# Total GULP energy -793173.957207 kJ/mol
# GULP energy per Si atom -12393.343081 kJ/mol
# Density = 1.774695 g / cm^3
# Si number density = 17.787432 Si / 1000 Ang^3
#
#
#
# Elastic Constant Matrix: (Units=GPa)
#
#
# Indices 1 2 3 4 5 6 
#
# 1 137.8584 40.7913 32.0752 0.0000 0.0000 0.0000
# 2 40.7913 53.4415 24.6022 0.0000 0.0000 0.0000
# 3 32.0752 24.6022 59.3844 0.0000 0.0000 0.0000
# 4 0.0000 0.0000 0.0000 19.2690 0.0000 0.0000
# 5 0.0000 0.0000 0.0000 0.0000 24.9625 0.0000
# 6 0.0000 0.0000 0.0000 0.0000 0.0000 32.2495
#
#
#
# Elastic Compliance Matrix: (Units=1/GPa)
#
#
# Indices 1 2 3 4 5 6 
#
# 1 0.009705 -0.006171 -0.002685 0.000000 0.000000 0.000000
# 2 -0.006171 0.027046 -0.007872 0.000000 0.000000 0.000000
# 3 -0.002685 -0.007872 0.021551 0.000000 0.000000 0.000000
# 4 0.000000 0.000000 0.000000 0.051897 0.000000 0.000000
# 5 0.000000 0.000000 0.000000 0.000000 0.040060 0.000000
# 6 0.000000 0.000000 0.000000 0.000000 0.000000 0.031008
#
#
# Mechanical properties :
#
#
# Convention : Reuss Voigt Hill
#
# Bulk Modulus (GPa) = 40.24835 49.51354 44.88094
# Shear Modulus (GPa) = 22.42105 25.51058 23.96581
#
# Velocity S-wave (km/s) = 3.55420 3.79118 3.67460
# Velocity P-wave (km/s) = 6.28647 6.86008 6.57953
#
# Compressibility (1/GPa) = 0.02484574
#
# Stress axis : x y z
#
# Youngs Moduli (GPa) = 103.04404 36.97360 46.40195
#
# Poissons Ratio (x) = 0.22818 0.12459
# Poissons Ratio (y) = 0.63592 0.36526
# Poissons Ratio (z) = 0.27667 0.29104
#
# Static dielectric constant tensor:
#      x y z
#    x 3.639610 0.000000 0.000000 
#    y 0.000000 3.274500 0.000000 
#    z 0.000000 0.000000 2.957550 
# 
# 
# High freq. dielectric constant tensor:
#      x y z
#    x 1.702680 0.000000 0.000000 
#    y 0.000000 1.687530 0.000000 
#    z 0.000000 0.000000 1.636200 
# 
# From -- ./inp_files/32351.got.cif
#   From: 2010.06.25/outbox.cif.g09.slc.cpg/sg58_17_cif.got.tgz:32351.got - 2010.06.26 21:38:00.
