data_PCOD8235315
_publ_section_title
;
Structure prediction by ZEFSAII (Michael W. Deem and Ramdas Pophale) SiO2 
 PCOD8235315
Probable space group: P N N M
;
_chemical_formula_sum "Si O2"
_cell_formula_units_Z 48
_cell_length_a 9.369265
_cell_length_b 17.140509
_cell_length_c 16.272328
_cell_angle_alpha 90.000000
_cell_angle_beta 90.000000
_cell_angle_gamma 90.000000
_cell_volume 2613.237772
_symmetry_space_group_name_H-M "P N N M"
_symmetry_group_IT_number 58
_symmetry_cell_setting 'orthorhombic'
loop_
_space_group_symop_operation_xyz
x,y,z
-x,-y,z
1/2+x,1/2-y,1/2-z
1/2-x,1/2+y,1/2-z
-x,-y,-z
x,y,-z
1/2-x,1/2+y,1/2+z
1/2+x,1/2-y,1/2+z
loop_
_atom_site_type_symbol
_atom_site_label
_atom_site_fract_x
_atom_site_fract_y
_atom_site_fract_z
Si Si1 0.333475 0.989587 0.676378
Si Si2 0.212193 0.340539 0.263160
Si Si3 0.355706 0.547207 0.677016
Si Si4 0.399722 0.571694 0.093117
Si Si5 0.535571 0.313268 0.240653
Si Si6 0.354376 0.957912 0.092411
O O1 0.304324 0.896569 0.683419
O O2 0.500000 0.000000 0.668819
O O3 0.267645 0.027836 0.757607
O O4 0.259167 0.034492 0.600328
O O5 0.369121 0.304112 0.259929
O O6 0.096783 0.272750 0.259348
O O7 0.183587 0.386253 0.348110
O O8 0.500000 0.500000 0.696072
O O9 0.392625 0.638552 0.683749
O O10 0.278771 0.520464 0.592761
O O11 0.500000 0.500000 0.118364
O O12 0.431224 0.643183 0.154413
O O13 0.424182 0.600942 0.000000
O O14 0.500000 0.000000 0.120833
O O15 0.370065 0.925531 0.000000
#
# Coordination Sequence:
#
# PCOD8235315 Si02
#       6
#     8   8   8   8   8   8
#     4  10  19  34  58  85 112 143 191 239 274 326
#     4  11  22  36  56  85 116 148 185 235 279 340
#     4  10  17  36  58  81 108 145 198 235 270 327
#     4  10  20  39  62  80 108 150 194 236 278 332
#     4  11  22  35  57  86 114 146 190 232 288 339
#     4  10  22  39  60  85 115 151 191 237 287 336
#
# _framework density 18.368019
#
# number of rings (size 3 to 8) (size 9 to 14) (size 15 to 20)
#    0.000    1.667    5.000    3.000    7.000    1.333 
#    0.000    0.000    0.000    2.000    0.000    0.000 
#    0.000    0.000    0.000    0.000    0.000    0.000 
#
# Total GULP energy -594762.389823 kJ/mol
# GULP energy per Si atom -12390.883121 kJ/mol
# Density = 1.832621 g / cm^3
# Si number density = 18.368019 Si / 1000 Ang^3
#
#
#
# Elastic Constant Matrix: (Units=GPa)
#
#
# Indices 1 2 3 4 5 6 
#
# 1 144.3438 33.7544 24.5517 0.0000 0.0000 0.0000
# 2 33.7544 90.6311 29.8637 0.0000 0.0000 0.0000
# 3 24.5517 29.8637 59.4312 0.0000 0.0000 0.0000
# 4 0.0000 0.0000 0.0000 15.3942 0.0000 0.0000
# 5 0.0000 0.0000 0.0000 0.0000 15.8231 0.0000
# 6 0.0000 0.0000 0.0000 0.0000 0.0000 38.9882
#
#
#
# Elastic Compliance Matrix: (Units=1/GPa)
#
#
# Indices 1 2 3 4 5 6 
#
# 1 0.007804 -0.002210 -0.002113 0.000000 0.000000 0.000000
# 2 -0.002210 0.013849 -0.006046 0.000000 0.000000 0.000000
# 3 -0.002113 -0.006046 0.020737 0.000000 0.000000 0.000000
# 4 0.000000 0.000000 0.000000 0.064960 0.000000 0.000000
# 5 0.000000 0.000000 0.000000 0.000000 0.063199 0.000000
# 6 0.000000 0.000000 0.000000 0.000000 0.000000 0.025649
#
#
# Mechanical properties :
#
#
# Convention : Reuss Voigt Hill
#
# Bulk Modulus (GPa) = 46.18635 52.30509 49.24572
# Shear Modulus (GPa) = 22.30608 27.79018 25.04813
#
# Velocity S-wave (km/s) = 3.48860 3.89391 3.69681
# Velocity P-wave (km/s) = 6.43636 6.98245 6.71496
#
# Compressibility (1/GPa) = 0.02165142
#
# Stress axis : x y z
#
# Youngs Moduli (GPa) = 128.13566 72.20673 48.22226
#
# Poissons Ratio (x) = 0.15959 0.10191
# Poissons Ratio (y) = 0.28321 0.29155
# Poissons Ratio (z) = 0.27080 0.43656
#
# Static dielectric constant tensor:
#      x y z
#    x 3.678720 0.000000 0.000000 
#    y 0.000000 3.367510 0.000000 
#    z 0.000000 0.000000 3.332060 
# 
# 
# High freq. dielectric constant tensor:
#      x y z
#    x 1.734940 0.000000 0.000000 
#    y 0.000000 1.697910 0.000000 
#    z 0.000000 0.000000 1.686050 
# 
# From -- ./inp_files/25416.got.cif
#   From: 2010.06.25/outbox.cif.g09.slc.cpg/sg58_13_cif.got.tgz:25416.got - 2010.06.26 21:38:00.
