data_PCOD8235396
_publ_section_title
;
Structure prediction by ZEFSAII (Michael W. Deem and Ramdas Pophale) SiO2 
 PCOD8235396
Probable space group: P N N M
;
_chemical_formula_sum "Si O2"
_cell_formula_units_Z 56
_cell_length_a 13.454207
_cell_length_b 24.369819
_cell_length_c 9.265072
_cell_angle_alpha 90.000000
_cell_angle_beta 90.000000
_cell_angle_gamma 90.000000
_cell_volume 3037.800208
_symmetry_space_group_name_H-M "P N N M"
_symmetry_group_IT_number 58
_symmetry_cell_setting 'orthorhombic'
loop_
_space_group_symop_operation_xyz
x,y,z
-x,-y,z
1/2+x,1/2-y,1/2-z
1/2-x,1/2+y,1/2-z
-x,-y,-z
x,y,-z
1/2-x,1/2+y,1/2+z
1/2+x,1/2-y,1/2+z
loop_
_atom_site_type_symbol
_atom_site_label
_atom_site_fract_x
_atom_site_fract_y
_atom_site_fract_z
Si Si1 0.452054 0.165970 0.670234
Si Si2 0.251561 0.169268 0.833862
Si Si3 0.638554 0.441229 0.334001
Si Si4 0.949531 0.119515 0.171231
Si Si5 0.554841 0.274309 0.671201
Si Si6 0.234838 0.948823 0.171454
Si Si7 0.557839 0.054941 0.329842
O O1 0.438518 0.168214 0.500000
O O2 0.347182 0.179926 0.738850
O O3 0.527663 0.213382 0.724682
O O4 0.491950 0.106810 0.719537
O O5 0.218396 0.106705 0.813411
O O6 0.165164 0.209819 0.775145
O O7 0.277064 0.181523 0.000000
O O8 0.620526 0.455328 0.500000
O O9 0.532339 0.423209 0.265661
O O10 0.684037 0.496122 0.263778
O O11 0.838455 0.101416 0.214702
O O12 0.974264 0.180789 0.229487
O O13 0.962306 0.118650 0.000000
O O14 0.554881 0.277723 0.500000
O O15 0.338755 0.939821 0.248480
O O16 0.252894 0.952013 0.000000
O O17 0.578482 0.055505 0.500000
O O18 0.500000 0.000000 0.282530
#
# Coordination Sequence:
#
# PCOD8235396 Si02
#       7
#     8   8   8   8   8   8   8
#     4  10  20  34  51  68  90 124 160 190 227 277
#     4   9  17  31  51  71  92 121 156 192 227 267
#     4   8  14  26  46  72  99 124 150 182 226 278
#     4   8  14  26  46  73 100 121 146 185 232 279
#     4   8  16  31  49  70  96 124 152 185 231 282
#     4  10  18  28  49  77  97 117 150 193 233 268
#     4  10  22  37  48  62  91 129 161 189 229 279
#
# _framework density 18.434391999999999
#
# number of rings (size 3 to 8) (size 9 to 14) (size 15 to 20)
#    0.000    3.000    0.000    3.000    0.000    3.714 
#    0.000    0.714    0.000    5.143    0.000    0.000 
#    0.000    0.000    0.000    0.000    0.000    0.000 
#
# Total GULP energy -694066.130841 kJ/mol
# GULP energy per Si atom -12394.038051 kJ/mol
# Density = 1.839243 g / cm^3
# Si number density = 18.434392 Si / 1000 Ang^3
#
#
#
# Elastic Constant Matrix: (Units=GPa)
#
#
# Indices 1 2 3 4 5 6 
#
# 1 150.5310 79.0894 34.3637 0.0000 0.0000 0.0000
# 2 79.0894 143.3673 24.7750 0.0000 0.0000 0.0000
# 3 34.3637 24.7750 19.0877 0.0000 0.0000 0.0000
# 4 0.0000 0.0000 0.0000 9.2308 0.0000 0.0000
# 5 0.0000 0.0000 0.0000 0.0000 25.0805 0.0000
# 6 0.0000 0.0000 0.0000 0.0000 0.0000 21.7505
#
#
#
# Elastic Compliance Matrix: (Units=1/GPa)
#
#
# Indices 1 2 3 4 5 6 
#
# 1 0.012825 -0.003977 -0.017927 0.000000 0.000000 0.000000
# 2 -0.003977 0.010225 -0.006112 0.000000 0.000000 0.000000
# 3 -0.017927 -0.006112 0.092597 0.000000 0.000000 0.000000
# 4 0.000000 0.000000 0.000000 0.108333 0.000000 0.000000
# 5 0.000000 0.000000 0.000000 0.000000 0.039872 0.000000
# 6 0.000000 0.000000 0.000000 0.000000 0.000000 0.045976
#
#
# Mechanical properties :
#
#
# Convention : Reuss Voigt Hill
#
# Bulk Modulus (GPa) = 16.77419 65.49359 41.13389
# Shear Modulus (GPa) = 12.96233 22.86287 17.91260
#
# Velocity S-wave (km/s) = 2.65459 3.52551 3.12058
# Velocity P-wave (km/s) = 4.30290 7.22339 5.94526
#
# Compressibility (1/GPa) = 0.05961541
#
# Stress axis : x y z
#
# Youngs Moduli (GPa) = 77.97122 97.79667 10.79943
#
# Poissons Ratio (x) = 0.38895 0.19360
# Poissons Ratio (y) = 0.31010 0.06601
# Poissons Ratio (z) = 1.39781 0.59772
#
# Static dielectric constant tensor:
#      x y z
#    x 3.409280 0.000000 0.000000 
#    y 0.000000 3.835480 0.000000 
#    z 0.000000 0.000000 2.857760 
# 
# 
# High freq. dielectric constant tensor:
#      x y z
#    x 1.721300 0.000000 0.000000 
#    y 0.000000 1.725470 0.000000 
#    z 0.000000 0.000000 1.656810 
# 
# From -- ./inp_files/14723.got.cif
#   From: 2010.06.25/outbox.cif.g09.slc.cpg/sg58_8_cif.got.tgz:14723.got - 2010.06.26 21:38:00.
