data_PCOD8235005
_publ_section_title
;
Structure prediction by ZEFSAII (Michael W. Deem and Ramdas Pophale) SiO2 
 PCOD8235005
Probable space group: P B C M
;
_chemical_formula_sum "Si O2"
_cell_formula_units_Z 32
_cell_length_a 9.397977
_cell_length_b 9.880620
_cell_length_c 16.330575
_cell_angle_alpha 90.000000
_cell_angle_beta 90.000000
_cell_angle_gamma 90.000000
_cell_volume 1516.421912
_symmetry_space_group_name_H-M "P B C M"
_symmetry_group_IT_number 57
_symmetry_cell_setting 'orthorhombic'
loop_
_space_group_symop_operation_xyz
x,y,z
-x,-y,1/2+z
x,1/2-y,-z
-x,1/2+y,1/2-z
-x,-y,-z
x,y,1/2-z
-x,1/2+y,z
x,1/2-y,1/2+z
loop_
_atom_site_type_symbol
_atom_site_label
_atom_site_fract_x
_atom_site_fract_y
_atom_site_fract_z
Si Si1 0.557001 0.740918 0.094570
Si Si2 0.354122 0.538397 0.844427
Si Si3 0.139386 0.207608 0.656223
Si Si4 0.051416 0.015296 0.407869
O O1 0.440494 0.823797 0.145365
O O2 0.548919 0.586758 0.125596
O O3 0.713010 0.804393 0.107492
O O4 0.515998 0.750000 0.000000
O O5 0.311637 0.518729 0.750000
O O6 0.210853 0.541970 0.898151
O O7 0.174607 0.241040 0.750000
O O8 0.044198 0.327918 0.618127
O O9 0.054793 0.067965 0.650048
O O10 0.000000 0.000000 0.500000
#
# Coordination Sequence:
#
# PCOD8235005 Si02
#       4
#     8   8   8   8
#     4  11  23  40  62  91 124 160 200 249 304 361
#     4  11  23  42  63  90 124 162 203 251 302 361
#     4  11  22  40  62  89 122 162 204 251 304 363
#     4  11  23  40  61  88 122 160 203 255 306 361
#
# _framework density 21.102308000000001
#
# number of rings (size 3 to 8) (size 9 to 14) (size 15 to 20)
#    0.000    1.000    0.000   10.500    0.000    4.000 
#    0.000    5.000    0.000    0.000    0.000    0.000 
#    0.000    0.000    0.000    0.000    0.000    0.000 
#
# Total GULP energy -397017.506305 kJ/mol
# GULP energy per Si atom -12406.797072 kJ/mol
# Density = 2.105428 g / cm^3
# Si number density = 21.102308 Si / 1000 Ang^3
#
#
#
# Elastic Constant Matrix: (Units=GPa)
#
#
# Indices 1 2 3 4 5 6 
#
# 1 75.9357 40.7351 22.4990 0.0000 0.0000 0.0000
# 2 40.7351 52.5924 27.8361 0.0000 0.0000 0.0000
# 3 22.4990 27.8361 132.8974 0.0000 0.0000 0.0000
# 4 0.0000 0.0000 0.0000 33.8106 0.0000 0.0000
# 5 0.0000 0.0000 0.0000 0.0000 32.6907 0.0000
# 6 0.0000 0.0000 0.0000 0.0000 0.0000 50.1410
#
#
#
# Elastic Compliance Matrix: (Units=1/GPa)
#
#
# Indices 1 2 3 4 5 6 
#
# 1 0.022534 -0.017359 -0.000179 0.000000 0.000000 0.000000
# 2 -0.017359 0.034757 -0.004341 0.000000 0.000000 0.000000
# 3 -0.000179 -0.004341 0.008464 0.000000 0.000000 0.000000
# 4 0.000000 0.000000 0.000000 0.029577 0.000000 0.000000
# 5 0.000000 0.000000 0.000000 0.000000 0.030590 0.000000
# 6 0.000000 0.000000 0.000000 0.000000 0.000000 0.019944
#
#
# Mechanical properties :
#
#
# Convention : Reuss Voigt Hill
#
# Bulk Modulus (GPa) = 45.46062 49.28511 47.37287
# Shear Modulus (GPa) = 25.38633 34.68547 30.03590
#
# Velocity S-wave (km/s) = 3.47221 4.05863 3.77682
# Velocity P-wave (km/s) = 6.13716 6.73568 6.44337
#
# Compressibility (1/GPa) = 0.02199706
#
# Stress axis : x y z
#
# Youngs Moduli (GPa) = 44.37710 28.77102 118.14447
#
# Poissons Ratio (x) = 0.49943 0.02115
# Poissons Ratio (y) = 0.77034 0.51290
# Poissons Ratio (z) = 0.00794 0.12490
#
# Static dielectric constant tensor:
#      x y z
#    x 3.688820 0.000000 0.000000 
#    y 0.000000 3.913440 0.000000 
#    z 0.000000 0.000000 3.895650 
# 
# 
# High freq. dielectric constant tensor:
#      x y z
#    x 1.822400 0.000000 0.000000 
#    y 0.000000 1.832340 0.000000 
#    z 0.000000 0.000000 1.842690 
# 
# From -- ./inp_files/15486.got.cif
#   From: 2010.03.12/outbox.cif.g09.slc.cpg/sg57_8_cif.got.tgz:15486.got - 2010.04.16 15:48:40.
