data_PCOD8235690
_publ_section_title
;
Structure prediction by ZEFSAII (Michael W. Deem and Ramdas Pophale) SiO2 
 PCOD8235690
Probable space group: P N N M
;
_chemical_formula_sum "Si O2"
_cell_formula_units_Z 64
_cell_length_a 12.083927
_cell_length_b 16.337028
_cell_length_c 14.521621
_cell_angle_alpha 90.000000
_cell_angle_beta 90.000000
_cell_angle_gamma 90.000000
_cell_volume 2866.792399
_symmetry_space_group_name_H-M "P N N M"
_symmetry_group_IT_number 58
_symmetry_cell_setting 'orthorhombic'
loop_
_space_group_symop_operation_xyz
x,y,z
-x,-y,z
1/2+x,1/2-y,1/2-z
1/2-x,1/2+y,1/2-z
-x,-y,-z
x,y,-z
1/2-x,1/2+y,1/2+z
1/2+x,1/2-y,1/2+z
loop_
_atom_site_type_symbol
_atom_site_label
_atom_site_fract_x
_atom_site_fract_y
_atom_site_fract_z
Si Si1 0.309707 0.119716 0.600782
Si Si2 0.136976 0.734443 0.397664
Si Si3 0.187647 0.305114 0.232494
Si Si4 0.449672 0.642181 0.702131
Si Si5 0.743543 0.933412 0.892978
Si Si6 0.874328 0.517759 0.756127
Si Si7 0.444091 0.651436 0.899459
Si Si8 0.158474 0.795942 0.893416
O O1 0.336650 0.082939 0.500000
O O2 0.325016 0.048068 0.672842
O O3 0.187422 0.159682 0.602805
O O4 0.382625 0.200976 0.620533
O O5 0.185910 0.747432 0.500000
O O6 0.203920 0.792900 0.329818
O O7 0.156116 0.639752 0.371117
O O8 0.007419 0.760162 0.392979
O O9 0.100358 0.232622 0.218704
O O10 0.133950 0.391354 0.202496
O O11 0.228609 0.311804 0.337659
O O12 0.365174 0.587305 0.644457
O O13 0.475356 0.603031 0.804489
O O14 0.561068 0.645754 0.643385
O O15 0.696445 0.011234 0.837994
O O16 0.751223 0.955522 0.000000
O O17 0.000000 0.500000 0.733918
O O18 0.478464 0.610922 0.000000
O O19 0.181235 0.815923 0.000000
#
# Coordination Sequence:
#
# PCOD8235690 Si02
#       8
#     8   8   8   8   8   8   8   8
#     4  10  21  40  61  86 122 159 199 247 301 362
#     4   9  19  37  63  90 114 149 202 254 296 341
#     4  11  23  36  60  89 124 155 196 250 294 356
#     4  11  20  38  66  88 120 154 201 251 301 348
#     4  10  22  41  60  83 119 162 202 241 291 355
#     4  12  26  40  58  87 123 161 196 235 303 370
#     4  10  18  32  63  94 114 143 193 252 301 342
#     4  11  22  38  63  93 119 156 208 256 299 347
#
# _framework density 22.324603
#
# number of rings (size 3 to 8) (size 9 to 14) (size 15 to 20)
#    0.000    1.500    3.750    1.875    1.750    2.000 
#    0.000    2.500    0.000    3.750    0.000    0.000 
#    0.000    0.000    0.000    0.000    0.000    0.000 
#
# Total GULP energy -793039.593590 kJ/mol
# GULP energy per Si atom -12391.243650 kJ/mol
# Density = 2.227379 g / cm^3
# Si number density = 22.324603 Si / 1000 Ang^3
#
#
#
# Elastic Constant Matrix: (Units=GPa)
#
#
# Indices 1 2 3 4 5 6 
#
# 1 28.4108 -7.7031 -3.9293 0.0000 0.0000 0.0000
# 2 -7.7031 52.7350 8.2996 0.0000 0.0000 0.0000
# 3 -3.9293 8.2996 121.7756 0.0000 0.0000 0.0000
# 4 0.0000 0.0000 0.0000 15.3487 0.0000 0.0000
# 5 0.0000 0.0000 0.0000 0.0000 26.3273 0.0000
# 6 0.0000 0.0000 0.0000 0.0000 0.0000 17.9140
#
#
#
# Elastic Compliance Matrix: (Units=1/GPa)
#
#
# Indices 1 2 3 4 5 6 
#
# 1 0.036732 0.005235 0.000828 0.000000 0.000000 0.000000
# 2 0.005235 0.019914 -0.001188 0.000000 0.000000 0.000000
# 3 0.000828 -0.001188 0.008320 0.000000 0.000000 0.000000
# 4 0.000000 0.000000 0.000000 0.065152 0.000000 0.000000
# 5 0.000000 0.000000 0.000000 0.000000 0.037983 0.000000
# 6 0.000000 0.000000 0.000000 0.000000 0.000000 0.055822
#
#
# Mechanical properties :
#
#
# Convention : Reuss Voigt Hill
#
# Bulk Modulus (GPa) = 13.38395 21.80618 17.59506
# Shear Modulus (GPa) = 20.91363 25.66829 23.29096
#
# Velocity S-wave (km/s) = 3.06404 3.39451 3.23350
# Velocity P-wave (km/s) = 4.30417 5.01524 4.67325
#
# Compressibility (1/GPa) = 0.07471634
#
# Stress axis : x y z
#
# Youngs Moduli (GPa) = 27.22433 50.21470 120.19883
#
# Poissons Ratio (x) = -0.26288 -0.09958
# Poissons Ratio (y) = -0.14252 0.14284
# Poissons Ratio (z) = -0.02255 0.05967
#
# Static dielectric constant tensor:
#      x y z
#    x 3.861390 0.000000 0.000000 
#    y 0.000000 3.644890 0.000000 
#    z 0.000000 0.000000 4.499530 
# 
# 
# High freq. dielectric constant tensor:
#      x y z
#    x 1.872100 0.000000 0.000000 
#    y 0.000000 1.842710 0.000000 
#    z 0.000000 0.000000 1.903390 
# 
# From -- ./inp_files/21517.got.cif
#   From: 2010.06.25/outbox.cif.g09.slc.cpg/sg58_11_cif.got.tgz:21517.got - 2010.06.26 21:38:00.
