data_PCOD8235661
_publ_section_title
;
Structure prediction by ZEFSAII (Michael W. Deem and Ramdas Pophale) SiO2 
 PCOD8235661
Probable space group: P N N M
;
_chemical_formula_sum "Si O2"
_cell_formula_units_Z 64
_cell_length_a 19.758687
_cell_length_b 20.697307
_cell_length_c 8.828854
_cell_angle_alpha 90.000000
_cell_angle_beta 90.000000
_cell_angle_gamma 90.000000
_cell_volume 3610.574064
_symmetry_space_group_name_H-M "P N N M"
_symmetry_group_IT_number 58
_symmetry_cell_setting 'orthorhombic'
loop_
_space_group_symop_operation_xyz
x,y,z
-x,-y,z
1/2+x,1/2-y,1/2-z
1/2-x,1/2+y,1/2-z
-x,-y,-z
x,y,-z
1/2-x,1/2+y,1/2+z
1/2+x,1/2-y,1/2+z
loop_
_atom_site_type_symbol
_atom_site_label
_atom_site_fract_x
_atom_site_fract_y
_atom_site_fract_z
Si Si1 0.789501 0.815954 0.178207
Si Si2 0.295298 0.929053 0.676381
Si Si3 0.063139 0.382125 0.820297
Si Si4 0.294918 0.073315 0.323209
Si Si5 0.925989 0.376116 0.678956
Si Si6 0.422716 0.263695 0.322117
Si Si7 0.928147 0.763387 0.823231
Si Si8 0.205843 0.812722 0.321951
O O1 0.761458 0.877035 0.267864
O O2 0.866290 0.806195 0.241090
O O3 0.746658 0.752192 0.217695
O O4 0.786183 0.830991 0.000000
O O5 0.299418 0.912846 0.500000
O O6 0.372418 0.923072 0.737248
O O7 0.245827 0.874636 0.746335
O O8 0.267342 0.000758 0.708719
O O9 0.075111 0.309300 0.760503
O O10 0.995047 0.408264 0.741014
O O11 0.051597 0.385381 0.000000
O O12 0.309551 0.083937 0.500000
O O13 0.364260 0.079698 0.231796
O O14 0.927602 0.372375 0.500000
O O15 0.913241 0.304835 0.742637
O O16 0.413720 0.252677 0.500000
O O17 0.497660 0.293007 0.286293
O O18 0.366856 0.312879 0.259886
O O19 0.914428 0.758630 0.000000
O O20 0.193384 0.819034 0.500000
#
# Coordination Sequence:
#
# PCOD8235661 Si02
#       8
#     8   8   8   8   8   8   8   8
#     4  10  18  32  55  78 101 132 171 214 262 307
#     4   9  19  35  55  76 102 141 180 212 254 312
#     4   9  16  32  54  74  97 132 177 215 249 298
#     4  11  22  35  51  75 106 139 178 216 253 304
#     4  11  21  33  48  72 106 142 174 207 255 307
#     4  10  19  32  53  80 105 131 169 214 258 304
#     4   8  15  29  52  77 100 129 166 209 253 304
#     4  10  18  32  56  80 103 134 173 212 259 307
#
# _framework density 17.725714
#
# number of rings (size 3 to 8) (size 9 to 14) (size 15 to 20)
#    0.000    2.250    2.500    2.625    0.000    0.500 
#    0.000    8.750    0.000    0.750    0.000    5.250 
#    0.000    0.000    0.000    0.000    0.000    0.000 
#
# Total GULP energy -793374.848026 kJ/mol
# GULP energy per Si atom -12396.482000 kJ/mol
# Density = 1.768537 g / cm^3
# Si number density = 17.725714 Si / 1000 Ang^3
#
#
#
# Elastic Constant Matrix: (Units=GPa)
#
#
# Indices 1 2 3 4 5 6 
#
# 1 129.3072 55.2803 42.8158 0.0000 0.0000 0.0000
# 2 55.2803 90.6823 34.3795 0.0000 0.0000 0.0000
# 3 42.8158 34.3795 67.1036 0.0000 0.0000 0.0000
# 4 0.0000 0.0000 0.0000 18.9732 0.0000 0.0000
# 5 0.0000 0.0000 0.0000 0.0000 26.1495 0.0000
# 6 0.0000 0.0000 0.0000 0.0000 0.0000 25.1484
#
#
#
# Elastic Compliance Matrix: (Units=1/GPa)
#
#
# Indices 1 2 3 4 5 6 
#
# 1 0.011524 -0.005259 -0.004659 0.000000 0.000000 0.000000
# 2 -0.005259 0.016086 -0.004886 0.000000 0.000000 0.000000
# 3 -0.004659 -0.004886 0.020378 0.000000 0.000000 0.000000
# 4 0.000000 0.000000 0.000000 0.052706 0.000000 0.000000
# 5 0.000000 0.000000 0.000000 0.000000 0.038242 0.000000
# 6 0.000000 0.000000 0.000000 0.000000 0.000000 0.039764
#
#
# Mechanical properties :
#
#
# Convention : Reuss Voigt Hill
#
# Bulk Modulus (GPa) = 54.40398 61.33824 57.87111
# Shear Modulus (GPa) = 23.31718 24.36204 23.83961
#
# Velocity S-wave (km/s) = 3.63084 3.71130 3.67129
# Velocity P-wave (km/s) = 6.95242 7.28315 7.11970
#
# Compressibility (1/GPa) = 0.01838101
#
# Stress axis : x y z
#
# Youngs Moduli (GPa) = 86.77193 62.16685 49.07248
#
# Poissons Ratio (x) = 0.32694 0.22862
# Poissons Ratio (y) = 0.45634 0.23975
# Poissons Ratio (z) = 0.40426 0.30373
#
# Static dielectric constant tensor:
#      x y z
#    x 3.627280 0.000000 0.000000 
#    y 0.000000 3.108160 0.000000 
#    z 0.000000 0.000000 3.065290 
# 
# 
# High freq. dielectric constant tensor:
#      x y z
#    x 1.695630 0.000000 0.000000 
#    y 0.000000 1.658710 0.000000 
#    z 0.000000 0.000000 1.663670 
# 
# From -- ./inp_files/8427.got.cif
#   From: 2010.06.25/outbox.cif.g09.slc.cpg/sg58_5_cif.got.tgz:8427.got - 2010.06.26 21:38:00.
