data_PCOD8235536
_publ_section_title
;
Structure prediction by ZEFSAII (Michael W. Deem and Ramdas Pophale) SiO2 
 PCOD8235536
Probable space group: P N N M
;
_chemical_formula_sum "Si O2"
_cell_formula_units_Z 64
_cell_length_a 21.276967
_cell_length_b 18.499272
_cell_length_c 9.187095
_cell_angle_alpha 90.000000
_cell_angle_beta 90.000000
_cell_angle_gamma 90.000000
_cell_volume 3616.117762
_symmetry_space_group_name_H-M "P N N M"
_symmetry_group_IT_number 58
_symmetry_cell_setting 'orthorhombic'
loop_
_space_group_symop_operation_xyz
x,y,z
-x,-y,z
1/2+x,1/2-y,1/2-z
1/2-x,1/2+y,1/2-z
-x,-y,-z
x,y,-z
1/2-x,1/2+y,1/2+z
1/2+x,1/2-y,1/2+z
loop_
_atom_site_type_symbol
_atom_site_label
_atom_site_fract_x
_atom_site_fract_y
_atom_site_fract_z
Si Si1 0.008956 0.418204 0.667099
Si Si2 0.906174 0.332039 0.168394
Si Si3 0.196560 0.580249 0.671749
Si Si4 0.814015 0.967782 0.334542
Si Si5 0.762449 0.129076 0.662172
Si Si6 0.875884 0.172447 0.834522
Si Si7 0.069986 0.979764 0.171082
Si Si8 0.847362 0.578696 0.664570
O O1 0.985897 0.410366 0.500000
O O2 0.969479 0.366155 0.769414
O O3 0.000000 0.500000 0.719859
O O4 0.081302 0.396390 0.684908
O O5 0.845080 0.357023 0.257259
O O6 0.914895 0.245884 0.186436
O O7 0.897884 0.354100 0.000000
O O8 0.203655 0.593560 0.500000
O O9 0.265611 0.582408 0.744921
O O10 0.160647 0.505369 0.707173
O O11 0.820835 0.939074 0.500000
O O12 0.787355 0.048030 0.332549
O O13 0.881815 0.967849 0.256241
O O14 0.754508 0.158690 0.500000
O O15 0.812102 0.179938 0.742640
O O16 0.694417 0.131715 0.737327
O O17 0.918388 0.104190 0.786079
O O18 0.854445 0.161300 0.000000
O O19 0.079421 0.993264 0.000000
O O20 0.000000 0.000000 0.221556
O O21 0.824268 0.588852 0.500000
#
# Coordination Sequence:
#
# PCOD8235536 Si02
#       8
#     8   8   8   8   8   8   8   8
#     4  10  19  34  51  73 103 139 182 217 249 303
#     4  11  22  33  49  74 104 138 171 214 267 313
#     4  10  18  31  50  72  99 133 171 208 250 303
#     4   9  17  29  47  76 106 126 155 206 260 302
#     4   9  17  29  49  75  98 122 161 208 250 297
#     4   9  19  35  52  73 103 134 167 210 263 317
#     4   9  17  32  56  80 100 132 177 216 256 312
#     4   9  17  30  50  72  98 131 167 210 253 293
#
# _framework density 17.698537999999999
#
# number of rings (size 3 to 8) (size 9 to 14) (size 15 to 20)
#    0.000    2.500    1.250    1.500    0.000    5.500 
#    0.000    0.000    2.750    0.000    0.000    0.000 
#    0.000    0.000    0.000    0.000    0.000    0.000 
#
# Total GULP energy -793623.328130 kJ/mol
# GULP energy per Si atom -12400.364502 kJ/mol
# Density = 1.765826 g / cm^3
# Si number density = 17.698538 Si / 1000 Ang^3
#
#
#
# Elastic Constant Matrix: (Units=GPa)
#
#
# Indices 1 2 3 4 5 6 
#
# 1 121.3372 39.4430 59.1802 0.0000 0.0000 0.0000
# 2 39.4430 58.6258 36.1393 0.0000 0.0000 0.0000
# 3 59.1802 36.1393 102.9358 0.0000 0.0000 0.0000
# 4 0.0000 0.0000 0.0000 19.1063 0.0000 0.0000
# 5 0.0000 0.0000 0.0000 0.0000 33.2566 0.0000
# 6 0.0000 0.0000 0.0000 0.0000 0.0000 22.9924
#
#
#
# Elastic Compliance Matrix: (Units=1/GPa)
#
#
# Indices 1 2 3 4 5 6 
#
# 1 0.012543 -0.005096 -0.005422 0.000000 0.000000 0.000000
# 2 -0.005096 0.023839 -0.005440 0.000000 0.000000 0.000000
# 3 -0.005422 -0.005440 0.014742 0.000000 0.000000 0.000000
# 4 0.000000 0.000000 0.000000 0.052339 0.000000 0.000000
# 5 0.000000 0.000000 0.000000 0.000000 0.030069 0.000000
# 6 0.000000 0.000000 0.000000 0.000000 0.000000 0.043493
#
#
# Mechanical properties :
#
#
# Convention : Reuss Voigt Hill
#
# Bulk Modulus (GPa) = 52.06147 61.38043 56.72095
# Shear Modulus (GPa) = 23.21885 24.94681 24.08283
#
# Velocity S-wave (km/s) = 3.62596 3.75846 3.69280
# Velocity P-wave (km/s) = 6.85636 7.32059 7.09227
#
# Compressibility (1/GPa) = 0.01920806
#
# Stress axis : x y z
#
# Youngs Moduli (GPa) = 79.72887 41.94747 67.83501
#
# Poissons Ratio (x) = 0.21378 0.36778
# Poissons Ratio (y) = 0.40632 0.36900
# Poissons Ratio (z) = 0.43227 0.22818
#
# Static dielectric constant tensor:
#      x y z
#    x 3.296100 0.000000 0.000000 
#    y 0.000000 2.971040 0.000000 
#    z 0.000000 0.000000 3.404430 
# 
# 
# High freq. dielectric constant tensor:
#      x y z
#    x 1.685120 0.000000 0.000000 
#    y 0.000000 1.645640 0.000000 
#    z 0.000000 0.000000 1.691760 
# 
# From -- ./inp_files/8386.got.cif
#   From: 2010.06.25/outbox.cif.g09.slc.cpg/sg58_5_cif.got.tgz:8386.got - 2010.06.26 21:38:00.
