data_PCOD8235902
_publ_section_title
;
Structure prediction by ZEFSAII (Michael W. Deem and Ramdas Pophale) SiO2 
 PCOD8235902
Probable space group: P N N M
;
_chemical_formula_sum "Si O2"
_cell_formula_units_Z 64
_cell_length_a 20.967977
_cell_length_b 19.710288
_cell_length_c 9.000061
_cell_angle_alpha 90.000000
_cell_angle_beta 90.000000
_cell_angle_gamma 90.000000
_cell_volume 3719.588999
_symmetry_space_group_name_H-M "P N N M"
_symmetry_group_IT_number 58
_symmetry_cell_setting 'orthorhombic'
loop_
_space_group_symop_operation_xyz
x,y,z
-x,-y,z
1/2+x,1/2-y,1/2-z
1/2-x,1/2+y,1/2-z
-x,-y,-z
x,y,-z
1/2-x,1/2+y,1/2+z
1/2+x,1/2-y,1/2+z
loop_
_atom_site_type_symbol
_atom_site_label
_atom_site_fract_x
_atom_site_fract_y
_atom_site_fract_z
Si Si1 0.863347 0.573824 0.667764
Si Si2 0.310138 0.710104 0.323859
Si Si3 0.076015 0.287690 0.672764
Si Si4 0.684702 0.709977 0.176674
Si Si5 0.233272 0.080002 0.324068
Si Si6 0.766679 0.070385 0.674894
Si Si7 0.064870 0.708694 0.324647
Si Si8 0.866442 0.423448 0.671679
O O1 0.837112 0.576726 0.500000
O O2 0.916045 0.631287 0.694784
O O3 0.804051 0.587879 0.772998
O O4 0.893522 0.499343 0.698860
O O5 0.311482 0.705324 0.500000
O O6 0.373363 0.747496 0.269681
O O7 0.247185 0.749674 0.265590
O O8 0.311618 0.634585 0.255805
O O9 0.084258 0.267682 0.500000
O O10 0.005120 0.270616 0.734738
O O11 0.687161 0.631250 0.230449
O O12 0.620125 0.742877 0.243519
O O13 0.683805 0.715113 0.000000
O O14 0.228187 0.089173 0.500000
O O15 0.305673 0.090889 0.273795
O O16 0.210391 0.004284 0.272313
O O17 0.763235 0.071280 0.500000
O O18 0.063539 0.717135 0.500000
O O19 0.079526 0.630469 0.282614
O O20 0.845674 0.412394 0.500000
#
# Coordination Sequence:
#
# PCOD8235902 Si02
#       8
#     8   8   8   8   8   8   8   8
#     4   9  17  27  43  70 102 131 162 198 237 287
#     4  11  20  33  54  73  96 131 168 203 242 297
#     4  10  20  32  47  72 103 132 164 207 251 284
#     4   9  16  29  51  74  92 123 167 203 237 285
#     4  10  19  30  48  75 102 123 155 207 254 288
#     4   9  17  30  49  72  97 126 160 200 246 292
#     4   9  17  30  49  71  98 131 168 206 242 288
#     4   9  16  29  47  69  99 136 170 192 230 294
#
# _framework density 17.206202000000001
#
# number of rings (size 3 to 8) (size 9 to 14) (size 15 to 20)
#    0.000    2.500    2.500    0.750    0.000    1.000 
#    0.000    3.125    0.000    0.750    0.000    9.625 
#    0.000    0.000    0.000    0.000    0.000    0.000 
#
# Total GULP energy -793197.416527 kJ/mol
# GULP energy per Si atom -12393.709633 kJ/mol
# Density = 1.716704 g / cm^3
# Si number density = 17.206202 Si / 1000 Ang^3
#
#
#
# Elastic Constant Matrix: (Units=GPa)
#
#
# Indices 1 2 3 4 5 6 
#
# 1 114.0151 70.5864 21.0433 0.0000 0.0000 0.0000
# 2 70.5864 127.1871 32.8109 0.0000 0.0000 0.0000
# 3 21.0433 32.8109 28.6287 0.0000 0.0000 0.0000
# 4 0.0000 0.0000 0.0000 20.7049 0.0000 0.0000
# 5 0.0000 0.0000 0.0000 0.0000 19.6196 0.0000
# 6 0.0000 0.0000 0.0000 0.0000 0.0000 23.3190
#
#
#
# Elastic Compliance Matrix: (Units=1/GPa)
#
#
# Indices 1 2 3 4 5 6 
#
# 1 0.013433 -0.006968 -0.001888 0.000000 0.000000 0.000000
# 2 -0.006968 0.014777 -0.011814 0.000000 0.000000 0.000000
# 3 -0.001888 -0.011814 0.049858 0.000000 0.000000 0.000000
# 4 0.000000 0.000000 0.000000 0.048298 0.000000 0.000000
# 5 0.000000 0.000000 0.000000 0.000000 0.050969 0.000000
# 6 0.000000 0.000000 0.000000 0.000000 0.000000 0.042883
#
#
# Mechanical properties :
#
#
# Convention : Reuss Voigt Hill
#
# Bulk Modulus (GPa) = 27.22734 57.63467 42.43100
# Shear Modulus (GPa) = 18.26137 22.42138 20.34137
#
# Velocity S-wave (km/s) = 3.26133 3.61376 3.44206
# Velocity P-wave (km/s) = 5.48090 7.14014 6.36482
#
# Compressibility (1/GPa) = 0.03672779
#
# Stress axis : x y z
#
# Youngs Moduli (GPa) = 74.44270 67.67112 20.05705
#
# Poissons Ratio (x) = 0.47154 0.03787
# Poissons Ratio (y) = 0.51872 0.23696
# Poissons Ratio (z) = 0.14054 0.79948
#
# Static dielectric constant tensor:
#      x y z
#    x 3.128960 0.000000 0.000000 
#    y 0.000000 3.684920 0.000000 
#    z 0.000000 0.000000 3.006560 
# 
# 
# High freq. dielectric constant tensor:
#      x y z
#    x 1.633440 0.000000 0.000000 
#    y 0.000000 1.677680 0.000000 
#    z 0.000000 0.000000 1.639820 
# 
# From -- ./inp_files/9460.got.cif
#   From: 2010.06.25/outbox.cif.g09.slc.cpg/sg58_5_cif.got.tgz:9460.got - 2010.06.26 21:38:00.
