data_PCOD8235958
_publ_section_title
;
Structure prediction by ZEFSAII (Michael W. Deem and Ramdas Pophale) SiO2 
 PCOD8235958
Probable space group: P N N M
;
_chemical_formula_sum "Si O2"
_cell_formula_units_Z 56
_cell_length_a 23.897807
_cell_length_b 13.405860
_cell_length_c 9.577560
_cell_angle_alpha 90.000000
_cell_angle_beta 90.000000
_cell_angle_gamma 90.000000
_cell_volume 3068.369170
_symmetry_space_group_name_H-M "P N N M"
_symmetry_group_IT_number 58
_symmetry_cell_setting 'orthorhombic'
loop_
_space_group_symop_operation_xyz
x,y,z
-x,-y,z
1/2+x,1/2-y,1/2-z
1/2-x,1/2+y,1/2-z
-x,-y,-z
x,y,-z
1/2-x,1/2+y,1/2+z
1/2+x,1/2-y,1/2+z
loop_
_atom_site_type_symbol
_atom_site_label
_atom_site_fract_x
_atom_site_fract_y
_atom_site_fract_z
Si Si1 0.877390 0.396542 0.337829
Si Si2 0.559144 0.048359 0.337478
Si Si3 0.054757 0.800483 0.341105
Si Si4 0.550011 0.276797 0.663354
Si Si5 0.665435 0.580138 0.837099
Si Si6 0.225564 0.726579 0.336038
Si Si7 0.335858 0.616783 0.663551
O O1 0.875197 0.426778 0.500000
O O2 0.892551 0.493768 0.249097
O O3 0.923101 0.310535 0.311498
O O4 0.817501 0.357570 0.280508
O O5 0.573412 0.036612 0.500000
O O6 0.559013 0.162961 0.290723
O O7 0.500000 0.000000 0.299632
O O8 0.034384 0.809951 0.500000
O O9 0.102772 0.880924 0.309420
O O10 0.002481 0.824842 0.242393
O O11 0.537415 0.283998 0.500000
O O12 0.604637 0.338562 0.706571
O O13 0.709510 0.663276 0.780405
O O14 0.676741 0.482243 0.748503
O O15 0.674533 0.555906 0.000000
O O16 0.214552 0.731463 0.500000
O O17 0.288789 0.698627 0.296199
O O18 0.332851 0.591786 0.500000
#
# Coordination Sequence:
#
# PCOD8235958 Si02
#       7
#     8   8   8   8   8   8   8
#     4   9  17  31  53  77  99 133 177 214 254 305
#     4  10  19  31  48  75 110 139 167 210 261 310
#     4   9  18  33  53  76 102 134 173 214 258 305
#     4  10  21  34  49  73 107 142 172 208 259 314
#     4   9  19  37  59  79 101 134 174 215 258 305
#     4   8  17  36  57  75 101 136 173 213 256 307
#     4  10  21  37  55  77 106 138 171 211 260 309
#
# _framework density 18.250737000000001
#
# number of rings (size 3 to 8) (size 9 to 14) (size 15 to 20)
#    0.000    2.714    1.429    1.714    0.000    3.714 
#    0.000    7.857    0.000    0.000    0.000    0.000 
#    0.000    0.000    0.000    0.000    0.000    0.000 
#
# Total GULP energy -694396.082314 kJ/mol
# GULP energy per Si atom -12399.930041 kJ/mol
# Density = 1.820920 g / cm^3
# Si number density = 18.250737 Si / 1000 Ang^3
#
#
#
# Elastic Constant Matrix: (Units=GPa)
#
#
# Indices 1 2 3 4 5 6 
#
# 1 106.3896 40.8298 42.1408 0.0000 0.0000 0.0000
# 2 40.8298 99.8725 37.8363 0.0000 0.0000 0.0000
# 3 42.1408 37.8363 46.1049 0.0000 0.0000 0.0000
# 4 0.0000 0.0000 0.0000 31.0034 0.0000 0.0000
# 5 0.0000 0.0000 0.0000 0.0000 24.8521 0.0000
# 6 0.0000 0.0000 0.0000 0.0000 0.0000 23.9211
#
#
#
# Elastic Compliance Matrix: (Units=1/GPa)
#
#
# Indices 1 2 3 4 5 6 
#
# 1 0.014858 -0.001349 -0.012474 0.000000 0.000000 0.000000
# 2 -0.001349 0.014653 -0.010792 0.000000 0.000000 0.000000
# 3 -0.012474 -0.010792 0.041948 0.000000 0.000000 0.000000
# 4 0.000000 0.000000 0.000000 0.032254 0.000000 0.000000
# 5 0.000000 0.000000 0.000000 0.000000 0.040238 0.000000
# 6 0.000000 0.000000 0.000000 0.000000 0.000000 0.041804
#
#
# Mechanical properties :
#
#
# Convention : Reuss Voigt Hill
#
# Bulk Modulus (GPa) = 44.98585 54.88677 49.93631
# Shear Modulus (GPa) = 20.62766 24.72599 22.67682
#
# Velocity S-wave (km/s) = 3.36555 3.68475 3.52876
# Velocity P-wave (km/s) = 6.30911 6.94566 6.63502
#
# Compressibility (1/GPa) = 0.02222921
#
# Stress axis : x y z
#
# Youngs Moduli (GPa) = 67.30510 68.24687 23.83932
#
# Poissons Ratio (x) = 0.09204 0.29736
# Poissons Ratio (y) = 0.09077 0.25728
# Poissons Ratio (z) = 0.83953 0.73654
#
# Static dielectric constant tensor:
#      x y z
#    x 3.361950 0.000000 0.000000 
#    y 0.000000 3.288850 0.000000 
#    z 0.000000 0.000000 3.117950 
# 
# 
# High freq. dielectric constant tensor:
#      x y z
#    x 1.708770 0.000000 0.000000 
#    y 0.000000 1.704620 0.000000 
#    z 0.000000 0.000000 1.686590 
# 
# From -- ./inp_files/9010.got.cif
#   From: 2010.06.25/outbox.cif.g09.slc.cpg/sg58_5_cif.got.tgz:9010.got - 2010.06.26 21:38:00.
