data_PCOD8235144
_publ_section_title
;
Structure prediction by ZEFSAII (Michael W. Deem and Ramdas Pophale) SiO2 
 PCOD8235144
Probable space group: P B C M
;
_chemical_formula_sum "Si O2"
_cell_formula_units_Z 40
_cell_length_a 12.627239
_cell_length_b 10.250289
_cell_length_c 16.971200
_cell_angle_alpha 90.000000
_cell_angle_beta 90.000000
_cell_angle_gamma 90.000000
_cell_volume 2196.630767
_symmetry_space_group_name_H-M "P B C M"
_symmetry_group_IT_number 57
_symmetry_cell_setting 'orthorhombic'
loop_
_space_group_symop_operation_xyz
x,y,z
-x,-y,1/2+z
x,1/2-y,-z
-x,1/2+y,1/2-z
-x,-y,-z
x,y,1/2-z
-x,1/2+y,z
x,1/2-y,1/2+z
loop_
_atom_site_type_symbol
_atom_site_label
_atom_site_fract_x
_atom_site_fract_y
_atom_site_fract_z
Si Si1 0.512417 0.625213 0.553385
Si Si2 0.327218 0.783497 0.340678
Si Si3 0.911553 0.206273 0.843785
Si Si4 0.311759 0.480264 0.159458
Si Si5 0.925812 0.005108 0.343861
O O1 0.530244 0.750000 0.500000
O O2 0.500000 0.500000 0.500000
O O3 0.407480 0.864083 0.393928
O O4 0.614361 0.613992 0.609069
O O5 0.343599 0.824478 0.250000
O O6 0.209109 0.820763 0.369819
O O7 0.347298 0.629845 0.351375
O O8 0.916850 0.206893 0.750000
O O9 0.949188 0.348361 0.875178
O O10 0.987752 0.094706 0.879691
O O11 0.322424 0.437759 0.250000
O O12 0.191355 0.461041 0.129779
O O13 0.930859 0.005614 0.250000
#
# Coordination Sequence:
#
# PCOD8235144 Si02
#       5
#     8   8   8   8   8
#     4  12  23  38  55  76 106 143 179 221 268 314
#     4   9  18  35  57  79 106 141 178 215 261 317
#     4   8  14  27  49  76 104 132 165 209 259 307
#     4   9  18  35  57  79 106 140 177 217 262 313
#     4   8  14  27  49  76 104 131 164 211 260 305
#
# _framework density 18.209706000000001
#
# number of rings (size 3 to 8) (size 9 to 14) (size 15 to 20)
#    0.000    2.800    2.000    3.000    0.000    0.000 
#    3.600    0.000    0.000    2.400    0.000    0.000 
#    0.000    0.000    0.000    0.000    0.000    0.000 
#
# Total GULP energy -495901.609840 kJ/mol
# GULP energy per Si atom -12397.540246 kJ/mol
# Density = 1.816826 g / cm^3
# Si number density = 18.209706 Si / 1000 Ang^3
#
#
#
# Elastic Constant Matrix: (Units=GPa)
#
#
# Indices 1 2 3 4 5 6 
#
# 1 145.1099 85.9284 47.4848 0.0000 0.0000 0.0000
# 2 85.9284 120.5905 46.9237 0.0000 0.0000 0.0000
# 3 47.4848 46.9237 54.5506 0.0000 0.0000 0.0000
# 4 0.0000 0.0000 0.0000 24.9139 0.0000 0.0000
# 5 0.0000 0.0000 0.0000 0.0000 -0.1742 0.0000
# 6 0.0000 0.0000 0.0000 0.0000 0.0000 36.7663
#
#
#
# Elastic Compliance Matrix: (Units=1/GPa)
#
#
# Indices 1 2 3 4 5 6 
#
# 1 0.012748 -0.007164 -0.004935 0.000000 0.000000 0.000000
# 2 -0.007164 0.016490 -0.007949 0.000000 0.000000 0.000000
# 3 -0.004935 -0.007949 0.029465 0.000000 0.000000 0.000000
# 4 0.000000 0.000000 0.000000 0.040138 0.000000 0.000000
# 5 0.000000 0.000000 0.000000 0.000000 -5.739376 0.000000
# 6 0.000000 0.000000 0.000000 0.000000 0.000000 0.027199
#
#
# Mechanical properties :
#
#
# Convention : Reuss Voigt Hill
#
# Bulk Modulus (GPa) = 53.73926 75.65828 64.69877
# Shear Modulus (GPa) = -0.89814 21.62881 10.36533
#
# Velocity S-wave (km/s) = -0.70306 3.45013 2.38842
# Velocity P-wave (km/s) = 5.37739 7.58352 6.57366
#
# Compressibility (1/GPa) = 0.01860837
#
# Stress axis : x y z
#
# Youngs Moduli (GPa) = 78.44219 60.64242 33.93893
#
# Poissons Ratio (x) = 0.43442 0.16748
# Poissons Ratio (y) = 0.56194 0.26977
# Poissons Ratio (z) = 0.38710 0.48203
#
# Static dielectric constant tensor:
#      x y z
#    x 3.522160 0.000000 0.000000 
#    y 0.000000 3.435700 0.000000 
#    z 0.000000 0.000000 3.052500 
# 
# 
# High freq. dielectric constant tensor:
#      x y z
#    x 1.712840 0.000000 0.000000 
#    y 0.000000 1.697820 0.000000 
#    z 0.000000 0.000000 1.674640 
# 
# From -- ./inp_files/17385.got.cif
#   From: 2010.03.12/outbox.cif.g09.slc.cpg/sg57_9_cif.got.tgz:17385.got - 2010.04.16 15:48:40.
