data_PCOD8235483
_publ_section_title
;
Structure prediction by ZEFSAII (Michael W. Deem and Ramdas Pophale) SiO2 
 PCOD8235483
Probable space group: P N N M
;
_chemical_formula_sum "Si O2"
_cell_formula_units_Z 64
_cell_length_a 19.245448
_cell_length_b 23.235919
_cell_length_c 8.528018
_cell_angle_alpha 90.000000
_cell_angle_beta 90.000000
_cell_angle_gamma 90.000000
_cell_volume 3813.607450
_symmetry_space_group_name_H-M "P N N M"
_symmetry_group_IT_number 58
_symmetry_cell_setting 'orthorhombic'
loop_
_space_group_symop_operation_xyz
x,y,z
-x,-y,z
1/2+x,1/2-y,1/2-z
1/2-x,1/2+y,1/2-z
-x,-y,-z
x,y,-z
1/2-x,1/2+y,1/2+z
1/2+x,1/2-y,1/2+z
loop_
_atom_site_type_symbol
_atom_site_label
_atom_site_fract_x
_atom_site_fract_y
_atom_site_fract_z
Si Si1 0.857080 0.065382 0.318049
Si Si2 0.357625 0.557073 0.317558
Si Si3 0.226202 0.158036 0.316127
Si Si4 0.152000 0.267603 0.816023
Si Si5 0.497374 0.386280 0.685392
Si Si6 0.854053 0.273117 0.185579
Si Si7 0.231429 0.836151 0.184050
Si Si8 0.999158 0.756182 0.814696
O O1 0.849050 0.078084 0.500000
O O2 0.798926 0.102117 0.227887
O O3 0.934498 0.079974 0.263882
O O4 0.841311 0.999108 0.282947
O O5 0.357330 0.541204 0.500000
O O6 0.297689 0.603388 0.283189
O O7 0.431782 0.582350 0.265586
O O8 0.221939 0.143863 0.500000
O O9 0.178603 0.213061 0.281211
O O10 0.305287 0.173676 0.261250
O O11 0.194654 0.324804 0.769651
O O12 0.071249 0.277105 0.767655
O O13 0.158783 0.253902 0.000000
O O14 0.485823 0.387639 0.500000
O O15 0.501096 0.321325 0.750883
O O16 0.822248 0.212533 0.244217
O O17 0.932987 0.277903 0.251980
O O18 0.854716 0.271719 0.000000
O O19 0.244380 0.832568 0.000000
O O20 0.005261 0.760549 0.000000
#
# Coordination Sequence:
#
# PCOD8235483 Si02
#       8
#     8   8   8   8   8   8   8   8
#     4  12  24  35  49  73 100 130 170 217 253 292
#     4  11  22  36  52  69  95 138 177 208 248 301
#     4  10  19  31  48  72  99 130 168 214 254 293
#     4  10  18  30  50  75 101 130 167 209 249 294
#     4  10  19  34  51  69  98 139 177 202 238 296
#     4   8  15  28  49  71  94 126 164 200 243 293
#     4  10  19  34  52  70  97 134 169 205 249 301
#     4   9  15  28  50  74  99 133 169 199 238 297
#
# _framework density 16.78201
#
# number of rings (size 3 to 8) (size 9 to 14) (size 15 to 20)
#    0.000    2.000    2.500    3.750    0.000    2.500 
#    0.000    0.000    0.000    0.000    0.000    0.875 
#    0.000    7.000    0.000    0.000    0.000    0.000 
#
# Total GULP energy -793463.501015 kJ/mol
# GULP energy per Si atom -12397.867203 kJ/mol
# Density = 1.674381 g / cm^3
# Si number density = 16.782010 Si / 1000 Ang^3
#
#
#
# Elastic Constant Matrix: (Units=GPa)
#
#
# Indices 1 2 3 4 5 6 
#
# 1 136.9843 54.7342 17.0983 0.0000 0.0000 0.0000
# 2 54.7342 74.4182 8.1261 0.0000 0.0000 0.0000
# 3 17.0983 8.1261 34.8596 0.0000 0.0000 0.0000
# 4 0.0000 0.0000 0.0000 23.8832 0.0000 0.0000
# 5 0.0000 0.0000 0.0000 0.0000 20.8947 0.0000
# 6 0.0000 0.0000 0.0000 0.0000 0.0000 24.4710
#
#
#
# Elastic Compliance Matrix: (Units=1/GPa)
#
#
# Indices 1 2 3 4 5 6 
#
# 1 0.010743 -0.007517 -0.003517 0.000000 0.000000 0.000000
# 2 -0.007517 0.019049 -0.000753 0.000000 0.000000 0.000000
# 3 -0.003517 -0.000753 0.030587 0.000000 0.000000 0.000000
# 4 0.000000 0.000000 0.000000 0.041870 0.000000 0.000000
# 5 0.000000 0.000000 0.000000 0.000000 0.047859 0.000000
# 6 0.000000 0.000000 0.000000 0.000000 0.000000 0.040865
#
#
# Mechanical properties :
#
#
# Convention : Reuss Voigt Hill
#
# Bulk Modulus (GPa) = 27.17116 45.13101 36.15109
# Shear Modulus (GPa) = 22.04440 24.93670 23.49055
#
# Velocity S-wave (km/s) = 3.62826 3.85894 3.74538
# Velocity P-wave (km/s) = 5.81190 6.84150 6.34761
#
# Compressibility (1/GPa) = 0.03680373
#
# Stress axis : x y z
#
# Youngs Moduli (GPa) = 93.08673 52.49713 32.69357
#
# Poissons Ratio (x) = 0.39463 0.11498
# Poissons Ratio (y) = 0.69975 0.02463
# Poissons Ratio (z) = 0.32737 0.03955
#
# Static dielectric constant tensor:
#      x y z
#    x 3.542730 0.000000 0.000000 
#    y 0.000000 3.004380 0.000000 
#    z 0.000000 0.000000 3.008810 
# 
# 
# High freq. dielectric constant tensor:
#      x y z
#    x 1.647540 0.000000 0.000000 
#    y 0.000000 1.617940 0.000000 
#    z 0.000000 0.000000 1.637450 
# 
# From -- ./inp_files/9405.got.cif
#   From: 2010.06.25/outbox.cif.g09.slc.cpg/sg58_5_cif.got.tgz:9405.got - 2010.06.26 21:38:00.
