data_PCOD8235851
_publ_section_title
;
Structure prediction by ZEFSAII (Michael W. Deem and Ramdas Pophale) SiO2 
 PCOD8235851
Probable space group: P N N M
;
_chemical_formula_sum "Si O2"
_cell_formula_units_Z 56
_cell_length_a 13.616713
_cell_length_b 28.827385
_cell_length_c 9.091019
_cell_angle_alpha 90.000000
_cell_angle_beta 90.000000
_cell_angle_gamma 90.000000
_cell_volume 3568.536126
_symmetry_space_group_name_H-M "P N N M"
_symmetry_group_IT_number 58
_symmetry_cell_setting 'orthorhombic'
loop_
_space_group_symop_operation_xyz
x,y,z
-x,-y,z
1/2+x,1/2-y,1/2-z
1/2-x,1/2+y,1/2-z
-x,-y,-z
x,y,-z
1/2-x,1/2+y,1/2+z
1/2+x,1/2-y,1/2+z
loop_
_atom_site_type_symbol
_atom_site_label
_atom_site_fract_x
_atom_site_fract_y
_atom_site_fract_z
Si Si1 0.108011 0.270294 0.829712
Si Si2 0.785079 0.822360 0.172564
Si Si3 0.090185 0.729021 0.671301
Si Si4 0.884139 0.005396 0.661652
Si Si5 0.304116 0.322132 0.171650
Si Si6 0.402452 0.404865 0.326015
Si Si7 0.110863 0.096362 0.673846
O O1 0.143618 0.219503 0.778102
O O2 0.191800 0.308091 0.797251
O O3 0.009878 0.285801 0.748428
O O4 0.083547 0.268393 0.000000
O O5 0.673348 0.808643 0.210154
O O6 0.810002 0.867265 0.267849
O O7 0.797628 0.832880 0.000000
O O8 0.070137 0.729543 0.500000
O O9 0.125097 0.780079 0.720923
O O10 0.842563 0.019074 0.500000
O O11 0.857267 0.045304 0.778178
O O12 0.844636 0.954720 0.710920
O O13 0.000000 0.000000 0.650461
O O14 0.326742 0.366020 0.272751
O O15 0.319766 0.334005 0.000000
O O16 0.413885 0.403674 0.500000
O O17 0.507437 0.395027 0.253266
O O18 0.093869 0.102117 0.500000
#
# Coordination Sequence:
#
# PCOD8235851 Si02
#       7
#     8   8   8   8   8   8   8
#     4   9  18  31  46  64  88 118 151 184 215 253
#     4   9  18  31  45  65  91 117 147 182 219 257
#     4   9  18  31  46  64  89 119 148 181 220 258
#     4   8  16  30  44  60  86 117 146 176 213 260
#     4   9  18  32  46  62  88 121 151 178 215 260
#     4  11  20  28  43  67  91 116 147 182 219 259
#     4  10  19  30  45  65  89 119 150 178 214 261
#
# _framework density 15.692709000000001
#
# number of rings (size 3 to 8) (size 9 to 14) (size 15 to 20)
#    0.000    2.714    0.000    5.143    0.000    7.714 
#    0.000    2.857    0.000    0.000    0.000    1.000 
#    0.000    8.000    0.000    0.000    0.000    0.000 
#
# Total GULP energy -694257.075920 kJ/mol
# GULP energy per Si atom -12397.447784 kJ/mol
# Density = 1.565699 g / cm^3
# Si number density = 15.692709 Si / 1000 Ang^3
#
#
#
# Elastic Constant Matrix: (Units=GPa)
#
#
# Indices 1 2 3 4 5 6 
#
# 1 82.8934 43.2382 42.6371 0.0000 0.0000 0.0000
# 2 43.2382 116.0712 60.3305 0.0000 0.0000 0.0000
# 3 42.6371 60.3305 83.2445 0.0000 0.0000 0.0000
# 4 0.0000 0.0000 0.0000 21.3276 0.0000 0.0000
# 5 0.0000 0.0000 0.0000 0.0000 27.2058 0.0000
# 6 0.0000 0.0000 0.0000 0.0000 0.0000 18.9526
#
#
#
# Elastic Compliance Matrix: (Units=1/GPa)
#
#
# Indices 1 2 3 4 5 6 
#
# 1 0.016963 -0.002893 -0.006592 0.000000 0.000000 0.000000
# 2 -0.002893 0.014316 -0.008893 0.000000 0.000000 0.000000
# 3 -0.006592 -0.008893 0.021834 0.000000 0.000000 0.000000
# 4 0.000000 0.000000 0.000000 0.046887 0.000000 0.000000
# 5 0.000000 0.000000 0.000000 0.000000 0.036757 0.000000
# 6 0.000000 0.000000 0.000000 0.000000 0.000000 0.052763
#
#
# Mechanical properties :
#
#
# Convention : Reuss Voigt Hill
#
# Bulk Modulus (GPa) = 61.13533 63.84674 62.49104
# Shear Modulus (GPa) = 21.57691 22.56410 22.07050
#
# Velocity S-wave (km/s) = 3.71207 3.79604 3.75429
# Velocity P-wave (km/s) = 7.57727 7.74514 7.66166
#
# Compressibility (1/GPa) = 0.01635715
#
# Stress axis : x y z
#
# Youngs Moduli (GPa) = 58.95112 69.85419 45.79908
#
# Poissons Ratio (x) = 0.20207 0.30190
# Poissons Ratio (y) = 0.17053 0.40731
# Poissons Ratio (z) = 0.38860 0.62124
#
# Static dielectric constant tensor:
#      x y z
#    x 2.851600 0.000000 0.000000 
#    y 0.000000 3.188030 0.000000 
#    z 0.000000 0.000000 2.927720 
# 
# 
# High freq. dielectric constant tensor:
#      x y z
#    x 1.570970 0.000000 0.000000 
#    y 0.000000 1.601160 0.000000 
#    z 0.000000 0.000000 1.603840 
# 
# From -- ./inp_files/7115.got.cif
#   From: 2010.06.25/outbox.cif.g09.slc.cpg/sg58_4_cif.got.tgz:7115.got - 2010.06.26 21:38:00.
