data_PCOD8235712
_publ_section_title
;
Structure prediction by ZEFSAII (Michael W. Deem and Ramdas Pophale) SiO2 
 PCOD8235712
Probable space group: P N N M
;
_chemical_formula_sum "Si O2"
_cell_formula_units_Z 64
_cell_length_a 12.998311
_cell_length_b 27.419491
_cell_length_c 8.946481
_cell_angle_alpha 90.000000
_cell_angle_beta 90.000000
_cell_angle_gamma 90.000000
_cell_volume 3188.589093
_symmetry_space_group_name_H-M "P N N M"
_symmetry_group_IT_number 58
_symmetry_cell_setting 'orthorhombic'
loop_
_space_group_symop_operation_xyz
x,y,z
-x,-y,z
1/2+x,1/2-y,1/2-z
1/2-x,1/2+y,1/2-z
-x,-y,-z
x,y,-z
1/2-x,1/2+y,1/2+z
1/2+x,1/2-y,1/2+z
loop_
_atom_site_type_symbol
_atom_site_label
_atom_site_fract_x
_atom_site_fract_y
_atom_site_fract_z
Si Si1 0.897380 0.879679 0.322861
Si Si2 0.871173 0.123108 0.323274
Si Si3 0.291102 0.947403 0.175001
Si Si4 0.540003 0.198289 0.834945
Si Si5 0.485255 0.094477 0.175376
Si Si6 0.680512 0.277390 0.176814
Si Si7 0.284034 0.049837 0.677718
Si Si8 0.147511 0.765781 0.336305
O O1 0.890703 0.876306 0.500000
O O2 0.868855 0.826499 0.255014
O O3 0.812679 0.918103 0.264143
O O4 0.013550 0.894674 0.275987
O O5 0.854610 0.115667 0.500000
O O6 0.785108 0.094392 0.232130
O O7 0.860368 0.179372 0.275116
O O8 0.409612 0.934278 0.208099
O O9 0.263038 0.996028 0.263065
O O10 0.273268 0.955393 0.000000
O O11 0.498438 0.149380 0.755530
O O12 0.634805 0.226087 0.754755
O O13 0.464877 0.243928 0.850116
O O14 0.573279 0.179563 0.000000
O O15 0.391760 0.069720 0.261219
O O16 0.457403 0.094374 0.000000
O O17 0.798271 0.272605 0.225258
O O18 0.668166 0.277680 0.000000
O O19 0.289652 0.049340 0.500000
O O20 0.200448 0.765679 0.500000
#
# Coordination Sequence:
#
# PCOD8235712 Si02
#       8
#     8   8   8   8   8   8   8   8
#     4   9  19  37  60  85 115 154 198 240 287 345
#     4  10  20  38  61  84 115 154 195 239 286 343
#     4  11  24  41  60  85 115 151 195 244 300 355
#     4   9  17  32  55  80 108 146 183 213 267 335
#     4  10  21  38  59  84 117 153 190 235 290 355
#     4  10  18  33  56  80 111 152 191 226 269 331
#     4  11  23  39  61  87 113 148 196 249 300 347
#     4  10  19  32  53  82 113 145 182 226 274 326
#
# _framework density 20.071573999999998
#
# number of rings (size 3 to 8) (size 9 to 14) (size 15 to 20)
#    0.000    2.000    1.250    2.625    0.000    4.500 
#    0.000    6.250    0.000    0.000    0.000    0.000 
#    0.000    0.000    0.000    0.000    0.000    0.000 
#
# Total GULP energy -793126.676080 kJ/mol
# GULP energy per Si atom -12392.604314 kJ/mol
# Density = 2.002589 g / cm^3
# Si number density = 20.071574 Si / 1000 Ang^3
#
#
#
# Elastic Constant Matrix: (Units=GPa)
#
#
# Indices 1 2 3 4 5 6 
#
# 1 87.3885 13.0652 28.4794 0.0000 0.0000 0.0000
# 2 13.0652 96.9189 22.4198 0.0000 0.0000 0.0000
# 3 28.4794 22.4198 44.2048 0.0000 0.0000 0.0000
# 4 0.0000 0.0000 0.0000 25.1615 0.0000 0.0000
# 5 0.0000 0.0000 0.0000 0.0000 25.0991 0.0000
# 6 0.0000 0.0000 0.0000 0.0000 0.0000 37.6800
#
#
#
# Elastic Compliance Matrix: (Units=1/GPa)
#
#
# Indices 1 2 3 4 5 6 
#
# 1 0.014489 0.000234 -0.009453 0.000000 0.000000 0.000000
# 2 0.000234 0.011693 -0.006081 0.000000 0.000000 0.000000
# 3 -0.009453 -0.006081 0.031796 0.000000 0.000000 0.000000
# 4 0.000000 0.000000 0.000000 0.039743 0.000000 0.000000
# 5 0.000000 0.000000 0.000000 0.000000 0.039842 0.000000
# 6 0.000000 0.000000 0.000000 0.000000 0.000000 0.026539
#
#
# Mechanical properties :
#
#
# Convention : Reuss Voigt Hill
#
# Bulk Modulus (GPa) = 36.52648 39.60453 38.06550
# Shear Modulus (GPa) = 24.53027 28.55799 26.54413
#
# Velocity S-wave (km/s) = 3.49970 3.77610 3.64053
# Velocity P-wave (km/s) = 5.87947 6.22788 6.05618
#
# Compressibility (1/GPa) = 0.02737740
#
# Stress axis : x y z
#
# Youngs Moduli (GPa) = 69.01813 85.52045 31.45008
#
# Poissons Ratio (x) = -0.01997 0.29730
# Poissons Ratio (y) = -0.01612 0.19125
# Poissons Ratio (z) = 0.65244 0.52005
#
# Static dielectric constant tensor:
#      x y z
#    x 3.729220 0.000000 0.000000 
#    y 0.000000 3.815130 0.000000 
#    z 0.000000 0.000000 3.383800 
# 
# 
# High freq. dielectric constant tensor:
#      x y z
#    x 1.794650 0.000000 0.000000 
#    y 0.000000 1.797640 0.000000 
#    z 0.000000 0.000000 1.747510 
# 
# From -- ./inp_files/4681.got.cif
#   From: 2010.06.25/outbox.cif.g09.slc.cpg/sg58_3_cif.got.tgz:4681.got - 2010.06.26 21:38:00.
