data_PCOD8235504
_publ_section_title
;
Structure prediction by ZEFSAII (Michael W. Deem and Ramdas Pophale) SiO2 
 PCOD8235504
Probable space group: P N N M
;
_chemical_formula_sum "Si O2"
_cell_formula_units_Z 64
_cell_length_a 16.676217
_cell_length_b 22.574219
_cell_length_c 9.216290
_cell_angle_alpha 90.000000
_cell_angle_beta 90.000000
_cell_angle_gamma 90.000000
_cell_volume 3469.496099
_symmetry_space_group_name_H-M "P N N M"
_symmetry_group_IT_number 58
_symmetry_cell_setting 'orthorhombic'
loop_
_space_group_symop_operation_xyz
x,y,z
-x,-y,z
1/2+x,1/2-y,1/2-z
1/2-x,1/2+y,1/2-z
-x,-y,-z
x,y,-z
1/2-x,1/2+y,1/2+z
1/2+x,1/2-y,1/2+z
loop_
_atom_site_type_symbol
_atom_site_label
_atom_site_fract_x
_atom_site_fract_y
_atom_site_fract_z
Si Si1 0.914305 0.127894 0.833438
Si Si2 0.531742 0.201613 0.672697
Si Si3 0.782296 0.036657 0.168529
Si Si4 0.417274 0.670227 0.668155
Si Si5 0.352227 0.173012 0.672436
Si Si6 0.813133 0.216788 0.664625
Si Si7 0.325468 0.876453 0.663953
Si Si8 0.733718 0.402302 0.672625
O O1 0.867543 0.067571 0.791483
O O2 0.887016 0.180840 0.730560
O O3 0.009839 0.122951 0.810131
O O4 0.895112 0.145729 0.000000
O O5 0.532718 0.206448 0.500000
O O6 0.560313 0.265507 0.737360
O O7 0.443140 0.183937 0.726168
O O8 0.590094 0.148399 0.724871
O O9 0.707166 0.068790 0.243799
O O10 0.788301 0.969089 0.218598
O O11 0.764486 0.041685 0.000000
O O12 0.400259 0.680504 0.500000
O O13 0.337600 0.640012 0.733695
O O14 0.345106 0.169769 0.500000
O O15 0.297890 0.225618 0.737653
O O16 0.316378 0.113593 0.744769
O O17 0.833683 0.235149 0.500000
O O18 0.732945 0.179274 0.671770
O O19 0.334549 0.899551 0.500000
O O20 0.745092 0.396609 0.500000
#
# Coordination Sequence:
#
# PCOD8235504 Si02
#       8
#     8   8   8   8   8   8   8   8
#     4   9  16  30  53  78 105 138 171 210 253 301
#     4   9  17  31  52  78 101 127 169 216 257 303
#     4   9  19  34  52  77 107 136 175 218 258 302
#     4   9  16  30  54  79 106 135 168 211 258 310
#     4  11  21  34  53  75 103 136 172 217 264 310
#     4  10  18  30  51  78 106 133 165 206 260 319
#     4   9  18  33  55  76  98 135 177 212 252 308
#     4  10  21  36  53  75 105 141 176 214 259 310
#
# _framework density 18.446483000000001
#
# number of rings (size 3 to 8) (size 9 to 14) (size 15 to 20)
#    0.000    2.500    1.250    1.500    0.000    3.500 
#    0.000    5.000    0.000    3.750    0.000    4.375 
#    0.000    0.000    0.000    0.000    0.000    0.000 
#
# Total GULP energy -793300.728026 kJ/mol
# GULP energy per Si atom -12395.323875 kJ/mol
# Density = 1.840450 g / cm^3
# Si number density = 18.446483 Si / 1000 Ang^3
#
#
#
# Elastic Constant Matrix: (Units=GPa)
#
#
# Indices 1 2 3 4 5 6 
#
# 1 105.8049 66.0682 29.7960 0.0000 0.0000 0.0000
# 2 66.0682 105.8511 31.3597 0.0000 0.0000 0.0000
# 3 29.7960 31.3597 44.2339 0.0000 0.0000 0.0000
# 4 0.0000 0.0000 0.0000 27.0303 0.0000 0.0000
# 5 0.0000 0.0000 0.0000 0.0000 22.9069 0.0000
# 6 0.0000 0.0000 0.0000 0.0000 0.0000 24.9243
#
#
#
# Elastic Compliance Matrix: (Units=1/GPa)
#
#
# Indices 1 2 3 4 5 6 
#
# 1 0.016240 -0.008729 -0.004751 0.000000 0.000000 0.000000
# 2 -0.008729 0.016651 -0.005925 0.000000 0.000000 0.000000
# 3 -0.004751 -0.005925 0.030008 0.000000 0.000000 0.000000
# 4 0.000000 0.000000 0.000000 0.036996 0.000000 0.000000
# 5 0.000000 0.000000 0.000000 0.000000 0.043655 0.000000
# 6 0.000000 0.000000 0.000000 0.000000 0.000000 0.040121
#
#
# Mechanical properties :
#
#
# Convention : Reuss Voigt Hill
#
# Bulk Modulus (GPa) = 41.51226 56.70420 49.10823
# Shear Modulus (GPa) = 21.69113 23.55003 22.62058
#
# Velocity S-wave (km/s) = 3.43285 3.57693 3.50563
# Velocity P-wave (km/s) = 6.18592 6.91851 6.56245
#
# Compressibility (1/GPa) = 0.02408927
#
# Stress axis : x y z
#
# Youngs Moduli (GPa) = 61.57715 60.05752 33.32476
#
# Poissons Ratio (x) = 0.52423 0.15832
# Poissons Ratio (y) = 0.53749 0.19744
# Poissons Ratio (z) = 0.29254 0.35583
#
# Static dielectric constant tensor:
#      x y z
#    x 3.555650 0.000000 0.000000 
#    y 0.000000 3.466820 0.000000 
#    z 0.000000 0.000000 3.211480 
# 
# 
# High freq. dielectric constant tensor:
#      x y z
#    x 1.717960 0.000000 0.000000 
#    y 0.000000 1.705940 0.000000 
#    z 0.000000 0.000000 1.685130 
# 
# From -- ./inp_files/6959.got.cif
#   From: 2010.06.25/outbox.cif.g09.slc.cpg/sg58_4_cif.got.tgz:6959.got - 2010.06.26 21:38:00.
