data_PCOD8235432
_publ_section_title
;
Structure prediction by ZEFSAII (Michael W. Deem and Ramdas Pophale) SiO2 
 PCOD8235432
Probable space group: P N N M
;
_chemical_formula_sum "Si O2"
_cell_formula_units_Z 48
_cell_length_a 16.705224
_cell_length_b 18.560325
_cell_length_c 8.688053
_cell_angle_alpha 90.000000
_cell_angle_beta 90.000000
_cell_angle_gamma 90.000000
_cell_volume 2693.768944
_symmetry_space_group_name_H-M "P N N M"
_symmetry_group_IT_number 58
_symmetry_cell_setting 'orthorhombic'
loop_
_space_group_symop_operation_xyz
x,y,z
-x,-y,z
1/2+x,1/2-y,1/2-z
1/2-x,1/2+y,1/2-z
-x,-y,-z
x,y,-z
1/2-x,1/2+y,1/2+z
1/2+x,1/2-y,1/2+z
loop_
_atom_site_type_symbol
_atom_site_label
_atom_site_fract_x
_atom_site_fract_y
_atom_site_fract_z
Si Si1 0.934285 0.715304 0.821762
Si Si2 0.511723 0.418443 0.318279
Si Si3 0.519402 0.923079 0.321621
Si Si4 0.920695 0.203287 0.320745
Si Si5 0.835834 0.328037 0.179656
Si Si6 0.343841 0.669255 0.820148
O O1 0.852333 0.751676 0.762072
O O2 0.941630 0.628988 0.798924
O O3 0.000484 0.751023 0.713938
O O4 0.949517 0.735352 0.000000
O O5 0.500000 0.500000 0.262334
O O6 0.518471 0.412685 0.500000
O O7 0.433601 0.374137 0.260886
O O8 0.594525 0.388617 0.247779
O O9 0.536747 0.937351 0.500000
O O10 0.599623 0.885555 0.252073
O O11 0.500000 0.000000 0.240667
O O12 0.908630 0.189838 0.500000
O O13 0.845756 0.249032 0.256449
O O14 0.746685 0.357251 0.212226
O O15 0.852941 0.317124 0.000000
O O16 0.360091 0.678182 0.000000
#
# Coordination Sequence:
#
# PCOD8235432 Si02
#       6
#     8   8   8   8   8   8
#     4   9  16  28  47  68  92 121 155 193 234 286
#     4  10  20  34  52  72  98 132 165 199 245 301
#     4   8  14  27  48  70  91 119 155 192 231 281
#     4  10  18  29  49  72  93 121 160 201 236 281
#     4   9  18  32  49  70  97 128 160 199 248 292
#     4  10  19  31  49  71  97 127 161 204 246 287
#
# _framework density 17.818898999999998
#
# number of rings (size 3 to 8) (size 9 to 14) (size 15 to 20)
#    0.000    2.667    0.000    6.000    0.000    2.667 
#    0.000    1.667    0.000   14.500    0.000    0.000 
#    0.000    0.000    0.000    0.000    0.000    0.000 
#
# Total GULP energy -594703.416241 kJ/mol
# GULP energy per Si atom -12389.654505 kJ/mol
# Density = 1.777834 g / cm^3
# Si number density = 17.818899 Si / 1000 Ang^3
#
#
#
# Elastic Constant Matrix: (Units=GPa)
#
#
# Indices 1 2 3 4 5 6 
#
# 1 88.2545 55.1813 36.5567 0.0000 0.0000 0.0000
# 2 55.1813 155.9676 39.7396 0.0000 0.0000 0.0000
# 3 36.5567 39.7396 59.7650 0.0000 0.0000 0.0000
# 4 0.0000 0.0000 0.0000 14.1220 0.0000 0.0000
# 5 0.0000 0.0000 0.0000 0.0000 22.4151 0.0000
# 6 0.0000 0.0000 0.0000 0.0000 0.0000 20.1551
#
#
#
# Elastic Compliance Matrix: (Units=1/GPa)
#
#
# Indices 1 2 3 4 5 6 
#
# 1 0.017084 -0.004071 -0.007742 0.000000 0.000000 0.000000
# 2 -0.004071 0.008690 -0.003288 0.000000 0.000000 0.000000
# 3 -0.007742 -0.003288 0.023654 0.000000 0.000000 0.000000
# 4 0.000000 0.000000 0.000000 0.070811 0.000000 0.000000
# 5 0.000000 0.000000 0.000000 0.000000 0.044613 0.000000
# 6 0.000000 0.000000 0.000000 0.000000 0.000000 0.049615
#
#
# Mechanical properties :
#
#
# Convention : Reuss Voigt Hill
#
# Bulk Modulus (GPa) = 52.01711 62.99358 57.50534
# Shear Modulus (GPa) = 19.91414 22.83908 21.37661
#
# Velocity S-wave (km/s) = 3.34666 3.58401 3.46737
# Velocity P-wave (km/s) = 6.64748 7.24953 6.95502
#
# Compressibility (1/GPa) = 0.01922444
#
# Stress axis : x y z
#
# Youngs Moduli (GPa) = 58.53571 115.07812 42.27599
#
# Poissons Ratio (x) = 0.46854 0.32732
# Poissons Ratio (y) = 0.23833 0.13899
# Poissons Ratio (z) = 0.45320 0.37834
#
# Static dielectric constant tensor:
#      x y z
#    x 3.336680 0.000000 0.000000 
#    y 0.000000 3.694020 0.000000 
#    z 0.000000 0.000000 3.219180 
# 
# 
# High freq. dielectric constant tensor:
#      x y z
#    x 1.666000 0.000000 0.000000 
#    y 0.000000 1.684410 0.000000 
#    z 0.000000 0.000000 1.682450 
# 
# From -- ./inp_files/7871.got.cif
#   From: 2010.06.25/outbox.cif.g09.slc.cpg/sg58_4_cif.got.tgz:7871.got - 2010.06.26 21:38:00.
