data_PCOD8235304
_publ_section_title
;
Structure prediction by ZEFSAII (Michael W. Deem and Ramdas Pophale) SiO2 
 PCOD8235304
Probable space group: P N N M
;
_chemical_formula_sum "Si O2"
_cell_formula_units_Z 56
_cell_length_a 9.249240
_cell_length_b 18.014920
_cell_length_c 19.079113
_cell_angle_alpha 90.000000
_cell_angle_beta 90.000000
_cell_angle_gamma 90.000000
_cell_volume 3179.044204
_symmetry_space_group_name_H-M "P N N M"
_symmetry_group_IT_number 58
_symmetry_cell_setting 'orthorhombic'
loop_
_space_group_symop_operation_xyz
x,y,z
-x,-y,z
1/2+x,1/2-y,1/2-z
1/2-x,1/2+y,1/2-z
-x,-y,-z
x,y,-z
1/2-x,1/2+y,1/2+z
1/2+x,1/2-y,1/2+z
loop_
_atom_site_type_symbol
_atom_site_label
_atom_site_fract_x
_atom_site_fract_y
_atom_site_fract_z
Si Si1 0.412021 0.927868 0.331469
Si Si2 0.836766 0.360567 0.919059
Si Si3 0.783399 0.447944 0.316849
Si Si4 0.163464 0.026490 0.337068
Si Si5 0.095235 0.394374 0.682746
Si Si6 0.546313 0.415420 0.421153
Si Si7 0.716434 0.688815 0.419274
O O1 0.508757 0.884779 0.387192
O O2 0.365009 0.878260 0.264471
O O3 0.500000 0.000000 0.300316
O O4 0.265523 0.959624 0.366410
O O5 0.699659 0.400694 0.883017
O O6 0.823907 0.273577 0.907285
O O7 0.838153 0.382609 0.000000
O O8 0.700046 0.454348 0.243175
O O9 0.829844 0.529459 0.343762
O O10 0.681405 0.404654 0.370735
O O11 0.922243 0.395258 0.316229
O O12 0.000000 0.000000 0.346429
O O13 0.148899 0.329567 0.631329
O O14 0.500000 0.500000 0.415678
O O15 0.592642 0.394325 0.500000
O O16 0.418258 0.361651 0.395892
O O17 0.759669 0.672905 0.500000
#
# Coordination Sequence:
#
# PCOD8235304 Si02
#       7
#     8   8   8   8   8   8   8
#     4   9  17  36  58  83 108 144 187 230 279 348
#     4  10  21  41  59  78 115 154 187 231 289 344
#     4  10  18  32  54  81 112 145 179 235 282 323
#     4  10  20  35  59  89 113 135 187 243 295 338
#     4  10  17  33  54  77 114 142 181 231 275 331
#     4  10  19  32  51  78 107 147 197 225 262 329
#     4  10  22  37  54  79 116 157 191 230 278 331
#
# _framework density 17.615356999999999
#
# number of rings (size 3 to 8) (size 9 to 14) (size 15 to 20)
#    0.000    2.143    5.714    0.429    2.000    3.429 
#    2.571    2.857    0.000    3.429    0.000    0.000 
#    0.000    0.000    0.000    0.000    0.000    0.000 
#
# Total GULP energy -694181.147594 kJ/mol
# GULP energy per Si atom -12396.091921 kJ/mol
# Density = 1.757526 g / cm^3
# Si number density = 17.615357 Si / 1000 Ang^3
#
#
#
# Elastic Constant Matrix: (Units=GPa)
#
#
# Indices 1 2 3 4 5 6 
#
# 1 121.8113 49.1234 45.5122 0.0000 0.0000 0.0000
# 2 49.1234 74.9272 43.8606 0.0000 0.0000 0.0000
# 3 45.5122 43.8606 83.3140 0.0000 0.0000 0.0000
# 4 0.0000 0.0000 0.0000 24.6265 0.0000 0.0000
# 5 0.0000 0.0000 0.0000 0.0000 23.9604 0.0000
# 6 0.0000 0.0000 0.0000 0.0000 0.0000 21.7618
#
#
#
# Elastic Compliance Matrix: (Units=1/GPa)
#
#
# Indices 1 2 3 4 5 6 
#
# 1 0.011802 -0.005729 -0.003431 0.000000 0.000000 0.000000
# 2 -0.005729 0.022072 -0.008490 0.000000 0.000000 0.000000
# 3 -0.003431 -0.008490 0.018347 0.000000 0.000000 0.000000
# 4 0.000000 0.000000 0.000000 0.040607 0.000000 0.000000
# 5 0.000000 0.000000 0.000000 0.000000 0.041735 0.000000
# 6 0.000000 0.000000 0.000000 0.000000 0.000000 0.045952
#
#
# Mechanical properties :
#
#
# Convention : Reuss Voigt Hill
#
# Bulk Modulus (GPa) = 59.10090 61.89390 60.49740
# Shear Modulus (GPa) = 22.57789 23.50684 23.04236
#
# Velocity S-wave (km/s) = 3.58399 3.65698 3.62067
# Velocity P-wave (km/s) = 7.12392 7.28313 7.20396
#
# Compressibility (1/GPa) = 0.01692022
#
# Stress axis : x y z
#
# Youngs Moduli (GPa) = 84.73387 45.30556 54.50556
#
# Poissons Ratio (x) = 0.25955 0.18700
# Poissons Ratio (y) = 0.48544 0.46277
# Poissons Ratio (z) = 0.29072 0.38466
#
# Static dielectric constant tensor:
#      x y z
#    x 3.351550 0.000000 0.000000 
#    y 0.000000 3.065330 0.000000 
#    z 0.000000 0.000000 3.291890 
# 
# 
# High freq. dielectric constant tensor:
#      x y z
#    x 1.679800 0.000000 0.000000 
#    y 0.000000 1.653950 0.000000 
#    z 0.000000 0.000000 1.683150 
# 
# From -- ./inp_files/29072.got.cif
#   From: 2010.06.25/outbox.cif.g09.slc.cpg/sg58_15_cif.got.tgz:29072.got - 2010.06.26 21:38:00.
