data_PCOD8235664
_publ_section_title
;
Structure prediction by ZEFSAII (Michael W. Deem and Ramdas Pophale) SiO2 
 PCOD8235664
Probable space group: P N N M
;
_chemical_formula_sum "Si O2"
_cell_formula_units_Z 64
_cell_length_a 15.534539
_cell_length_b 24.025135
_cell_length_c 8.939224
_cell_angle_alpha 90.000000
_cell_angle_beta 90.000000
_cell_angle_gamma 90.000000
_cell_volume 3336.291788
_symmetry_space_group_name_H-M "P N N M"
_symmetry_group_IT_number 58
_symmetry_cell_setting 'orthorhombic'
loop_
_space_group_symop_operation_xyz
x,y,z
-x,-y,z
1/2+x,1/2-y,1/2-z
1/2-x,1/2+y,1/2-z
-x,-y,-z
x,y,-z
1/2-x,1/2+y,1/2+z
1/2+x,1/2-y,1/2+z
loop_
_atom_site_type_symbol
_atom_site_label
_atom_site_fract_x
_atom_site_fract_y
_atom_site_fract_z
Si Si1 0.092810 0.633115 0.823447
Si Si2 0.257150 0.432177 0.822066
Si Si3 0.653825 0.249668 0.823538
Si Si4 0.408710 0.629107 0.176695
Si Si5 0.914146 0.131029 0.822395
Si Si6 0.847863 0.248862 0.177627
Si Si7 0.754017 0.441657 0.177605
Si Si8 0.903013 0.640960 0.175364
O O1 0.108610 0.695170 0.757505
O O2 0.161863 0.589713 0.755243
O O3 0.995703 0.613588 0.784534
O O4 0.107149 0.635808 0.000000
O O5 0.340789 0.407970 0.744027
O O6 0.245727 0.495192 0.765254
O O7 0.172868 0.398818 0.766005
O O8 0.268110 0.428772 0.000000
O O9 0.613814 0.308290 0.774853
O O10 0.750726 0.245539 0.760995
O O11 0.598243 0.201093 0.750937
O O12 0.652377 0.242364 0.000000
O O13 0.494908 0.609763 0.260145
O O14 0.332218 0.589081 0.232852
O O15 0.422713 0.623897 0.000000
O O16 0.899259 0.194480 0.766585
O O17 0.912163 0.126263 0.000000
O O18 0.846488 0.250485 0.000000
O O19 0.758038 0.439863 0.000000
O O20 0.894285 0.650483 0.000000
#
# Coordination Sequence:
#
# PCOD8235664 Si02
#       8
#     8   8   8   8   8   8   8   8
#     4   9  16  30  53  80 106 134 172 214 262 316
#     4  10  21  36  53  78 108 139 180 225 264 302
#     4  10  18  32  55  79 105 139 176 211 258 324
#     4  10  20  35  57  81 104 135 178 224 263 309
#     4  11  22  36  56  79 108 144 175 213 268 325
#     4   9  16  29  51  77 103 135 171 205 252 318
#     4   9  18  34  55  76 103 140 179 220 264 311
#     4  10  20  32  52  82 113 139 169 218 266 310
#
# _framework density 19.182974000000002
#
# number of rings (size 3 to 8) (size 9 to 14) (size 15 to 20)
#    0.000    2.250    2.500    1.125    0.000    2.500 
#    0.000    5.625    0.000    1.500    0.000    1.750 
#    0.000    0.000    0.000    0.000    0.000    0.000 
#
# Total GULP energy -793567.886561 kJ/mol
# GULP energy per Si atom -12399.498228 kJ/mol
# Density = 1.913931 g / cm^3
# Si number density = 19.182974 Si / 1000 Ang^3
#
#
#
# Elastic Constant Matrix: (Units=GPa)
#
#
# Indices 1 2 3 4 5 6 
#
# 1 158.9727 72.4289 25.2979 0.0000 0.0000 0.0000
# 2 72.4289 147.1198 23.9697 0.0000 0.0000 0.0000
# 3 25.2979 23.9697 21.2784 0.0000 0.0000 0.0000
# 4 0.0000 0.0000 0.0000 22.0362 0.0000 0.0000
# 5 0.0000 0.0000 0.0000 0.0000 16.2204 0.0000
# 6 0.0000 0.0000 0.0000 0.0000 0.0000 16.0112
#
#
#
# Elastic Compliance Matrix: (Units=1/GPa)
#
#
# Indices 1 2 3 4 5 6 
#
# 1 0.008863 -0.003241 -0.006886 0.000000 0.000000 0.000000
# 2 -0.003241 0.009511 -0.006860 0.000000 0.000000 0.000000
# 3 -0.006886 -0.006860 0.062910 0.000000 0.000000 0.000000
# 4 0.000000 0.000000 0.000000 0.045380 0.000000 0.000000
# 5 0.000000 0.000000 0.000000 0.000000 0.061651 0.000000
# 6 0.000000 0.000000 0.000000 0.000000 0.000000 0.062456
#
#
# Mechanical properties :
#
#
# Convention : Reuss Voigt Hill
#
# Bulk Modulus (GPa) = 21.13734 63.41820 42.27777
# Shear Modulus (GPa) = 16.63815 24.56519 20.60167
#
# Velocity S-wave (km/s) = 2.94826 3.58239 3.28068
# Velocity P-wave (km/s) = 4.75735 7.08821 6.03635
#
# Compressibility (1/GPa) = 0.04730964
#
# Stress axis : x y z
#
# Youngs Moduli (GPa) = 112.82871 105.14538 15.89573
#
# Poissons Ratio (x) = 0.34083 0.10945
# Poissons Ratio (y) = 0.36573 0.10904
# Poissons Ratio (z) = 0.77691 0.72127
#
# Static dielectric constant tensor:
#      x y z
#    x 3.706660 0.000000 0.000000 
#    y 0.000000 3.674550 0.000000 
#    z 0.000000 0.000000 3.003280 
# 
# 
# High freq. dielectric constant tensor:
#      x y z
#    x 1.764450 0.000000 0.000000 
#    y 0.000000 1.747000 0.000000 
#    z 0.000000 0.000000 1.696160 
# 
# From -- ./inp_files/6819.got.cif
#   From: 2010.06.25/outbox.cif.g09.slc.cpg/sg58_4_cif.got.tgz:6819.got - 2010.06.26 21:38:00.
