data_PCOD8235037
_publ_section_title
;
Structure prediction by ZEFSAII (Michael W. Deem and Ramdas Pophale) SiO2 
 PCOD8235037
Probable space group: P B C M
;
_chemical_formula_sum "Si O2"
_cell_formula_units_Z 40
_cell_length_a 9.253667
_cell_length_b 11.748792
_cell_length_c 17.599972
_cell_angle_alpha 90.000000
_cell_angle_beta 90.000000
_cell_angle_gamma 90.000000
_cell_volume 1913.458551
_symmetry_space_group_name_H-M "P B C M"
_symmetry_group_IT_number 57
_symmetry_cell_setting 'orthorhombic'
loop_
_space_group_symop_operation_xyz
x,y,z
-x,-y,1/2+z
x,1/2-y,-z
-x,1/2+y,1/2-z
-x,-y,-z
x,y,1/2-z
-x,1/2+y,z
x,1/2-y,1/2+z
loop_
_atom_site_type_symbol
_atom_site_label
_atom_site_fract_x
_atom_site_fract_y
_atom_site_fract_z
Si Si1 0.302117 0.314713 0.932635
Si Si2 0.216075 0.603356 0.418728
Si Si3 0.753665 0.138310 0.591652
Si Si4 0.922037 0.956236 0.662341
Si Si5 0.565391 0.591466 0.574371
O O1 0.200593 0.378804 0.875318
O O2 0.384849 0.212749 0.888296
O O3 0.417055 0.395853 0.980837
O O4 0.208926 0.250000 0.000000
O O5 0.262074 0.728390 0.390773
O O6 0.184939 0.608820 0.508295
O O7 0.341011 0.514365 0.395433
O O8 0.073067 0.561642 0.377672
O O9 0.599555 0.075872 0.599717
O O10 0.867785 0.086003 0.651576
O O11 0.936673 0.924879 0.750000
#
# Coordination Sequence:
#
# PCOD8235037 Si02
#       5
#     8   8   8   8   8
#     4   8  19  38  69  96 126 167 226 277 316 386
#     4  11  23  39  69  97 130 173 220 273 323 394
#     4  11  23  39  72 101 126 168 230 280 321 393
#     4  12  27  42  60  94 143 180 212 272 339 396
#     4   9  20  39  72 100 125 159 228 284 321 372
#
# _framework density 20.904554000000001
#
# number of rings (size 3 to 8) (size 9 to 14) (size 15 to 20)
#    1.200    0.400    2.000    3.600    8.400    0.800 
#    0.000    2.000    0.000    0.000    0.000    0.000 
#    0.000    0.000    0.000    0.000    0.000    0.000 
#
# Total GULP energy -495547.827089 kJ/mol
# GULP energy per Si atom -12388.695677 kJ/mol
# Density = 2.085697 g / cm^3
# Si number density = 20.904554 Si / 1000 Ang^3
#
#
#
# Elastic Constant Matrix: (Units=GPa)
#
#
# Indices 1 2 3 4 5 6 
#
# 1 148.0244 52.6931 51.3336 0.0000 0.0000 0.0000
# 2 52.6931 94.4805 24.3763 0.0000 0.0000 0.0000
# 3 51.3336 24.3763 57.7728 0.0000 0.0000 0.0000
# 4 0.0000 0.0000 0.0000 16.9592 0.0000 0.0000
# 5 0.0000 0.0000 0.0000 0.0000 -1.2245 0.0000
# 6 0.0000 0.0000 0.0000 0.0000 0.0000 25.2082
#
#
#
# Elastic Compliance Matrix: (Units=1/GPa)
#
#
# Indices 1 2 3 4 5 6 
#
# 1 0.010992 -0.004052 -0.008058 0.000000 0.000000 0.000000
# 2 -0.004052 0.013371 -0.002041 0.000000 0.000000 0.000000
# 3 -0.008058 -0.002041 0.025330 0.000000 0.000000 0.000000
# 4 0.000000 0.000000 0.000000 0.058965 0.000000 0.000000
# 5 0.000000 0.000000 0.000000 0.000000 -0.816689 0.000000
# 6 0.000000 0.000000 0.000000 0.000000 0.000000 0.039670
#
#
# Mechanical properties :
#
#
# Convention : Reuss Voigt Hill
#
# Bulk Modulus (GPa) = 46.74743 61.89818 54.32280
# Shear Modulus (GPa) = -7.89977 19.64690 5.87357
#
# Velocity S-wave (km/s) = -1.94607 3.06900 1.67804
# Velocity P-wave (km/s) = 4.16669 6.49866 5.45866
#
# Compressibility (1/GPa) = 0.02139155
#
# Stress axis : x y z
#
# Youngs Moduli (GPa) = 90.97351 74.79124 39.47884
#
# Poissons Ratio (x) = 0.30303 0.31810
# Poissons Ratio (y) = 0.36859 0.08059
# Poissons Ratio (z) = 0.73302 0.15268
#
# Static dielectric constant tensor:
#      x y z
#    x 3.675320 0.000000 0.000000 
#    y 0.000000 4.242170 0.000000 
#    z 0.000000 0.000000 3.318030 
# 
# 
# High freq. dielectric constant tensor:
#      x y z
#    x 1.816990 0.000000 0.000000 
#    y 0.000000 1.850870 0.000000 
#    z 0.000000 0.000000 1.752060 
# 
# From -- ./inp_files/20513.got.cif
#   From: 2010.03.12/outbox.cif.g09.slc.cpg/sg57_11_cif.got.tgz:20513.got - 2010.04.16 15:48:40.
