data_PCOD8235493
_publ_section_title
;
Structure prediction by ZEFSAII (Michael W. Deem and Ramdas Pophale) SiO2 
 PCOD8235493
Probable space group: P N N M
;
_chemical_formula_sum "Si O2"
_cell_formula_units_Z 64
_cell_length_a 29.254774
_cell_length_b 12.061894
_cell_length_c 9.335765
_cell_angle_alpha 90.000000
_cell_angle_beta 90.000000
_cell_angle_gamma 90.000000
_cell_volume 3294.292565
_symmetry_space_group_name_H-M "P N N M"
_symmetry_group_IT_number 58
_symmetry_cell_setting 'orthorhombic'
loop_
_space_group_symop_operation_xyz
x,y,z
-x,-y,z
1/2+x,1/2-y,1/2-z
1/2-x,1/2+y,1/2-z
-x,-y,-z
x,y,-z
1/2-x,1/2+y,1/2+z
1/2+x,1/2-y,1/2+z
loop_
_atom_site_type_symbol
_atom_site_label
_atom_site_fract_x
_atom_site_fract_y
_atom_site_fract_z
Si Si1 0.722887 0.572607 0.835899
Si Si2 0.023919 0.233169 0.332600
Si Si3 0.336846 0.251406 0.668664
Si Si4 0.066736 0.039045 0.837637
Si Si5 0.850965 0.899620 0.337347
Si Si6 0.678656 0.999576 0.668087
Si Si7 0.560404 0.714111 0.338680
Si Si8 0.881235 0.660059 0.663724
O O1 0.697311 0.663690 0.743120
O O2 0.699332 0.451322 0.823527
O O3 0.774395 0.556648 0.779193
O O4 0.722325 0.612900 0.000000
O O5 0.015342 0.215905 0.500000
O O6 0.036286 0.115427 0.263542
O O7 0.065178 0.318913 0.303736
O O8 0.977048 0.277301 0.259655
O O9 0.334534 0.274480 0.500000
O O10 0.320656 0.128919 0.711149
O O11 0.388836 0.267132 0.723865
O O12 0.117817 0.033560 0.774203
O O13 0.047048 0.915422 0.837993
O O14 0.067669 0.086297 0.000000
O O15 0.870244 0.913202 0.500000
O O16 0.851333 0.769403 0.298440
O O17 0.672449 0.012582 0.500000
O O18 0.635562 0.058844 0.740418
O O19 0.557443 0.761848 0.500000
O O20 0.874016 0.625896 0.500000
#
# Coordination Sequence:
#
# PCOD8235493 Si02
#       8
#     8   8   8   8   8   8   8   8
#     4  10  21  37  58  86 115 145 188 235 283 340
#     4  10  21  35  54  81 112 152 193 232 288 345
#     4  10  22  41  61  84 117 153 189 233 289 343
#     4  10  18  30  50  80 116 149 184 230 278 334
#     4   9  18  33  54  81 113 149 184 227 280 335
#     4  10  23  40  60  84 113 150 193 238 284 338
#     4  10  20  34  53  81 113 148 190 235 285 340
#     4   9  20  38  58  81 112 150 193 234 282 338
#
# _framework density 19.427538999999999
#
# number of rings (size 3 to 8) (size 9 to 14) (size 15 to 20)
#    0.000    2.250    1.250    1.875    1.750    6.500 
#    0.000    0.625    0.000    3.750    0.000    0.000 
#    0.000    0.000    0.000    0.000    0.000    0.000 
#
# Total GULP energy -793559.102340 kJ/mol
# GULP energy per Si atom -12399.360974 kJ/mol
# Density = 1.938332 g / cm^3
# Si number density = 19.427539 Si / 1000 Ang^3
#
#
#
# Elastic Constant Matrix: (Units=GPa)
#
#
# Indices 1 2 3 4 5 6 
#
# 1 125.0067 46.0484 52.4772 0.0000 0.0000 0.0000
# 2 46.0484 76.9089 36.8630 0.0000 0.0000 0.0000
# 3 52.4772 36.8630 76.2394 0.0000 0.0000 0.0000
# 4 0.0000 0.0000 0.0000 25.4330 0.0000 0.0000
# 5 0.0000 0.0000 0.0000 0.0000 31.6652 0.0000
# 6 0.0000 0.0000 0.0000 0.0000 0.0000 18.2032
#
#
#
# Elastic Compliance Matrix: (Units=1/GPa)
#
#
# Indices 1 2 3 4 5 6 
#
# 1 0.012247 -0.004286 -0.006358 0.000000 0.000000 0.000000
# 2 -0.004286 0.018424 -0.005959 0.000000 0.000000 0.000000
# 3 -0.006358 -0.005959 0.020374 0.000000 0.000000 0.000000
# 4 0.000000 0.000000 0.000000 0.039319 0.000000 0.000000
# 5 0.000000 0.000000 0.000000 0.000000 0.031580 0.000000
# 6 0.000000 0.000000 0.000000 0.000000 0.000000 0.054935
#
#
# Mechanical properties :
#
#
# Convention : Reuss Voigt Hill
#
# Bulk Modulus (GPa) = 56.04948 60.99245 58.52097
# Shear Modulus (GPa) = 23.14476 24.57803 23.86139
#
# Velocity S-wave (km/s) = 3.45532 3.56070 3.50841
# Velocity P-wave (km/s) = 6.69568 6.95470 6.82642
#
# Compressibility (1/GPa) = 0.01784138
#
# Stress axis : x y z
#
# Youngs Moduli (GPa) = 81.65107 54.27605 49.08224
#
# Poissons Ratio (x) = 0.23260 0.31206
# Poissons Ratio (y) = 0.34992 0.29246
# Poissons Ratio (z) = 0.51913 0.32341
#
# Static dielectric constant tensor:
#      x y z
#    x 3.663060 0.000000 0.000000 
#    y 0.000000 3.277490 0.000000 
#    z 0.000000 0.000000 3.547020 
# 
# 
# High freq. dielectric constant tensor:
#      x y z
#    x 1.764030 0.000000 0.000000 
#    y 0.000000 1.731840 0.000000 
#    z 0.000000 0.000000 1.753290 
# 
# From -- ./inp_files/11092.got.cif
#   From: 2010.06.25/outbox.cif.g09.slc.cpg/sg58_6_cif.got.tgz:11092.got - 2010.06.26 21:38:00.
