data_PCOD8235713
_publ_section_title
;
Structure prediction by ZEFSAII (Michael W. Deem and Ramdas Pophale) SiO2 
 PCOD8235713
Probable space group: P N N M
;
_chemical_formula_sum "Si O2"
_cell_formula_units_Z 56
_cell_length_a 21.168503
_cell_length_b 14.957829
_cell_length_c 8.592706
_cell_angle_alpha 90.000000
_cell_angle_beta 90.000000
_cell_angle_gamma 90.000000
_cell_volume 2720.750159
_symmetry_space_group_name_H-M "P N N M"
_symmetry_group_IT_number 58
_symmetry_cell_setting 'orthorhombic'
loop_
_space_group_symop_operation_xyz
x,y,z
-x,-y,z
1/2+x,1/2-y,1/2-z
1/2-x,1/2+y,1/2-z
-x,-y,-z
x,y,-z
1/2-x,1/2+y,1/2+z
1/2+x,1/2-y,1/2+z
loop_
_atom_site_type_symbol
_atom_site_label
_atom_site_fract_x
_atom_site_fract_y
_atom_site_fract_z
Si Si1 0.258680 0.019407 0.683777
Si Si2 0.968200 0.258074 0.683945
Si Si3 0.735864 0.183556 0.317388
Si Si4 0.894401 0.745732 0.319700
Si Si5 0.635642 0.422187 0.320874
Si Si6 0.664342 0.833477 0.185095
Si Si7 0.441201 0.435439 0.175377
O O1 0.246829 0.023353 0.500000
O O2 0.209090 0.080502 0.777569
O O3 0.322635 0.071777 0.730046
O O4 0.256043 0.917557 0.746952
O O5 0.971150 0.247170 0.500000
O O6 0.908553 0.317015 0.735599
O O7 0.958252 0.158900 0.753213
O O8 0.037532 0.296591 0.734896
O O9 0.742975 0.181320 0.500000
O O10 0.664250 0.210714 0.279000
O O11 0.789489 0.252443 0.253244
O O12 0.880988 0.726483 0.500000
O O13 0.901125 0.851817 0.288417
O O14 0.625704 0.396708 0.500000
O O15 0.612838 0.522014 0.282460
O O16 0.670521 0.843198 0.000000
O O17 0.500000 0.500000 0.177703
O O18 0.414184 0.423863 0.000000
#
# Coordination Sequence:
#
# PCOD8235713 Si02
#       7
#     8   8   8   8   8   8   8
#     4  11  23  40  62  87 116 155 202 247 299 358
#     4   9  19  36  58  85 118 158 197 241 297 355
#     4  10  22  40  62  88 119 155 196 250 305 347
#     4  11  21  37  61  87 116 155 200 240 289 357
#     4  12  23  35  54  84 121 155 192 242 299 350
#     4  10  20  38  62  87 118 154 195 247 301 349
#     4  10  18  33  56  81 113 153 195 235 287 356
#
# _framework density 20.582559
#
# number of rings (size 3 to 8) (size 9 to 14) (size 15 to 20)
#    0.000    1.571    2.857    3.000    0.000    3.714 
#    0.000    4.286    0.000    4.286    0.000    0.000 
#    0.000    0.000    0.000    0.000    0.000    0.000 
#
# Total GULP energy -694044.548307 kJ/mol
# GULP energy per Si atom -12393.652648 kJ/mol
# Density = 2.053571 g / cm^3
# Si number density = 20.582559 Si / 1000 Ang^3
#
#
#
# Elastic Constant Matrix: (Units=GPa)
#
#
# Indices 1 2 3 4 5 6 
#
# 1 118.3361 14.3540 5.7223 0.0000 0.0000 0.0000
# 2 14.3540 61.6550 8.9314 0.0000 0.0000 0.0000
# 3 5.7223 8.9314 28.4918 0.0000 0.0000 0.0000
# 4 0.0000 0.0000 0.0000 24.8150 0.0000 0.0000
# 5 0.0000 0.0000 0.0000 0.0000 23.2625 0.0000
# 6 0.0000 0.0000 0.0000 0.0000 0.0000 31.1849
#
#
#
# Elastic Compliance Matrix: (Units=1/GPa)
#
#
# Indices 1 2 3 4 5 6 
#
# 1 0.008733 -0.001864 -0.001170 0.000000 0.000000 0.000000
# 2 -0.001864 0.017389 -0.005077 0.000000 0.000000 0.000000
# 3 -0.001170 -0.005077 0.036924 0.000000 0.000000 0.000000
# 4 0.000000 0.000000 0.000000 0.040298 0.000000 0.000000
# 5 0.000000 0.000000 0.000000 0.000000 0.042988 0.000000
# 6 0.000000 0.000000 0.000000 0.000000 0.000000 0.032067
#
#
# Mechanical properties :
#
#
# Convention : Reuss Voigt Hill
#
# Bulk Modulus (GPa) = 21.35573 29.61093 25.48333
# Shear Modulus (GPa) = 23.78379 27.81748 25.80063
#
# Velocity S-wave (km/s) = 3.40300 3.68027 3.54435
# Velocity P-wave (km/s) = 5.08318 5.69885 5.39979
#
# Compressibility (1/GPa) = 0.04682584
#
# Stress axis : x y z
#
# Youngs Moduli (GPa) = 114.50636 57.50902 27.08254
#
# Poissons Ratio (x) = 0.10718 0.03168
# Poissons Ratio (y) = 0.21341 0.13749
# Poissons Ratio (z) = 0.13394 0.29195
#
# Static dielectric constant tensor:
#      x y z
#    x 3.985620 0.000000 0.000000 
#    y 0.000000 3.771440 0.000000 
#    z 0.000000 0.000000 3.359160 
# 
# 
# High freq. dielectric constant tensor:
#      x y z
#    x 1.817550 0.000000 0.000000 
#    y 0.000000 1.790200 0.000000 
#    z 0.000000 0.000000 1.774060 
# 
# From -- ./inp_files/6411.got.cif
#   From: 2010.06.25/outbox.cif.g09.slc.cpg/sg58_4_cif.got.tgz:6411.got - 2010.06.26 21:38:00.
