data_PCOD8235118
_publ_section_title
;
Structure prediction by ZEFSAII (Michael W. Deem and Ramdas Pophale) SiO2 
 PCOD8235118
Probable space group: P B C M
;
_chemical_formula_sum "Si O2"
_cell_formula_units_Z 48
_cell_length_a 6.498379
_cell_length_b 15.865061
_cell_length_c 19.937335
_cell_angle_alpha 90.000000
_cell_angle_beta 90.000000
_cell_angle_gamma 90.000000
_cell_volume 2055.483000
_symmetry_space_group_name_H-M "P B C M"
_symmetry_group_IT_number 57
_symmetry_cell_setting 'orthorhombic'
loop_
_space_group_symop_operation_xyz
x,y,z
-x,-y,1/2+z
x,1/2-y,-z
-x,1/2+y,1/2-z
-x,-y,-z
x,y,1/2-z
-x,1/2+y,z
x,1/2-y,1/2+z
loop_
_atom_site_type_symbol
_atom_site_label
_atom_site_fract_x
_atom_site_fract_y
_atom_site_fract_z
Si Si1 0.726578 0.750000 0.000000
Si Si2 0.310926 0.952856 0.533392
Si Si3 0.601451 0.571887 0.750000
Si Si4 0.456750 0.271245 0.750000
Si Si5 0.081301 0.663455 0.564458
Si Si6 0.071683 0.027943 0.854592
Si Si7 0.216195 0.447713 0.750000
Si Si8 0.605978 0.296907 0.894079
O O1 0.594253 0.765658 0.933702
O O2 0.872915 0.672348 0.979108
O O3 0.244579 0.892104 0.474436
O O4 0.385662 0.897048 0.596599
O O5 0.500000 0.000000 0.500000
O O6 0.124784 0.005602 0.567077
O O7 0.617339 0.674040 0.750000
O O8 0.716322 0.539864 0.684084
O O9 0.383288 0.523627 0.750000
O O10 0.291632 0.349777 0.750000
O O11 0.595277 0.279973 0.815473
O O12 0.185413 0.754164 0.577953
O O13 0.041589 0.618200 0.636374
O O14 0.923766 0.961401 0.816703
#
# Coordination Sequence:
#
# PCOD8235118 Si02
#       8
#     4   8   4   4   8   8   4   8
#     4  12  22  46  76 100 150 190 264 308 382 454
#     4  12  26  45  72 111 148 194 245 317 389 442
#     4  11  25  53  69 106 150 200 247 311 383 448
#     4  12  28  42  84 104 146 206 244 317 387 455
#     4  12  25  46  73 107 142 200 255 310 376 462
#     4  11  27  44  75 103 150 197 247 310 381 461
#     4  11  27  51  73 110 154 200 255 316 378 469
#     4  12  26  49  72 112 150 198 253 321 378 465
#
# _framework density 23.352176
#
# number of rings (size 3 to 8) (size 9 to 14) (size 15 to 20)
#    0.000    0.333    3.333    4.500    9.333    2.667 
#    0.000    4.167    0.000    0.000    0.000    0.000 
#    0.000    0.000    0.000    0.000    0.000    0.000 
#
# Total GULP energy -594857.367726 kJ/mol
# GULP energy per Si atom -12392.861828 kJ/mol
# Density = 2.329903 g / cm^3
# Si number density = 23.352176 Si / 1000 Ang^3
#
#
#
# Elastic Constant Matrix: (Units=GPa)
#
#
# Indices 1 2 3 4 5 6 
#
# 1 99.6217 43.7786 38.4396 0.0000 0.0000 0.0000
# 2 43.7786 124.6885 28.3156 0.0000 0.0000 0.0000
# 3 38.4396 28.3156 127.8207 0.0000 0.0000 0.0000
# 4 0.0000 0.0000 0.0000 38.4692 0.0000 0.0000
# 5 0.0000 0.0000 0.0000 0.0000 15.9693 0.0000
# 6 0.0000 0.0000 0.0000 0.0000 0.0000 35.9191
#
#
#
# Elastic Compliance Matrix: (Units=1/GPa)
#
#
# Indices 1 2 3 4 5 6 
#
# 1 0.012893 -0.003839 -0.003027 0.000000 0.000000 0.000000
# 2 -0.003839 0.009588 -0.000969 0.000000 0.000000 0.000000
# 3 -0.003027 -0.000969 0.008948 0.000000 0.000000 0.000000
# 4 0.000000 0.000000 0.000000 0.025995 0.000000 0.000000
# 5 0.000000 0.000000 0.000000 0.000000 0.062620 0.000000
# 6 0.000000 0.000000 0.000000 0.000000 0.000000 0.027840
#
#
# Mechanical properties :
#
#
# Convention : Reuss Voigt Hill
#
# Bulk Modulus (GPa) = 63.45808 63.68871 63.57340
# Shear Modulus (GPa) = 29.61926 34.17801 31.89863
#
# Velocity S-wave (km/s) = 3.56529 3.82984 3.69993
# Velocity P-wave (km/s) = 6.64693 6.84757 6.74800
#
# Compressibility (1/GPa) = 0.01575843
#
# Stress axis : x y z
#
# Youngs Moduli (GPa) = 77.56063 104.29509 111.75115
#
# Poissons Ratio (x) = 0.40044 0.33825
# Poissons Ratio (y) = 0.29779 0.10833
# Poissons Ratio (z) = 0.23476 0.10110
#
# Static dielectric constant tensor:
#      x y z
#    x 4.187790 0.000000 0.000000 
#    y 0.000000 4.799560 0.000000 
#    z 0.000000 0.000000 4.266600 
# 
# 
# High freq. dielectric constant tensor:
#      x y z
#    x 1.926260 0.000000 0.000000 
#    y 0.000000 1.937140 0.000000 
#    z 0.000000 0.000000 1.934150 
# 
# From -- ./inp_files/26265.got.cif
#   From: 2010.03.12/outbox.cif.g09.slc.cpg/sg57_14_cif.got.tgz:26265.got - 2010.04.16 15:48:40.
