data_PCOD8235818
_publ_section_title
;
Structure prediction by ZEFSAII (Michael W. Deem and Ramdas Pophale) SiO2 
 PCOD8235818
Probable space group: P N N M
;
_chemical_formula_sum "Si O2"
_cell_formula_units_Z 64
_cell_length_a 17.635374
_cell_length_b 21.888987
_cell_length_c 9.259726
_cell_angle_alpha 90.000000
_cell_angle_beta 90.000000
_cell_angle_gamma 90.000000
_cell_volume 3574.443803
_symmetry_space_group_name_H-M "P N N M"
_symmetry_group_IT_number 58
_symmetry_cell_setting 'orthorhombic'
loop_
_space_group_symop_operation_xyz
x,y,z
-x,-y,z
1/2+x,1/2-y,1/2-z
1/2-x,1/2+y,1/2-z
-x,-y,-z
x,y,-z
1/2-x,1/2+y,1/2+z
1/2+x,1/2-y,1/2+z
loop_
_atom_site_type_symbol
_atom_site_label
_atom_site_fract_x
_atom_site_fract_y
_atom_site_fract_z
Si Si1 0.736253 0.511822 0.669456
Si Si2 0.082991 0.273804 0.163395
Si Si3 0.036938 0.436846 0.344433
Si Si4 0.943040 0.352386 0.161498
Si Si5 0.781440 0.395063 0.165051
Si Si6 0.668888 0.101468 0.668988
Si Si7 0.072272 0.038864 0.832531
Si Si8 0.120210 0.154107 0.331235
O O1 0.754903 0.515829 0.500000
O O2 0.785269 0.455779 0.736123
O O3 0.756684 0.577184 0.745407
O O4 0.647531 0.500544 0.699357
O O5 0.139792 0.329912 0.205473
O O6 0.097019 0.219793 0.273214
O O7 0.993307 0.290797 0.177082
O O8 0.101126 0.253097 0.000000
O O9 0.066938 0.411123 0.500000
O O10 0.102953 0.443123 0.226331
O O11 0.000000 0.500000 0.375407
O O12 0.969185 0.396365 0.286346
O O13 0.852279 0.348089 0.185577
O O14 0.959343 0.378653 0.000000
O O15 0.708323 0.355389 0.206823
O O16 0.776308 0.418197 0.000000
O O17 0.682365 0.092723 0.500000
O O18 0.070668 0.101435 0.743150
O O19 0.067018 0.056650 0.000000
O O20 0.000000 0.000000 0.782358
O O21 0.103411 0.151999 0.500000
#
# Coordination Sequence:
#
# PCOD8235818 Si02
#       8
#     8   8   8   8   8   8   8   8
#     4  10  19  31  51  79 106 131 165 211 258 302
#     4   9  19  35  52  70  97 137 178 210 246 300
#     4  10  19  28  41  66  98 128 161 202 243 283
#     4   9  18  32  49  68  93 129 170 207 245 297
#     4   9  18  33  52  74 100 130 166 207 255 313
#     4  10  20  33  49  69  98 137 172 201 242 297
#     4   9  19  37  59  80 103 134 170 208 256 313
#     4  10  20  34  55  80 103 131 167 212 264 308
#
# _framework density 17.904883000000002
#
# number of rings (size 3 to 8) (size 9 to 14) (size 15 to 20)
#    0.000    2.500    0.000    3.000    0.000    7.250 
#    0.000    1.250    0.000    6.000    0.000    0.000 
#    0.000    0.000    0.000    0.000    0.000    0.000 
#
# Total GULP energy -793045.848237 kJ/mol
# GULP energy per Si atom -12391.341379 kJ/mol
# Density = 1.786413 g / cm^3
# Si number density = 17.904883 Si / 1000 Ang^3
#
#
#
# Elastic Constant Matrix: (Units=GPa)
#
#
# Indices 1 2 3 4 5 6 
#
# 1 95.5048 55.9597 42.4228 0.0000 0.0000 0.0000
# 2 55.9597 102.3466 62.9736 0.0000 0.0000 0.0000
# 3 42.4228 62.9736 99.9617 0.0000 0.0000 0.0000
# 4 0.0000 0.0000 0.0000 33.9603 0.0000 0.0000
# 5 0.0000 0.0000 0.0000 0.0000 26.1614 0.0000
# 6 0.0000 0.0000 0.0000 0.0000 0.0000 22.8579
#
#
#
# Elastic Compliance Matrix: (Units=1/GPa)
#
#
# Indices 1 2 3 4 5 6 
#
# 1 0.015658 -0.007304 -0.002044 0.000000 0.000000 0.000000
# 2 -0.007304 0.019362 -0.009098 0.000000 0.000000 0.000000
# 3 -0.002044 -0.009098 0.016603 0.000000 0.000000 0.000000
# 4 0.000000 0.000000 0.000000 0.029446 0.000000 0.000000
# 5 0.000000 0.000000 0.000000 0.000000 0.038224 0.000000
# 6 0.000000 0.000000 0.000000 0.000000 0.000000 0.043748
#
#
# Mechanical properties :
#
#
# Convention : Reuss Voigt Hill
#
# Bulk Modulus (GPa) = 67.88133 68.94724 68.41429
# Shear Modulus (GPa) = 24.40879 25.69305 25.05092
#
# Velocity S-wave (km/s) = 3.69622 3.79222 3.74453
# Velocity P-wave (km/s) = 7.49737 7.60037 7.54905
#
# Compressibility (1/GPa) = 0.01473159
#
# Stress axis : x y z
#
# Youngs Moduli (GPa) = 63.86477 51.64713 60.23044
#
# Poissons Ratio (x) = 0.37721 0.12311
# Poissons Ratio (y) = 0.46645 0.54798
# Poissons Ratio (z) = 0.13054 0.46989
#
# Static dielectric constant tensor:
#      x y z
#    x 3.374040 0.000000 0.000000 
#    y 0.000000 2.956440 0.000000 
#    z 0.000000 0.000000 3.498500 
# 
# 
# High freq. dielectric constant tensor:
#      x y z
#    x 1.687740 0.000000 0.000000 
#    y 0.000000 1.665790 0.000000 
#    z 0.000000 0.000000 1.707160 
# 
# From -- ./inp_files/8279.got.cif
#   From: 2010.06.25/outbox.cif.g09.slc.cpg/sg58_5_cif.got.tgz:8279.got - 2010.06.26 21:38:00.
