data_PCOD8235732
_publ_section_title
;
Structure prediction by ZEFSAII (Michael W. Deem and Ramdas Pophale) SiO2 
 PCOD8235732
Probable space group: P N N M
;
_chemical_formula_sum "Si O2"
_cell_formula_units_Z 44
_cell_length_a 17.780957
_cell_length_b 5.240241
_cell_length_c 23.916800
_cell_angle_alpha 90.000000
_cell_angle_beta 90.000000
_cell_angle_gamma 90.000000
_cell_volume 2228.483713
_symmetry_space_group_name_H-M "P N N M"
_symmetry_group_IT_number 58
_symmetry_cell_setting 'orthorhombic'
loop_
_space_group_symop_operation_xyz
x,y,z
-x,-y,z
1/2+x,1/2-y,1/2-z
1/2-x,1/2+y,1/2-z
-x,-y,-z
x,y,-z
1/2-x,1/2+y,1/2+z
1/2+x,1/2-y,1/2+z
loop_
_atom_site_type_symbol
_atom_site_label
_atom_site_fract_x
_atom_site_fract_y
_atom_site_fract_z
Si Si1 0.701561 0.091668 0.254117
Si Si2 0.779074 0.211988 0.936773
Si Si3 0.132311 0.696980 0.340158
Si Si4 0.500000 0.500000 0.866254
Si Si5 0.794366 0.692208 0.129357
Si Si6 0.892316 0.651358 0.563063
O O1 0.753497 0.326342 0.234602
O O2 0.658402 0.169013 0.312418
O O3 0.641148 0.034453 0.204589
O O4 0.818590 0.466604 0.912629
O O5 0.690616 0.275927 0.935958
O O6 0.802335 0.966940 0.899824
O O7 0.807288 0.163905 0.000000
O O8 0.059965 0.867358 0.324124
O O9 0.210092 0.851901 0.345372
O O10 0.113284 0.610629 0.403191
O O11 0.454819 0.681933 0.907548
O O12 0.917417 0.589967 0.500000
#
# Coordination Sequence:
#
# PCOD8235732 Si02
#       6
#     8   8   8   4   8   8
#     4  10  20  34  56  73  93 124 171 222 258 307
#     4  10  19  32  51  74 100 129 165 208 254 299
#     4  10  22  33  49  69  95 129 176 219 264 295
#     4  12  21  34  46  66  98 134 179 216 258 294
#     4  10  18  34  50  72  95 128 166 209 257 304
#     4  10  21  34  46  64  95 136 180 218 250 288
#
# _framework density 19.744365999999999
#
# number of rings (size 3 to 8) (size 9 to 14) (size 15 to 20)
#    0.000    1.818    1.818    4.636    2.545    2.909 
#    0.000    0.000    0.000    0.000    0.000    0.000 
#    0.000    0.000    0.000    4.909    0.000    5.273 
#
# Total GULP energy -545093.612374 kJ/mol
# GULP energy per Si atom -12388.491190 kJ/mol
# Density = 1.969943 g / cm^3
# Si number density = 19.744366 Si / 1000 Ang^3
#
#
#
# Elastic Constant Matrix: (Units=GPa)
#
#
# Indices 1 2 3 4 5 6 
#
# 1 17.9144 11.9239 11.9343 0.0000 0.0000 0.0000
# 2 11.9239 99.1805 38.2976 0.0000 0.0000 0.0000
# 3 11.9343 38.2976 129.9649 0.0000 0.0000 0.0000
# 4 0.0000 0.0000 0.0000 36.9714 0.0000 0.0000
# 5 0.0000 0.0000 0.0000 0.0000 6.3734 0.0000
# 6 0.0000 0.0000 0.0000 0.0000 0.0000 21.9013
#
#
#
# Elastic Compliance Matrix: (Units=1/GPa)
#
#
# Indices 1 2 3 4 5 6 
#
# 1 0.062444 -0.005973 -0.003974 0.000000 0.000000 0.000000
# 2 -0.005973 0.011948 -0.002972 0.000000 0.000000 0.000000
# 3 -0.003974 -0.002972 0.008935 0.000000 0.000000 0.000000
# 4 0.000000 0.000000 0.000000 0.027048 0.000000 0.000000
# 5 0.000000 0.000000 0.000000 0.000000 0.156902 0.000000
# 6 0.000000 0.000000 0.000000 0.000000 0.000000 0.045659
#
#
# Mechanical properties :
#
#
# Convention : Reuss Voigt Hill
#
# Bulk Modulus (GPa) = 17.39455 41.26347 29.32901
# Shear Modulus (GPa) = 13.96888 25.37616 19.67252
#
# Velocity S-wave (km/s) = 2.66275 3.58891 3.15994
# Velocity P-wave (km/s) = 4.27582 6.17397 5.31039
#
# Compressibility (1/GPa) = 0.05748928
#
# Stress axis : x y z
#
# Youngs Moduli (GPa) = 16.01435 83.69257 111.91663
#
# Poissons Ratio (x) = 0.49987 0.44476
# Poissons Ratio (y) = 0.09565 0.33267
# Poissons Ratio (z) = 0.06364 0.24877
#
# Static dielectric constant tensor:
#      x y z
#    x 3.501700 0.000000 0.000000 
#    y 0.000000 3.634350 0.000000 
#    z 0.000000 0.000000 4.063010 
# 
# 
# High freq. dielectric constant tensor:
#      x y z
#    x 1.687330 0.000000 0.000000 
#    y 0.000000 1.782140 0.000000 
#    z 0.000000 0.000000 1.785760 
# 
# From -- ./inp_files/30339.got.cif
#   From: 2010.06.25/outbox.cif.g09.slc.cpg/sg58_16_cif.got.tgz:30339.got - 2010.06.26 21:38:00.
