data_PCOD8235905
_publ_section_title
;
Structure prediction by ZEFSAII (Michael W. Deem and Ramdas Pophale) SiO2 
 PCOD8235905
Probable space group: P N N M
;
_chemical_formula_sum "Si O2"
_cell_formula_units_Z 64
_cell_length_a 15.381271
_cell_length_b 24.551410
_cell_length_c 9.195761
_cell_angle_alpha 90.000000
_cell_angle_beta 90.000000
_cell_angle_gamma 90.000000
_cell_volume 3472.612612
_symmetry_space_group_name_H-M "P N N M"
_symmetry_group_IT_number 58
_symmetry_cell_setting 'orthorhombic'
loop_
_space_group_symop_operation_xyz
x,y,z
-x,-y,z
1/2+x,1/2-y,1/2-z
1/2-x,1/2+y,1/2-z
-x,-y,-z
x,y,-z
1/2-x,1/2+y,1/2+z
1/2+x,1/2-y,1/2+z
loop_
_atom_site_type_symbol
_atom_site_label
_atom_site_fract_x
_atom_site_fract_y
_atom_site_fract_z
Si Si1 0.286287 0.259088 0.667989
Si Si2 0.824689 0.065427 0.827027
Si Si3 0.819928 0.941692 0.829839
Si Si4 0.996464 0.881784 0.170030
Si Si5 0.674252 0.142391 0.829697
Si Si6 0.984711 0.343399 0.330794
Si Si7 0.311210 0.136572 0.329167
Si Si8 0.043742 0.781132 0.667890
O O1 0.314735 0.264401 0.500000
O O2 0.200526 0.294598 0.701325
O O3 0.270938 0.195955 0.708582
O O4 0.361086 0.285905 0.763678
O O5 0.916089 0.089385 0.770205
O O6 0.744089 0.100376 0.761123
O O7 0.814053 0.003579 0.774455
O O8 0.825613 0.068047 0.000000
O O9 0.749124 0.908265 0.741721
O O10 0.916239 0.920923 0.794178
O O11 0.798688 0.936244 0.000000
O O12 0.981508 0.824781 0.253332
O O13 0.002893 0.869174 0.000000
O O14 0.576241 0.131800 0.772468
O O15 0.672607 0.132206 0.000000
O O16 0.967191 0.356819 0.500000
O O17 0.907817 0.368976 0.236166
O O18 0.993628 0.278863 0.307237
O O19 0.316739 0.126432 0.500000
O O20 0.049424 0.796432 0.500000
#
# Coordination Sequence:
#
# PCOD8235905 Si02
#       8
#     8   8   8   8   8   8   8   8
#     4   9  17  32  54  76 103 139 178 215 260 316
#     4   9  17  33  57  81 104 134 182 229 266 310
#     4  10  21  35  55  80 105 139 182 228 269 313
#     4  10  19  33  53  78 109 142 176 216 265 320
#     4   9  16  30  56  82 101 132 178 226 266 304
#     4   9  19  34  54  78 108 140 175 221 267 314
#     4  10  21  36  55  77 108 145 178 218 269 321
#     4  10  19  30  48  77 112 141 170 210 262 317
#
# _framework density 18.429928
#
# number of rings (size 3 to 8) (size 9 to 14) (size 15 to 20)
#    0.000    2.500    1.250    1.125    1.750    3.000 
#    0.000    1.875    0.000    5.250    0.000    0.000 
#    0.000    0.000    0.000    0.000    0.000    0.000 
#
# Total GULP energy -793466.988441 kJ/mol
# GULP energy per Si atom -12397.921694 kJ/mol
# Density = 1.838798 g / cm^3
# Si number density = 18.429928 Si / 1000 Ang^3
#
#
#
# Elastic Constant Matrix: (Units=GPa)
#
#
# Indices 1 2 3 4 5 6 
#
# 1 143.8530 63.8013 42.1956 0.0000 0.0000 0.0000
# 2 63.8013 89.0584 28.6415 0.0000 0.0000 0.0000
# 3 42.1956 28.6415 46.7204 0.0000 0.0000 0.0000
# 4 0.0000 0.0000 0.0000 24.0813 0.0000 0.0000
# 5 0.0000 0.0000 0.0000 0.0000 18.1643 0.0000
# 6 0.0000 0.0000 0.0000 0.0000 0.0000 26.2630
#
#
#
# Elastic Compliance Matrix: (Units=1/GPa)
#
#
# Indices 1 2 3 4 5 6 
#
# 1 0.011680 -0.006197 -0.006750 0.000000 0.000000 0.000000
# 2 -0.006197 0.017274 -0.004993 0.000000 0.000000 0.000000
# 3 -0.006750 -0.004993 0.030561 0.000000 0.000000 0.000000
# 4 0.000000 0.000000 0.000000 0.041526 0.000000 0.000000
# 5 0.000000 0.000000 0.000000 0.000000 0.055053 0.000000
# 6 0.000000 0.000000 0.000000 0.000000 0.000000 0.038076
#
#
# Mechanical properties :
#
#
# Convention : Reuss Voigt Hill
#
# Bulk Modulus (GPa) = 42.30920 60.98986 51.64953
# Shear Modulus (GPa) = 21.01489 23.36795 22.19142
#
# Velocity S-wave (km/s) = 3.38043 3.56467 3.47377
# Velocity P-wave (km/s) = 6.18410 7.07864 6.64644
#
# Compressibility (1/GPa) = 0.02363552
#
# Stress axis : x y z
#
# Youngs Moduli (GPa) = 85.61854 57.89207 32.72160
#
# Poissons Ratio (x) = 0.35873 0.22086
# Poissons Ratio (y) = 0.53054 0.16338
# Poissons Ratio (z) = 0.57791 0.28905
#
# Static dielectric constant tensor:
#      x y z
#    x 3.550790 0.000000 0.000000 
#    y 0.000000 3.482240 0.000000 
#    z 0.000000 0.000000 3.160940 
# 
# 
# High freq. dielectric constant tensor:
#      x y z
#    x 1.717480 0.000000 0.000000 
#    y 0.000000 1.710410 0.000000 
#    z 0.000000 0.000000 1.684140 
# 
# From -- ./inp_files/6982.got.cif
#   From: 2010.06.25/outbox.cif.g09.slc.cpg/sg58_4_cif.got.tgz:6982.got - 2010.06.26 21:38:00.
