data_PCOD8235997
_publ_section_title
;
Structure prediction by ZEFSAII (Michael W. Deem and Ramdas Pophale) SiO2 
 PCOD8235997
Probable space group: P N N M
;
_chemical_formula_sum "Si O2"
_cell_formula_units_Z 64
_cell_length_a 12.100233
_cell_length_b 16.121237
_cell_length_c 17.371102
_cell_angle_alpha 90.000000
_cell_angle_beta 90.000000
_cell_angle_gamma 90.000000
_cell_volume 3388.593443
_symmetry_space_group_name_H-M "P N N M"
_symmetry_group_IT_number 58
_symmetry_cell_setting 'orthorhombic'
loop_
_space_group_symop_operation_xyz
x,y,z
-x,-y,z
1/2+x,1/2-y,1/2-z
1/2-x,1/2+y,1/2-z
-x,-y,-z
x,y,-z
1/2-x,1/2+y,1/2+z
1/2+x,1/2-y,1/2+z
loop_
_atom_site_type_symbol
_atom_site_label
_atom_site_fract_x
_atom_site_fract_y
_atom_site_fract_z
Si Si1 0.629540 0.008616 0.910618
Si Si2 0.385773 0.195953 0.661001
Si Si3 0.359106 0.771397 0.676476
Si Si4 0.256523 0.849251 0.824078
Si Si5 0.715682 0.606369 0.089539
Si Si6 0.886347 0.472127 0.088489
Si Si7 0.879553 0.031174 0.273757
Si Si8 0.240072 0.610125 0.710547
O O1 0.670307 0.100435 0.885725
O O2 0.500000 0.000000 0.894925
O O3 0.690852 0.937613 0.862450
O O4 0.658089 0.995379 0.000000
O O5 0.512943 0.221897 0.654929
O O6 0.304136 0.270623 0.637106
O O7 0.361087 0.124184 0.599561
O O8 0.357231 0.161169 0.746281
O O9 0.337388 0.819700 0.755918
O O10 0.279879 0.808861 0.609301
O O11 0.332182 0.674325 0.681183
O O12 0.157846 0.905808 0.792313
O O13 0.791622 0.531125 0.119671
O O14 0.612614 0.584227 0.145487
O O15 0.680073 0.605492 0.000000
O O16 0.000000 0.500000 0.131021
O O17 0.896817 0.494195 0.000000
O O18 0.795872 0.952593 0.271707
O O19 0.000000 0.000000 0.252517
#
# Coordination Sequence:
#
# PCOD8235997 Si02
#       8
#     8   8   8   8   8   8   8   8
#     4  10  21  39  61  81 108 145 183 226 274 329
#     4  11  19  33  56  80 108 142 182 225 276 323
#     4  10  20  33  54  80 108 141 177 226 276 319
#     4   9  21  35  52  83 109 138 182 234 273 325
#     4  10  20  34  51  77 110 140 178 219 260 320
#     4  10  19  31  50  79 110 140 176 216 263 320
#     4  10  19  35  55  75 106 143 181 222 272 321
#     4  10  21  35  55  82 106 138 181 227 269 323
#
# _framework density 18.886893000000001
#
# number of rings (size 3 to 8) (size 9 to 14) (size 15 to 20)
#    0.000    2.000    2.500    1.500    0.000    1.750 
#    0.000    0.000    0.000   12.750    0.000    0.000 
#    0.000    0.000    0.000    0.000    0.000    0.000 
#
# Total GULP energy -793286.778589 kJ/mol
# GULP energy per Si atom -12395.105915 kJ/mol
# Density = 1.884391 g / cm^3
# Si number density = 18.886893 Si / 1000 Ang^3
#
#
#
# Elastic Constant Matrix: (Units=GPa)
#
#
# Indices 1 2 3 4 5 6 
#
# 1 50.5721 16.9799 16.8063 0.0000 0.0000 0.0000
# 2 16.9799 107.6239 24.3207 0.0000 0.0000 0.0000
# 3 16.8063 24.3207 71.8987 0.0000 0.0000 0.0000
# 4 0.0000 0.0000 0.0000 18.6801 0.0000 0.0000
# 5 0.0000 0.0000 0.0000 0.0000 13.0551 0.0000
# 6 0.0000 0.0000 0.0000 0.0000 0.0000 30.4939
#
#
#
# Elastic Compliance Matrix: (Units=1/GPa)
#
#
# Indices 1 2 3 4 5 6 
#
# 1 0.022046 -0.002505 -0.004306 0.000000 0.000000 0.000000
# 2 -0.002505 0.010345 -0.002914 0.000000 0.000000 0.000000
# 3 -0.004306 -0.002914 0.015901 0.000000 0.000000 0.000000
# 4 0.000000 0.000000 0.000000 0.053533 0.000000 0.000000
# 5 0.000000 0.000000 0.000000 0.000000 0.076599 0.000000
# 6 0.000000 0.000000 0.000000 0.000000 0.000000 0.032793
#
#
# Mechanical properties :
#
#
# Convention : Reuss Voigt Hill
#
# Bulk Modulus (GPa) = 34.67157 38.47871 36.57514
# Shear Modulus (GPa) = 20.80905 23.91169 22.36037
#
# Velocity S-wave (km/s) = 3.32290 3.56201 3.44453
# Velocity P-wave (km/s) = 5.75496 6.11022 5.93524
#
# Compressibility (1/GPa) = 0.02884207
#
# Stress axis : x y z
#
# Youngs Moduli (GPa) = 45.36013 96.66195 62.89074
#
# Poissons Ratio (x) = 0.24216 0.27079
# Poissons Ratio (y) = 0.11364 0.18325
# Poissons Ratio (z) = 0.19531 0.28166
#
# Static dielectric constant tensor:
#      x y z
#    x 3.529830 0.000000 0.000000 
#    y 0.000000 3.701290 0.000000 
#    z 0.000000 0.000000 3.219470 
# 
# 
# High freq. dielectric constant tensor:
#      x y z
#    x 1.726070 0.000000 0.000000 
#    y 0.000000 1.746520 0.000000 
#    z 0.000000 0.000000 1.715090 
# 
# From -- ./inp_files/26392.got.cif
#   From: 2010.06.25/outbox.cif.g09.slc.cpg/sg58_14_cif.got.tgz:26392.got - 2010.06.26 21:38:00.
