data_PCOD8235042
_publ_section_title
;
Structure prediction by ZEFSAII (Michael W. Deem and Ramdas Pophale) SiO2 
 PCOD8235042
Probable space group: P B C M
;
_chemical_formula_sum "Si O2"
_cell_formula_units_Z 40
_cell_length_a 7.674962
_cell_length_b 14.427301
_cell_length_c 16.598611
_cell_angle_alpha 90.000000
_cell_angle_beta 90.000000
_cell_angle_gamma 90.000000
_cell_volume 1837.947381
_symmetry_space_group_name_H-M "P B C M"
_symmetry_group_IT_number 57
_symmetry_cell_setting 'orthorhombic'
loop_
_space_group_symop_operation_xyz
x,y,z
-x,-y,1/2+z
x,1/2-y,-z
-x,1/2+y,1/2-z
-x,-y,-z
x,y,1/2-z
-x,1/2+y,z
x,1/2-y,1/2+z
loop_
_atom_site_type_symbol
_atom_site_label
_atom_site_fract_x
_atom_site_fract_y
_atom_site_fract_z
Si Si1 0.188040 0.850673 0.500167
Si Si2 0.445328 0.394136 0.489644
Si Si3 0.759027 0.667664 0.659278
Si Si4 0.125377 0.133256 0.104207
Si Si5 0.899231 0.440072 0.337537
O O1 0.100117 0.750000 0.500000
O O2 0.388565 0.841356 0.528923
O O3 0.057465 0.899644 0.562155
O O4 0.206116 0.897359 0.412227
O O5 0.500000 0.500000 0.500000
O O6 0.402737 0.358041 0.399012
O O7 0.274802 0.369825 0.538244
O O8 0.683606 0.671271 0.750000
O O9 0.861871 0.765032 0.643351
O O10 0.897900 0.584747 0.649405
O O11 0.141522 0.050248 0.168269
O O12 0.839802 0.399554 0.250000
#
# Coordination Sequence:
#
# PCOD8235042 Si02
#       5
#     8   8   8   8   8
#     4  12  22  40  68  95 127 169 221 279 328 402
#     4  12  24  41  68  97 129 176 227 275 333 404
#     4  11  24  44  68 100 140 178 224 286 345 406
#     4  12  22  45  69  94 132 179 224 275 339 407
#     4  11  23  40  65  95 128 172 217 270 341 399
#
# _framework density 21.76341
#
# number of rings (size 3 to 8) (size 9 to 14) (size 15 to 20)
#    0.000    0.400    6.000    4.200    0.000    0.800 
#    0.000    0.000    0.000    4.800    0.000    0.000 
#    0.000    0.000    0.000    0.000    0.000    0.000 
#
# Total GULP energy -495527.321180 kJ/mol
# GULP energy per Si atom -12388.183029 kJ/mol
# Density = 2.171388 g / cm^3
# Si number density = 21.763410 Si / 1000 Ang^3
#
#
#
# Elastic Constant Matrix: (Units=GPa)
#
#
# Indices 1 2 3 4 5 6 
#
# 1 115.7296 12.1313 35.7265 0.0000 0.0000 0.0000
# 2 12.1313 115.8936 36.3921 0.0000 0.0000 0.0000
# 3 35.7265 36.3921 106.2689 0.0000 0.0000 0.0000
# 4 0.0000 0.0000 0.0000 28.5894 0.0000 0.0000
# 5 0.0000 0.0000 0.0000 0.0000 14.2605 0.0000
# 6 0.0000 0.0000 0.0000 0.0000 0.0000 34.7226
#
#
#
# Elastic Compliance Matrix: (Units=1/GPa)
#
#
# Indices 1 2 3 4 5 6 
#
# 1 0.009641 0.000010 -0.003245 0.000000 0.000000 0.000000
# 2 0.000010 0.009668 -0.003314 0.000000 0.000000 0.000000
# 3 -0.003245 -0.003314 0.011636 0.000000 0.000000 0.000000
# 4 0.000000 0.000000 0.000000 0.034978 0.000000 0.000000
# 5 0.000000 0.000000 0.000000 0.000000 0.070124 0.000000
# 6 0.000000 0.000000 0.000000 0.000000 0.000000 0.028800
#
#
# Mechanical properties :
#
#
# Convention : Reuss Voigt Hill
#
# Bulk Modulus (GPa) = 56.03116 56.26579 56.14847
# Shear Modulus (GPa) = 27.18946 32.42396 29.80671
#
# Velocity S-wave (km/s) = 3.53841 3.86403 3.70480
# Velocity P-wave (km/s) = 6.51884 6.76884 6.64501
#
# Compressibility (1/GPa) = 0.01784721
#
# Stress axis : x y z
#
# Youngs Moduli (GPa) = 103.71865 103.43086 85.94117
#
# Poissons Ratio (x) = -0.00100 0.27885
# Poissons Ratio (y) = -0.00100 0.28482
# Poissons Ratio (z) = 0.33653 0.34279
#
# Static dielectric constant tensor:
#      x y z
#    x 3.958710 0.000000 0.000000 
#    y 0.000000 3.996120 0.000000 
#    z 0.000000 0.000000 3.538810 
# 
# 
# High freq. dielectric constant tensor:
#      x y z
#    x 1.850560 0.000000 0.000000 
#    y 0.000000 1.870300 0.000000 
#    z 0.000000 0.000000 1.845470 
# 
# From -- ./inp_files/15922.got.cif
#   From: 2010.03.12/outbox.cif.g09.slc.cpg/sg57_8_cif.got.tgz:15922.got - 2010.04.16 15:48:40.
