data_PCOD8235826
_publ_section_title
;
Structure prediction by ZEFSAII (Michael W. Deem and Ramdas Pophale) SiO2 
 PCOD8235826
Probable space group: P N N M
;
_chemical_formula_sum "Si O2"
_cell_formula_units_Z 56
_cell_length_a 19.271259
_cell_length_b 19.367045
_cell_length_c 9.443087
_cell_angle_alpha 90.000000
_cell_angle_beta 90.000000
_cell_angle_gamma 90.000000
_cell_volume 3524.418245
_symmetry_space_group_name_H-M "P N N M"
_symmetry_group_IT_number 58
_symmetry_cell_setting 'orthorhombic'
loop_
_space_group_symop_operation_xyz
x,y,z
-x,-y,z
1/2+x,1/2-y,1/2-z
1/2-x,1/2+y,1/2-z
-x,-y,-z
x,y,-z
1/2-x,1/2+y,1/2+z
1/2+x,1/2-y,1/2+z
loop_
_atom_site_type_symbol
_atom_site_label
_atom_site_fract_x
_atom_site_fract_y
_atom_site_fract_z
Si Si1 0.237233 0.156846 0.335277
Si Si2 0.727877 0.134857 0.666302
Si Si3 0.945995 0.440352 0.833351
Si Si4 0.166295 0.752824 0.337768
Si Si5 0.022334 0.696209 0.337064
Si Si6 0.129932 0.267416 0.335939
Si Si7 0.294575 0.016789 0.333159
O O1 0.254798 0.163617 0.500000
O O2 0.299809 0.193882 0.256245
O O3 0.163544 0.192522 0.298546
O O4 0.238693 0.076063 0.290044
O O5 0.711161 0.136119 0.500000
O O6 0.801350 0.172213 0.700311
O O7 0.665112 0.173387 0.743259
O O8 0.731368 0.056835 0.727231
O O9 0.970183 0.370920 0.758128
O O10 0.870741 0.463510 0.774730
O O11 0.000000 0.500000 0.794285
O O12 0.944291 0.425522 0.000000
O O13 0.183261 0.734733 0.500000
O O14 0.083888 0.751490 0.308558
O O15 0.022516 0.671967 0.500000
O O16 0.951261 0.735916 0.298915
O O17 0.142888 0.285432 0.500000
O O18 0.300017 0.009667 0.500000
#
# Coordination Sequence:
#
# PCOD8235826 Si02
#       7
#     8   8   8   8   8   8   8
#     4   9  16  29  47  63  82 112 150 183 213 255
#     4   9  17  30  47  65  86 112 146 184 218 254
#     4  10  19  29  43  65  91 117 146 177 213 261
#     4   9  17  29  45  64  86 114 146 180 217 259
#     4  10  19  30  43  63  91 119 144 174 219 265
#     4   9  18  30  44  63  88 116 145 178 215 259
#     4   9  16  27  44  65  86 111 143 181 219 252
#
# _framework density 15.889146999999999
#
# number of rings (size 3 to 8) (size 9 to 14) (size 15 to 20)
#    0.000    2.714    1.429    0.857    0.000    2.000 
#    0.000    1.429    0.000    0.857    0.000    6.000 
#    0.000    0.000    0.000   15.571    0.000   16.286 
#
# Total GULP energy -694111.269086 kJ/mol
# GULP energy per Si atom -12394.844091 kJ/mol
# Density = 1.585298 g / cm^3
# Si number density = 15.889147 Si / 1000 Ang^3
#
#
#
# Elastic Constant Matrix: (Units=GPa)
#
#
# Indices 1 2 3 4 5 6 
#
# 1 128.1529 80.7968 31.7293 0.0000 0.0000 0.0000
# 2 80.7968 123.2968 31.8863 0.0000 0.0000 0.0000
# 3 31.7293 31.8863 28.9449 0.0000 0.0000 0.0000
# 4 0.0000 0.0000 0.0000 19.3071 0.0000 0.0000
# 5 0.0000 0.0000 0.0000 0.0000 16.5001 0.0000
# 6 0.0000 0.0000 0.0000 0.0000 0.0000 22.3267
#
#
#
# Elastic Compliance Matrix: (Units=1/GPa)
#
#
# Indices 1 2 3 4 5 6 
#
# 1 0.014381 -0.007477 -0.007527 0.000000 0.000000 0.000000
# 2 -0.007477 0.015229 -0.008580 0.000000 0.000000 0.000000
# 3 -0.007527 -0.008580 0.052252 0.000000 0.000000 0.000000
# 4 0.000000 0.000000 0.000000 0.051795 0.000000 0.000000
# 5 0.000000 0.000000 0.000000 0.000000 0.060606 0.000000
# 6 0.000000 0.000000 0.000000 0.000000 0.000000 0.044789
#
#
# Mechanical properties :
#
#
# Convention : Reuss Voigt Hill
#
# Bulk Modulus (GPa) = 28.82463 63.24663 46.03563
# Shear Modulus (GPa) = 16.79052 20.69225 18.74138
#
# Velocity S-wave (km/s) = 3.25426 3.61264 3.43812
# Velocity P-wave (km/s) = 5.68338 7.56921 6.69304
#
# Compressibility (1/GPa) = 0.03469255
#
# Stress axis : x y z
#
# Youngs Moduli (GPa) = 69.53566 65.66230 19.13791
#
# Poissons Ratio (x) = 0.49098 0.14406
# Poissons Ratio (y) = 0.51994 0.16421
# Poissons Ratio (z) = 0.52342 0.56341
#
# Static dielectric constant tensor:
#      x y z
#    x 3.169180 0.000000 0.000000 
#    y 0.000000 3.227400 0.000000 
#    z 0.000000 0.000000 2.933060 
# 
# 
# High freq. dielectric constant tensor:
#      x y z
#    x 1.604680 0.000000 0.000000 
#    y 0.000000 1.603650 0.000000 
#    z 0.000000 0.000000 1.597810 
# 
# From -- ./inp_files/6437.got.cif
#   From: 2010.06.25/outbox.cif.g09.slc.cpg/sg58_4_cif.got.tgz:6437.got - 2010.06.26 21:38:00.
