data_PCOD8235773
_publ_section_title
;
Structure prediction by ZEFSAII (Michael W. Deem and Ramdas Pophale) SiO2 
 PCOD8235773
Probable space group: P N N M
;
_chemical_formula_sum "Si O2"
_cell_formula_units_Z 48
_cell_length_a 8.956750
_cell_length_b 16.008541
_cell_length_c 17.531414
_cell_angle_alpha 90.000000
_cell_angle_beta 90.000000
_cell_angle_gamma 90.000000
_cell_volume 2513.733024
_symmetry_space_group_name_H-M "P N N M"
_symmetry_group_IT_number 58
_symmetry_cell_setting 'orthorhombic'
loop_
_space_group_symop_operation_xyz
x,y,z
-x,-y,z
1/2+x,1/2-y,1/2-z
1/2-x,1/2+y,1/2-z
-x,-y,-z
x,y,-z
1/2-x,1/2+y,1/2+z
1/2+x,1/2-y,1/2+z
loop_
_atom_site_type_symbol
_atom_site_label
_atom_site_fract_x
_atom_site_fract_y
_atom_site_fract_z
Si Si1 0.056491 0.087561 0.869206
Si Si2 0.662224 0.827905 0.909550
Si Si3 0.076414 0.740969 0.915613
Si Si4 0.451947 0.411299 0.195636
Si Si5 0.612548 0.248195 0.158040
Si Si6 0.824682 0.685856 0.823675
O O1 0.237591 0.094319 0.877915
O O2 0.987083 0.164974 0.914312
O O3 0.002781 0.092968 0.782641
O O4 0.000000 0.000000 0.904962
O O5 0.499290 0.826087 0.869040
O O6 0.745737 0.742794 0.887200
O O7 0.641895 0.834096 0.000000
O O8 0.249898 0.746646 0.898286
O O9 0.993448 0.676810 0.856386
O O10 0.055366 0.704316 0.000000
O O11 0.500000 0.500000 0.159526
O O12 0.530579 0.336914 0.150510
O O13 0.271192 0.399240 0.187435
O O14 0.670215 0.232952 0.243189
#
# Coordination Sequence:
#
# PCOD8235773 Si02
#       6
#     8   8   8   8   8   8
#     4  10  19  34  55  82 113 148 188 228 283 345
#     4  10  20  33  54  82 114 151 188 231 283 340
#     4  11  21  34  58  86 113 149 186 231 287 343
#     4  10  20  35  59  85 109 141 191 242 287 330
#     4  11  19  36  58  83 113 148 192 237 276 336
#     4  10  18  35  58  80 108 148 191 232 276 336
#
# _framework density 19.095106999999999
#
# number of rings (size 3 to 8) (size 9 to 14) (size 15 to 20)
#    0.000    1.667    5.000    3.500    0.000    1.333 
#    0.000    1.667    0.000   21.000    0.000    0.000 
#    0.000    0.000    0.000    0.000    0.000    0.000 
#
# Total GULP energy -594820.676773 kJ/mol
# GULP energy per Si atom -12392.097433 kJ/mol
# Density = 1.905165 g / cm^3
# Si number density = 19.095107 Si / 1000 Ang^3
#
#
#
# Elastic Constant Matrix: (Units=GPa)
#
#
# Indices 1 2 3 4 5 6 
#
# 1 139.6959 58.0537 32.3561 0.0000 0.0000 0.0000
# 2 58.0537 93.1569 24.5354 0.0000 0.0000 0.0000
# 3 32.3561 24.5354 86.7524 0.0000 0.0000 0.0000
# 4 0.0000 0.0000 0.0000 11.6427 0.0000 0.0000
# 5 0.0000 0.0000 0.0000 0.0000 25.5851 0.0000
# 6 0.0000 0.0000 0.0000 0.0000 0.0000 33.7939
#
#
#
# Elastic Compliance Matrix: (Units=1/GPa)
#
#
# Indices 1 2 3 4 5 6 
#
# 1 0.010011 -0.005678 -0.002128 0.000000 0.000000 0.000000
# 2 -0.005678 0.014819 -0.002073 0.000000 0.000000 0.000000
# 3 -0.002128 -0.002073 0.012907 0.000000 0.000000 0.000000
# 4 0.000000 0.000000 0.000000 0.085891 0.000000 0.000000
# 5 0.000000 0.000000 0.000000 0.000000 0.039085 0.000000
# 6 0.000000 0.000000 0.000000 0.000000 0.000000 0.029591
#
#
# Mechanical properties :
#
#
# Convention : Reuss Voigt Hill
#
# Bulk Modulus (GPa) = 55.62252 61.05507 58.33880
# Shear Modulus (GPa) = 22.92987 27.84833 25.38910
#
# Velocity S-wave (km/s) = 3.46905 3.82305 3.65034
# Velocity P-wave (km/s) = 6.72593 7.17852 6.95591
#
# Compressibility (1/GPa) = 0.01797833
#
# Stress axis : x y z
#
# Youngs Moduli (GPa) = 99.89038 67.47990 77.47674
#
# Poissons Ratio (x) = 0.38317 0.16486
# Poissons Ratio (y) = 0.56720 0.16064
# Poissons Ratio (z) = 0.21256 0.13991
#
# Static dielectric constant tensor:
#      x y z
#    x 4.056470 0.000000 0.000000 
#    y 0.000000 3.620700 0.000000 
#    z 0.000000 0.000000 3.333360 
# 
# 
# High freq. dielectric constant tensor:
#      x y z
#    x 1.757470 0.000000 0.000000 
#    y 0.000000 1.699460 0.000000 
#    z 0.000000 0.000000 1.739290 
# 
# From -- ./inp_files/25412.got.cif
#   From: 2010.06.25/outbox.cif.g09.slc.cpg/sg58_13_cif.got.tgz:25412.got - 2010.06.26 21:38:00.
