data_PCOD8235141
_publ_section_title
;
Structure prediction by ZEFSAII (Michael W. Deem and Ramdas Pophale) SiO2 
 PCOD8235141
Probable space group: P B C M
;
_chemical_formula_sum "Si O2"
_cell_formula_units_Z 40
_cell_length_a 10.802161
_cell_length_b 17.146060
_cell_length_c 9.973968
_cell_angle_alpha 90.000000
_cell_angle_beta 90.000000
_cell_angle_gamma 90.000000
_cell_volume 1847.323502
_symmetry_space_group_name_H-M "P B C M"
_symmetry_group_IT_number 57
_symmetry_cell_setting 'orthorhombic'
loop_
_space_group_symop_operation_xyz
x,y,z
-x,-y,1/2+z
x,1/2-y,-z
-x,1/2+y,1/2-z
-x,-y,-z
x,y,1/2-z
-x,1/2+y,z
x,1/2-y,1/2+z
loop_
_atom_site_type_symbol
_atom_site_label
_atom_site_fract_x
_atom_site_fract_y
_atom_site_fract_z
Si Si1 0.224534 0.419331 0.496274
Si Si2 0.166909 0.828638 0.250000
Si Si3 0.928505 0.585575 0.250000
Si Si4 0.549573 0.822357 0.093839
Si Si5 0.686677 0.088125 0.522996
Si Si6 0.206483 0.853135 0.750000
Si Si7 0.049192 0.428305 0.250000
O O1 0.146880 0.385129 0.620549
O O2 0.314201 0.351926 0.443388
O O3 0.301261 0.495316 0.540457
O O4 0.130646 0.443115 0.380130
O O5 0.217728 0.867114 0.116223
O O6 0.205250 0.739521 0.250000
O O7 0.017755 0.843462 0.250000
O O8 0.065667 0.619414 0.250000
O O9 0.938161 0.491625 0.250000
O O10 0.545194 0.797326 0.250000
O O11 0.452697 0.891274 0.065699
O O12 0.513385 0.750000 0.000000
O O13 0.716158 0.114301 0.373456
#
# Coordination Sequence:
#
# PCOD8235141 Si02
#       7
#     8   4   4   8   8   4   4
#     4  12  25  46  76 102 141 194 239 297 353 426
#     4  12  24  41  69 103 143 186 234 298 355 413
#     4  12  24  43  73 104 145 184 238 290 357 424
#     4  12  29  50  73 105 146 186 237 297 360 423
#     4  12  24  46  73 102 141 185 242 294 354 417
#     4  12  26  41  71 109 141 186 238 294 359 425
#     4  12  22  45  71  98 145 188 232 296 353 414
#
# _framework density 21.652949
#
# number of rings (size 3 to 8) (size 9 to 14) (size 15 to 20)
#    0.000    0.000    6.000    4.200    2.800    1.600 
#    0.000    0.000    0.000    0.000    0.000    0.000 
#    0.000    0.000    0.000    0.000    0.000    0.000 
#
# Total GULP energy -496288.352270 kJ/mol
# GULP energy per Si atom -12407.208807 kJ/mol
# Density = 2.160367 g / cm^3
# Si number density = 21.652949 Si / 1000 Ang^3
#
#
#
# Elastic Constant Matrix: (Units=GPa)
#
#
# Indices 1 2 3 4 5 6 
#
# 1 98.4336 0.1013 41.4997 0.0000 0.0000 0.0000
# 2 0.1013 46.8245 8.5588 0.0000 0.0000 0.0000
# 3 41.4997 8.5588 172.4557 0.0000 0.0000 0.0000
# 4 0.0000 0.0000 0.0000 41.0813 0.0000 0.0000
# 5 0.0000 0.0000 0.0000 0.0000 39.9669 0.0000
# 6 0.0000 0.0000 0.0000 0.0000 0.0000 32.3252
#
#
#
# Elastic Compliance Matrix: (Units=1/GPa)
#
#
# Indices 1 2 3 4 5 6 
#
# 1 0.011317 0.000478 -0.002747 0.000000 0.000000 0.000000
# 2 0.000478 0.021572 -0.001186 0.000000 0.000000 0.000000
# 3 -0.002747 -0.001186 0.006518 0.000000 0.000000 0.000000
# 4 0.000000 0.000000 0.000000 0.024342 0.000000 0.000000
# 5 0.000000 0.000000 0.000000 0.000000 0.025021 0.000000
# 6 0.000000 0.000000 0.000000 0.000000 0.000000 0.030936
#
#
# Mechanical properties :
#
#
# Convention : Reuss Voigt Hill
#
# Bulk Modulus (GPa) = 30.77163 46.44815 38.60989
# Shear Modulus (GPa) = 36.37746 40.51162 38.44454
#
# Velocity S-wave (km/s) = 4.10326 4.33014 4.21822
# Velocity P-wave (km/s) = 6.05732 6.81894 6.44938
#
# Compressibility (1/GPa) = 0.03249746
#
# Stress axis : x y z
#
# Youngs Moduli (GPa) = 88.36450 46.35640 153.41056
#
# Poissons Ratio (x) = -0.02214 0.42141
# Poissons Ratio (y) = -0.04221 0.18187
# Poissons Ratio (z) = 0.24273 0.05496
#
# Static dielectric constant tensor:
#      x y z
#    x 3.952660 0.000000 0.000000 
#    y 0.000000 3.964890 0.000000 
#    z 0.000000 0.000000 4.172370 
# 
# 
# High freq. dielectric constant tensor:
#      x y z
#    x 1.861410 0.000000 0.000000 
#    y 0.000000 1.842680 0.000000 
#    z 0.000000 0.000000 1.870950 
# 
# From -- ./inp_files/2769.got.cif
#   From: 2010.03.12/outbox.cif.g09.slc.cpg/sg57_2_cif.got.tgz:2769.got - 2010.04.16 15:48:40.
