data_PCOD8235876
_publ_section_title
;
Structure prediction by ZEFSAII (Michael W. Deem and Ramdas Pophale) SiO2 
 PCOD8235876
Probable space group: P N N M
;
_chemical_formula_sum "Si O2"
_cell_formula_units_Z 48
_cell_length_a 18.056812
_cell_length_b 18.059560
_cell_length_c 8.812190
_cell_angle_alpha 90.000000
_cell_angle_beta 90.000000
_cell_angle_gamma 90.000000
_cell_volume 2873.638237
_symmetry_space_group_name_H-M "P N N M"
_symmetry_group_IT_number 58
_symmetry_cell_setting 'orthorhombic'
loop_
_space_group_symop_operation_xyz
x,y,z
-x,-y,z
1/2+x,1/2-y,1/2-z
1/2-x,1/2+y,1/2-z
-x,-y,-z
x,y,-z
1/2-x,1/2+y,1/2+z
1/2+x,1/2-y,1/2+z
loop_
_atom_site_type_symbol
_atom_site_label
_atom_site_fract_x
_atom_site_fract_y
_atom_site_fract_z
Si Si1 0.682849 0.817101 0.165296
Si Si2 0.079064 0.802570 0.318912
Si Si3 0.802470 0.920950 0.818910
Si Si4 0.306888 0.806841 0.667771
Si Si5 0.409079 0.695588 0.179250
Si Si6 0.695685 0.590909 0.320748
O O1 0.613064 0.776111 0.245876
O O2 0.723800 0.886903 0.245877
O O3 0.745112 0.754889 0.151047
O O4 0.655957 0.843973 0.000000
O O5 0.090308 0.805251 0.500000
O O6 0.122759 0.871189 0.247387
O O7 0.994379 0.807905 0.270356
O O8 0.871130 0.877300 0.747400
O O9 0.807747 0.005623 0.770332
O O10 0.805160 0.909720 0.000000
O O11 0.332728 0.832661 0.500000
O O12 0.376276 0.772525 0.757814
O O13 0.272610 0.876240 0.757816
O O14 0.399392 0.694854 0.000000
O O15 0.694944 0.600583 0.500000
#
# Coordination Sequence:
#
# PCOD8235876 Si02
#       6
#     8   8   8   8   8   8
#     4   7  12  27  47  62  81 114 154 188 222 269
#     4   9  18  31  47  68  94 125 157 192 237 283
#     4   9  18  31  47  68  94 125 157 192 237 283
#     4   9  17  31  49  66  89 122 156 190 235 283
#     4  10  19  30  47  71  95 120 157 198 232 278
#     4  10  19  30  47  71  95 120 157 198 232 278
#
# _framework density 16.703565000000001
#
# number of rings (size 3 to 8) (size 9 to 14) (size 15 to 20)
#    0.000    3.000    0.000    3.500    0.000    3.333 
#    0.000    3.333    0.000    1.000    0.000    7.000 
#    0.000    0.000    0.000    0.000    0.000    0.000 
#
# Total GULP energy -594675.935250 kJ/mol
# GULP energy per Si atom -12389.081984 kJ/mol
# Density = 1.666555 g / cm^3
# Si number density = 16.703565 Si / 1000 Ang^3
#
#
#
# Elastic Constant Matrix: (Units=GPa)
#
#
# Indices 1 2 3 4 5 6 
#
# 1 106.6205 102.7687 41.2416 0.0000 0.0000 0.0000
# 2 102.7687 107.1633 41.3187 0.0000 0.0000 0.0000
# 3 41.2416 41.3187 56.2350 0.0000 0.0000 0.0000
# 4 0.0000 0.0000 0.0000 22.4462 0.0000 0.0000
# 5 0.0000 0.0000 0.0000 0.0000 22.4380 0.0000
# 6 0.0000 0.0000 0.0000 0.0000 0.0000 20.8891
#
#
#
# Elastic Compliance Matrix: (Units=1/GPa)
#
#
# Indices 1 2 3 4 5 6 
#
# 1 0.124980 -0.117921 -0.005015 0.000000 0.000000 0.000000
# 2 -0.117921 0.124281 -0.004834 0.000000 0.000000 0.000000
# 3 -0.005015 -0.004834 0.025013 0.000000 0.000000 0.000000
# 4 0.000000 0.000000 0.000000 0.044551 0.000000 0.000000
# 5 0.000000 0.000000 0.000000 0.000000 0.044567 0.000000
# 6 0.000000 0.000000 0.000000 0.000000 0.000000 0.047872
#
#
# Mechanical properties :
#
#
# Convention : Reuss Voigt Hill
#
# Bulk Modulus (GPa) = 53.38462 71.18634 62.28548
# Shear Modulus (GPa) = 7.42887 18.80065 13.11476
#
# Velocity S-wave (km/s) = 2.11119 3.35856 2.80509
# Velocity P-wave (km/s) = 6.16216 7.59933 6.91817
#
# Compressibility (1/GPa) = 0.01873199
#
# Stress axis : x y z
#
# Youngs Moduli (GPa) = 8.00128 8.04629 39.97958
#
# Poissons Ratio (x) = 0.94883 0.20051
# Poissons Ratio (y) = 0.94352 0.19328
# Poissons Ratio (z) = 0.04013 0.03890
#
# Static dielectric constant tensor:
#      x y z
#    x 3.265050 0.000000 0.000000 
#    y 0.000000 3.265580 0.000000 
#    z 0.000000 0.000000 3.082590 
# 
# 
# High freq. dielectric constant tensor:
#      x y z
#    x 1.631910 0.000000 0.000000 
#    y 0.000000 1.631960 0.000000 
#    z 0.000000 0.000000 1.635250 
# 
# From -- ./inp_files/7850.got.cif
#   From: 2010.06.25/outbox.cif.g09.slc.cpg/sg58_4_cif.got.tgz:7850.got - 2010.06.26 21:38:00.
