data_PCOD8235563
_publ_section_title
;
Structure prediction by ZEFSAII (Michael W. Deem and Ramdas Pophale) SiO2 
 PCOD8235563
Probable space group: P N N M
;
_chemical_formula_sum "Si O2"
_cell_formula_units_Z 56
_cell_length_a 11.340228
_cell_length_b 21.447926
_cell_length_c 13.035279
_cell_angle_alpha 90.000000
_cell_angle_beta 90.000000
_cell_angle_gamma 90.000000
_cell_volume 3170.497535
_symmetry_space_group_name_H-M "P N N M"
_symmetry_group_IT_number 58
_symmetry_cell_setting 'orthorhombic'
loop_
_space_group_symop_operation_xyz
x,y,z
-x,-y,z
1/2+x,1/2-y,1/2-z
1/2-x,1/2+y,1/2-z
-x,-y,-z
x,y,-z
1/2-x,1/2+y,1/2+z
1/2+x,1/2-y,1/2+z
loop_
_atom_site_type_symbol
_atom_site_label
_atom_site_fract_x
_atom_site_fract_y
_atom_site_fract_z
Si Si1 0.056109 0.435119 0.883589
Si Si2 0.046948 0.858333 0.303469
Si Si3 0.045668 0.213174 0.117186
Si Si4 0.082861 0.672065 0.204079
Si Si5 0.178631 0.969978 0.617875
Si Si6 0.808712 0.889733 0.616076
Si Si7 0.316396 0.243247 0.880660
O O1 0.195087 0.437888 0.876165
O O2 0.000000 0.500000 0.849734
O O3 0.010002 0.384038 0.803299
O O4 0.015964 0.418123 0.000000
O O5 0.093014 0.929377 0.309870
O O6 0.148846 0.813164 0.346679
O O7 0.005377 0.842433 0.187806
O O8 0.931670 0.853097 0.375262
O O9 0.179574 0.231595 0.147352
O O10 0.962181 0.272928 0.130641
O O11 0.039461 0.190152 0.000000
O O12 0.211992 0.650322 0.173341
O O13 0.096034 0.696032 0.320930
O O14 0.131966 0.969253 0.500000
O O15 0.181678 0.040179 0.662217
O O16 0.766866 0.896549 0.500000
O O17 0.339937 0.233260 0.000000
#
# Coordination Sequence:
#
# PCOD8235563 Si02
#       7
#     8   8   8   8   8   8   8
#     4  10  18  31  52  79 107 137 172 211 257 314
#     4  11  21  34  54  80 107 139 176 213 267 316
#     4  10  21  37  56  75 103 141 181 222 256 307
#     4  11  20  33  55  80 103 138 178 218 262 307
#     4  10  20  33  53  79 112 144 169 209 267 324
#     4  11  20  32  51  82 113 138 168 214 266 318
#     4  10  21  38  56  75 104 143 181 215 261 315
#
# _framework density 17.662842999999999
#
# number of rings (size 3 to 8) (size 9 to 14) (size 15 to 20)
#    0.000    1.571    2.857    3.857    0.000    3.429 
#    0.000    0.000    0.000    3.000    0.000    0.000 
#    0.000    0.000    0.000    0.000    0.000    0.000 
#
# Total GULP energy -694361.513179 kJ/mol
# GULP energy per Si atom -12399.312735 kJ/mol
# Density = 1.762264 g / cm^3
# Si number density = 17.662843 Si / 1000 Ang^3
#
#
#
# Elastic Constant Matrix: (Units=GPa)
#
#
# Indices 1 2 3 4 5 6 
#
# 1 77.2467 23.3430 28.8933 0.0000 0.0000 0.0000
# 2 23.3430 73.5955 37.2981 0.0000 0.0000 0.0000
# 3 28.8933 37.2981 79.0869 0.0000 0.0000 0.0000
# 4 0.0000 0.0000 0.0000 26.4854 0.0000 0.0000
# 5 0.0000 0.0000 0.0000 0.0000 24.2096 0.0000
# 6 0.0000 0.0000 0.0000 0.0000 0.0000 39.3745
#
#
#
# Elastic Compliance Matrix: (Units=1/GPa)
#
#
# Indices 1 2 3 4 5 6 
#
# 1 0.015383 -0.002669 -0.004361 0.000000 0.000000 0.000000
# 2 -0.002669 0.018318 -0.007664 0.000000 0.000000 0.000000
# 3 -0.004361 -0.007664 0.017852 0.000000 0.000000 0.000000
# 4 0.000000 0.000000 0.000000 0.037757 0.000000 0.000000
# 5 0.000000 0.000000 0.000000 0.000000 0.041306 0.000000
# 6 0.000000 0.000000 0.000000 0.000000 0.000000 0.025397
#
#
# Mechanical properties :
#
#
# Convention : Reuss Voigt Hill
#
# Bulk Modulus (GPa) = 45.11592 45.44421 45.28006
# Shear Modulus (GPa) = 25.93483 27.37356 26.65419
#
# Velocity S-wave (km/s) = 3.83603 3.94100 3.88887
# Velocity P-wave (km/s) = 6.72447 6.81859 6.77169
#
# Compressibility (1/GPa) = 0.02216513
#
# Stress axis : x y z
#
# Youngs Moduli (GPa) = 65.00521 54.58967 56.01564
#
# Poissons Ratio (x) = 0.14570 0.24431
# Poissons Ratio (y) = 0.17350 0.42931
# Poissons Ratio (z) = 0.28351 0.41838
#
# Static dielectric constant tensor:
#      x y z
#    x 3.451670 0.000000 0.000000 
#    y 0.000000 3.338510 0.000000 
#    z 0.000000 0.000000 3.093350 
# 
# 
# High freq. dielectric constant tensor:
#      x y z
#    x 1.703340 0.000000 0.000000 
#    y 0.000000 1.683440 0.000000 
#    z 0.000000 0.000000 1.649610 
# 
# From -- ./inp_files/14560.got.cif
#   From: 2010.06.25/outbox.cif.g09.slc.cpg/sg58_8_cif.got.tgz:14560.got - 2010.06.26 21:38:00.
