data_PCOD8235511
_publ_section_title
;
Structure prediction by ZEFSAII (Michael W. Deem and Ramdas Pophale) SiO2 
 PCOD8235511
Probable space group: P N N M
;
_chemical_formula_sum "Si O2"
_cell_formula_units_Z 56
_cell_length_a 14.521700
_cell_length_b 21.736549
_cell_length_c 9.211373
_cell_angle_alpha 90.000000
_cell_angle_beta 90.000000
_cell_angle_gamma 90.000000
_cell_volume 2907.585027
_symmetry_space_group_name_H-M "P N N M"
_symmetry_group_IT_number 58
_symmetry_cell_setting 'orthorhombic'
loop_
_space_group_symop_operation_xyz
x,y,z
-x,-y,z
1/2+x,1/2-y,1/2-z
1/2-x,1/2+y,1/2-z
-x,-y,-z
x,y,-z
1/2-x,1/2+y,1/2+z
1/2+x,1/2-y,1/2+z
loop_
_atom_site_type_symbol
_atom_site_label
_atom_site_fract_x
_atom_site_fract_y
_atom_site_fract_z
Si Si1 0.331795 0.195438 0.339040
Si Si2 0.569444 0.107007 0.166093
Si Si3 0.365248 0.659133 0.173036
Si Si4 0.496024 0.238641 0.170217
Si Si5 0.102035 0.020745 0.671041
Si Si6 0.591070 0.939789 0.662056
Si Si7 0.729634 0.023323 0.832353
O O1 0.322877 0.224484 0.500000
O O2 0.230994 0.186646 0.267089
O O3 0.395173 0.240166 0.242489
O O4 0.381361 0.130636 0.348859
O O5 0.554616 0.177701 0.211758
O O6 0.510749 0.059266 0.265400
O O7 0.677055 0.088966 0.184711
O O8 0.537277 0.097055 0.000000
O O9 0.447578 0.702619 0.228635
O O10 0.382050 0.590002 0.229608
O O11 0.360213 0.658039 0.000000
O O12 0.480358 0.243130 0.000000
O O13 0.119841 0.015963 0.500000
O O14 0.172740 0.974585 0.750365
O O15 0.000000 0.000000 0.712908
O O16 0.587991 0.968990 0.500000
O O17 0.666501 0.971143 0.762315
O O18 0.746242 0.006963 0.000000
#
# Coordination Sequence:
#
# PCOD8235511 Si02
#       7
#     8   8   8   8   8   8   8
#     4   9  17  32  53  76 104 135 173 217 260 311
#     4   9  19  33  48  75 111 143 171 209 262 320
#     4   9  17  35  59  78 101 138 176 216 263 315
#     4   9  18  34  55  76 104 140 178 214 260 316
#     4  10  21  39  60  79 102 137 183 225 268 319
#     4  10  18  30  52  79 105 137 176 214 257 312
#     4  11  21  33  51  76 109 141 172 214 265 315
#
# _framework density 19.259969999999999
#
# number of rings (size 3 to 8) (size 9 to 14) (size 15 to 20)
#    0.000    2.429    1.429    1.286    0.000    3.714 
#    2.571    1.429    0.000    0.000    0.000    0.000 
#    0.000    0.000    0.000    0.000    0.000    0.000 
#
# Total GULP energy -694277.936286 kJ/mol
# GULP energy per Si atom -12397.820291 kJ/mol
# Density = 1.921613 g / cm^3
# Si number density = 19.259970 Si / 1000 Ang^3
#
#
#
# Elastic Constant Matrix: (Units=GPa)
#
#
# Indices 1 2 3 4 5 6 
#
# 1 157.0524 41.5915 46.8666 0.0000 0.0000 0.0000
# 2 41.5915 50.1014 19.9469 0.0000 0.0000 0.0000
# 3 46.8666 19.9469 61.4672 0.0000 0.0000 0.0000
# 4 0.0000 0.0000 0.0000 16.1924 0.0000 0.0000
# 5 0.0000 0.0000 0.0000 0.0000 33.0793 0.0000
# 6 0.0000 0.0000 0.0000 0.0000 0.0000 28.8979
#
#
#
# Elastic Compliance Matrix: (Units=1/GPa)
#
#
# Indices 1 2 3 4 5 6 
#
# 1 0.009491 -0.005739 -0.005374 0.000000 0.000000 0.000000
# 2 -0.005739 0.026391 -0.004188 0.000000 0.000000 0.000000
# 3 -0.005374 -0.004188 0.021726 0.000000 0.000000 0.000000
# 4 0.000000 0.000000 0.000000 0.061757 0.000000 0.000000
# 5 0.000000 0.000000 0.000000 0.000000 0.030230 0.000000
# 6 0.000000 0.000000 0.000000 0.000000 0.000000 0.034605
#
#
# Mechanical properties :
#
#
# Convention : Reuss Voigt Hill
#
# Bulk Modulus (GPa) = 37.03077 53.93678 45.48377
# Shear Modulus (GPa) = 22.34090 26.31501 24.32795
#
# Velocity S-wave (km/s) = 3.40952 3.70037 3.55792
# Velocity P-wave (km/s) = 5.89647 6.80605 6.36752
#
# Compressibility (1/GPa) = 0.02700457
#
# Stress axis : x y z
#
# Youngs Moduli (GPa) = 105.36428 37.89109 46.02885
#
# Poissons Ratio (x) = 0.21747 0.24736
# Poissons Ratio (y) = 0.60471 0.19279
# Poissons Ratio (z) = 0.56623 0.15870
#
# Static dielectric constant tensor:
#      x y z
#    x 3.639130 0.000000 0.000000 
#    y 0.000000 3.424540 0.000000 
#    z 0.000000 0.000000 3.539340 
# 
# 
# High freq. dielectric constant tensor:
#      x y z
#    x 1.752490 0.000000 0.000000 
#    y 0.000000 1.731520 0.000000 
#    z 0.000000 0.000000 1.730980 
# 
# From -- ./inp_files/6314.got.cif
#   From: 2010.06.25/outbox.cif.g09.slc.cpg/sg58_4_cif.got.tgz:6314.got - 2010.06.26 21:38:00.
