data_PCOD8235011
_publ_section_title
;
Structure prediction by ZEFSAII (Michael W. Deem and Ramdas Pophale) SiO2 
 PCOD8235011
Probable space group: P B C M
;
_chemical_formula_sum "Si O2"
_cell_formula_units_Z 40
_cell_length_a 11.141173
_cell_length_b 9.461291
_cell_length_c 17.719685
_cell_angle_alpha 90.000000
_cell_angle_beta 90.000000
_cell_angle_gamma 90.000000
_cell_volume 1867.829867
_symmetry_space_group_name_H-M "P B C M"
_symmetry_group_IT_number 57
_symmetry_cell_setting 'orthorhombic'
loop_
_space_group_symop_operation_xyz
x,y,z
-x,-y,1/2+z
x,1/2-y,-z
-x,1/2+y,1/2-z
-x,-y,-z
x,y,1/2-z
-x,1/2+y,z
x,1/2-y,1/2+z
loop_
_atom_site_type_symbol
_atom_site_label
_atom_site_fract_x
_atom_site_fract_y
_atom_site_fract_z
Si Si1 0.861304 0.345992 0.573522
Si Si2 0.760880 0.847359 0.069952
Si Si3 0.489368 0.870149 0.053746
Si Si4 0.898067 0.859265 0.837243
Si Si5 0.276427 0.619686 0.662777
O O1 0.880348 0.250000 0.500000
O O2 0.794206 0.490891 0.551489
O O3 0.782731 0.264300 0.634982
O O4 0.987820 0.385068 0.610234
O O5 0.619524 0.829133 0.086578
O O6 0.832781 0.788780 0.142586
O O7 0.799984 0.750000 0.000000
O O8 0.402850 0.906422 0.122500
O O9 0.432770 0.750000 0.000000
O O10 0.500000 0.000000 0.000000
O O11 0.937360 0.852431 0.750000
O O12 0.809632 0.988528 0.854006
O O13 0.305390 0.636108 0.750000
#
# Coordination Sequence:
#
# PCOD8235011 Si02
#       5
#     8   8   8   8   8
#     4  12  24  41  67  94 123 164 212 259 313 377
#     4  11  24  42  65  93 124 163 211 258 310 374
#     4  11  22  41  66  91 124 165 212 261 312 376
#     4  11  25  43  62  90 129 167 205 257 317 375
#     4  11  24  42  64  94 130 165 208 263 319 374
#
# _framework density 21.415227000000002
#
# number of rings (size 3 to 8) (size 9 to 14) (size 15 to 20)
#    0.000    0.800    0.000    9.000    0.000    6.400 
#    0.000    6.000    0.000    0.000    0.000    0.000 
#    0.000    0.000    0.000    0.000    0.000    0.000 
#
# Total GULP energy -496267.335775 kJ/mol
# GULP energy per Si atom -12406.683394 kJ/mol
# Density = 2.136648 g / cm^3
# Si number density = 21.415227 Si / 1000 Ang^3
#
#
#
# Elastic Constant Matrix: (Units=GPa)
#
#
# Indices 1 2 3 4 5 6 
#
# 1 120.2313 35.6783 78.0631 0.0000 0.0000 0.0000
# 2 35.6783 150.4685 68.7620 0.0000 0.0000 0.0000
# 3 78.0631 68.7620 145.6383 0.0000 0.0000 0.0000
# 4 0.0000 0.0000 0.0000 32.0200 0.0000 0.0000
# 5 0.0000 0.0000 0.0000 0.0000 39.4397 0.0000
# 6 0.0000 0.0000 0.0000 0.0000 0.0000 36.2092
#
#
#
# Elastic Compliance Matrix: (Units=1/GPa)
#
#
# Indices 1 2 3 4 5 6 
#
# 1 0.012759 0.000127 -0.006899 0.000000 0.000000 0.000000
# 2 0.000127 0.008476 -0.004070 0.000000 0.000000 0.000000
# 3 -0.006899 -0.004070 0.012486 0.000000 0.000000 0.000000
# 4 0.000000 0.000000 0.000000 0.031230 0.000000 0.000000
# 5 0.000000 0.000000 0.000000 0.000000 0.025355 0.000000
# 6 0.000000 0.000000 0.000000 0.000000 0.000000 0.027617
#
#
# Mechanical properties :
#
#
# Convention : Reuss Voigt Hill
#
# Bulk Modulus (GPa) = 83.07587 86.81610 84.94599
# Shear Modulus (GPa) = 34.81440 37.12275 35.96858
#
# Velocity S-wave (km/s) = 4.03635 4.16802 4.10271
# Velocity P-wave (km/s) = 7.78460 7.98690 7.88640
#
# Compressibility (1/GPa) = 0.01203719
#
# Stress axis : x y z
#
# Youngs Moduli (GPa) = 78.37716 117.98525 80.09065
#
# Poissons Ratio (x) = -0.01504 0.55254
# Poissons Ratio (y) = -0.00999 0.32597
# Poissons Ratio (z) = 0.54072 0.48020
#
# Static dielectric constant tensor:
#      x y z
#    x 4.608890 0.000000 0.000000 
#    y 0.000000 4.017910 0.000000 
#    z 0.000000 0.000000 3.829770 
# 
# 
# High freq. dielectric constant tensor:
#      x y z
#    x 1.854900 0.000000 0.000000 
#    y 0.000000 1.855250 0.000000 
#    z 0.000000 0.000000 1.839080 
# 
# From -- ./inp_files/21573.got.cif
#   From: 2010.03.12/outbox.cif.g09.slc.cpg/sg57_11_cif.got.tgz:21573.got - 2010.04.16 15:48:40.
