data_PCOD8235967
_publ_section_title
;
Structure prediction by ZEFSAII (Michael W. Deem and Ramdas Pophale) SiO2 
 PCOD8235967
Probable space group: P N N M
;
_chemical_formula_sum "Si O2"
_cell_formula_units_Z 48
_cell_length_a 15.509578
_cell_length_b 19.250128
_cell_length_c 9.233027
_cell_angle_alpha 90.000000
_cell_angle_beta 90.000000
_cell_angle_gamma 90.000000
_cell_volume 2756.625114
_symmetry_space_group_name_H-M "P N N M"
_symmetry_group_IT_number 58
_symmetry_cell_setting 'orthorhombic'
loop_
_space_group_symop_operation_xyz
x,y,z
-x,-y,z
1/2+x,1/2-y,1/2-z
1/2-x,1/2+y,1/2-z
-x,-y,-z
x,y,-z
1/2-x,1/2+y,1/2+z
1/2+x,1/2-y,1/2+z
loop_
_atom_site_type_symbol
_atom_site_label
_atom_site_fract_x
_atom_site_fract_y
_atom_site_fract_z
Si Si1 0.075408 0.054124 0.832209
Si Si2 0.751937 0.293024 0.159612
Si Si3 0.261534 0.542198 0.840697
Si Si4 0.435643 0.696507 0.830214
Si Si5 0.426206 0.052731 0.329408
Si Si6 0.583750 0.803319 0.170547
O O1 0.163818 0.020222 0.770515
O O2 0.049528 0.125356 0.755097
O O3 0.090025 0.069622 0.000000
O O4 0.000000 0.000000 0.803667
O O5 0.745532 0.375426 0.152094
O O6 0.656711 0.267622 0.209541
O O7 0.825969 0.270952 0.272205
O O8 0.775184 0.263319 0.000000
O O9 0.166194 0.516573 0.791611
O O10 0.284788 0.512402 0.000000
O O11 0.509505 0.749813 0.785418
O O12 0.437767 0.678287 0.000000
O O13 0.431141 0.069694 0.500000
O O14 0.439334 0.123910 0.243559
O O15 0.500000 0.000000 0.279204
O O16 0.591087 0.814269 0.000000
#
# Coordination Sequence:
#
# PCOD8235967 Si02
#       6
#     8   8   8   8   8   8
#     4  10  20  32  48  72  97 121 155 198 238 276
#     4   8  15  30  49  67  91 125 159 188 227 280
#     4   8  15  29  49  69  91 124 159 189 227 277
#     4   9  19  34  50  69  95 127 159 190 230 283
#     4   9  18  33  51  71  96 126 159 191 228 280
#     4  10  19  31  49  74  98 120 155 199 236 273
#
# _framework density 17.412597000000002
#
# number of rings (size 3 to 8) (size 9 to 14) (size 15 to 20)
#    0.000    3.000    0.000    3.000    0.000    9.000 
#    0.000    1.667    0.000    8.000    0.000    0.000 
#    0.000    0.000    0.000    0.000    0.000    0.000 
#
# Total GULP energy -594928.586151 kJ/mol
# GULP energy per Si atom -12394.345545 kJ/mol
# Density = 1.737297 g / cm^3
# Si number density = 17.412597 Si / 1000 Ang^3
#
#
#
# Elastic Constant Matrix: (Units=GPa)
#
#
# Indices 1 2 3 4 5 6 
#
# 1 171.7601 61.3551 76.4278 0.0000 0.0000 0.0000
# 2 61.3551 56.6442 49.6418 0.0000 0.0000 0.0000
# 3 76.4278 49.6418 91.4737 0.0000 0.0000 0.0000
# 4 0.0000 0.0000 0.0000 10.6852 0.0000 0.0000
# 5 0.0000 0.0000 0.0000 0.0000 28.7772 0.0000
# 6 0.0000 0.0000 0.0000 0.0000 0.0000 28.3295
#
#
#
# Elastic Compliance Matrix: (Units=1/GPa)
#
#
# Indices 1 2 3 4 5 6 
#
# 1 0.010571 -0.007074 -0.004993 0.000000 0.000000 0.000000
# 2 -0.007074 0.038400 -0.014928 0.000000 0.000000 0.000000
# 3 -0.004993 -0.014928 0.023205 0.000000 0.000000 0.000000
# 4 0.000000 0.000000 0.000000 0.093587 0.000000 0.000000
# 5 0.000000 0.000000 0.000000 0.000000 0.034750 0.000000
# 6 0.000000 0.000000 0.000000 0.000000 0.000000 0.035299
#
#
# Mechanical properties :
#
#
# Convention : Reuss Voigt Hill
#
# Bulk Modulus (GPa) = 54.99198 77.19192 66.09195
# Shear Modulus (GPa) = 16.89965 22.38860 19.64413
#
# Velocity S-wave (km/s) = 3.11873 3.58965 3.36245
# Velocity P-wave (km/s) = 6.67974 7.84909 7.28790
#
# Compressibility (1/GPa) = 0.01818447
#
# Stress axis : x y z
#
# Youngs Moduli (GPa) = 94.60029 26.04200 43.09360
#
# Poissons Ratio (x) = 0.18423 0.21517
# Poissons Ratio (y) = 0.66922 0.64332
# Poissons Ratio (z) = 0.47234 0.38877
#
# Static dielectric constant tensor:
#      x y z
#    x 4.003450 0.000000 0.000000 
#    y 0.000000 2.821040 0.000000 
#    z 0.000000 0.000000 3.271040 
# 
# 
# High freq. dielectric constant tensor:
#      x y z
#    x 1.694590 0.000000 0.000000 
#    y 0.000000 1.625070 0.000000 
#    z 0.000000 0.000000 1.674000 
# 
# From -- ./inp_files/6033.got.cif
#   From: 2010.06.25/outbox.cif.g09.slc.cpg/sg58_4_cif.got.tgz:6033.got - 2010.06.26 21:38:00.
