data_PCOD8235407
_publ_section_title
;
Structure prediction by ZEFSAII (Michael W. Deem and Ramdas Pophale) SiO2 
 PCOD8235407
Probable space group: P N N M
;
_chemical_formula_sum "Si O2"
_cell_formula_units_Z 64
_cell_length_a 16.878331
_cell_length_b 9.944594
_cell_length_c 25.930532
_cell_angle_alpha 90.000000
_cell_angle_beta 90.000000
_cell_angle_gamma 90.000000
_cell_volume 4352.391804
_symmetry_space_group_name_H-M "P N N M"
_symmetry_group_IT_number 58
_symmetry_cell_setting 'orthorhombic'
loop_
_space_group_symop_operation_xyz
x,y,z
-x,-y,z
1/2+x,1/2-y,1/2-z
1/2-x,1/2+y,1/2-z
-x,-y,-z
x,y,-z
1/2-x,1/2+y,1/2+z
1/2+x,1/2-y,1/2+z
loop_
_atom_site_type_symbol
_atom_site_label
_atom_site_fract_x
_atom_site_fract_y
_atom_site_fract_z
Si Si1 0.043133 0.869125 0.058204
Si Si2 0.547601 0.130091 0.756742
Si Si3 0.063791 0.386754 0.942501
Si Si4 0.211618 0.984508 0.719823
Si Si5 0.204680 0.290482 0.296667
Si Si6 0.939895 0.118258 0.760508
Si Si7 0.357001 0.963004 0.656761
Si Si8 0.149024 0.770511 0.855783
O O1 0.122005 0.827271 0.089131
O O2 0.977047 0.755986 0.060741
O O3 0.072162 0.895816 0.000000
O O4 0.000000 0.000000 0.081544
O O5 0.612190 0.169381 0.800919
O O6 0.484186 0.248036 0.755784
O O7 0.500000 0.000000 0.775311
O O8 0.589508 0.107727 0.701029
O O9 0.131098 0.392165 0.898610
O O10 0.000000 0.500000 0.929633
O O11 0.100186 0.409763 0.000000
O O12 0.211196 0.144913 0.731447
O O13 0.263035 0.951877 0.668624
O O14 0.255943 0.911489 0.765926
O O15 0.122108 0.927031 0.715446
O O16 0.254497 0.280241 0.350446
O O17 0.891451 0.138382 0.812645
O O18 0.000000 0.000000 0.771635
O O19 0.381996 0.118877 0.652727
#
# Coordination Sequence:
#
# PCOD8235407 Si02
#       8
#     8   8   8   8   8   8   8   8
#     4  10  20  32  44  64  92 116 143 182 218 248
#     4  11  19  30  45  62  87 120 147 184 218 256
#     4  10  18  29  46  65  85 112 147 178 205 252
#     4   9  19  31  42  60  87 116 144 185 218 258
#     4   9  19  31  43  61  87 114 147 181 219 256
#     4  11  19  29  43  62  86 112 153 181 210 260
#     4  10  18  30  45  62  88 116 148 178 220 255
#     4  10  18  30  45  63  86 118 147 178 215 259
#
# _framework density 14.704558
#
# number of rings (size 3 to 8) (size 9 to 14) (size 15 to 20)
#    0.000    2.000    3.750    1.500    1.750    0.000 
#    2.250    0.000    0.000    0.000    0.000    0.000 
#    0.000    2.000    0.000    0.125    0.000    0.125 
#
# Total GULP energy -793044.004465 kJ/mol
# GULP energy per Si atom -12391.312570 kJ/mol
# Density = 1.467109 g / cm^3
# Si number density = 14.704558 Si / 1000 Ang^3
#
#
#
# Elastic Constant Matrix: (Units=GPa)
#
#
# Indices 1 2 3 4 5 6 
#
# 1 89.1729 33.7933 40.8412 0.0000 0.0000 0.0000
# 2 33.7933 90.8628 17.7962 0.0000 0.0000 0.0000
# 3 40.8412 17.7962 63.8276 0.0000 0.0000 0.0000
# 4 0.0000 0.0000 0.0000 16.9989 0.0000 0.0000
# 5 0.0000 0.0000 0.0000 0.0000 26.9503 0.0000
# 6 0.0000 0.0000 0.0000 0.0000 0.0000 26.8386
#
#
#
# Elastic Compliance Matrix: (Units=1/GPa)
#
#
# Indices 1 2 3 4 5 6 
#
# 1 0.017484 -0.004560 -0.009916 0.000000 0.000000 0.000000
# 2 -0.004560 0.012831 -0.000659 0.000000 0.000000 0.000000
# 3 -0.009916 -0.000659 0.022196 0.000000 0.000000 0.000000
# 4 0.000000 0.000000 0.000000 0.058827 0.000000 0.000000
# 5 0.000000 0.000000 0.000000 0.000000 0.037105 0.000000
# 6 0.000000 0.000000 0.000000 0.000000 0.000000 0.037260
#
#
# Mechanical properties :
#
#
# Convention : Reuss Voigt Hill
#
# Bulk Modulus (GPa) = 44.96547 47.63607 46.30077
# Shear Modulus (GPa) = 22.38265 24.25307 23.31786
#
# Velocity S-wave (km/s) = 3.90572 4.06563 3.98648
# Velocity P-wave (km/s) = 7.14039 7.38275 7.26258
#
# Compressibility (1/GPa) = 0.02223929
#
# Stress axis : x y z
#
# Youngs Moduli (GPa) = 57.19571 77.93725 45.05350
#
# Poissons Ratio (x) = 0.35543 0.44674
# Poissons Ratio (y) = 0.26084 0.02971
# Poissons Ratio (z) = 0.56714 0.05139
#
# Static dielectric constant tensor:
#      x y z
#    x 3.190520 0.000000 0.000000 
#    y 0.000000 2.489380 0.000000 
#    z 0.000000 0.000000 2.763600 
# 
# 
# High freq. dielectric constant tensor:
#      x y z
#    x 1.553680 0.000000 0.000000 
#    y 0.000000 1.584870 0.000000 
#    z 0.000000 0.000000 1.518850 
# 
# From -- ./inp_files/33416.got.cif
#   From: 2010.06.25/outbox.cif.g09.slc.cpg/sg58_17_cif.got.tgz:33416.got - 2010.06.26 21:38:00.
