data_PCOD8235619
_publ_section_title
;
Structure prediction by ZEFSAII (Michael W. Deem and Ramdas Pophale) SiO2 
 PCOD8235619
Probable space group: P N N M
;
_chemical_formula_sum "Si O2"
_cell_formula_units_Z 48
_cell_length_a 13.664797
_cell_length_b 23.911899
_cell_length_c 8.389573
_cell_angle_alpha 90.000000
_cell_angle_beta 90.000000
_cell_angle_gamma 90.000000
_cell_volume 2741.303429
_symmetry_space_group_name_H-M "P N N M"
_symmetry_group_IT_number 58
_symmetry_cell_setting 'orthorhombic'
loop_
_space_group_symop_operation_xyz
x,y,z
-x,-y,z
1/2+x,1/2-y,1/2-z
1/2-x,1/2+y,1/2-z
-x,-y,-z
x,y,-z
1/2-x,1/2+y,1/2+z
1/2+x,1/2-y,1/2+z
loop_
_atom_site_type_symbol
_atom_site_label
_atom_site_fract_x
_atom_site_fract_y
_atom_site_fract_z
Si Si1 0.885383 0.223012 0.313872
Si Si2 0.297218 0.832628 0.813657
Si Si3 0.287526 0.165467 0.811967
Si Si4 0.600127 0.062308 0.685711
Si Si5 0.595425 0.274034 0.313428
Si Si6 0.387987 0.055531 0.813028
O O1 0.861609 0.217297 0.500000
O O2 0.816757 0.179206 0.221094
O O3 0.859768 0.285408 0.250915
O O4 0.998005 0.209724 0.280895
O O5 0.320116 0.893270 0.742577
O O6 0.367154 0.787574 0.729495
O O7 0.318814 0.831425 0.000000
O O8 0.176576 0.180174 0.761445
O O9 0.320930 0.105745 0.742208
O O10 0.297112 0.162494 0.000000
O O11 0.577304 0.068748 0.500000
O O12 0.500762 0.071438 0.784205
O O13 0.642623 0.000536 0.720237
O O14 0.573582 0.276333 0.500000
O O15 0.370915 0.046261 0.000000
#
# Coordination Sequence:
#
# PCOD8235619 Si02
#       6
#     8   8   8   8   8   8
#     4  10  19  33  51  75 103 133 165 202 245 296
#     4  11  21  34  51  73  99 133 170 207 249 295
#     4   8  17  31  49  71  99 129 161 197 238 287
#     4  11  21  33  48  72 102 131 163 207 253 297
#     4  10  19  33  51  75 103 132 163 202 247 296
#     4  10  18  32  52  74  99 132 167 201 242 297
#
# _framework density 17.509917999999999
#
# number of rings (size 3 to 8) (size 9 to 14) (size 15 to 20)
#    0.000    2.000    0.000    7.500    0.000    1.333 
#    0.000    9.167    0.000    1.000    0.000    7.000 
#    0.000    0.000    0.000    0.000    0.000    0.000 
#
# Total GULP energy -595255.956344 kJ/mol
# GULP energy per Si atom -12401.165757 kJ/mol
# Density = 1.747006 g / cm^3
# Si number density = 17.509918 Si / 1000 Ang^3
#
#
#
# Elastic Constant Matrix: (Units=GPa)
#
#
# Indices 1 2 3 4 5 6 
#
# 1 100.1511 61.3548 5.6071 0.0000 0.0000 0.0000
# 2 61.3548 128.1165 13.5405 0.0000 0.0000 0.0000
# 3 5.6071 13.5405 51.3863 0.0000 0.0000 0.0000
# 4 0.0000 0.0000 0.0000 24.3419 0.0000 0.0000
# 5 0.0000 0.0000 0.0000 0.0000 26.6644 0.0000
# 6 0.0000 0.0000 0.0000 0.0000 0.0000 28.1861
#
#
#
# Elastic Compliance Matrix: (Units=1/GPa)
#
#
# Indices 1 2 3 4 5 6 
#
# 1 0.014134 -0.006795 0.000248 0.000000 0.000000 0.000000
# 2 -0.006795 0.011296 -0.002235 0.000000 0.000000 0.000000
# 3 0.000248 -0.002235 0.020022 0.000000 0.000000 0.000000
# 4 0.000000 0.000000 0.000000 0.041081 0.000000 0.000000
# 5 0.000000 0.000000 0.000000 0.000000 0.037503 0.000000
# 6 0.000000 0.000000 0.000000 0.000000 0.000000 0.035478
#
#
# Mechanical properties :
#
#
# Convention : Reuss Voigt Hill
#
# Bulk Modulus (GPa) = 35.85720 48.96207 42.40963
# Shear Modulus (GPa) = 26.82778 29.11526 27.97152
#
# Velocity S-wave (km/s) = 3.91851 4.08215 4.00117
# Velocity P-wave (km/s) = 6.40279 7.08815 6.75416
#
# Compressibility (1/GPa) = 0.02788840
#
# Stress axis : x y z
#
# Youngs Moduli (GPa) = 70.75297 88.52969 49.94436
#
# Poissons Ratio (x) = 0.60154 -0.01240
# Poissons Ratio (y) = 0.48075 0.11163
# Poissons Ratio (z) = -0.01756 0.19787
#
# Static dielectric constant tensor:
#      x y z
#    x 3.194770 0.000000 0.000000 
#    y 0.000000 3.458970 0.000000 
#    z 0.000000 0.000000 3.208080 
# 
# 
# High freq. dielectric constant tensor:
#      x y z
#    x 1.663080 0.000000 0.000000 
#    y 0.000000 1.669460 0.000000 
#    z 0.000000 0.000000 1.680420 
# 
# From -- ./inp_files/4188.got.cif
#   From: 2010.06.25/outbox.cif.g09.slc.cpg/sg58_3_cif.got.tgz:4188.got - 2010.06.26 21:38:00.
