data_PCOD8235129
_publ_section_title
;
Structure prediction by ZEFSAII (Michael W. Deem and Ramdas Pophale) SiO2 
 PCOD8235129
Probable space group: P B C M
;
_chemical_formula_sum "Si O2"
_cell_formula_units_Z 40
_cell_length_a 5.091739
_cell_length_b 19.674009
_cell_length_c 18.723166
_cell_angle_alpha 90.000000
_cell_angle_beta 90.000000
_cell_angle_gamma 90.000000
_cell_volume 1875.591636
_symmetry_space_group_name_H-M "P B C M"
_symmetry_group_IT_number 57
_symmetry_cell_setting 'orthorhombic'
loop_
_space_group_symop_operation_xyz
x,y,z
-x,-y,1/2+z
x,1/2-y,-z
-x,1/2+y,1/2-z
-x,-y,-z
x,y,1/2-z
-x,1/2+y,z
x,1/2-y,1/2+z
loop_
_atom_site_type_symbol
_atom_site_label
_atom_site_fract_x
_atom_site_fract_y
_atom_site_fract_z
Si Si1 0.544038 0.505967 0.250000
Si Si2 0.043939 0.416740 0.250000
Si Si3 0.451803 0.879746 0.860445
Si Si4 0.526652 0.668924 0.514790
Si Si5 0.046864 0.199589 0.172269
Si Si6 0.023643 0.836473 0.103800
O O1 0.839125 0.478286 0.250000
O O2 0.508843 0.548290 0.176664
O O3 0.339285 0.444487 0.250000
O O4 0.005828 0.372208 0.320471
O O5 0.653033 0.824792 0.828518
O O6 0.151826 0.862168 0.841636
O O7 0.487924 0.878453 0.945534
O O8 0.518705 0.750000 0.500000
O O9 0.799551 0.643045 0.547844
O O10 0.305472 0.647194 0.571139
O O11 0.992085 0.231378 0.250000
O O12 0.000362 0.255326 0.112091
#
# Coordination Sequence:
#
# PCOD8235129 Si02
#       6
#     4   4   8   8   8   8
#     4  12  26  48  64  92 124 184 236 270 306 366
#     4  12  28  48  68  88 132 184 234 270 298 382
#     4  12  24  40  68  98 136 164 215 275 327 392
#     4  12  23  40  66 107 141 163 198 270 353 410
#     4  12  20  37  65 102 129 160 212 276 337 386
#     4  12  24  42  66 100 135 170 212 265 337 394
#
# _framework density 21.326605000000001
#
# number of rings (size 3 to 8) (size 9 to 14) (size 15 to 20)
#    0.000    0.000    7.000    4.200    0.000    0.000 
#    0.000    6.000    0.000    0.000    0.000    0.000 
#    0.000    0.000    0.000    0.000    0.000    0.000 
#
# Total GULP energy -496095.906609 kJ/mol
# GULP energy per Si atom -12402.397665 kJ/mol
# Density = 2.127806 g / cm^3
# Si number density = 21.326605 Si / 1000 Ang^3
#
#
#
# Elastic Constant Matrix: (Units=GPa)
#
#
# Indices 1 2 3 4 5 6 
#
# 1 82.8754 11.6268 14.1412 0.0000 0.0000 0.0000
# 2 11.6268 58.3967 27.3172 0.0000 0.0000 0.0000
# 3 14.1412 27.3172 132.4262 0.0000 0.0000 0.0000
# 4 0.0000 0.0000 0.0000 19.8886 0.0000 0.0000
# 5 0.0000 0.0000 0.0000 0.0000 38.7786 0.0000
# 6 0.0000 0.0000 0.0000 0.0000 0.0000 32.4717
#
#
#
# Elastic Compliance Matrix: (Units=1/GPa)
#
#
# Indices 1 2 3 4 5 6 
#
# 1 0.012511 -0.002065 -0.000910 0.000000 0.000000 0.000000
# 2 -0.002065 0.019294 -0.003759 0.000000 0.000000 0.000000
# 3 -0.000910 -0.003759 0.008424 0.000000 0.000000 0.000000
# 4 0.000000 0.000000 0.000000 0.050280 0.000000 0.000000
# 5 0.000000 0.000000 0.000000 0.000000 0.025787 0.000000
# 6 0.000000 0.000000 0.000000 0.000000 0.000000 0.030796
#
#
# Mechanical properties :
#
#
# Convention : Reuss Voigt Hill
#
# Bulk Modulus (GPa) = 37.36935 42.20762 39.78849
# Shear Modulus (GPa) = 29.50158 32.93533 31.21846
#
# Velocity S-wave (km/s) = 3.72334 3.93406 3.83015
# Velocity P-wave (km/s) = 6.00373 6.36159 6.18525
#
# Compressibility (1/GPa) = 0.02675990
#
# Stress axis : x y z
#
# Youngs Moduli (GPa) = 79.92755 51.82936 118.70750
#
# Poissons Ratio (x) = 0.10704 0.10802
# Poissons Ratio (y) = 0.16508 0.44628
# Poissons Ratio (z) = 0.07273 0.19485
#
# Static dielectric constant tensor:
#      x y z
#    x 4.080020 0.000000 0.000000 
#    y 0.000000 3.540750 0.000000 
#    z 0.000000 0.000000 4.219390 
# 
# 
# High freq. dielectric constant tensor:
#      x y z
#    x 1.858610 0.000000 0.000000 
#    y 0.000000 1.799480 0.000000 
#    z 0.000000 0.000000 1.858620 
# 
# From -- ./inp_files/20135.got.cif
#   From: 2010.03.12/outbox.cif.g09.slc.cpg/sg57_11_cif.got.tgz:20135.got - 2010.04.16 15:48:40.
