data_PCOD8235853
_publ_section_title
;
Structure prediction by ZEFSAII (Michael W. Deem and Ramdas Pophale) SiO2 
 PCOD8235853
Probable space group: P N N M
;
_chemical_formula_sum "Si O2"
_cell_formula_units_Z 64
_cell_length_a 13.489835
_cell_length_b 20.986584
_cell_length_c 13.691687
_cell_angle_alpha 90.000000
_cell_angle_beta 90.000000
_cell_angle_gamma 90.000000
_cell_volume 3876.192652
_symmetry_space_group_name_H-M "P N N M"
_symmetry_group_IT_number 58
_symmetry_cell_setting 'orthorhombic'
loop_
_space_group_symop_operation_xyz
x,y,z
-x,-y,z
1/2+x,1/2-y,1/2-z
1/2-x,1/2+y,1/2-z
-x,-y,-z
x,y,-z
1/2-x,1/2+y,1/2+z
1/2+x,1/2-y,1/2+z
loop_
_atom_site_type_symbol
_atom_site_label
_atom_site_fract_x
_atom_site_fract_y
_atom_site_fract_z
Si Si1 0.102520 0.207649 0.890380
Si Si2 0.679802 0.225336 0.109294
Si Si3 0.904218 0.536688 0.886361
Si Si4 0.191185 0.016848 0.614310
Si Si5 0.883003 0.107649 0.295295
Si Si6 0.103990 0.145609 0.690711
Si Si7 0.827354 0.663255 0.807672
Si Si8 0.386553 0.325120 0.394106
O O1 0.131975 0.157489 0.805119
O O2 0.152188 0.275750 0.874298
O O3 0.984606 0.217105 0.880544
O O4 0.131183 0.182886 0.000000
O O5 0.637977 0.295469 0.125217
O O6 0.644393 0.177179 0.194312
O O7 0.799031 0.226277 0.119320
O O8 0.648054 0.202059 0.000000
O O9 0.806965 0.494667 0.865429
O O10 0.897768 0.604690 0.834119
O O11 0.000000 0.500000 0.844288
O O12 0.917459 0.550450 0.000000
O O13 0.165654 0.012199 0.500000
O O14 0.165723 0.085162 0.656863
O O15 0.124053 0.965304 0.671261
O O16 0.787388 0.146875 0.333309
O O17 0.880981 0.114263 0.177938
O O18 0.987003 0.136840 0.332023
O O19 0.382441 0.357853 0.500000
#
# Coordination Sequence:
#
# PCOD8235853 Si02
#       8
#     8   8   8   8   8   8   8   8
#     4   9  17  30  48  68  90 116 147 186 228 264
#     4   9  17  29  46  68  91 116 148 183 218 260
#     4   9  18  32  50  71  91 112 144 186 227 265
#     4  10  20  32  46  65  90 119 148 179 217 262
#     4   9  18  31  45  64  89 119 152 179 212 262
#     4  10  19  30  45  66  93 120 147 183 222 260
#     4   9  17  30  48  67  89 118 149 181 219 264
#     4   8  15  29  48  68  88 111 144 186 226 260
#
# _framework density 16.511046
#
# number of rings (size 3 to 8) (size 9 to 14) (size 15 to 20)
#    0.000    2.875    0.000    1.125    0.000    3.000 
#    0.000    5.625    0.000    4.125    0.000    0.000 
#    0.000    0.000    0.000    0.000    0.000    0.000 
#
# Total GULP energy -793097.908151 kJ/mol
# GULP energy per Si atom -12392.154815 kJ/mol
# Density = 1.647347 g / cm^3
# Si number density = 16.511046 Si / 1000 Ang^3
#
#
#
# Elastic Constant Matrix: (Units=GPa)
#
#
# Indices 1 2 3 4 5 6 
#
# 1 66.2151 48.2248 38.2020 0.0000 0.0000 0.0000
# 2 48.2248 101.2715 35.7901 0.0000 0.0000 0.0000
# 3 38.2020 35.7901 76.7038 0.0000 0.0000 0.0000
# 4 0.0000 0.0000 0.0000 21.5969 0.0000 0.0000
# 5 0.0000 0.0000 0.0000 0.0000 22.0575 0.0000
# 6 0.0000 0.0000 0.0000 0.0000 0.0000 25.0654
#
#
#
# Elastic Compliance Matrix: (Units=1/GPa)
#
#
# Indices 1 2 3 4 5 6 
#
# 1 0.027577 -0.009913 -0.009109 0.000000 0.000000 0.000000
# 2 -0.009913 0.015387 -0.002243 0.000000 0.000000 0.000000
# 3 -0.009109 -0.002243 0.018621 0.000000 0.000000 0.000000
# 4 0.000000 0.000000 0.000000 0.046303 0.000000 0.000000
# 5 0.000000 0.000000 0.000000 0.000000 0.045336 0.000000
# 6 0.000000 0.000000 0.000000 0.000000 0.000000 0.039896
#
#
# Mechanical properties :
#
#
# Convention : Reuss Voigt Hill
#
# Bulk Modulus (GPa) = 52.47877 54.29159 53.38518
# Shear Modulus (GPa) = 20.66098 21.87553 21.26826
#
# Velocity S-wave (km/s) = 3.54127 3.64387 3.59294
# Velocity P-wave (km/s) = 6.96949 7.11738 7.04382
#
# Compressibility (1/GPa) = 0.01905532
#
# Stress axis : x y z
#
# Youngs Moduli (GPa) = 36.26152 64.98793 53.70398
#
# Poissons Ratio (x) = 0.64421 0.48922
# Poissons Ratio (y) = 0.35945 0.12045
# Poissons Ratio (z) = 0.33032 0.14575
#
# Static dielectric constant tensor:
#      x y z
#    x 3.227100 0.000000 0.000000 
#    y 0.000000 2.929860 0.000000 
#    z 0.000000 0.000000 3.352920 
# 
# 
# High freq. dielectric constant tensor:
#      x y z
#    x 1.636340 0.000000 0.000000 
#    y 0.000000 1.616320 0.000000 
#    z 0.000000 0.000000 1.642170 
# 
# From -- ./inp_files/22431.got.cif
#   From: 2010.06.25/outbox.cif.g09.slc.cpg/sg58_12_cif.got.tgz:22431.got - 2010.06.26 21:38:00.
