data_PCOD8235237
_publ_section_title
;
Structure prediction by ZEFSAII (Michael W. Deem and Ramdas Pophale) SiO2 
 PCOD8235237
Probable space group: P N N M
;
_chemical_formula_sum "Si O2"
_cell_formula_units_Z 64
_cell_length_a 18.346136
_cell_length_b 26.624131
_cell_length_c 8.576172
_cell_angle_alpha 90.000000
_cell_angle_beta 90.000000
_cell_angle_gamma 90.000000
_cell_volume 4189.030598
_symmetry_space_group_name_H-M "P N N M"
_symmetry_group_IT_number 58
_symmetry_cell_setting 'orthorhombic'
loop_
_space_group_symop_operation_xyz
x,y,z
-x,-y,z
1/2+x,1/2-y,1/2-z
1/2-x,1/2+y,1/2-z
-x,-y,-z
x,y,-z
1/2-x,1/2+y,1/2+z
1/2+x,1/2-y,1/2+z
loop_
_atom_site_type_symbol
_atom_site_label
_atom_site_fract_x
_atom_site_fract_y
_atom_site_fract_z
Si Si1 0.282862 0.789381 0.679173
Si Si2 0.301787 0.200864 0.678140
Si Si3 0.921879 0.057019 0.184411
Si Si4 0.167373 0.849230 0.183547
Si Si5 0.585963 0.444736 0.684514
Si Si6 0.920178 0.241889 0.320615
Si Si7 0.661900 0.352138 0.182393
Si Si8 0.073624 0.238771 0.821675
O O1 0.262359 0.776710 0.500000
O O2 0.246688 0.750388 0.797801
O O3 0.246016 0.842298 0.729763
O O4 0.370088 0.785578 0.700877
O O5 0.326673 0.196381 0.500000
O O6 0.375276 0.206670 0.781158
O O7 0.247979 0.154979 0.725909
O O8 0.867562 0.099351 0.250639
O O9 0.004072 0.067287 0.243797
O O10 0.894328 0.001782 0.234390
O O11 0.925185 0.059790 0.000000
O O12 0.111628 0.803935 0.219731
O O13 0.180246 0.852829 0.000000
O O14 0.593716 0.437004 0.500000
O O15 0.641811 0.408707 0.773331
O O16 0.910585 0.228242 0.500000
O O17 0.004592 0.250713 0.284527
O O18 0.611213 0.313761 0.277392
O O19 0.649962 0.341774 0.000000
O O20 0.048044 0.234535 0.000000
#
# Coordination Sequence:
#
# PCOD8235237 Si02
#       8
#     8   8   8   8   8   8   8   8
#     4   9  17  28  41  58  79 104 137 171 201 238
#     4   9  17  29  42  56  80 110 136 164 200 243
#     4   8  16  28  42  60  79 107 144 174 200 238
#     4  10  17  27  43  60  82 111 141 169 203 243
#     4   9  16  29  45  58  79 110 143 174 203 238
#     4  11  20  28  41  62  85 106 136 173 204 239
#     4  10  19  29  42  62  84 107 139 174 206 239
#     4  10  19  30  43  58  80 111 141 167 202 246
#
# _framework density 15.277998
#
# number of rings (size 3 to 8) (size 9 to 14) (size 15 to 20)
#    0.000    2.500    0.000    6.000    0.000    4.000 
#    0.000    3.125    0.000    0.000    0.000    0.000 
#    0.000    1.000    0.000   11.250    0.000    5.000 
#
# Total GULP energy -793128.846949 kJ/mol
# GULP energy per Si atom -12392.638234 kJ/mol
# Density = 1.524323 g / cm^3
# Si number density = 15.277998 Si / 1000 Ang^3
#
#
#
# Elastic Constant Matrix: (Units=GPa)
#
#
# Indices 1 2 3 4 5 6 
#
# 1 89.7321 47.8077 21.9691 0.0000 0.0000 0.0000
# 2 47.8077 83.8358 16.0721 0.0000 0.0000 0.0000
# 3 21.9691 16.0721 41.1738 0.0000 0.0000 0.0000
# 4 0.0000 0.0000 0.0000 17.4886 0.0000 0.0000
# 5 0.0000 0.0000 0.0000 0.0000 23.7312 0.0000
# 6 0.0000 0.0000 0.0000 0.0000 0.0000 29.4499
#
#
#
# Elastic Compliance Matrix: (Units=1/GPa)
#
#
# Indices 1 2 3 4 5 6 
#
# 1 0.017192 -0.008696 -0.005779 0.000000 0.000000 0.000000
# 2 -0.008696 0.017292 -0.002110 0.000000 0.000000 0.000000
# 3 -0.005779 -0.002110 0.028194 0.000000 0.000000 0.000000
# 4 0.000000 0.000000 0.000000 0.057180 0.000000 0.000000
# 5 0.000000 0.000000 0.000000 0.000000 0.042139 0.000000
# 6 0.000000 0.000000 0.000000 0.000000 0.000000 0.033956
#
#
# Mechanical properties :
#
#
# Convention : Reuss Voigt Hill
#
# Bulk Modulus (GPa) = 33.88821 42.93771 38.41296
# Shear Modulus (GPa) = 20.92417 22.72679 21.82548
#
# Velocity S-wave (km/s) = 3.70477 3.86106 3.78372
# Velocity P-wave (km/s) = 6.36629 6.93126 6.65477
#
# Compressibility (1/GPa) = 0.02950879
#
# Stress axis : x y z
#
# Youngs Moduli (GPa) = 58.16577 57.83179 35.46832
#
# Poissons Ratio (x) = 0.50291 0.20496
# Poissons Ratio (y) = 0.50582 0.07483
# Poissons Ratio (z) = 0.33613 0.12201
#
# Static dielectric constant tensor:
#      x y z
#    x 3.181300 0.000000 0.000000 
#    y 0.000000 2.962130 0.000000 
#    z 0.000000 0.000000 2.865630 
# 
# 
# High freq. dielectric constant tensor:
#      x y z
#    x 1.576310 0.000000 0.000000 
#    y 0.000000 1.548070 0.000000 
#    z 0.000000 0.000000 1.590020 
# 
# From -- ./inp_files/8527.got.cif
#   From: 2010.06.25/outbox.cif.g09.slc.cpg/sg58_5_cif.got.tgz:8527.got - 2010.06.26 21:38:00.
