data_PCOD8235877
_publ_section_title
;
Structure prediction by ZEFSAII (Michael W. Deem and Ramdas Pophale) SiO2 
 PCOD8235877
Probable space group: P N N M
;
_chemical_formula_sum "Si O2"
_cell_formula_units_Z 56
_cell_length_a 18.304881
_cell_length_b 20.903239
_cell_length_c 8.658822
_cell_angle_alpha 90.000000
_cell_angle_beta 90.000000
_cell_angle_gamma 90.000000
_cell_volume 3313.136339
_symmetry_space_group_name_H-M "P N N M"
_symmetry_group_IT_number 58
_symmetry_cell_setting 'orthorhombic'
loop_
_space_group_symop_operation_xyz
x,y,z
-x,-y,z
1/2+x,1/2-y,1/2-z
1/2-x,1/2+y,1/2-z
-x,-y,-z
x,y,-z
1/2-x,1/2+y,1/2+z
1/2+x,1/2-y,1/2+z
loop_
_atom_site_type_symbol
_atom_site_label
_atom_site_fract_x
_atom_site_fract_y
_atom_site_fract_z
Si Si1 0.415411 0.993052 0.820488
Si Si2 0.201476 0.186171 0.176699
Si Si3 0.776948 0.196397 0.822277
Si Si4 0.844117 0.629164 0.180270
Si Si5 0.846847 0.372657 0.319370
Si Si6 0.425055 0.247571 0.676737
Si Si7 0.423180 0.750131 0.821251
O O1 0.374405 0.057746 0.772260
O O2 0.500000 0.000000 0.779572
O O3 0.382680 0.937010 0.718428
O O4 0.404123 0.976804 0.000000
O O5 0.244898 0.251566 0.205244
O O6 0.259556 0.130231 0.219484
O O7 0.127533 0.188326 0.279114
O O8 0.176794 0.181113 0.000000
O O9 0.734455 0.131833 0.771067
O O10 0.864617 0.195872 0.800828
O O11 0.757752 0.213387 0.000000
O O12 0.897154 0.687203 0.229443
O O13 0.828980 0.633081 0.000000
O O14 0.860325 0.358315 0.500000
O O15 0.891860 0.320878 0.222469
O O16 0.450411 0.243302 0.500000
O O17 0.493752 0.266571 0.780399
O O18 0.416872 0.765838 0.000000
#
# Coordination Sequence:
#
# PCOD8235877 Si02
#       7
#     8   8   8   8   8   8   8
#     4  10  20  33  48  67  93 126 160 189 222 268
#     4   9  16  28  45  65  90 118 152 190 226 268
#     4   9  17  30  47  66  90 120 151 184 227 276
#     4  11  21  32  47  67  93 124 158 194 227 264
#     4   9  18  31  47  67  93 126 157 187 225 270
#     4  10  19  30  47  71  96 120 149 189 232 274
#     4  11  20  30  46  67  93 123 153 188 232 277
#
# _framework density 16.902414
#
# number of rings (size 3 to 8) (size 9 to 14) (size 15 to 20)
#    0.000    2.143    0.000    6.429    0.000    4.286 
#    0.000    0.000    0.000    0.000    0.000    1.000 
#    0.000    8.000    0.000    0.000    0.000    0.000 
#
# Total GULP energy -694101.518308 kJ/mol
# GULP energy per Si atom -12394.669970 kJ/mol
# Density = 1.686394 g / cm^3
# Si number density = 16.902414 Si / 1000 Ang^3
#
#
#
# Elastic Constant Matrix: (Units=GPa)
#
#
# Indices 1 2 3 4 5 6 
#
# 1 130.5655 47.8547 42.8633 0.0000 0.0000 0.0000
# 2 47.8547 59.1726 24.8048 0.0000 0.0000 0.0000
# 3 42.8633 24.8048 70.1796 0.0000 0.0000 0.0000
# 4 0.0000 0.0000 0.0000 19.4892 0.0000 0.0000
# 5 0.0000 0.0000 0.0000 0.0000 27.7967 0.0000
# 6 0.0000 0.0000 0.0000 0.0000 0.0000 26.6033
#
#
#
# Elastic Compliance Matrix: (Units=1/GPa)
#
#
# Indices 1 2 3 4 5 6 
#
# 1 0.012024 -0.007802 -0.004586 0.000000 0.000000 0.000000
# 2 -0.007802 0.024901 -0.004036 0.000000 0.000000 0.000000
# 3 -0.004586 -0.004036 0.018477 0.000000 0.000000 0.000000
# 4 0.000000 0.000000 0.000000 0.051311 0.000000 0.000000
# 5 0.000000 0.000000 0.000000 0.000000 0.035976 0.000000
# 6 0.000000 0.000000 0.000000 0.000000 0.000000 0.037589
#
#
# Mechanical properties :
#
#
# Convention : Reuss Voigt Hill
#
# Bulk Modulus (GPa) = 44.33891 54.55147 49.44519
# Shear Modulus (GPa) = 22.66091 24.40415 23.53253
#
# Velocity S-wave (km/s) = 3.66552 3.80389 3.73535
# Velocity P-wave (km/s) = 6.64860 7.18591 6.92247
#
# Compressibility (1/GPa) = 0.02255355
#
# Stress axis : x y z
#
# Youngs Moduli (GPa) = 83.16605 40.15883 54.12130
#
# Poissons Ratio (x) = 0.31331 0.24823
# Poissons Ratio (y) = 0.64883 0.21845
# Poissons Ratio (z) = 0.38144 0.16209
#
# Static dielectric constant tensor:
#      x y z
#    x 3.556540 0.000000 0.000000 
#    y 0.000000 2.962260 0.000000 
#    z 0.000000 0.000000 3.197810 
# 
# 
# High freq. dielectric constant tensor:
#      x y z
#    x 1.660990 0.000000 0.000000 
#    y 0.000000 1.601140 0.000000 
#    z 0.000000 0.000000 1.664010 
# 
# From -- ./inp_files/8140.got.cif
#   From: 2010.06.25/outbox.cif.g09.slc.cpg/sg58_5_cif.got.tgz:8140.got - 2010.06.26 21:38:00.
