data_PCOD8235716
_publ_section_title
;
Structure prediction by ZEFSAII (Michael W. Deem and Ramdas Pophale) SiO2 
 PCOD8235716
Probable space group: P N N M
;
_chemical_formula_sum "Si O2"
_cell_formula_units_Z 64
_cell_length_a 17.423714
_cell_length_b 15.407325
_cell_length_c 12.110681
_cell_angle_alpha 90.000000
_cell_angle_beta 90.000000
_cell_angle_gamma 90.000000
_cell_volume 3251.146519
_symmetry_space_group_name_H-M "P N N M"
_symmetry_group_IT_number 58
_symmetry_cell_setting 'orthorhombic'
loop_
_space_group_symop_operation_xyz
x,y,z
-x,-y,z
1/2+x,1/2-y,1/2-z
1/2-x,1/2+y,1/2-z
-x,-y,-z
x,y,-z
1/2-x,1/2+y,1/2+z
1/2+x,1/2-y,1/2+z
loop_
_atom_site_type_symbol
_atom_site_label
_atom_site_fract_x
_atom_site_fract_y
_atom_site_fract_z
Si Si1 0.583108 0.301214 0.372904
Si Si2 0.149937 0.887441 0.372633
Si Si3 0.223853 0.692497 0.129500
Si Si4 0.567729 0.757554 0.268765
Si Si5 0.956864 0.414896 0.374917
Si Si6 0.176313 0.056507 0.252109
Si Si7 0.309629 0.985227 0.876520
Si Si8 0.304813 0.832768 0.723348
O O1 0.594517 0.327195 0.500000
O O2 0.493486 0.285981 0.350461
O O3 0.612825 0.378648 0.295379
O O4 0.629805 0.213468 0.347720
O O5 0.126231 0.888677 0.500000
O O6 0.099373 0.815108 0.313158
O O7 0.239945 0.865686 0.361169
O O8 0.132481 0.981732 0.320065
O O9 0.134044 0.697155 0.159466
O O10 0.261063 0.602437 0.169316
O O11 0.268049 0.770959 0.185639
O O12 0.234397 0.700435 0.000000
O O13 0.523904 0.830918 0.197599
O O14 0.984720 0.396632 0.500000
O O15 0.865257 0.431331 0.370485
O O16 0.000000 0.500000 0.328560
O O17 0.223005 0.014153 0.150664
O O18 0.340517 0.913256 0.790739
O O19 0.310057 0.946181 0.000000
#
# Coordination Sequence:
#
# PCOD8235716 Si02
#       8
#     8   8   8   8   8   8   8   8
#     4  11  23  40  60  84 117 154 193 243 296 348
#     4  10  21  39  62  86 116 153 194 242 295 350
#     4  10  19  35  57  82 115 154 192 239 292 342
#     4  11  22  38  57  85 119 156 196 239 292 361
#     4  10  20  34  56  84 116 152 189 237 292 345
#     4  10  21  38  58  87 112 150 199 249 284 354
#     4  10  18  33  57  84 115 148 189 240 290 341
#     4   9  20  35  59  88 114 148 195 241 284 349
#
# _framework density 19.685364
#
# number of rings (size 3 to 8) (size 9 to 14) (size 15 to 20)
#    0.000    1.875    1.250    3.000    0.000    0.500 
#    0.000   10.000    0.000    1.500    0.000    0.000 
#    0.000    0.000    0.000    0.000    0.000    0.000 
#
# Total GULP energy -793784.046526 kJ/mol
# GULP energy per Si atom -12402.875727 kJ/mol
# Density = 1.964056 g / cm^3
# Si number density = 19.685364 Si / 1000 Ang^3
#
#
#
# Elastic Constant Matrix: (Units=GPa)
#
#
# Indices 1 2 3 4 5 6 
#
# 1 68.3974 20.6348 28.2332 0.0000 0.0000 0.0000
# 2 20.6348 99.5600 33.9787 0.0000 0.0000 0.0000
# 3 28.2332 33.9787 104.4728 0.0000 0.0000 0.0000
# 4 0.0000 0.0000 0.0000 19.9811 0.0000 0.0000
# 5 0.0000 0.0000 0.0000 0.0000 21.4548 0.0000
# 6 0.0000 0.0000 0.0000 0.0000 0.0000 29.2694
#
#
#
# Elastic Compliance Matrix: (Units=1/GPa)
#
#
# Indices 1 2 3 4 5 6 
#
# 1 0.016867 -0.002182 -0.003848 0.000000 0.000000 0.000000
# 2 -0.002182 0.011581 -0.003177 0.000000 0.000000 0.000000
# 3 -0.003848 -0.003177 0.011645 0.000000 0.000000 0.000000
# 4 0.000000 0.000000 0.000000 0.050047 0.000000 0.000000
# 5 0.000000 0.000000 0.000000 0.000000 0.046610 0.000000
# 6 0.000000 0.000000 0.000000 0.000000 0.000000 0.034165
#
#
# Mechanical properties :
#
#
# Convention : Reuss Voigt Hill
#
# Bulk Modulus (GPa) = 46.13000 48.68041 47.40521
# Shear Modulus (GPa) = 25.43793 26.77997 26.10895
#
# Velocity S-wave (km/s) = 3.59865 3.69236 3.64581
# Velocity P-wave (km/s) = 6.38370 6.55446 6.46964
#
# Compressibility (1/GPa) = 0.02167787
#
# Stress axis : x y z
#
# Youngs Moduli (GPa) = 59.28576 86.35045 85.87309
#
# Poissons Ratio (x) = 0.18846 0.33048
# Poissons Ratio (y) = 0.12939 0.27279
# Poissons Ratio (z) = 0.22816 0.27431
#
# Static dielectric constant tensor:
#      x y z
#    x 3.445060 0.000000 0.000000 
#    y 0.000000 3.665520 0.000000 
#    z 0.000000 0.000000 3.451490 
# 
# 
# High freq. dielectric constant tensor:
#      x y z
#    x 1.758150 0.000000 0.000000 
#    y 0.000000 1.771900 0.000000 
#    z 0.000000 0.000000 1.764450 
# 
# From -- ./inp_files/15898.got.cif
#   From: 2010.06.25/outbox.cif.g09.slc.cpg/sg58_8_cif.got.tgz:15898.got - 2010.06.26 21:38:00.
