data_PCOD8235204
_publ_section_title
;
Structure prediction by ZEFSAII (Michael W. Deem and Ramdas Pophale) SiO2 
 PCOD8235204
Probable space group: P N N M
;
_chemical_formula_sum "Si O2"
_cell_formula_units_Z 40
_cell_length_a 21.681369
_cell_length_b 13.662241
_cell_length_c 7.747280
_cell_angle_alpha 90.000000
_cell_angle_beta 90.000000
_cell_angle_gamma 90.000000
_cell_volume 2294.868978
_symmetry_space_group_name_H-M "P N N M"
_symmetry_group_IT_number 58
_symmetry_cell_setting 'orthorhombic'
loop_
_space_group_symop_operation_xyz
x,y,z
-x,-y,z
1/2+x,1/2-y,1/2-z
1/2-x,1/2+y,1/2-z
-x,-y,-z
x,y,-z
1/2-x,1/2+y,1/2+z
1/2+x,1/2-y,1/2+z
loop_
_atom_site_type_symbol
_atom_site_label
_atom_site_fract_x
_atom_site_fract_y
_atom_site_fract_z
Si Si1 0.219628 0.096581 0.702763
Si Si2 0.826378 0.704680 0.308497
Si Si3 0.429689 0.118879 0.000000
Si Si4 0.347307 0.189566 0.696081
Si Si5 0.928190 0.612127 0.500000
Si Si6 0.707702 0.615775 0.195278
O O1 0.220682 0.078858 0.500000
O O2 0.171421 0.182299 0.759477
O O3 0.287908 0.129092 0.763197
O O4 0.199965 0.991877 0.783744
O O5 0.794920 0.709755 0.500000
O O6 0.894541 0.656792 0.327641
O O7 0.781218 0.639855 0.191829
O O8 0.402556 0.165054 0.825778
O O9 0.501699 0.145435 0.000000
O O10 0.419285 0.003344 0.000000
O O11 0.366369 0.161716 0.500000
O O12 0.331680 0.305146 0.699115
O O13 0.683151 0.617632 0.000000
#
# Coordination Sequence:
#
# PCOD8235204 Si02
#       6
#     8   8   4   8   4   8
#     4   8  15  27  48  72 103 128 164 204 254 317
#     4   8  16  31  45  68 100 137 161 205 263 294
#     4  11  20  36  53  79  99 141 185 210 258 308
#     4  10  20  34  49  76 109 136 169 216 261 306
#     4   9  20  34  55  71 105 139 179 220 250 314
#     4  10  16  27  48  78 104 129 164 209 255 315
#
# _framework density 17.430188000000001
#
# number of rings (size 3 to 8) (size 9 to 14) (size 15 to 20)
#    0.600    2.200    1.000    3.000    0.000    0.000 
#    1.800    3.000    0.000    2.400    0.000    1.400 
#    0.000    0.000    0.000    0.000    0.000    0.000 
#
# Total GULP energy -495532.577384 kJ/mol
# GULP energy per Si atom -12388.314435 kJ/mol
# Density = 1.739052 g / cm^3
# Si number density = 17.430188 Si / 1000 Ang^3
#
#
#
# Elastic Constant Matrix: (Units=GPa)
#
#
# Indices 1 2 3 4 5 6 
#
# 1 102.4724 51.1453 26.4057 0.0000 0.0000 0.0000
# 2 51.1453 137.4410 15.5433 0.0000 0.0000 0.0000
# 3 26.4057 15.5433 56.7302 0.0000 0.0000 0.0000
# 4 0.0000 0.0000 0.0000 16.7654 0.0000 0.0000
# 5 0.0000 0.0000 0.0000 0.0000 22.3559 0.0000
# 6 0.0000 0.0000 0.0000 0.0000 0.0000 22.4440
#
#
#
# Elastic Compliance Matrix: (Units=1/GPa)
#
#
# Indices 1 2 3 4 5 6 
#
# 1 0.013209 -0.004355 -0.004955 0.000000 0.000000 0.000000
# 2 -0.004355 0.008944 -0.000423 0.000000 0.000000 0.000000
# 3 -0.004955 -0.000423 0.020050 0.000000 0.000000 0.000000
# 4 0.000000 0.000000 0.000000 0.059647 0.000000 0.000000
# 5 0.000000 0.000000 0.000000 0.000000 0.044731 0.000000
# 6 0.000000 0.000000 0.000000 0.000000 0.000000 0.044555
#
#
# Mechanical properties :
#
#
# Convention : Reuss Voigt Hill
#
# Bulk Modulus (GPa) = 43.98338 53.64801 48.81570
# Shear Modulus (GPa) = 22.91659 25.88302 24.39981
#
# Velocity S-wave (km/s) = 3.62990 3.85769 3.74553
# Velocity P-wave (km/s) = 6.54653 7.11955 6.83904
#
# Compressibility (1/GPa) = 0.02273586
#
# Stress axis : x y z
#
# Youngs Moduli (GPa) = 75.70423 111.80180 49.87594
#
# Poissons Ratio (x) = 0.48691 0.24714
# Poissons Ratio (y) = 0.32970 0.02112
# Poissons Ratio (z) = 0.37513 0.04735
#
# Static dielectric constant tensor:
#      x y z
#    x 2.857310 0.000000 0.000000 
#    y 0.000000 3.555420 0.000000 
#    z 0.000000 0.000000 3.012750 
# 
# 
# High freq. dielectric constant tensor:
#      x y z
#    x 1.619570 0.000000 0.000000 
#    y 0.000000 1.692540 0.000000 
#    z 0.000000 0.000000 1.655490 
# 
# From -- ./inp_files/8835.got.cif
#   From: 2010.06.25/outbox.cif.g09.slc.cpg/sg58_5_cif.got.tgz:8835.got - 2010.06.26 21:38:00.
