data_PCOD8235993
_publ_section_title
;
Structure prediction by ZEFSAII (Michael W. Deem and Ramdas Pophale) SiO2 
 PCOD8235993
Probable space group: P N N M
;
_chemical_formula_sum "Si O2"
_cell_formula_units_Z 48
_cell_length_a 14.873187
_cell_length_b 20.181396
_cell_length_c 9.103263
_cell_angle_alpha 90.000000
_cell_angle_beta 90.000000
_cell_angle_gamma 90.000000
_cell_volume 2732.450685
_symmetry_space_group_name_H-M "P N N M"
_symmetry_group_IT_number 58
_symmetry_cell_setting 'orthorhombic'
loop_
_space_group_symop_operation_xyz
x,y,z
-x,-y,z
1/2+x,1/2-y,1/2-z
1/2-x,1/2+y,1/2-z
-x,-y,-z
x,y,-z
1/2-x,1/2+y,1/2+z
1/2+x,1/2-y,1/2+z
loop_
_atom_site_type_symbol
_atom_site_label
_atom_site_fract_x
_atom_site_fract_y
_atom_site_fract_z
Si Si1 0.077737 0.955678 0.829340
Si Si2 0.438238 0.059915 0.830507
Si Si3 0.621069 0.689316 0.674764
Si Si4 0.276303 0.972779 0.831879
Si Si5 0.999231 0.689846 0.828199
Si Si6 0.799511 0.661602 0.172595
O O1 0.081926 0.880865 0.766428
O O2 0.172892 0.991786 0.800505
O O3 0.054910 0.949853 0.000000
O O4 0.000000 0.000000 0.751915
O O5 0.456047 0.126122 0.743191
O O6 0.500000 0.000000 0.771907
O O7 0.334822 0.038488 0.804499
O O8 0.459977 0.073978 0.000000
O O9 0.633548 0.688636 0.500000
O O10 0.552253 0.745520 0.728712
O O11 0.719260 0.700785 0.746185
O O12 0.308640 0.913789 0.727261
O O13 0.287537 0.947678 0.000000
O O14 0.893839 0.697711 0.789455
O O15 0.012526 0.681110 0.000000
O O16 0.780085 0.661621 0.000000
#
# Coordination Sequence:
#
# PCOD8235993 Si02
#       6
#     8   8   8   8   8   8
#     4   8  14  28  52  75  92 121 166 210 249 292
#     4  10  19  31  50  77 104 132 169 211 255 302
#     4   9  19  36  53  71 101 137 171 208 256 313
#     4   9  17  31  50  74 101 131 167 206 254 305
#     4  10  21  35  51  74 104 138 172 211 260 309
#     4  10  19  32  52  76  99 131 172 210 254 302
#
# _framework density 17.566649000000002
#
# number of rings (size 3 to 8) (size 9 to 14) (size 15 to 20)
#    0.000    2.667    1.667    1.500    0.000    2.333 
#    3.000    0.000    0.000    8.000    0.000    0.000 
#    0.000    0.000    0.000    0.000    0.000    0.000 
#
# Total GULP energy -595041.673585 kJ/mol
# GULP energy per Si atom -12396.701533 kJ/mol
# Density = 1.752667 g / cm^3
# Si number density = 17.566649 Si / 1000 Ang^3
#
#
#
# Elastic Constant Matrix: (Units=GPa)
#
#
# Indices 1 2 3 4 5 6 
#
# 1 159.6725 90.9563 41.3466 0.0000 0.0000 0.0000
# 2 90.9563 112.4462 29.3845 0.0000 0.0000 0.0000
# 3 41.3466 29.3845 34.7506 0.0000 0.0000 0.0000
# 4 0.0000 0.0000 0.0000 22.8824 0.0000 0.0000
# 5 0.0000 0.0000 0.0000 0.0000 20.1535 0.0000
# 6 0.0000 0.0000 0.0000 0.0000 0.0000 34.5730
#
#
#
# Elastic Compliance Matrix: (Units=1/GPa)
#
#
# Indices 1 2 3 4 5 6 
#
# 1 0.013389 -0.008559 -0.008694 0.000000 0.000000 0.000000
# 2 -0.008559 0.016886 -0.004096 0.000000 0.000000 0.000000
# 3 -0.008694 -0.004096 0.042584 0.000000 0.000000 0.000000
# 4 0.000000 0.000000 0.000000 0.043702 0.000000 0.000000
# 5 0.000000 0.000000 0.000000 0.000000 0.049619 0.000000
# 6 0.000000 0.000000 0.000000 0.000000 0.000000 0.028924
#
#
# Mechanical properties :
#
#
# Convention : Reuss Voigt Hill
#
# Bulk Modulus (GPa) = 33.15297 70.02711 51.59004
# Shear Modulus (GPa) = 20.17306 25.20058 22.68682
#
# Velocity S-wave (km/s) = 3.39244 3.79168 3.59760
# Velocity P-wave (km/s) = 5.85308 7.68891 6.83293
#
# Compressibility (1/GPa) = 0.03016321
#
# Stress axis : x y z
#
# Youngs Moduli (GPa) = 74.68581 59.21916 23.48319
#
# Poissons Ratio (x) = 0.50684 0.20416
# Poissons Ratio (y) = 0.63921 0.09618
# Poissons Ratio (z) = 0.64930 0.24254
#
# Static dielectric constant tensor:
#      x y z
#    x 3.598300 0.000000 0.000000 
#    y 0.000000 3.248130 0.000000 
#    z 0.000000 0.000000 3.057200 
# 
# 
# High freq. dielectric constant tensor:
#      x y z
#    x 1.693360 0.000000 0.000000 
#    y 0.000000 1.660980 0.000000 
#    z 0.000000 0.000000 1.656110 
# 
# From -- ./inp_files/6046.got.cif
#   From: 2010.06.25/outbox.cif.g09.slc.cpg/sg58_4_cif.got.tgz:6046.got - 2010.06.26 21:38:00.
