data_PCOD8235584
_publ_section_title
;
Structure prediction by ZEFSAII (Michael W. Deem and Ramdas Pophale) SiO2 
 PCOD8235584
Probable space group: P N N M
;
_chemical_formula_sum "Si O2"
_cell_formula_units_Z 64
_cell_length_a 16.863960
_cell_length_b 16.469544
_cell_length_c 12.959703
_cell_angle_alpha 90.000000
_cell_angle_beta 90.000000
_cell_angle_gamma 90.000000
_cell_volume 3599.450348
_symmetry_space_group_name_H-M "P N N M"
_symmetry_group_IT_number 58
_symmetry_cell_setting 'orthorhombic'
loop_
_space_group_symop_operation_xyz
x,y,z
-x,-y,z
1/2+x,1/2-y,1/2-z
1/2-x,1/2+y,1/2-z
-x,-y,-z
x,y,-z
1/2-x,1/2+y,1/2+z
1/2+x,1/2-y,1/2+z
loop_
_atom_site_type_symbol
_atom_site_label
_atom_site_fract_x
_atom_site_fract_y
_atom_site_fract_z
Si Si1 0.405889 0.501963 0.881512
Si Si2 0.348250 0.910946 0.618103
Si Si3 0.160901 0.590947 0.879811
Si Si4 0.998360 0.408538 0.232546
Si Si5 0.895715 0.174880 0.619809
Si Si6 0.232452 0.251451 0.120203
Si Si7 0.679528 0.344785 0.804131
Si Si8 0.954000 0.731499 0.620969
O O1 0.500000 0.500000 0.873030
O O2 0.374185 0.415190 0.837918
O O3 0.369549 0.571804 0.809492
O O4 0.379182 0.519539 0.000000
O O5 0.326994 0.902171 0.500000
O O6 0.442277 0.904759 0.635337
O O7 0.304242 0.834166 0.669034
O O8 0.316321 0.998863 0.655720
O O9 0.236387 0.648332 0.862568
O O10 0.087281 0.620522 0.809173
O O11 0.135677 0.592561 0.000000
O O12 0.033958 0.354164 0.323583
O O13 0.000000 0.500000 0.276766
O O14 0.911191 0.159665 0.500000
O O15 0.826719 0.240519 0.638369
O O16 0.977632 0.209009 0.666199
O O17 0.197369 0.175824 0.184252
O O18 0.211905 0.236424 0.000000
O O19 0.630985 0.271560 0.856611
O O20 0.963841 0.715587 0.500000
#
# Coordination Sequence:
#
# PCOD8235584 Si02
#       8
#     8   8   8   8   8   8   8   8
#     4  10  18  31  53  84 112 135 168 216 278 332
#     4   9  17  33  54  77 104 133 172 222 268 310
#     4  10  20  33  54  82 107 133 170 226 279 316
#     4  10  20  35  53  77 108 144 184 216 263 322
#     4   9  18  33  53  78 106 136 173 221 269 315
#     4  10  20  34  53  76 104 141 183 220 258 316
#     4  12  21  33  53  82 111 140 174 222 278 326
#     4  11  21  34  52  77 111 144 178 220 266 321
#
# _framework density 17.780493
#
# number of rings (size 3 to 8) (size 9 to 14) (size 15 to 20)
#    0.000    1.875    2.500    3.000    0.000    3.750 
#    0.000    0.000    0.000    1.125    0.000    0.000 
#    0.000    0.000    0.000    0.000    0.000    0.000 
#
# Total GULP energy -793272.021717 kJ/mol
# GULP energy per Si atom -12394.875339 kJ/mol
# Density = 1.774002 g / cm^3
# Si number density = 17.780493 Si / 1000 Ang^3
#
#
#
# Elastic Constant Matrix: (Units=GPa)
#
#
# Indices 1 2 3 4 5 6 
#
# 1 102.5457 46.9000 30.0771 0.0000 0.0000 0.0000
# 2 46.9000 92.7067 42.3548 0.0000 0.0000 0.0000
# 3 30.0771 42.3548 61.0135 0.0000 0.0000 0.0000
# 4 0.0000 0.0000 0.0000 27.7885 0.0000 0.0000
# 5 0.0000 0.0000 0.0000 0.0000 21.5526 0.0000
# 6 0.0000 0.0000 0.0000 0.0000 0.0000 31.6205
#
#
#
# Elastic Compliance Matrix: (Units=1/GPa)
#
#
# Indices 1 2 3 4 5 6 
#
# 1 0.012983 -0.005337 -0.002696 0.000000 0.000000 0.000000
# 2 -0.005337 0.017990 -0.009858 0.000000 0.000000 0.000000
# 3 -0.002696 -0.009858 0.024562 0.000000 0.000000 0.000000
# 4 0.000000 0.000000 0.000000 0.035986 0.000000 0.000000
# 5 0.000000 0.000000 0.000000 0.000000 0.046398 0.000000
# 6 0.000000 0.000000 0.000000 0.000000 0.000000 0.031625
#
#
# Mechanical properties :
#
#
# Convention : Reuss Voigt Hill
#
# Bulk Modulus (GPa) = 50.61970 54.99217 52.80594
# Shear Modulus (GPa) = 23.59499 25.32126 24.45813
#
# Velocity S-wave (km/s) = 3.64677 3.77782 3.71288
# Velocity P-wave (km/s) = 6.80169 7.07282 6.93858
#
# Compressibility (1/GPa) = 0.01975515
#
# Stress axis : x y z
#
# Youngs Moduli (GPa) = 77.02336 55.58581 40.71361
#
# Poissons Ratio (x) = 0.29664 0.10974
# Poissons Ratio (y) = 0.41104 0.40135
# Poissons Ratio (z) = 0.20762 0.54796
#
# Static dielectric constant tensor:
#      x y z
#    x 3.421190 0.000000 0.000000 
#    y 0.000000 3.437920 0.000000 
#    z 0.000000 0.000000 2.966700 
# 
# 
# High freq. dielectric constant tensor:
#      x y z
#    x 1.703840 0.000000 0.000000 
#    y 0.000000 1.688040 0.000000 
#    z 0.000000 0.000000 1.645020 
# 
# From -- ./inp_files/23034.got.cif
#   From: 2010.06.25/outbox.cif.g09.slc.cpg/sg58_12_cif.got.tgz:23034.got - 2010.06.26 21:38:00.
