data_PCOD8235348
_publ_section_title
;
Structure prediction by ZEFSAII (Michael W. Deem and Ramdas Pophale) SiO2 
 PCOD8235348
Probable space group: P N N M
;
_chemical_formula_sum "Si O2"
_cell_formula_units_Z 64
_cell_length_a 18.532218
_cell_length_b 26.100374
_cell_length_c 8.959516
_cell_angle_alpha 90.000000
_cell_angle_beta 90.000000
_cell_angle_gamma 90.000000
_cell_volume 4333.698365
_symmetry_space_group_name_H-M "P N N M"
_symmetry_group_IT_number 58
_symmetry_cell_setting 'orthorhombic'
loop_
_space_group_symop_operation_xyz
x,y,z
-x,-y,z
1/2+x,1/2-y,1/2-z
1/2-x,1/2+y,1/2-z
-x,-y,-z
x,y,-z
1/2-x,1/2+y,1/2+z
1/2+x,1/2-y,1/2+z
loop_
_atom_site_type_symbol
_atom_site_label
_atom_site_fract_x
_atom_site_fract_y
_atom_site_fract_z
Si Si1 0.934842 0.254144 0.821154
Si Si2 0.332411 0.855572 0.177721
Si Si3 0.352728 0.154104 0.824797
Si Si4 0.085622 0.443881 0.828009
Si Si5 0.694727 0.693635 0.662714
Si Si6 0.914380 0.745130 0.324050
Si Si7 0.774718 0.800619 0.663290
Si Si8 0.920374 0.438840 0.827046
O O1 0.908858 0.308530 0.757445
O O2 0.881407 0.208569 0.758679
O O3 0.014255 0.240900 0.766667
O O4 0.931207 0.257166 0.000000
O O5 0.359819 0.910219 0.231632
O O6 0.250637 0.845555 0.244122
O O7 0.386401 0.810558 0.230793
O O8 0.327169 0.854488 0.000000
O O9 0.269477 0.164732 0.780007
O O10 0.371481 0.096450 0.777414
O O11 0.361759 0.161138 0.000000
O O12 0.104388 0.502998 0.798434
O O13 0.003717 0.432145 0.780290
O O14 0.096639 0.429785 0.000000
O O15 0.676056 0.670948 0.500000
O O16 0.738195 0.745985 0.644827
O O17 0.930678 0.744291 0.500000
O O18 0.856804 0.789863 0.283515
O O19 0.774544 0.827689 0.500000
O O20 0.909826 0.424116 0.000000
#
# Coordination Sequence:
#
# PCOD8235348 Si02
#       8
#     8   8   8   8   8   8   8   8
#     4  10  18  28  42  58  81 113 142 166 200 243
#     4   9  16  27  42  57  78 107 135 165 201 237
#     4  11  20  28  41  61  82 105 140 177 203 235
#     4   9  18  30  43  59  78 103 137 171 200 239
#     4   7  13  26  40  54  74 105 138 160 188 236
#     4   9  17  28  42  62  85 108 137 170 202 239
#     4   8  15  29  44  56  78 110 136 162 202 245
#     4   9  18  32  44  55  78 109 136 165 205 246
#
# _framework density 14.767987
#
# number of rings (size 3 to 8) (size 9 to 14) (size 15 to 20)
#    0.000    3.000    0.000    5.250    0.000    4.000 
#    0.000    6.875    0.000    0.000    0.000    0.000 
#    0.000    1.000    0.000   11.250    0.000    5.000 
#
# Total GULP energy -792982.087511 kJ/mol
# GULP energy per Si atom -12390.345117 kJ/mol
# Density = 1.473437 g / cm^3
# Si number density = 14.767987 Si / 1000 Ang^3
#
#
#
# Elastic Constant Matrix: (Units=GPa)
#
#
# Indices 1 2 3 4 5 6 
#
# 1 110.8361 43.9787 39.4303 0.0000 0.0000 0.0000
# 2 43.9787 59.5156 28.1799 0.0000 0.0000 0.0000
# 3 39.4303 28.1799 55.5426 0.0000 0.0000 0.0000
# 4 0.0000 0.0000 0.0000 17.4884 0.0000 0.0000
# 5 0.0000 0.0000 0.0000 0.0000 17.0677 0.0000
# 6 0.0000 0.0000 0.0000 0.0000 0.0000 24.9752
#
#
#
# Elastic Compliance Matrix: (Units=1/GPa)
#
#
# Indices 1 2 3 4 5 6 
#
# 1 0.014258 -0.007559 -0.006287 0.000000 0.000000 0.000000
# 2 -0.007559 0.026123 -0.007887 0.000000 0.000000 0.000000
# 3 -0.006287 -0.007887 0.026469 0.000000 0.000000 0.000000
# 4 0.000000 0.000000 0.000000 0.057181 0.000000 0.000000
# 5 0.000000 0.000000 0.000000 0.000000 0.058590 0.000000
# 6 0.000000 0.000000 0.000000 0.000000 0.000000 0.040040
#
#
# Mechanical properties :
#
#
# Convention : Reuss Voigt Hill
#
# Bulk Modulus (GPa) = 42.76551 49.89691 46.33121
# Shear Modulus (GPa) = 18.25338 19.52662 18.89000
#
# Velocity S-wave (km/s) = 3.51951 3.64019 3.58036
# Velocity P-wave (km/s) = 6.74811 7.17834 6.96655
#
# Compressibility (1/GPa) = 0.02338333
#
# Stress axis : x y z
#
# Youngs Moduli (GPa) = 70.13409 38.28082 37.78028
#
# Poissons Ratio (x) = 0.28938 0.23752
# Poissons Ratio (y) = 0.53017 0.29798
# Poissons Ratio (z) = 0.44092 0.30192
#
# Static dielectric constant tensor:
#      x y z
#    x 3.111950 0.000000 0.000000 
#    y 0.000000 2.657040 0.000000 
#    z 0.000000 0.000000 2.702340 
# 
# 
# High freq. dielectric constant tensor:
#      x y z
#    x 1.561240 0.000000 0.000000 
#    y 0.000000 1.529530 0.000000 
#    z 0.000000 0.000000 1.554350 
# 
# From -- ./inp_files/8490.got.cif
#   From: 2010.06.25/outbox.cif.g09.slc.cpg/sg58_5_cif.got.tgz:8490.got - 2010.06.26 21:38:00.
