data_PCOD8235703
_publ_section_title
;
Structure prediction by ZEFSAII (Michael W. Deem and Ramdas Pophale) SiO2 
 PCOD8235703
Probable space group: P N N M
;
_chemical_formula_sum "Si O2"
_cell_formula_units_Z 56
_cell_length_a 21.416672
_cell_length_b 15.070959
_cell_length_c 9.020501
_cell_angle_alpha 90.000000
_cell_angle_beta 90.000000
_cell_angle_gamma 90.000000
_cell_volume 2911.545174
_symmetry_space_group_name_H-M "P N N M"
_symmetry_group_IT_number 58
_symmetry_cell_setting 'orthorhombic'
loop_
_space_group_symop_operation_xyz
x,y,z
-x,-y,z
1/2+x,1/2-y,1/2-z
1/2-x,1/2+y,1/2-z
-x,-y,-z
x,y,-z
1/2-x,1/2+y,1/2+z
1/2+x,1/2-y,1/2+z
loop_
_atom_site_type_symbol
_atom_site_label
_atom_site_fract_x
_atom_site_fract_y
_atom_site_fract_z
Si Si1 0.901093 0.286109 0.176231
Si Si2 0.233336 0.776997 0.825552
Si Si3 0.524020 0.641515 0.175273
Si Si4 0.568214 0.969187 0.172216
Si Si5 0.775629 0.912474 0.675157
Si Si6 0.091974 0.032848 0.675527
Si Si7 0.305593 0.948266 0.172165
O O1 0.837486 0.237364 0.233815
O O2 0.959569 0.230153 0.236214
O O3 0.907358 0.384923 0.237461
O O4 0.901704 0.291558 0.000000
O O5 0.272732 0.690517 0.781542
O O6 0.270897 0.861571 0.757528
O O7 0.230788 0.788910 0.000000
O O8 0.454287 0.612522 0.221947
O O9 0.569382 0.562776 0.231352
O O10 0.529991 0.658714 0.000000
O O11 0.500000 0.000000 0.230172
O O12 0.618896 0.049338 0.195024
O O13 0.563811 0.942269 0.000000
O O14 0.770715 0.925860 0.500000
O O15 0.840142 0.949257 0.742610
O O16 0.719008 0.963925 0.748764
O O17 0.093616 0.030881 0.500000
O O18 0.289097 0.954180 0.000000
#
# Coordination Sequence:
#
# PCOD8235703 Si02
#       7
#     8   8   8   8   8   8   8
#     4  11  21  35  54  79 110 146 183 222 278 340
#     4   9  19  33  52  77 106 140 178 220 275 334
#     4   9  17  32  52  78 108 140 181 226 267 318
#     4  10  22  39  59  81 106 142 188 234 280 328
#     4  10  18  33  55  78 105 141 177 216 269 327
#     4   8  16  30  52  79 107 140 181 226 270 317
#     4  10  20  36  56  80 110 142 182 232 279 325
#
# _framework density 19.233774
#
# number of rings (size 3 to 8) (size 9 to 14) (size 15 to 20)
#    0.000    2.429    1.429    2.143    0.000    1.429 
#    0.000    7.857    0.000    0.000    0.000    0.000 
#    0.000    0.000    0.000    0.000    0.000    0.000 
#
# Total GULP energy -694105.439665 kJ/mol
# GULP energy per Si atom -12394.739994 kJ/mol
# Density = 1.919000 g / cm^3
# Si number density = 19.233774 Si / 1000 Ang^3
#
#
#
# Elastic Constant Matrix: (Units=GPa)
#
#
# Indices 1 2 3 4 5 6 
#
# 1 123.5295 50.6775 25.1894 0.0000 0.0000 0.0000
# 2 50.6775 106.6008 27.7086 0.0000 0.0000 0.0000
# 3 25.1894 27.7086 36.7649 0.0000 0.0000 0.0000
# 4 0.0000 0.0000 0.0000 26.5393 0.0000 0.0000
# 5 0.0000 0.0000 0.0000 0.0000 18.3116 0.0000
# 6 0.0000 0.0000 0.0000 0.0000 0.0000 32.7095
#
#
#
# Elastic Compliance Matrix: (Units=1/GPa)
#
#
# Indices 1 2 3 4 5 6 
#
# 1 0.010576 -0.003910 -0.004299 0.000000 0.000000 0.000000
# 2 -0.003910 0.013112 -0.007203 0.000000 0.000000 0.000000
# 3 -0.004299 -0.007203 0.035574 0.000000 0.000000 0.000000
# 4 0.000000 0.000000 0.000000 0.037680 0.000000 0.000000
# 5 0.000000 0.000000 0.000000 0.000000 0.054610 0.000000
# 6 0.000000 0.000000 0.000000 0.000000 0.000000 0.030572
#
#
# Mechanical properties :
#
#
# Convention : Reuss Voigt Hill
#
# Bulk Modulus (GPa) = 35.16504 52.67179 43.91841
# Shear Modulus (GPa) = 22.47916 26.40005 24.43960
#
# Velocity S-wave (km/s) = 3.42238 3.70887 3.56850
# Velocity P-wave (km/s) = 5.82577 6.76649 6.31368
#
# Compressibility (1/GPa) = 0.02843733
#
# Stress axis : x y z
#
# Youngs Moduli (GPa) = 94.55292 76.26599 28.11047
#
# Poissons Ratio (x) = 0.29823 0.12085
# Poissons Ratio (y) = 0.36974 0.20248
# Poissons Ratio (z) = 0.40649 0.54934
#
# Static dielectric constant tensor:
#      x y z
#    x 3.946410 0.000000 0.000000 
#    y 0.000000 3.580690 0.000000 
#    z 0.000000 0.000000 3.107870 
# 
# 
# High freq. dielectric constant tensor:
#      x y z
#    x 1.760240 0.000000 0.000000 
#    y 0.000000 1.748920 0.000000 
#    z 0.000000 0.000000 1.708780 
# 
# From -- ./inp_files/6376.got.cif
#   From: 2010.06.25/outbox.cif.g09.slc.cpg/sg58_4_cif.got.tgz:6376.got - 2010.06.26 21:38:00.
