data_PCOD8235725
_publ_section_title
;
Structure prediction by ZEFSAII (Michael W. Deem and Ramdas Pophale) SiO2 
 PCOD8235725
Probable space group: P N N M
;
_chemical_formula_sum "Si O2"
_cell_formula_units_Z 64
_cell_length_a 29.003003
_cell_length_b 12.084005
_cell_length_c 8.852847
_cell_angle_alpha 90.000000
_cell_angle_beta 90.000000
_cell_angle_gamma 90.000000
_cell_volume 3102.678829
_symmetry_space_group_name_H-M "P N N M"
_symmetry_group_IT_number 58
_symmetry_cell_setting 'orthorhombic'
loop_
_space_group_symop_operation_xyz
x,y,z
-x,-y,z
1/2+x,1/2-y,1/2-z
1/2-x,1/2+y,1/2-z
-x,-y,-z
x,y,-z
1/2-x,1/2+y,1/2+z
1/2+x,1/2-y,1/2+z
loop_
_atom_site_type_symbol
_atom_site_label
_atom_site_fract_x
_atom_site_fract_y
_atom_site_fract_z
Si Si1 0.618036 0.344297 0.821620
Si Si2 0.664750 0.737511 0.820902
Si Si3 0.663141 0.137278 0.669428
Si Si4 0.282804 0.043077 0.173051
Si Si5 0.569740 0.785272 0.677805
Si Si6 0.531099 0.253181 0.677370
Si Si7 0.432297 0.972686 0.332107
Si Si8 0.318347 0.485441 0.674050
O O1 0.650113 0.244080 0.766389
O O2 0.565463 0.337398 0.760639
O O3 0.639581 0.457826 0.761879
O O4 0.616787 0.345256 0.000000
O O5 0.611539 0.731572 0.768547
O O6 0.690903 0.634791 0.745482
O O7 0.690591 0.848840 0.763644
O O8 0.667518 0.727392 0.000000
O O9 0.675635 0.177056 0.500000
O O10 0.705462 0.069614 0.738609
O O11 0.621733 0.050599 0.668415
O O12 0.227882 0.059385 0.190732
O O13 0.297165 0.024666 0.000000
O O14 0.582275 0.790010 0.500000
O O15 0.522498 0.715139 0.704173
O O16 0.560552 0.908425 0.746316
O O17 0.544251 0.254383 0.500000
O O18 0.540352 0.129292 0.744922
O O19 0.452365 0.984304 0.500000
O O20 0.332496 0.472009 0.500000
#
# Coordination Sequence:
#
# PCOD8235725 Si02
#       8
#     8   8   8   8   8   8   8   8
#     4  11  23  40  61  88 125 162 203 254 312 363
#     4  11  24  42  62  91 129 161 198 253 316 367
#     4  10  19  34  60  89 121 160 201 244 294 357
#     4  10  23  41  62  91 124 156 195 250 309 367
#     4  10  18  33  58  88 122 164 209 251 301 364
#     4   9  18  33  57  88 122 162 209 255 301 361
#     4   8  14  27  50  83 119 155 195 241 288 341
#     4  11  25  45  66  88 117 160 212 255 302 364
#
# _framework density 20.627334999999999
#
# number of rings (size 3 to 8) (size 9 to 14) (size 15 to 20)
#    0.000    2.000    1.250    3.375    1.750    3.500 
#    0.000    0.625    0.000    6.000    0.000    0.000 
#    0.000    0.000    0.000    0.000    0.000    0.000 
#
# Total GULP energy -793446.964954 kJ/mol
# GULP energy per Si atom -12397.608827 kJ/mol
# Density = 2.058039 g / cm^3
# Si number density = 20.627335 Si / 1000 Ang^3
#
#
#
# Elastic Constant Matrix: (Units=GPa)
#
#
# Indices 1 2 3 4 5 6 
#
# 1 96.9282 30.9374 36.6693 0.0000 0.0000 0.0000
# 2 30.9374 70.1720 30.7448 0.0000 0.0000 0.0000
# 3 36.6693 30.7448 101.6587 0.0000 0.0000 0.0000
# 4 0.0000 0.0000 0.0000 30.5094 0.0000 0.0000
# 5 0.0000 0.0000 0.0000 0.0000 28.1005 0.0000
# 6 0.0000 0.0000 0.0000 0.0000 0.0000 22.0698
#
#
#
# Elastic Compliance Matrix: (Units=1/GPa)
#
#
# Indices 1 2 3 4 5 6 
#
# 1 0.012948 -0.004222 -0.003394 0.000000 0.000000 0.000000
# 2 -0.004222 0.017804 -0.003862 0.000000 0.000000 0.000000
# 3 -0.003394 -0.003862 0.012229 0.000000 0.000000 0.000000
# 4 0.000000 0.000000 0.000000 0.032777 0.000000 0.000000
# 5 0.000000 0.000000 0.000000 0.000000 0.035587 0.000000
# 6 0.000000 0.000000 0.000000 0.000000 0.000000 0.045311
#
#
# Mechanical properties :
#
#
# Convention : Reuss Voigt Hill
#
# Bulk Modulus (GPa) = 49.93312 51.71799 50.82556
# Shear Modulus (GPa) = 26.84058 27.49644 27.16851
#
# Velocity S-wave (km/s) = 3.61115 3.65500 3.63314
# Velocity P-wave (km/s) = 6.45345 6.55279 6.50331
#
# Compressibility (1/GPa) = 0.02002679
#
# Stress axis : x y z
#
# Youngs Moduli (GPa) = 77.23013 56.16753 81.77346
#
# Poissons Ratio (x) = 0.23712 0.27752
# Poissons Ratio (y) = 0.32604 0.31578
# Poissons Ratio (z) = 0.26210 0.21690
#
# Static dielectric constant tensor:
#      x y z
#    x 3.731840 0.000000 0.000000 
#    y 0.000000 3.596280 0.000000 
#    z 0.000000 0.000000 3.527740 
# 
# 
# High freq. dielectric constant tensor:
#      x y z
#    x 1.812480 0.000000 0.000000 
#    y 0.000000 1.793380 0.000000 
#    z 0.000000 0.000000 1.784530 
# 
# From -- ./inp_files/11001.got.cif
#   From: 2010.06.25/outbox.cif.g09.slc.cpg/sg58_6_cif.got.tgz:11001.got - 2010.06.26 21:38:00.
