data_PCOD8235885
_publ_section_title
;
Structure prediction by ZEFSAII (Michael W. Deem and Ramdas Pophale) SiO2 
 PCOD8235885
Probable space group: P N N M
;
_chemical_formula_sum "Si O2"
_cell_formula_units_Z 56
_cell_length_a 24.188437
_cell_length_b 10.275011
_cell_length_c 13.176098
_cell_angle_alpha 90.000000
_cell_angle_beta 90.000000
_cell_angle_gamma 90.000000
_cell_volume 3274.740704
_symmetry_space_group_name_H-M "P N N M"
_symmetry_group_IT_number 58
_symmetry_cell_setting 'orthorhombic'
loop_
_space_group_symop_operation_xyz
x,y,z
-x,-y,z
1/2+x,1/2-y,1/2-z
1/2-x,1/2+y,1/2-z
-x,-y,-z
x,y,-z
1/2-x,1/2+y,1/2+z
1/2+x,1/2-y,1/2+z
loop_
_atom_site_type_symbol
_atom_site_label
_atom_site_fract_x
_atom_site_fract_y
_atom_site_fract_z
Si Si1 0.957733 0.671685 0.618562
Si Si2 0.922810 0.397324 0.619572
Si Si3 0.179373 0.687452 0.260941
Si Si4 0.788379 0.816868 0.881098
Si Si5 0.168610 0.975945 0.263967
Si Si6 0.938142 0.957538 0.619451
Si Si7 0.721252 0.019869 0.617751
O O1 0.968546 0.667993 0.500000
O O2 0.918333 0.551083 0.647840
O O3 0.929679 0.806550 0.650170
O O4 0.019241 0.656438 0.663899
O O5 0.915605 0.373040 0.500000
O O6 0.876947 0.318762 0.678022
O O7 0.227126 0.652899 0.341349
O O8 0.180630 0.583696 0.170264
O O9 0.182686 0.834174 0.216080
O O10 0.831002 0.912488 0.822741
O O11 0.801393 0.665122 0.858651
O O12 0.791753 0.848237 0.000000
O O13 0.108743 0.967509 0.317777
O O14 0.215742 0.004831 0.347310
O O15 0.929345 0.983918 0.500000
O O16 0.000000 0.000000 0.651623
O O17 0.719594 0.990212 0.500000
#
# Coordination Sequence:
#
# PCOD8235885 Si02
#       7
#     8   8   8   8   8   8   8
#     4   8  16  28  42  67  99 131 161 192 235 284
#     4   9  16  28  46  69 101 131 159 195 236 286
#     4  10  19  30  50  75  96 127 164 198 240 287
#     4   9  19  35  51  69  96 129 164 201 243 288
#     4  10  20  32  50  75 102 128 162 200 244 290
#     4  10  19  30  47  72 103 134 162 195 242 296
#     4   9  19  35  51  70  98 131 165 202 242 288
#
# _framework density 17.10059
#
# number of rings (size 3 to 8) (size 9 to 14) (size 15 to 20)
#    0.000    2.714    0.000    2.571    2.000    3.429 
#    0.000    0.000    0.000    0.429    0.000    3.000 
#    0.000    0.000    0.000    0.000    0.000    0.000 
#
# Total GULP energy -694113.072639 kJ/mol
# GULP energy per Si atom -12394.876297 kJ/mol
# Density = 1.706167 g / cm^3
# Si number density = 17.100590 Si / 1000 Ang^3
#
#
#
# Elastic Constant Matrix: (Units=GPa)
#
#
# Indices 1 2 3 4 5 6 
#
# 1 59.9192 29.0564 27.7375 0.0000 0.0000 0.0000
# 2 29.0564 98.4481 51.7253 0.0000 0.0000 0.0000
# 3 27.7375 51.7253 81.9425 0.0000 0.0000 0.0000
# 4 0.0000 0.0000 0.0000 25.8440 0.0000 0.0000
# 5 0.0000 0.0000 0.0000 0.0000 22.8556 0.0000
# 6 0.0000 0.0000 0.0000 0.0000 0.0000 23.1240
#
#
#
# Elastic Compliance Matrix: (Units=1/GPa)
#
#
# Indices 1 2 3 4 5 6 
#
# 1 0.020617 -0.003618 -0.004695 0.000000 0.000000 0.000000
# 2 -0.003618 0.015833 -0.008770 0.000000 0.000000 0.000000
# 3 -0.004695 -0.008770 0.019329 0.000000 0.000000 0.000000
# 4 0.000000 0.000000 0.000000 0.038694 0.000000 0.000000
# 5 0.000000 0.000000 0.000000 0.000000 0.043753 0.000000
# 6 0.000000 0.000000 0.000000 0.000000 0.000000 0.043245
#
#
# Mechanical properties :
#
#
# Convention : Reuss Voigt Hill
#
# Bulk Modulus (GPa) = 46.26808 50.81646 48.54227
# Shear Modulus (GPa) = 22.43753 23.15077 22.79415
#
# Velocity S-wave (km/s) = 3.62621 3.68339 3.65491
# Velocity P-wave (km/s) = 6.68189 6.91886 6.80141
#
# Compressibility (1/GPa) = 0.02161317
#
# Stress axis : x y z
#
# Youngs Moduli (GPa) = 48.50350 63.15828 51.73652
#
# Poissons Ratio (x) = 0.22852 0.24290
# Poissons Ratio (y) = 0.17550 0.45372
# Poissons Ratio (z) = 0.22772 0.55388
#
# Static dielectric constant tensor:
#      x y z
#    x 3.034520 0.000000 0.000000 
#    y 0.000000 3.949870 0.000000 
#    z 0.000000 0.000000 2.856600 
# 
# 
# High freq. dielectric constant tensor:
#      x y z
#    x 1.645990 0.000000 0.000000 
#    y 0.000000 1.681730 0.000000 
#    z 0.000000 0.000000 1.617940 
# 
# From -- ./inp_files/17493.got.cif
#   From: 2010.06.25/outbox.cif.g09.slc.cpg/sg58_9_cif.got.tgz:17493.got - 2010.06.26 21:38:00.
