data_PCOD8235426
_publ_section_title
;
Structure prediction by ZEFSAII (Michael W. Deem and Ramdas Pophale) SiO2 
 PCOD8235426
Probable space group: P N N M
;
_chemical_formula_sum "Si O2"
_cell_formula_units_Z 48
_cell_length_a 31.308158
_cell_length_b 9.716465
_cell_length_c 8.913266
_cell_angle_alpha 90.000000
_cell_angle_beta 90.000000
_cell_angle_gamma 90.000000
_cell_volume 2711.456709
_symmetry_space_group_name_H-M "P N N M"
_symmetry_group_IT_number 58
_symmetry_cell_setting 'orthorhombic'
loop_
_space_group_symop_operation_xyz
x,y,z
-x,-y,z
1/2+x,1/2-y,1/2-z
1/2-x,1/2+y,1/2-z
-x,-y,-z
x,y,-z
1/2-x,1/2+y,1/2+z
1/2+x,1/2-y,1/2+z
loop_
_atom_site_type_symbol
_atom_site_label
_atom_site_fract_x
_atom_site_fract_y
_atom_site_fract_z
Si Si1 0.711447 0.583973 0.674795
Si Si2 0.039936 0.910956 0.177948
Si Si3 0.465359 0.100389 0.673244
Si Si4 0.280488 0.096619 0.329226
Si Si5 0.125742 0.909189 0.324755
Si Si6 0.373259 0.126101 0.329392
O O1 0.703075 0.568824 0.500000
O O2 0.721100 0.742686 0.716703
O O3 0.751494 0.491195 0.719456
O O4 0.669300 0.525963 0.758132
O O5 0.032682 0.755158 0.238296
O O6 0.083199 0.973895 0.249693
O O7 0.045070 0.915894 0.000000
O O8 0.000000 0.000000 0.233937
O O9 0.477911 0.110330 0.500000
O O10 0.417018 0.038987 0.695205
O O11 0.500000 0.000000 0.753750
O O12 0.264907 0.076004 0.500000
O O13 0.329469 0.040195 0.309776
O O14 0.124388 0.938319 0.500000
O O15 0.126758 0.747530 0.290425
O O16 0.373984 0.188777 0.500000
#
# Coordination Sequence:
#
# PCOD8235426 Si02
#       6
#     8   8   8   8   8   8
#     4  10  20  34  52  73  98 127 161 201 244 292
#     4   9  17  30  47  67  93 123 156 193 232 278
#     4   8  13  24  45  69  90 116 151 188 225 267
#     4   9  18  32  49  71  98 127 162 202 243 288
#     4  10  18  29  48  70  93 123 160 196 234 285
#     4   8  15  29  47  67  94 125 158 195 234 282
#
# _framework density 17.702663000000001
#
# number of rings (size 3 to 8) (size 9 to 14) (size 15 to 20)
#    0.000    3.000    0.000    4.000    0.000    3.667 
#    0.000    1.667    0.000   12.000    0.000    0.000 
#    0.000    0.000    0.000    0.000    0.000    0.000 
#
# Total GULP energy -594726.667656 kJ/mol
# GULP energy per Si atom -12390.138910 kJ/mol
# Density = 1.766237 g / cm^3
# Si number density = 17.702663 Si / 1000 Ang^3
#
#
#
# Elastic Constant Matrix: (Units=GPa)
#
#
# Indices 1 2 3 4 5 6 
#
# 1 179.4119 58.3887 45.8729 0.0000 0.0000 0.0000
# 2 58.3887 50.8808 22.5093 0.0000 0.0000 0.0000
# 3 45.8729 22.5093 59.7968 0.0000 0.0000 0.0000
# 4 0.0000 0.0000 0.0000 17.3157 0.0000 0.0000
# 5 0.0000 0.0000 0.0000 0.0000 28.0735 0.0000
# 6 0.0000 0.0000 0.0000 0.0000 0.0000 32.1142
#
#
#
# Elastic Compliance Matrix: (Units=1/GPa)
#
#
# Indices 1 2 3 4 5 6 
#
# 1 0.009583 -0.009293 -0.003854 0.000000 0.000000 0.000000
# 2 -0.009293 0.032591 -0.005140 0.000000 0.000000 0.000000
# 3 -0.003854 -0.005140 0.021614 0.000000 0.000000 0.000000
# 4 0.000000 0.000000 0.000000 0.057751 0.000000 0.000000
# 5 0.000000 0.000000 0.000000 0.000000 0.035621 0.000000
# 6 0.000000 0.000000 0.000000 0.000000 0.000000 0.031139
#
#
# Mechanical properties :
#
#
# Convention : Reuss Voigt Hill
#
# Bulk Modulus (GPa) = 36.74161 60.40350 48.57255
# Shear Modulus (GPa) = 21.37263 26.38858 23.88060
#
# Velocity S-wave (km/s) = 3.47841 3.86509 3.67684
# Velocity P-wave (km/s) = 6.07720 7.35621 6.74708
#
# Compressibility (1/GPa) = 0.02721710
#
# Stress axis : x y z
#
# Youngs Moduli (GPa) = 104.34768 30.68307 46.26538
#
# Poissons Ratio (x) = 0.28512 0.17830
# Poissons Ratio (y) = 0.96966 0.23779
# Poissons Ratio (z) = 0.40214 0.15770
#
# Static dielectric constant tensor:
#      x y z
#    x 3.789560 0.000000 0.000000 
#    y 0.000000 2.976250 0.000000 
#    z 0.000000 0.000000 2.998820 
# 
# 
# High freq. dielectric constant tensor:
#      x y z
#    x 1.711520 0.000000 0.000000 
#    y 0.000000 1.631120 0.000000 
#    z 0.000000 0.000000 1.662800 
# 
# From -- ./inp_files/4328.got.cif
#   From: 2010.06.25/outbox.cif.g09.slc.cpg/sg58_3_cif.got.tgz:4328.got - 2010.06.26 21:38:00.
