data_PCOD8235167
_publ_section_title
;
Structure prediction by ZEFSAII (Michael W. Deem and Ramdas Pophale) SiO2 
 PCOD8235167
Probable space group: P B C M
;
_chemical_formula_sum "Si O2"
_cell_formula_units_Z 32
_cell_length_a 4.750679
_cell_length_b 8.348800
_cell_length_c 32.466399
_cell_angle_alpha 90.000000
_cell_angle_beta 90.000000
_cell_angle_gamma 90.000000
_cell_volume 1287.697539
_symmetry_space_group_name_H-M "P B C M"
_symmetry_group_IT_number 57
_symmetry_cell_setting 'orthorhombic'
loop_
_space_group_symop_operation_xyz
x,y,z
-x,-y,1/2+z
x,1/2-y,-z
-x,1/2+y,1/2-z
-x,-y,-z
x,y,1/2-z
-x,1/2+y,z
x,1/2-y,1/2+z
loop_
_atom_site_type_symbol
_atom_site_label
_atom_site_fract_x
_atom_site_fract_y
_atom_site_fract_z
Si Si1 0.104725 0.963487 0.170640
Si Si2 0.102830 0.466429 0.077910
Si Si3 0.616801 0.285384 0.453279
Si Si4 0.383847 0.282977 0.202612
O O1 0.328848 0.821909 0.178703
O O2 0.011802 0.957568 0.123742
O O3 0.830734 0.933095 0.199051
O O4 0.240677 0.132065 0.181256
O O5 0.235899 0.637222 0.068883
O O6 0.335549 0.328157 0.071654
O O7 0.837413 0.433723 0.047662
O O8 0.532278 0.250000 0.500000
O O9 0.453439 0.247126 0.250000
#
# Coordination Sequence:
#
# PCOD8235167 Si02
#       4
#     8   8   8   8
#     4  12  27  46  72 107 144 188 238 295 360 429
#     4  12  26  46  72 107 147 190 239 297 359 427
#     4  12  25  47  75 108 145 191 242 298 359 427
#     4  12  25  47  74 106 143 187 238 298 361 431
#
# _framework density 24.850555
#
# number of rings (size 3 to 8) (size 9 to 14) (size 15 to 20)
#    0.000    0.000    0.000   10.500    0.000    4.000 
#    0.000    2.500    0.000    0.000    0.000    0.000 
#    0.000    0.000    0.000    0.000    0.000    0.000 
#
# Total GULP energy -397088.398799 kJ/mol
# GULP energy per Si atom -12409.012462 kJ/mol
# Density = 2.479399 g / cm^3
# Si number density = 24.850555 Si / 1000 Ang^3
#
#
#
# Elastic Constant Matrix: (Units=GPa)
#
#
# Indices 1 2 3 4 5 6 
#
# 1 141.8345 24.4829 90.9022 0.0000 0.0000 0.0000
# 2 24.4829 69.4461 70.0245 0.0000 0.0000 0.0000
# 3 90.9022 70.0245 178.5047 0.0000 0.0000 0.0000
# 4 0.0000 0.0000 0.0000 37.9501 0.0000 0.0000
# 5 0.0000 0.0000 0.0000 0.0000 74.5630 0.0000
# 6 0.0000 0.0000 0.0000 0.0000 0.0000 41.9534
#
#
#
# Elastic Compliance Matrix: (Units=1/GPa)
#
#
# Indices 1 2 3 4 5 6 
#
# 1 0.010803 0.002876 -0.006630 0.000000 0.000000 0.000000
# 2 0.002876 0.024589 -0.011110 0.000000 0.000000 0.000000
# 3 -0.006630 -0.011110 0.013337 0.000000 0.000000 0.000000
# 4 0.000000 0.000000 0.000000 0.026350 0.000000 0.000000
# 5 0.000000 0.000000 0.000000 0.000000 0.013411 0.000000
# 6 0.000000 0.000000 0.000000 0.000000 0.000000 0.023836
#
#
# Mechanical properties :
#
#
# Convention : Reuss Voigt Hill
#
# Bulk Modulus (GPa) = 52.62978 84.51160 68.57069
# Shear Modulus (GPa) = 33.69562 44.51835 39.10698
#
# Velocity S-wave (km/s) = 3.68629 4.23714 3.97128
# Velocity P-wave (km/s) = 6.27238 7.61705 6.97719
#
# Compressibility (1/GPa) = 0.01900065
#
# Stress axis : x y z
#
# Youngs Moduli (GPa) = 92.56734 40.66921 74.98120
#
# Poissons Ratio (x) = -0.11698 0.49710
# Poissons Ratio (y) = -0.26626 0.83308
# Poissons Ratio (z) = 0.61369 0.45185
#
# Static dielectric constant tensor:
#      x y z
#    x 5.108450 0.000000 0.000000 
#    y 0.000000 4.771940 0.000000 
#    z 0.000000 0.000000 4.499750 
# 
# 
# High freq. dielectric constant tensor:
#      x y z
#    x 2.019500 0.000000 0.000000 
#    y 0.000000 2.002340 0.000000 
#    z 0.000000 0.000000 1.991510 
# 
# From -- ./inp_files/29010.got.cif
#   From: 2010.03.12/outbox.cif.g09.slc.cpg/sg57_15_cif.got.tgz:29010.got - 2010.04.16 15:48:40.
