data_PCOD8235078
_publ_section_title
;
Structure prediction by ZEFSAII (Michael W. Deem and Ramdas Pophale) SiO2 
 PCOD8235078
Probable space group: P B C M
;
_chemical_formula_sum "Si O2"
_cell_formula_units_Z 32
_cell_length_a 20.526211
_cell_length_b 8.945681
_cell_length_c 8.527334
_cell_angle_alpha 90.000000
_cell_angle_beta 90.000000
_cell_angle_gamma 90.000000
_cell_volume 1565.797048
_symmetry_space_group_name_H-M "P B C M"
_symmetry_group_IT_number 57
_symmetry_cell_setting 'orthorhombic'
loop_
_space_group_symop_operation_xyz
x,y,z
-x,-y,1/2+z
x,1/2-y,-z
-x,1/2+y,1/2-z
-x,-y,-z
x,y,1/2-z
-x,1/2+y,z
x,1/2-y,1/2+z
loop_
_atom_site_type_symbol
_atom_site_label
_atom_site_fract_x
_atom_site_fract_y
_atom_site_fract_z
Si Si1 0.938958 0.913811 0.067366
Si Si2 0.562242 0.084078 0.065441
Si Si3 0.314396 0.414933 0.565373
Si Si4 0.807503 0.085311 0.434950
O O1 0.949227 0.901141 0.250000
O O2 0.873578 0.000521 0.023209
O O3 0.933931 0.750000 0.000000
O O4 0.000000 0.000000 0.000000
O O5 0.556171 0.093839 0.250000
O O6 0.567105 0.250000 0.000000
O O7 0.500000 0.000000 0.000000
O O8 0.625574 0.992032 0.019795
O O9 0.305079 0.250000 0.500000
O O10 0.327470 0.410660 0.750000
O O11 0.249959 0.507111 0.529162
O O12 0.815423 0.250000 0.500000
O O13 0.792272 0.084996 0.250000
#
# Coordination Sequence:
#
# PCOD8235078 Si02
#       4
#     8   8   8   8
#     4  11  24  41  64  92 126 164 208 257 312 371
#     4  12  25  44  67  95 129 167 210 258 311 370
#     4  12  25  43  66  94 127 166 209 258 312 371
#     4  11  24  42  64  93 126 165 208 257 311 370
#
# _framework density 20.436876000000002
#
# number of rings (size 3 to 8) (size 9 to 14) (size 15 to 20)
#    0.000    0.500    0.000    9.000    0.000    8.000 
#    0.000    0.000    0.000    0.000    0.000    0.000 
#    0.000    0.000    0.000    0.000    0.000    0.000 
#
# Total GULP energy -397029.210244 kJ/mol
# GULP energy per Si atom -12407.162820 kJ/mol
# Density = 2.039036 g / cm^3
# Si number density = 20.436876 Si / 1000 Ang^3
#
#
#
# Elastic Constant Matrix: (Units=GPa)
#
#
# Indices 1 2 3 4 5 6 
#
# 1 141.0149 63.4229 60.0565 0.0000 0.0000 0.0000
# 2 63.4229 164.7435 42.5596 0.0000 0.0000 0.0000
# 3 60.0565 42.5596 119.5926 0.0000 0.0000 0.0000
# 4 0.0000 0.0000 0.0000 33.9901 0.0000 0.0000
# 5 0.0000 0.0000 0.0000 0.0000 36.3917 0.0000
# 6 0.0000 0.0000 0.0000 0.0000 0.0000 66.4817
#
#
#
# Elastic Compliance Matrix: (Units=1/GPa)
#
#
# Indices 1 2 3 4 5 6 
#
# 1 0.010097 -0.002838 -0.004061 0.000000 0.000000 0.000000
# 2 -0.002838 0.007482 -0.001237 0.000000 0.000000 0.000000
# 3 -0.004061 -0.001237 0.010841 0.000000 0.000000 0.000000
# 4 0.000000 0.000000 0.000000 0.029420 0.000000 0.000000
# 5 0.000000 0.000000 0.000000 0.000000 0.027479 0.000000
# 6 0.000000 0.000000 0.000000 0.000000 0.000000 0.015042
#
#
# Mechanical properties :
#
#
# Convention : Reuss Voigt Hill
#
# Bulk Modulus (GPa) = 82.31578 84.15880 83.23729
# Shear Modulus (GPa) = 41.43053 44.66015 43.04534
#
# Velocity S-wave (km/s) = 4.50738 4.67976 4.59438
# Velocity P-wave (km/s) = 8.21304 8.39461 8.30432
#
# Compressibility (1/GPa) = 0.01214834
#
# Stress axis : x y z
#
# Youngs Moduli (GPa) = 99.03590 133.64690 92.24043
#
# Poissons Ratio (x) = 0.37933 0.37455
# Poissons Ratio (y) = 0.28109 0.11414
# Poissons Ratio (z) = 0.40214 0.16538
#
# Static dielectric constant tensor:
#      x y z
#    x 4.016630 0.000000 0.000000 
#    y 0.000000 4.050430 0.000000 
#    z 0.000000 0.000000 4.031350 
# 
# 
# High freq. dielectric constant tensor:
#      x y z
#    x 1.822350 0.000000 0.000000 
#    y 0.000000 1.825100 0.000000 
#    z 0.000000 0.000000 1.822140 
# 
# From -- ./inp_files/7546.got.cif
#   From: 2010.03.12/outbox.cif.g09.slc.cpg/sg57_4_cif.got.tgz:7546.got - 2010.04.16 15:48:40.
