data_PCOD8235373
_publ_section_title
;
Structure prediction by ZEFSAII (Michael W. Deem and Ramdas Pophale) SiO2 
 PCOD8235373
Probable space group: P N N M
;
_chemical_formula_sum "Si O2"
_cell_formula_units_Z 40
_cell_length_a 16.026734
_cell_length_b 15.809107
_cell_length_c 9.041254
_cell_angle_alpha 90.000000
_cell_angle_beta 90.000000
_cell_angle_gamma 90.000000
_cell_volume 2290.767632
_symmetry_space_group_name_H-M "P N N M"
_symmetry_group_IT_number 58
_symmetry_cell_setting 'orthorhombic'
loop_
_space_group_symop_operation_xyz
x,y,z
-x,-y,z
1/2+x,1/2-y,1/2-z
1/2-x,1/2+y,1/2-z
-x,-y,-z
x,y,-z
1/2-x,1/2+y,1/2+z
1/2+x,1/2-y,1/2+z
loop_
_atom_site_type_symbol
_atom_site_label
_atom_site_fract_x
_atom_site_fract_y
_atom_site_fract_z
Si Si1 0.311906 0.439079 0.175587
Si Si2 0.464728 0.128046 0.675636
Si Si3 0.440283 0.316480 0.324981
Si Si4 0.126874 0.464120 0.175836
Si Si5 0.064596 0.075642 0.337815
O O1 0.362056 0.363819 0.253398
O O2 0.217487 0.437697 0.237243
O O3 0.349341 0.531965 0.216840
O O4 0.317945 0.424536 0.000000
O O5 0.466202 0.128429 0.500000
O O6 0.438438 0.220151 0.734080
O O7 0.398750 0.057944 0.732924
O O8 0.557886 0.103323 0.731542
O O9 0.432983 0.322938 0.500000
O O10 0.529697 0.355739 0.277268
O O11 0.130663 0.465995 0.000000
O O12 0.076227 0.118126 0.500000
O O13 0.000000 0.000000 0.352356
#
# Coordination Sequence:
#
# PCOD8235373 Si02
#       5
#     8   8   8   8   8
#     4   9  17  30  49  69  90 120 157 189 219 264
#     4   8  15  28  47  69  90 117 154 191 225 264
#     4  10  18  28  45  71  99 119 143 186 236 273
#     4   8  14  29  50  66  86 120 159 191 218 260
#     4   8  15  28  44  64  89 121 156 181 212 265
#
# _framework density 17.461396000000001
#
# number of rings (size 3 to 8) (size 9 to 14) (size 15 to 20)
#    0.000    3.400    0.000    3.000    0.000    3.600 
#    3.600    0.000    0.000    3.600    0.000    7.000 
#    0.000    0.000    0.000    0.000    0.000    0.000 
#
# Total GULP energy -495620.497504 kJ/mol
# GULP energy per Si atom -12390.512438 kJ/mol
# Density = 1.742165 g / cm^3
# Si number density = 17.461396 Si / 1000 Ang^3
#
#
#
# Elastic Constant Matrix: (Units=GPa)
#
#
# Indices 1 2 3 4 5 6 
#
# 1 143.1574 72.9579 28.8492 0.0000 0.0000 0.0000
# 2 72.9579 135.2352 36.4193 0.0000 0.0000 0.0000
# 3 28.8492 36.4193 35.8813 0.0000 0.0000 0.0000
# 4 0.0000 0.0000 0.0000 14.7998 0.0000 0.0000
# 5 0.0000 0.0000 0.0000 0.0000 15.4354 0.0000
# 6 0.0000 0.0000 0.0000 0.0000 0.0000 18.0646
#
#
#
# Elastic Compliance Matrix: (Units=1/GPa)
#
#
# Indices 1 2 3 4 5 6 
#
# 1 0.009945 -0.004420 -0.003510 0.000000 0.000000 0.000000
# 2 -0.004420 0.012141 -0.008769 0.000000 0.000000 0.000000
# 3 -0.003510 -0.008769 0.039592 0.000000 0.000000 0.000000
# 4 0.000000 0.000000 0.000000 0.067568 0.000000 0.000000
# 5 0.000000 0.000000 0.000000 0.000000 0.064786 0.000000
# 6 0.000000 0.000000 0.000000 0.000000 0.000000 0.055357
#
#
# Mechanical properties :
#
#
# Convention : Reuss Voigt Hill
#
# Bulk Modulus (GPa) = 35.36020 65.63631 50.49826
# Shear Modulus (GPa) = 17.11079 21.39646 19.25362
#
# Velocity S-wave (km/s) = 3.13376 3.50431 3.32420
# Velocity P-wave (km/s) = 5.77827 7.35150 6.61185
#
# Compressibility (1/GPa) = 0.02828038
#
# Stress axis : x y z
#
# Youngs Moduli (GPa) = 100.55023 82.36811 25.25773
#
# Poissons Ratio (x) = 0.36408 0.08865
# Poissons Ratio (y) = 0.44445 0.22148
# Poissons Ratio (z) = 0.35290 0.72227
#
# Static dielectric constant tensor:
#      x y z
#    x 3.658260 0.000000 0.000000 
#    y 0.000000 3.460230 0.000000 
#    z 0.000000 0.000000 2.866500 
# 
# 
# High freq. dielectric constant tensor:
#      x y z
#    x 1.674410 0.000000 0.000000 
#    y 0.000000 1.666580 0.000000 
#    z 0.000000 0.000000 1.632930 
# 
# From -- ./inp_files/5553.got.cif
#   From: 2010.06.25/outbox.cif.g09.slc.cpg/sg58_3_cif.got.tgz:5553.got - 2010.06.26 21:38:00.
