data_PCOD8235139
_publ_section_title
;
Structure prediction by ZEFSAII (Michael W. Deem and Ramdas Pophale) SiO2 
 PCOD8235139
Probable space group: P B C M
;
_chemical_formula_sum "Si O2"
_cell_formula_units_Z 40
_cell_length_a 7.742988
_cell_length_b 9.796061
_cell_length_c 23.753753
_cell_angle_alpha 90.000000
_cell_angle_beta 90.000000
_cell_angle_gamma 90.000000
_cell_volume 1801.740759
_symmetry_space_group_name_H-M "P B C M"
_symmetry_group_IT_number 57
_symmetry_cell_setting 'orthorhombic'
loop_
_space_group_symop_operation_xyz
x,y,z
-x,-y,1/2+z
x,1/2-y,-z
-x,1/2+y,1/2-z
-x,-y,-z
x,y,1/2-z
-x,1/2+y,z
x,1/2-y,1/2+z
loop_
_atom_site_type_symbol
_atom_site_label
_atom_site_fract_x
_atom_site_fract_y
_atom_site_fract_z
Si Si1 0.375124 0.115727 0.513064
Si Si2 0.382356 0.820131 0.815006
Si Si3 0.322170 0.375968 0.359035
Si Si4 0.052123 0.793576 0.130993
Si Si5 0.070689 0.054427 0.058175
O O1 0.488280 0.250000 0.500000
O O2 0.292089 0.097540 0.574503
O O3 0.242409 0.130972 0.461003
O O4 0.500000 0.000000 0.500000
O O5 0.431906 0.810149 0.750000
O O6 0.532305 0.739043 0.848695
O O7 0.197982 0.746086 0.823754
O O8 0.375050 0.980483 0.831029
O O9 0.134082 0.319698 0.338381
O O10 0.049692 0.666436 0.087732
O O11 0.113968 0.930711 0.100069
O O12 0.000000 0.000000 0.000000
#
# Coordination Sequence:
#
# PCOD8235139 Si02
#       5
#     8   8   8   8   8
#     4  12  23  39  67 105 146 187 227 277 359 436
#     4  12  29  50  74 103 138 193 252 312 366 411
#     4  12  26  48  74 106 147 185 246 301 355 441
#     4  12  25  47  73 106 147 189 242 295 363 433
#     4  12  22  43  68 103 148 189 225 282 353 442
#
# _framework density 22.200751
#
# number of rings (size 3 to 8) (size 9 to 14) (size 15 to 20)
#    0.000    0.000    6.000    3.600    2.800    3.200 
#    0.000    0.000    0.000    0.000    0.000    0.000 
#    0.000    0.000    0.000    0.000    0.000    0.000 
#
# Total GULP energy -495727.898882 kJ/mol
# GULP energy per Si atom -12393.197472 kJ/mol
# Density = 2.215022 g / cm^3
# Si number density = 22.200751 Si / 1000 Ang^3
#
#
#
# Elastic Constant Matrix: (Units=GPa)
#
#
# Indices 1 2 3 4 5 6 
#
# 1 114.3395 37.5671 19.7741 0.0000 0.0000 0.0000
# 2 37.5671 153.3085 31.8988 0.0000 0.0000 0.0000
# 3 19.7741 31.8988 70.0663 0.0000 0.0000 0.0000
# 4 0.0000 0.0000 0.0000 30.8468 0.0000 0.0000
# 5 0.0000 0.0000 0.0000 0.0000 27.1504 0.0000
# 6 0.0000 0.0000 0.0000 0.0000 0.0000 41.4632
#
#
#
# Elastic Compliance Matrix: (Units=1/GPa)
#
#
# Indices 1 2 3 4 5 6 
#
# 1 0.009720 -0.002001 -0.001832 0.000000 0.000000 0.000000
# 2 -0.002001 0.007617 -0.002903 0.000000 0.000000 0.000000
# 3 -0.001832 -0.002903 0.016111 0.000000 0.000000 0.000000
# 4 0.000000 0.000000 0.000000 0.032418 0.000000 0.000000
# 5 0.000000 0.000000 0.000000 0.000000 0.036832 0.000000
# 6 0.000000 0.000000 0.000000 0.000000 0.000000 0.024118
#
#
# Mechanical properties :
#
#
# Convention : Reuss Voigt Hill
#
# Bulk Modulus (GPa) = 50.06036 57.35492 53.70764
# Shear Modulus (GPa) = 34.02585 36.45705 35.24145
#
# Velocity S-wave (km/s) = 3.91915 4.05675 3.98854
# Velocity P-wave (km/s) = 6.56335 6.91619 6.74208
#
# Compressibility (1/GPa) = 0.01997588
#
# Stress axis : x y z
#
# Youngs Moduli (GPa) = 102.87978 131.28385 62.06911
#
# Poissons Ratio (x) = 0.26264 0.11374
# Poissons Ratio (y) = 0.20582 0.18020
# Poissons Ratio (z) = 0.18852 0.38114
#
# Static dielectric constant tensor:
#      x y z
#    x 2.925120 0.000000 0.000000 
#    y 0.000000 4.559310 0.000000 
#    z 0.000000 0.000000 3.795060 
# 
# 
# High freq. dielectric constant tensor:
#      x y z
#    x 1.877190 0.000000 0.000000 
#    y 0.000000 1.909880 0.000000 
#    z 0.000000 0.000000 1.857660 
# 
# From -- ./inp_files/28249.got.cif
#   From: 2010.03.12/outbox.cif.g09.slc.cpg/sg57_15_cif.got.tgz:28249.got - 2010.04.16 15:48:40.
