data_PCOD8235944
_publ_section_title
;
Structure prediction by ZEFSAII (Michael W. Deem and Ramdas Pophale) SiO2 
 PCOD8235944
Probable space group: P N N M
;
_chemical_formula_sum "Si O2"
_cell_formula_units_Z 56
_cell_length_a 19.260212
_cell_length_b 18.991753
_cell_length_c 9.078745
_cell_angle_alpha 90.000000
_cell_angle_beta 90.000000
_cell_angle_gamma 90.000000
_cell_volume 3320.870456
_symmetry_space_group_name_H-M "P N N M"
_symmetry_group_IT_number 58
_symmetry_cell_setting 'orthorhombic'
loop_
_space_group_symop_operation_xyz
x,y,z
-x,-y,z
1/2+x,1/2-y,1/2-z
1/2-x,1/2+y,1/2-z
-x,-y,-z
x,y,-z
1/2-x,1/2+y,1/2+z
1/2+x,1/2-y,1/2+z
loop_
_atom_site_type_symbol
_atom_site_label
_atom_site_fract_x
_atom_site_fract_y
_atom_site_fract_z
Si Si1 0.276845 0.365895 0.172638
Si Si2 0.878918 0.255591 0.325508
Si Si3 0.515335 0.283895 0.670601
Si Si4 0.193126 0.018986 0.329174
Si Si5 0.553156 0.440674 0.326622
Si Si6 0.331958 0.756098 0.671261
Si Si7 0.270393 0.155896 0.329639
O O1 0.338299 0.314533 0.228623
O O2 0.284734 0.443671 0.242078
O O3 0.202323 0.331433 0.213807
O O4 0.283056 0.374549 0.000000
O O5 0.878638 0.263032 0.500000
O O6 0.839971 0.323295 0.257902
O O7 0.957100 0.253357 0.267951
O O8 0.494320 0.278735 0.500000
O O9 0.523005 0.364943 0.719442
O O10 0.586261 0.241502 0.702821
O O11 0.173306 0.011687 0.500000
O O12 0.126707 0.048610 0.247177
O O13 0.257407 0.072535 0.308609
O O14 0.500000 0.500000 0.270241
O O15 0.564726 0.444919 0.500000
O O16 0.317114 0.738072 0.500000
O O17 0.297183 0.695443 0.767672
O O18 0.279842 0.175964 0.500000
#
# Coordination Sequence:
#
# PCOD8235944 Si02
#       7
#     8   8   8   8   8   8   8
#     4   8  16  31  49  70  94 123 163 202 240 284
#     4  10  20  33  51  71  96 130 165 203 244 291
#     4  10  19  31  48  71  99 129 162 201 243 288
#     4  10  19  31  49  72  97 127 162 203 242 288
#     4  10  20  31  45  70 105 137 161 191 240 300
#     4   9  17  32  52  70  94 130 166 202 241 288
#     4  10  19  31  49  72  97 125 162 205 245 289
#
# _framework density 16.863047999999999
#
# number of rings (size 3 to 8) (size 9 to 14) (size 15 to 20)
#    0.000    2.429    1.429    2.571    0.000    2.000 
#    0.000    2.857    0.000    0.857    0.000    6.000 
#    0.000    0.000    0.000    0.000    0.000    0.000 
#
# Total GULP energy -694325.145884 kJ/mol
# GULP energy per Si atom -12398.663319 kJ/mol
# Density = 1.682467 g / cm^3
# Si number density = 16.863048 Si / 1000 Ang^3
#
#
#
# Elastic Constant Matrix: (Units=GPa)
#
#
# Indices 1 2 3 4 5 6 
#
# 1 115.1947 36.4688 38.7090 0.0000 0.0000 0.0000
# 2 36.4688 49.4750 20.9564 0.0000 0.0000 0.0000
# 3 38.7090 20.9564 51.8428 0.0000 0.0000 0.0000
# 4 0.0000 0.0000 0.0000 15.7343 0.0000 0.0000
# 5 0.0000 0.0000 0.0000 0.0000 30.7745 0.0000
# 6 0.0000 0.0000 0.0000 0.0000 0.0000 24.2596
#
#
#
# Elastic Compliance Matrix: (Units=1/GPa)
#
#
# Indices 1 2 3 4 5 6 
#
# 1 0.013207 -0.006706 -0.007150 0.000000 0.000000 0.000000
# 2 -0.006706 0.027793 -0.006228 0.000000 0.000000 0.000000
# 3 -0.007150 -0.006228 0.027145 0.000000 0.000000 0.000000
# 4 0.000000 0.000000 0.000000 0.063555 0.000000 0.000000
# 5 0.000000 0.000000 0.000000 0.000000 0.032494 0.000000
# 6 0.000000 0.000000 0.000000 0.000000 0.000000 0.041221
#
#
# Mechanical properties :
#
#
# Convention : Reuss Voigt Hill
#
# Bulk Modulus (GPa) = 35.74320 45.42009 40.58164
# Shear Modulus (GPa) = 19.61482 22.17891 20.89686
#
# Velocity S-wave (km/s) = 3.41425 3.63055 3.52406
# Velocity P-wave (km/s) = 6.06506 6.67591 6.37780
#
# Compressibility (1/GPa) = 0.02797735
#
# Stress axis : x y z
#
# Youngs Moduli (GPa) = 75.71928 35.97985 36.83905
#
# Poissons Ratio (x) = 0.24129 0.26340
# Poissons Ratio (y) = 0.50779 0.22942
# Poissons Ratio (z) = 0.54140 0.22407
#
# Static dielectric constant tensor:
#      x y z
#    x 3.131970 0.000000 0.000000 
#    y 0.000000 3.393690 0.000000 
#    z 0.000000 0.000000 3.049970 
# 
# 
# High freq. dielectric constant tensor:
#      x y z
#    x 1.643730 0.000000 0.000000 
#    y 0.000000 1.641420 0.000000 
#    z 0.000000 0.000000 1.641280 
# 
# From -- ./inp_files/8166.got.cif
#   From: 2010.06.25/outbox.cif.g09.slc.cpg/sg58_5_cif.got.tgz:8166.got - 2010.06.26 21:38:00.
