data_PCOD8235303
_publ_section_title
;
Structure prediction by ZEFSAII (Michael W. Deem and Ramdas Pophale) SiO2 
 PCOD8235303
Probable space group: P N N M
;
_chemical_formula_sum "Si O2"
_cell_formula_units_Z 64
_cell_length_a 18.894690
_cell_length_b 11.276081
_cell_length_c 16.825124
_cell_angle_alpha 90.000000
_cell_angle_beta 90.000000
_cell_angle_gamma 90.000000
_cell_volume 3584.728193
_symmetry_space_group_name_H-M "P N N M"
_symmetry_group_IT_number 58
_symmetry_cell_setting 'orthorhombic'
loop_
_space_group_symop_operation_xyz
x,y,z
-x,-y,z
1/2+x,1/2-y,1/2-z
1/2-x,1/2+y,1/2-z
-x,-y,-z
x,y,-z
1/2-x,1/2+y,1/2+z
1/2+x,1/2-y,1/2+z
loop_
_atom_site_type_symbol
_atom_site_label
_atom_site_fract_x
_atom_site_fract_y
_atom_site_fract_z
Si Si1 0.055153 0.778669 0.769457
Si Si2 0.134168 0.650974 0.908530
Si Si3 0.176865 0.442175 0.806638
Si Si4 0.828100 0.027935 0.241021
Si Si5 0.275747 0.373034 0.586463
Si Si6 0.570639 0.948981 0.192154
Si Si7 0.609912 0.140228 0.912241
Si Si8 0.102288 0.218326 0.255285
O O1 0.074561 0.704542 0.849462
O O2 0.103821 0.889213 0.746982
O O3 0.063778 0.692710 0.692315
O O4 0.973835 0.819107 0.780501
O O5 0.157822 0.516273 0.886433
O O6 0.201582 0.737028 0.897465
O O7 0.106763 0.650324 0.000000
O O8 0.261629 0.430418 0.794969
O O9 0.143813 0.517295 0.734893
O O10 0.141010 0.312038 0.803627
O O11 0.808493 0.034865 0.148309
O O12 0.847241 0.894456 0.263100
O O13 0.302937 0.414609 0.500000
O O14 0.192799 0.376153 0.592005
O O15 0.500000 0.000000 0.237035
O O16 0.573995 0.011416 0.105394
O O17 0.587485 0.231826 0.843767
O O18 0.585996 0.183835 0.000000
#
# Coordination Sequence:
#
# PCOD8235303 Si02
#       8
#     8   8   8   8   8   8   8   8
#     4  10  21  36  55  79 113 147 184 227 272 333
#     4   9  19  35  58  81 108 143 187 231 277 324
#     4  10  20  32  56  81 104 136 187 231 268 319
#     4  11  21  34  58  81 106 152 188 218 276 334
#     4   9  17  33  53  82 109 135 180 230 270 324
#     4  10  17  33  53  78 110 133 173 230 272 311
#     4  10  19  32  56  83 109 142 182 227 279 324
#     4  11  21  37  53  80 115 143 184 230 270 333
#
# _framework density 17.853514000000001
#
# number of rings (size 3 to 8) (size 9 to 14) (size 15 to 20)
#    0.000    2.000    5.000    1.125    3.500    0.250 
#    0.000    2.500    0.000    6.750    0.000    0.000 
#    0.000    0.000    0.000    0.000    0.000    0.000 
#
# Total GULP energy -792930.929023 kJ/mol
# GULP energy per Si atom -12389.545766 kJ/mol
# Density = 1.781288 g / cm^3
# Si number density = 17.853514 Si / 1000 Ang^3
#
#
#
# Elastic Constant Matrix: (Units=GPa)
#
#
# Indices 1 2 3 4 5 6 
#
# 1 106.0336 28.3145 23.0862 0.0000 0.0000 0.0000
# 2 28.3145 75.8458 29.8806 0.0000 0.0000 0.0000
# 3 23.0862 29.8806 89.8763 0.0000 0.0000 0.0000
# 4 0.0000 0.0000 0.0000 18.4959 0.0000 0.0000
# 5 0.0000 0.0000 0.0000 0.0000 15.1915 0.0000
# 6 0.0000 0.0000 0.0000 0.0000 0.0000 29.1224
#
#
#
# Elastic Compliance Matrix: (Units=1/GPa)
#
#
# Indices 1 2 3 4 5 6 
#
# 1 0.010679 -0.003344 -0.001631 0.000000 0.000000 0.000000
# 2 -0.003344 0.016219 -0.004533 0.000000 0.000000 0.000000
# 3 -0.001631 -0.004533 0.013053 0.000000 0.000000 0.000000
# 4 0.000000 0.000000 0.000000 0.054066 0.000000 0.000000
# 5 0.000000 0.000000 0.000000 0.000000 0.065826 0.000000
# 6 0.000000 0.000000 0.000000 0.000000 0.000000 0.034338
#
#
# Mechanical properties :
#
#
# Convention : Reuss Voigt Hill
#
# Bulk Modulus (GPa) = 47.77040 48.25758 48.01399
# Shear Modulus (GPa) = 22.70910 25.26024 23.98467
#
# Velocity S-wave (km/s) = 3.57034 3.76554 3.66924
# Velocity P-wave (km/s) = 6.61901 6.78190 6.70095
#
# Compressibility (1/GPa) = 0.02093346
#
# Stress axis : x y z
#
# Youngs Moduli (GPa) = 93.64069 61.65624 76.61315
#
# Poissons Ratio (x) = 0.20618 0.12498
# Poissons Ratio (y) = 0.31313 0.34731
# Poissons Ratio (z) = 0.15276 0.27950
#
# Static dielectric constant tensor:
#      x y z
#    x 3.431480 0.000000 0.000000 
#    y 0.000000 3.304350 0.000000 
#    z 0.000000 0.000000 3.505700 
# 
# 
# High freq. dielectric constant tensor:
#      x y z
#    x 1.704210 0.000000 0.000000 
#    y 0.000000 1.678950 0.000000 
#    z 0.000000 0.000000 1.664030 
# 
# From -- ./inp_files/27375.got.cif
#   From: 2010.06.25/outbox.cif.g09.slc.cpg/sg58_14_cif.got.tgz:27375.got - 2010.06.26 21:38:00.
