data_PCOD8235085
_publ_section_title
;
Structure prediction by ZEFSAII (Michael W. Deem and Ramdas Pophale) SiO2 
 PCOD8235085
Probable space group: P B C M
;
_chemical_formula_sum "Si O2"
_cell_formula_units_Z 40
_cell_length_a 25.437253
_cell_length_b 8.927087
_cell_length_c 8.528393
_cell_angle_alpha 90.000000
_cell_angle_beta 90.000000
_cell_angle_gamma 90.000000
_cell_volume 1936.632349
_symmetry_space_group_name_H-M "P B C M"
_symmetry_group_IT_number 57
_symmetry_cell_setting 'orthorhombic'
loop_
_space_group_symop_operation_xyz
x,y,z
-x,-y,1/2+z
x,1/2-y,-z
-x,1/2+y,1/2-z
-x,-y,-z
x,y,1/2-z
-x,1/2+y,z
x,1/2-y,1/2+z
loop_
_atom_site_type_symbol
_atom_site_label
_atom_site_fract_x
_atom_site_fract_y
_atom_site_fract_z
Si Si1 0.245871 0.087965 0.069179
Si Si2 0.549726 0.914837 0.066839
Si Si3 0.050305 0.416232 0.934362
Si Si4 0.850342 0.414642 0.565951
Si Si5 0.646435 0.087415 0.930192
O O1 0.227671 0.096884 0.250000
O O2 0.298986 0.996646 0.050966
O O3 0.256817 0.250000 0.000000
O O4 0.201333 0.010664 0.965851
O O5 0.542597 0.902737 0.250000
O O6 0.553471 0.750000 0.000000
O O7 0.500000 0.000000 0.000000
O O8 0.602524 0.002682 0.028229
O O9 0.045030 0.405490 0.750000
O O10 0.054975 0.250000 0.000000
O O11 0.101112 0.510549 0.978778
O O12 0.000000 0.500000 0.000000
O O13 0.841068 0.250000 0.500000
O O14 0.861936 0.408461 0.750000
O O15 0.628428 0.096511 0.750000
O O16 0.654499 0.250000 0.000000
#
# Coordination Sequence:
#
# PCOD8235085 Si02
#       5
#     8   8   8   8   8
#     4  11  24  42  65  94 128 167 210 259 313 372
#     4  12  25  43  66  93 127 165 209 258 313 372
#     4  12  25  44  67  95 129 167 211 259 314 373
#     4  12  25  43  66  94 128 167 211 260 314 373
#     4  11  24  42  65  94 128 166 210 258 313 372
#
# _framework density 20.654409999999999
#
# number of rings (size 3 to 8) (size 9 to 14) (size 15 to 20)
#    0.000    0.400    0.000    9.600    0.000    6.400 
#    0.000    0.000    0.000    0.000    0.000    0.000 
#    0.000    0.000    0.000    0.000    0.000    0.000 
#
# Total GULP energy -496320.693825 kJ/mol
# GULP energy per Si atom -12408.017346 kJ/mol
# Density = 2.060740 g / cm^3
# Si number density = 20.654410 Si / 1000 Ang^3
#
#
#
# Elastic Constant Matrix: (Units=GPa)
#
#
# Indices 1 2 3 4 5 6 
#
# 1 104.1193 38.5898 40.9782 0.0000 0.0000 0.0000
# 2 38.5898 154.7070 52.0212 0.0000 0.0000 0.0000
# 3 40.9782 52.0212 167.0073 0.0000 0.0000 0.0000
# 4 0.0000 0.0000 0.0000 24.9066 0.0000 0.0000
# 5 0.0000 0.0000 0.0000 0.0000 34.2297 0.0000
# 6 0.0000 0.0000 0.0000 0.0000 0.0000 40.5007
#
#
#
# Elastic Compliance Matrix: (Units=1/GPa)
#
#
# Indices 1 2 3 4 5 6 
#
# 1 0.011205 -0.002089 -0.002098 0.000000 0.000000 0.000000
# 2 -0.002089 0.007610 -0.001858 0.000000 0.000000 0.000000
# 3 -0.002098 -0.001858 0.007081 0.000000 0.000000 0.000000
# 4 0.000000 0.000000 0.000000 0.040150 0.000000 0.000000
# 5 0.000000 0.000000 0.000000 0.000000 0.029214 0.000000
# 6 0.000000 0.000000 0.000000 0.000000 0.000000 0.024691
#
#
# Mechanical properties :
#
#
# Convention : Reuss Voigt Hill
#
# Bulk Modulus (GPa) = 72.43888 76.55690 74.49789
# Shear Modulus (GPa) = 36.59162 39.54368 38.06765
#
# Velocity S-wave (km/s) = 4.21362 4.38029 4.29776
# Velocity P-wave (km/s) = 7.66947 7.92015 7.79582
#
# Compressibility (1/GPa) = 0.01380474
#
# Stress axis : x y z
#
# Youngs Moduli (GPa) = 89.24904 131.41247 141.21667
#
# Poissons Ratio (x) = 0.27455 0.29634
# Poissons Ratio (y) = 0.18646 0.26234
# Poissons Ratio (z) = 0.18729 0.24412
#
# Static dielectric constant tensor:
#      x y z
#    x 3.984820 0.000000 0.000000 
#    y 0.000000 4.061430 0.000000 
#    z 0.000000 0.000000 2.195480 
# 
# 
# High freq. dielectric constant tensor:
#      x y z
#    x 1.828100 0.000000 0.000000 
#    y 0.000000 1.833290 0.000000 
#    z 0.000000 0.000000 1.831950 
# 
# From -- ./inp_files/8897.got.cif
#   From: 2010.03.12/outbox.cif.g09.slc.cpg/sg57_5_cif.got.tgz:8897.got - 2010.04.16 15:48:40.
