data_PCOD8235217
_publ_section_title
;
Structure prediction by ZEFSAII (Michael W. Deem and Ramdas Pophale) SiO2 
 PCOD8235217
Probable space group: P N N M
;
_chemical_formula_sum "Si O2"
_cell_formula_units_Z 64
_cell_length_a 21.886182
_cell_length_b 21.764564
_cell_length_c 8.982213
_cell_angle_alpha 90.000000
_cell_angle_beta 90.000000
_cell_angle_gamma 90.000000
_cell_volume 4278.616163
_symmetry_space_group_name_H-M "P N N M"
_symmetry_group_IT_number 58
_symmetry_cell_setting 'orthorhombic'
loop_
_space_group_symop_operation_xyz
x,y,z
-x,-y,z
1/2+x,1/2-y,1/2-z
1/2-x,1/2+y,1/2-z
-x,-y,-z
x,y,-z
1/2-x,1/2+y,1/2+z
1/2+x,1/2-y,1/2+z
loop_
_atom_site_type_symbol
_atom_site_label
_atom_site_fract_x
_atom_site_fract_y
_atom_site_fract_z
Si Si1 0.072673 0.830010 0.177658
Si Si2 0.747849 0.840498 0.324514
Si Si3 0.745248 0.147985 0.664302
Si Si4 0.663823 0.249592 0.672078
Si Si5 0.666318 0.429437 0.322437
Si Si6 0.437181 0.662653 0.671445
Si Si7 0.658880 0.758216 0.168707
Si Si8 0.166860 0.932121 0.825280
O O1 0.099417 0.767419 0.246400
O O2 0.111921 0.888904 0.232987
O O3 0.004358 0.838639 0.244469
O O4 0.074140 0.823730 0.000000
O O5 0.739242 0.848372 0.500000
O O6 0.798306 0.789368 0.289053
O O7 0.771381 0.904252 0.252126
O O8 0.683396 0.819392 0.251994
O O9 0.745548 0.118933 0.500000
O O10 0.677783 0.176871 0.702717
O O11 0.789238 0.206584 0.674060
O O12 0.767305 0.094464 0.773963
O O13 0.683476 0.265407 0.500000
O O14 0.593016 0.269320 0.693812
O O15 0.673201 0.424622 0.500000
O O16 0.607845 0.390152 0.264497
O O17 0.656826 0.499065 0.265925
O O18 0.447215 0.647377 0.500000
O O19 0.641130 0.775217 0.000000
O O20 0.167937 0.932464 0.000000
#
# Coordination Sequence:
#
# PCOD8235217 Si02
#       8
#     8   8   8   8   8   8   8   8
#     4   9  16  26  40  60  81 104 137 174 198 220
#     4  10  17  25  40  60  76  94 126 170 207 236
#     4   8  14  24  39  55  73  98 129 162 200 241
#     4   8  14  26  41  57  77 104 131 159 203 251
#     4   9  17  29  40  53  78 112 140 163 196 240
#     4   8  14  25  41  57  78 107 139 169 196 228
#     4   9  16  27  41  56  76 103 128 157 202 251
#     4   9  17  26  38  56  79 106 138 170 199 229
#
# _framework density 14.958107999999999
#
# number of rings (size 3 to 8) (size 9 to 14) (size 15 to 20)
#    0.000    3.250    0.000    3.000    0.000    4.000 
#    0.000    5.000    0.000    0.000    0.000    7.000 
#    0.000    1.000    0.000   11.500    0.000    3.625 
#
# Total GULP energy -792845.449075 kJ/mol
# GULP energy per Si atom -12388.210142 kJ/mol
# Density = 1.492406 g / cm^3
# Si number density = 14.958108 Si / 1000 Ang^3
#
#
#
# Elastic Constant Matrix: (Units=GPa)
#
#
# Indices 1 2 3 4 5 6 
#
# 1 79.7613 72.5166 23.5008 0.0000 0.0000 0.0000
# 2 72.5166 74.8512 25.3388 0.0000 0.0000 0.0000
# 3 23.5008 25.3388 39.5745 0.0000 0.0000 0.0000
# 4 0.0000 0.0000 0.0000 18.8501 0.0000 0.0000
# 5 0.0000 0.0000 0.0000 0.0000 15.5452 0.0000
# 6 0.0000 0.0000 0.0000 0.0000 0.0000 17.2924
#
#
#
# Elastic Compliance Matrix: (Units=1/GPa)
#
#
# Indices 1 2 3 4 5 6 
#
# 1 0.105585 -0.103500 0.003569 0.000000 0.000000 0.000000
# 2 -0.103500 0.118513 -0.014420 0.000000 0.000000 0.000000
# 3 0.003569 -0.014420 0.032382 0.000000 0.000000 0.000000
# 4 0.000000 0.000000 0.000000 0.053050 0.000000 0.000000
# 5 0.000000 0.000000 0.000000 0.000000 0.064329 0.000000
# 6 0.000000 0.000000 0.000000 0.000000 0.000000 0.057829
#
#
# Mechanical properties :
#
#
# Convention : Reuss Voigt Hill
#
# Bulk Modulus (GPa) = 35.99883 48.54440 42.27161
# Shear Modulus (GPa) = 7.46660 15.19293 11.32976
#
# Velocity S-wave (km/s) = 2.23663 3.19046 2.75514
# Velocity P-wave (km/s) = 5.54876 6.78941 6.20019
#
# Compressibility (1/GPa) = 0.02777868
#
# Stress axis : x y z
#
# Youngs Moduli (GPa) = 9.47104 8.43789 30.88123
#
# Poissons Ratio (x) = 0.87332 -0.11021
# Poissons Ratio (y) = 0.98025 0.44530
# Poissons Ratio (z) = -0.03380 0.12167
#
# Static dielectric constant tensor:
#      x y z
#    x 3.008170 0.000000 0.000000 
#    y 0.000000 2.971120 0.000000 
#    z 0.000000 0.000000 2.762870 
# 
# 
# High freq. dielectric constant tensor:
#      x y z
#    x 1.547360 0.000000 0.000000 
#    y 0.000000 1.546890 0.000000 
#    z 0.000000 0.000000 1.561800 
# 
# From -- ./inp_files/8504.got.cif
#   From: 2010.06.25/outbox.cif.g09.slc.cpg/sg58_5_cif.got.tgz:8504.got - 2010.06.26 21:38:00.
