data_PCOD8235892
_publ_section_title
;
Structure prediction by ZEFSAII (Michael W. Deem and Ramdas Pophale) SiO2 
 PCOD8235892
Probable space group: P N N M
;
_chemical_formula_sum "Si O2"
_cell_formula_units_Z 40
_cell_length_a 7.861716
_cell_length_b 8.808193
_cell_length_c 24.149490
_cell_angle_alpha 90.000000
_cell_angle_beta 90.000000
_cell_angle_gamma 90.000000
_cell_volume 1672.292095
_symmetry_space_group_name_H-M "P N N M"
_symmetry_group_IT_number 58
_symmetry_cell_setting 'orthorhombic'
loop_
_space_group_symop_operation_xyz
x,y,z
-x,-y,z
1/2+x,1/2-y,1/2-z
1/2-x,1/2+y,1/2-z
-x,-y,-z
x,y,-z
1/2-x,1/2+y,1/2+z
1/2+x,1/2-y,1/2+z
loop_
_atom_site_type_symbol
_atom_site_label
_atom_site_fract_x
_atom_site_fract_y
_atom_site_fract_z
Si Si1 0.648270 0.195722 0.669020
Si Si2 0.535162 0.825655 0.228409
Si Si3 0.766322 0.350448 0.436784
Si Si4 0.838410 0.901482 0.654537
Si Si5 0.163298 0.311022 0.562261
O O1 0.472900 0.210583 0.704555
O O2 0.644303 0.258298 0.605846
O O3 0.782774 0.291759 0.703961
O O4 0.693485 0.017563 0.674222
O O5 0.390696 0.718329 0.201379
O O6 0.500000 0.000000 0.213597
O O7 0.722532 0.300997 0.500000
O O8 0.737764 0.530372 0.429858
O O9 0.963266 0.320986 0.422680
O O10 0.756107 0.813852 0.602303
O O11 0.000000 0.000000 0.634476
O O12 0.185774 0.253680 0.500000
#
# Coordination Sequence:
#
# PCOD8235892 Si02
#       5
#     8   8   8   8   8
#     4  11  22  36  57  86 116 149 193 234 284 340
#     4  11  22  38  56  79 116 156 186 234 282 336
#     4   9  17  31  54  81 111 148 189 237 289 334
#     4  10  19  30  47  77 111 144 184 227 278 333
#     4   9  16  28  49  77 113 147 182 234 294 331
#
# _framework density 23.919267999999999
#
# number of rings (size 3 to 8) (size 9 to 14) (size 15 to 20)
#    0.000    2.000    4.000    3.600    0.000    1.200 
#    0.000    2.000    0.000    0.600    0.000    2.800 
#    0.000   28.000    0.000    0.000    0.000    0.400 
#
# Total GULP energy -495780.607604 kJ/mol
# GULP energy per Si atom -12394.515190 kJ/mol
# Density = 2.386483 g / cm^3
# Si number density = 23.919268 Si / 1000 Ang^3
#
#
#
# Elastic Constant Matrix: (Units=GPa)
#
#
# Indices 1 2 3 4 5 6 
#
# 1 10.9243 -1.3535 13.3780 0.0000 0.0000 0.0000
# 2 -1.3535 131.5465 59.0944 0.0000 0.0000 0.0000
# 3 13.3780 59.0944 141.9193 0.0000 0.0000 0.0000
# 4 0.0000 0.0000 0.0000 18.8620 0.0000 0.0000
# 5 0.0000 0.0000 0.0000 0.0000 14.2932 0.0000
# 6 0.0000 0.0000 0.0000 0.0000 0.0000 13.6700
#
#
#
# Elastic Compliance Matrix: (Units=1/GPa)
#
#
# Indices 1 2 3 4 5 6 
#
# 1 0.108519 0.007026 -0.013155 0.000000 0.000000 0.000000
# 2 0.007026 0.009806 -0.004745 0.000000 0.000000 0.000000
# 3 -0.013155 -0.004745 0.010262 0.000000 0.000000 0.000000
# 4 0.000000 0.000000 0.000000 0.053017 0.000000 0.000000
# 5 0.000000 0.000000 0.000000 0.000000 0.069963 0.000000
# 6 0.000000 0.000000 0.000000 0.000000 0.000000 0.073153
#
#
# Mechanical properties :
#
#
# Convention : Reuss Voigt Hill
#
# Bulk Modulus (GPa) = 9.35990 47.40309 28.38150
# Shear Modulus (GPa) = 13.08620 23.58315 18.33467
#
# Velocity S-wave (km/s) = 2.34155 3.14339 2.77162
# Velocity P-wave (km/s) = 3.35143 5.74765 4.70466
#
# Compressibility (1/GPa) = 0.10683872
#
# Stress axis : x y z
#
# Youngs Moduli (GPa) = 9.21495 101.97868 97.44385
#
# Poissons Ratio (x) = -0.71653 1.28190
# Poissons Ratio (y) = -0.06475 0.46242
# Poissons Ratio (z) = 0.12122 0.48394
#
# Static dielectric constant tensor:
#      x y z
#    x 4.012150 0.000000 0.000000 
#    y 0.000000 4.434040 0.000000 
#    z 0.000000 0.000000 4.482600 
# 
# 
# High freq. dielectric constant tensor:
#      x y z
#    x 1.915530 0.000000 0.000000 
#    y 0.000000 1.953420 0.000000 
#    z 0.000000 0.000000 1.960780 
# 
# From -- ./inp_files/29412.got.cif
#   From: 2010.06.25/outbox.cif.g09.slc.cpg/sg58_15_cif.got.tgz:29412.got - 2010.06.26 21:38:00.
