data_PCOD8235719
_publ_section_title
;
Structure prediction by ZEFSAII (Michael W. Deem and Ramdas Pophale) SiO2 
 PCOD8235719
Probable space group: P N N M
;
_chemical_formula_sum "Si O2"
_cell_formula_units_Z 64
_cell_length_a 17.534462
_cell_length_b 14.754747
_cell_length_c 13.684138
_cell_angle_alpha 90.000000
_cell_angle_beta 90.000000
_cell_angle_gamma 90.000000
_cell_volume 3540.312981
_symmetry_space_group_name_H-M "P N N M"
_symmetry_group_IT_number 58
_symmetry_cell_setting 'orthorhombic'
loop_
_space_group_symop_operation_xyz
x,y,z
-x,-y,z
1/2+x,1/2-y,1/2-z
1/2-x,1/2+y,1/2-z
-x,-y,-z
x,y,-z
1/2-x,1/2+y,1/2+z
1/2+x,1/2-y,1/2+z
loop_
_atom_site_type_symbol
_atom_site_label
_atom_site_fract_x
_atom_site_fract_y
_atom_site_fract_z
Si Si1 0.929357 0.866874 0.614232
Si Si2 0.329076 0.461792 0.886900
Si Si3 0.641882 0.773586 0.610746
Si Si4 0.397831 0.940346 0.799616
Si Si5 0.158043 0.515369 0.889481
Si Si6 0.416350 0.305318 0.201351
Si Si7 0.810546 0.714134 0.613672
Si Si8 0.054196 0.618703 0.613737
O O1 0.950541 0.857897 0.500000
O O2 0.870132 0.790271 0.646839
O O3 0.004962 0.855957 0.678285
O O4 0.893187 0.963913 0.637511
O O5 0.246665 0.502910 0.861042
O O6 0.346252 0.371896 0.824232
O O7 0.333130 0.434896 0.000000
O O8 0.622815 0.743370 0.500000
O O9 0.633513 0.880844 0.622436
O O10 0.585365 0.721101 0.684014
O O11 0.727268 0.748047 0.640926
O O12 0.326470 0.879037 0.829938
O O13 0.476133 0.889460 0.824999
O O14 0.394218 0.956369 0.682997
O O15 0.390440 0.036193 0.856408
O O16 0.142875 0.481909 0.000000
O O17 0.406339 0.214020 0.137489
O O18 0.819127 0.694637 0.500000
O O19 0.033681 0.612971 0.500000
#
# Coordination Sequence:
#
# PCOD8235719 Si02
#       8
#     8   8   8   8   8   8   8   8
#     4  10  19  33  56  85 113 140 176 225 282 338
#     4  10  20  35  58  85 115 144 177 229 287 335
#     4  10  21  38  56  77 107 149 195 230 266 324
#     4  11  20  34  52  79 109 146 179 217 273 327
#     4  10  20  37  56  78 109 148 190 229 266 321
#     4  12  21  34  55  87 113 144 182 230 285 328
#     4  10  18  33  58  79 104 143 186 224 266 329
#     4  11  22  34  51  79 116 142 171 221 285 341
#
# _framework density 18.077497999999999
#
# number of rings (size 3 to 8) (size 9 to 14) (size 15 to 20)
#    0.000    1.500    3.750    3.750    0.000    1.000 
#    0.000    1.875    0.000    1.500    0.000    0.000 
#    0.000    0.000    0.000    0.000    0.000    0.000 
#
# Total GULP energy -793715.192187 kJ/mol
# GULP energy per Si atom -12401.799878 kJ/mol
# Density = 1.803635 g / cm^3
# Si number density = 18.077498 Si / 1000 Ang^3
#
#
#
# Elastic Constant Matrix: (Units=GPa)
#
#
# Indices 1 2 3 4 5 6 
#
# 1 50.6060 17.3175 46.4534 0.0000 0.0000 0.0000
# 2 17.3175 88.1112 39.1786 0.0000 0.0000 0.0000
# 3 46.4534 39.1786 110.2024 0.0000 0.0000 0.0000
# 4 0.0000 0.0000 0.0000 29.7267 0.0000 0.0000
# 5 0.0000 0.0000 0.0000 0.0000 26.9835 0.0000
# 6 0.0000 0.0000 0.0000 0.0000 0.0000 25.2051
#
#
#
# Elastic Compliance Matrix: (Units=1/GPa)
#
#
# Indices 1 2 3 4 5 6 
#
# 1 0.032242 -0.000349 -0.013467 0.000000 0.000000 0.000000
# 2 -0.000349 0.013484 -0.004647 0.000000 0.000000 0.000000
# 3 -0.013467 -0.004647 0.016403 0.000000 0.000000 0.000000
# 4 0.000000 0.000000 0.000000 0.033640 0.000000 0.000000
# 5 0.000000 0.000000 0.000000 0.000000 0.037060 0.000000
# 6 0.000000 0.000000 0.000000 0.000000 0.000000 0.039674
#
#
# Mechanical properties :
#
#
# Convention : Reuss Voigt Hill
#
# Bulk Modulus (GPa) = 39.67653 50.53539 45.10596
# Shear Modulus (GPa) = 22.95388 26.11439 24.53414
#
# Velocity S-wave (km/s) = 3.56722 3.80489 3.68797
# Velocity P-wave (km/s) = 6.24199 6.87884 6.56814
#
# Compressibility (1/GPa) = 0.02520382
#
# Stress axis : x y z
#
# Youngs Moduli (GPa) = 31.01591 74.16189 60.96534
#
# Poissons Ratio (x) = 0.02587 0.82100
# Poissons Ratio (y) = 0.01082 0.28329
# Poissons Ratio (z) = 0.41768 0.34461
#
# Static dielectric constant tensor:
#      x y z
#    x 3.212180 0.000000 0.000000 
#    y 0.000000 3.471710 0.000000 
#    z 0.000000 0.000000 3.323410 
# 
# 
# High freq. dielectric constant tensor:
#      x y z
#    x 1.686730 0.000000 0.000000 
#    y 0.000000 1.709040 0.000000 
#    z 0.000000 0.000000 1.687730 
# 
# From -- ./inp_files/15907.got.cif
#   From: 2010.06.25/outbox.cif.g09.slc.cpg/sg58_8_cif.got.tgz:15907.got - 2010.06.26 21:38:00.
