data_PCOD8235927
_publ_section_title
;
Structure prediction by ZEFSAII (Michael W. Deem and Ramdas Pophale) SiO2 
 PCOD8235927
Probable space group: P N N M
;
_chemical_formula_sum "Si O2"
_cell_formula_units_Z 64
_cell_length_a 20.201376
_cell_length_b 20.009765
_cell_length_c 9.475367
_cell_angle_alpha 90.000000
_cell_angle_beta 90.000000
_cell_angle_gamma 90.000000
_cell_volume 3830.178202
_symmetry_space_group_name_H-M "P N N M"
_symmetry_group_IT_number 58
_symmetry_cell_setting 'orthorhombic'
loop_
_space_group_symop_operation_xyz
x,y,z
-x,-y,z
1/2+x,1/2-y,1/2-z
1/2-x,1/2+y,1/2-z
-x,-y,-z
x,y,-z
1/2-x,1/2+y,1/2+z
1/2+x,1/2-y,1/2+z
loop_
_atom_site_type_symbol
_atom_site_label
_atom_site_fract_x
_atom_site_fract_y
_atom_site_fract_z
Si Si1 0.412696 0.327933 0.833713
Si Si2 0.691906 0.593524 0.663315
Si Si3 0.527856 0.428598 0.165402
Si Si4 0.477598 0.927460 0.831996
Si Si5 0.655443 0.440633 0.336813
Si Si6 0.298556 0.089702 0.167553
Si Si7 0.083487 0.677349 0.332236
Si Si8 0.333060 0.945472 0.167303
O O1 0.347269 0.354298 0.758074
O O2 0.475722 0.372014 0.790968
O O3 0.426355 0.252866 0.779442
O O4 0.399430 0.331029 0.000000
O O5 0.683534 0.613236 0.500000
O O6 0.664857 0.519230 0.690318
O O7 0.769004 0.598020 0.711982
O O8 0.500000 0.500000 0.215383
O O9 0.595622 0.412106 0.244893
O O10 0.542794 0.428705 0.000000
O O11 0.524881 0.869371 0.770083
O O12 0.402127 0.912846 0.780742
O O13 0.500000 0.000000 0.774857
O O14 0.482148 0.927424 0.000000
O O15 0.639669 0.426713 0.500000
O O16 0.721858 0.401300 0.286886
O O17 0.345100 0.150021 0.221823
O O18 0.327237 0.020360 0.230136
O O19 0.300628 0.085000 0.000000
O O20 0.081037 0.674933 0.500000
O O21 0.332884 0.951758 0.000000
#
# Coordination Sequence:
#
# PCOD8235927 Si02
#       8
#     8   8   8   8   8   8   8   8
#     4  10  20  32  45  64  91 124 157 186 222 268
#     4   9  17  29  45  67  93 118 146 186 230 269
#     4  10  19  31  45  63  92 125 154 190 228 263
#     4   9  13  20  39  67  95 119 142 177 230 279
#     4   9  17  28  47  71  90 111 148 194 233 266
#     4   8  13  24  41  64  90 112 139 183 228 264
#     4   9  16  26  42  64  92 123 151 181 223 276
#     4   8  13  22  39  65  93 113 137 180 229 266
#
# _framework density 16.709405
#
# number of rings (size 3 to 8) (size 9 to 14) (size 15 to 20)
#    0.000    3.000    2.500    1.500    0.000    0.750 
#    0.000    1.250    0.000    2.250    0.000    0.875 
#    0.000    1.000    0.000    0.000    0.000    0.000 
#
# Total GULP energy -793176.971385 kJ/mol
# GULP energy per Si atom -12393.390178 kJ/mol
# Density = 1.667137 g / cm^3
# Si number density = 16.709405 Si / 1000 Ang^3
#
#
#
# Elastic Constant Matrix: (Units=GPa)
#
#
# Indices 1 2 3 4 5 6 
#
# 1 173.0091 81.4041 33.6255 0.0000 0.0000 0.0000
# 2 81.4041 118.3047 22.2937 0.0000 0.0000 0.0000
# 3 33.6255 22.2937 18.6552 0.0000 0.0000 0.0000
# 4 0.0000 0.0000 0.0000 10.2646 0.0000 0.0000
# 5 0.0000 0.0000 0.0000 0.0000 8.1948 0.0000
# 6 0.0000 0.0000 0.0000 0.0000 0.0000 26.2130
#
#
#
# Elastic Compliance Matrix: (Units=1/GPa)
#
#
# Indices 1 2 3 4 5 6 
#
# 1 0.010654 -0.004791 -0.013478 0.000000 0.000000 0.000000
# 2 -0.004791 0.013064 -0.006976 0.000000 0.000000 0.000000
# 3 -0.013478 -0.006976 0.086235 0.000000 0.000000 0.000000
# 4 0.000000 0.000000 0.000000 0.097422 0.000000 0.000000
# 5 0.000000 0.000000 0.000000 0.000000 0.122028 0.000000
# 6 0.000000 0.000000 0.000000 0.000000 0.000000 0.038149
#
#
# Mechanical properties :
#
#
# Convention : Reuss Voigt Hill
#
# Bulk Modulus (GPa) = 16.81734 64.95728 40.88731
# Shear Modulus (GPa) = 11.41907 20.44419 15.93163
#
# Velocity S-wave (km/s) = 2.61701 3.50167 3.09115
# Velocity P-wave (km/s) = 4.38385 7.43694 6.10435
#
# Compressibility (1/GPa) = 0.05946245
#
# Stress axis : x y z
#
# Youngs Moduli (GPa) = 93.86328 76.54624 11.59620
#
# Poissons Ratio (x) = 0.36673 0.15629
# Poissons Ratio (y) = 0.44969 0.08090
# Poissons Ratio (z) = 1.26508 0.53402
#
# Static dielectric constant tensor:
#      x y z
#    x 3.479490 0.000000 0.000000 
#    y 0.000000 3.110410 0.000000 
#    z 0.000000 0.000000 2.601920 
# 
# 
# High freq. dielectric constant tensor:
#      x y z
#    x 1.662420 0.000000 0.000000 
#    y 0.000000 1.622510 0.000000 
#    z 0.000000 0.000000 1.584830 
# 
# From -- ./inp_files/9457.got.cif
#   From: 2010.06.25/outbox.cif.g09.slc.cpg/sg58_5_cif.got.tgz:9457.got - 2010.06.26 21:38:00.
