data_PCOD8235116
_publ_section_title
;
Structure prediction by ZEFSAII (Michael W. Deem and Ramdas Pophale) SiO2 
 PCOD8235116
Probable space group: P B C M
;
_chemical_formula_sum "Si O2"
_cell_formula_units_Z 40
_cell_length_a 22.987464
_cell_length_b 8.798935
_cell_length_c 9.092095
_cell_angle_alpha 90.000000
_cell_angle_beta 90.000000
_cell_angle_gamma 90.000000
_cell_volume 1839.014428
_symmetry_space_group_name_H-M "P B C M"
_symmetry_group_IT_number 57
_symmetry_cell_setting 'orthorhombic'
loop_
_space_group_symop_operation_xyz
x,y,z
-x,-y,1/2+z
x,1/2-y,-z
-x,1/2+y,1/2-z
-x,-y,-z
x,y,1/2-z
-x,1/2+y,z
x,1/2-y,1/2+z
loop_
_atom_site_type_symbol
_atom_site_label
_atom_site_fract_x
_atom_site_fract_y
_atom_site_fract_z
Si Si1 0.351991 0.250000 0.000000
Si Si2 0.559776 0.396351 0.250000
Si Si3 0.364793 0.750000 0.500000
Si Si4 0.950215 0.092266 0.418947
Si Si5 0.278186 0.981653 0.418717
Si Si6 0.831702 0.590804 0.919513
Si Si7 0.567991 0.734492 0.750000
O O1 0.309168 0.356279 0.907710
O O2 0.396382 0.169096 0.887876
O O3 0.591813 0.315856 0.117927
O O4 0.493235 0.348341 0.250000
O O5 0.564670 0.579759 0.250000
O O6 0.318754 0.614808 0.469654
O O7 0.939871 0.250000 0.500000
O O8 0.968511 0.121847 0.250000
O O9 0.891763 0.996722 0.427690
O O10 0.000000 0.000000 0.500000
O O11 0.274050 0.917152 0.250000
O O12 0.215213 0.990280 0.492927
O O13 0.812311 0.616674 0.750000
O O14 0.839712 0.750000 0.000000
#
# Coordination Sequence:
#
# PCOD8235116 Si02
#       7
#     4   4   4   8   8   8   4
#     4  12  23  46  68  96 131 172 220 278 338 412
#     4  12  28  48  66 100 128 172 221 280 341 422
#     4  12  25  48  68  94 137 168 226 280 350 408
#     4  11  25  46  73 107 147 195 244 294 354 410
#     4  12  26  46  68 101 135 180 231 283 343 417
#     4  11  26  44  70 107 143 187 236 287 345 408
#     4  12  28  46  68  98 132 168 225 276 343 416
#
# _framework density 21.750781
#
# number of rings (size 3 to 8) (size 9 to 14) (size 15 to 20)
#    0.000    0.400    5.000    2.400    7.000    6.400 
#    0.000    0.000    0.000    0.000    0.000    0.000 
#    0.000    0.000    0.000    0.000    0.000    0.000 
#
# Total GULP energy -495662.024205 kJ/mol
# GULP energy per Si atom -12391.550605 kJ/mol
# Density = 2.170128 g / cm^3
# Si number density = 21.750781 Si / 1000 Ang^3
#
#
#
# Elastic Constant Matrix: (Units=GPa)
#
#
# Indices 1 2 3 4 5 6 
#
# 1 133.3071 17.6599 52.7273 0.0000 0.0000 0.0000
# 2 17.6599 53.6309 23.4400 0.0000 0.0000 0.0000
# 3 52.7273 23.4400 127.2658 0.0000 0.0000 0.0000
# 4 0.0000 0.0000 0.0000 44.5956 0.0000 0.0000
# 5 0.0000 0.0000 0.0000 0.0000 47.2500 0.0000
# 6 0.0000 0.0000 0.0000 0.0000 0.0000 50.1767
#
#
#
# Elastic Compliance Matrix: (Units=1/GPa)
#
#
# Indices 1 2 3 4 5 6 
#
# 1 0.009076 -0.001463 -0.003491 0.000000 0.000000 0.000000
# 2 -0.001463 0.020514 -0.003172 0.000000 0.000000 0.000000
# 3 -0.003491 -0.003172 0.009888 0.000000 0.000000 0.000000
# 4 0.000000 0.000000 0.000000 0.022424 0.000000 0.000000
# 5 0.000000 0.000000 0.000000 0.000000 0.021164 0.000000
# 6 0.000000 0.000000 0.000000 0.000000 0.000000 0.019930
#
#
# Mechanical properties :
#
#
# Convention : Reuss Voigt Hill
#
# Bulk Modulus (GPa) = 43.05456 55.76202 49.40829
# Shear Modulus (GPa) = 39.37329 43.09622 41.23476
#
# Velocity S-wave (km/s) = 4.25926 4.45608 4.35878
# Velocity P-wave (km/s) = 6.63520 7.22274 6.93520
#
# Compressibility (1/GPa) = 0.02322635
#
# Stress axis : x y z
#
# Youngs Moduli (GPa) = 110.18051 48.74689 101.13146
#
# Poissons Ratio (x) = 0.07131 0.35303
# Poissons Ratio (y) = 0.16118 0.32081
# Poissons Ratio (z) = 0.38462 0.15464
#
# Static dielectric constant tensor:
#      x y z
#    x 4.178530 0.000000 0.000000 
#    y 0.000000 4.361860 0.000000 
#    z 0.000000 0.000000 4.181730 
# 
# 
# High freq. dielectric constant tensor:
#      x y z
#    x 1.879170 0.000000 0.000000 
#    y 0.000000 1.855400 0.000000 
#    z 0.000000 0.000000 1.865490 
# 
# From -- ./inp_files/9042.got.cif
#   From: 2010.03.12/outbox.cif.g09.slc.cpg/sg57_5_cif.got.tgz:9042.got - 2010.04.16 15:48:40.
