data_PCOD8235686
_publ_section_title
;
Structure prediction by ZEFSAII (Michael W. Deem and Ramdas Pophale) SiO2 
 PCOD8235686
Probable space group: P N N M
;
_chemical_formula_sum "Si O2"
_cell_formula_units_Z 64
_cell_length_a 18.768811
_cell_length_b 9.100739
_cell_length_c 19.237530
_cell_angle_alpha 90.000000
_cell_angle_beta 90.000000
_cell_angle_gamma 90.000000
_cell_volume 3285.963466
_symmetry_space_group_name_H-M "P N N M"
_symmetry_group_IT_number 58
_symmetry_cell_setting 'orthorhombic'
loop_
_space_group_symop_operation_xyz
x,y,z
-x,-y,z
1/2+x,1/2-y,1/2-z
1/2-x,1/2+y,1/2-z
-x,-y,-z
x,y,-z
1/2-x,1/2+y,1/2+z
1/2+x,1/2-y,1/2+z
loop_
_atom_site_type_symbol
_atom_site_label
_atom_site_fract_x
_atom_site_fract_y
_atom_site_fract_z
Si Si1 0.902236 0.201326 0.306673
Si Si2 0.549548 0.143684 0.425792
Si Si3 0.994514 0.826848 0.579039
Si Si4 0.978450 0.669564 0.778124
Si Si5 0.780588 0.416259 0.669677
Si Si6 0.794600 0.972958 0.690241
Si Si7 0.285196 0.828223 0.579888
Si Si8 0.366458 0.806455 0.841132
O O1 0.831797 0.296251 0.295758
O O2 0.876183 0.032741 0.304984
O O3 0.941042 0.247110 0.378477
O O4 0.958379 0.225870 0.246055
O O5 0.534925 0.226775 0.500000
O O6 0.532956 0.233409 0.355971
O O7 0.633959 0.114474 0.420981
O O8 0.500000 0.000000 0.425527
O O9 0.008567 0.788123 0.500000
O O10 0.919278 0.755243 0.600008
O O11 0.000000 0.000000 0.593921
O O12 0.907421 0.679615 0.732306
O O13 0.000000 0.500000 0.778084
O O14 0.740414 0.492976 0.734064
O O15 0.728165 0.335120 0.613960
O O16 0.830494 0.540807 0.634003
O O17 0.755196 0.053958 0.627164
O O18 0.800266 0.802820 0.670148
O O19 0.256046 0.825904 0.500000
#
# Coordination Sequence:
#
# PCOD8235686 Si02
#       8
#     8   8   8   8   8   8   8   8
#     4  10  21  36  56  88 116 155 196 239 301 356
#     4   9  18  34  58  87 111 146 199 248 300 358
#     4  10  21  38  59  83 118 156 200 251 296 353
#     4  10  18  32  58  82 119 150 193 250 298 342
#     4  11  22  38  59  86 122 160 202 249 300 363
#     4  11  22  37  60  88 123 157 203 245 299 362
#     4  10  23  41  61  88 123 161 198 246 309 368
#     4  11  21  36  57  89 117 156 206 244 291 359
#
# _framework density 19.476783999999999
#
# number of rings (size 3 to 8) (size 9 to 14) (size 15 to 20)
#    0.000    1.750    2.500    3.000    1.750    3.000 
#    0.000    0.625    0.000    0.750    0.000    2.625 
#    0.000    0.000    0.000    0.000    0.000    0.000 
#
# Total GULP energy -792962.644301 kJ/mol
# GULP energy per Si atom -12390.041317 kJ/mol
# Density = 1.943245 g / cm^3
# Si number density = 19.476784 Si / 1000 Ang^3
#
#
#
# Elastic Constant Matrix: (Units=GPa)
#
#
# Indices 1 2 3 4 5 6 
#
# 1 101.9115 33.5803 51.8677 0.0000 0.0000 0.0000
# 2 33.5803 69.5181 30.4827 0.0000 0.0000 0.0000
# 3 51.8677 30.4827 168.3240 0.0000 0.0000 0.0000
# 4 0.0000 0.0000 0.0000 23.8241 0.0000 0.0000
# 5 0.0000 0.0000 0.0000 0.0000 17.9420 0.0000
# 6 0.0000 0.0000 0.0000 0.0000 0.0000 35.9855
#
#
#
# Elastic Compliance Matrix: (Units=1/GPa)
#
#
# Indices 1 2 3 4 5 6 
#
# 1 0.013023 -0.004922 -0.003122 0.000000 0.000000 0.000000
# 2 -0.004922 0.017486 -0.001650 0.000000 0.000000 0.000000
# 3 -0.003122 -0.001650 0.007202 0.000000 0.000000 0.000000
# 4 0.000000 0.000000 0.000000 0.041974 0.000000 0.000000
# 5 0.000000 0.000000 0.000000 0.000000 0.055735 0.000000
# 6 0.000000 0.000000 0.000000 0.000000 0.000000 0.027789
#
#
# Mechanical properties :
#
#
# Convention : Reuss Voigt Hill
#
# Bulk Modulus (GPa) = 54.57491 63.51277 59.04384
# Shear Modulus (GPa) = 26.49663 30.47185 28.48424
#
# Velocity S-wave (km/s) = 3.69239 3.95969 3.82838
# Velocity P-wave (km/s) = 6.80144 7.32024 7.06560
#
# Compressibility (1/GPa) = 0.01832344
#
# Stress axis : x y z
#
# Youngs Moduli (GPa) = 76.78755 57.18960 138.85781
#
# Poissons Ratio (x) = 0.28148 0.43346
# Poissons Ratio (y) = 0.37794 0.22911
# Poissons Ratio (z) = 0.23970 0.09436
#
# Static dielectric constant tensor:
#      x y z
#    x 3.670940 0.000000 0.000000 
#    y 0.000000 3.494130 0.000000 
#    z 0.000000 0.000000 3.856470 
# 
# 
# High freq. dielectric constant tensor:
#      x y z
#    x 1.767140 0.000000 0.000000 
#    y 0.000000 1.739850 0.000000 
#    z 0.000000 0.000000 1.761040 
# 
# From -- ./inp_files/30284.got.cif
#   From: 2010.06.25/outbox.cif.g09.slc.cpg/sg58_16_cif.got.tgz:30284.got - 2010.06.26 21:38:00.
