data_PCOD8235576
_publ_section_title
;
Structure prediction by ZEFSAII (Michael W. Deem and Ramdas Pophale) SiO2 
 PCOD8235576
Probable space group: P N N M
;
_chemical_formula_sum "Si O2"
_cell_formula_units_Z 64
_cell_length_a 19.270651
_cell_length_b 20.870923
_cell_length_c 8.549750
_cell_angle_alpha 90.000000
_cell_angle_beta 90.000000
_cell_angle_gamma 90.000000
_cell_volume 3438.677587
_symmetry_space_group_name_H-M "P N N M"
_symmetry_group_IT_number 58
_symmetry_cell_setting 'orthorhombic'
loop_
_space_group_symop_operation_xyz
x,y,z
-x,-y,z
1/2+x,1/2-y,1/2-z
1/2-x,1/2+y,1/2-z
-x,-y,-z
x,y,-z
1/2-x,1/2+y,1/2+z
1/2+x,1/2-y,1/2+z
loop_
_atom_site_type_symbol
_atom_site_label
_atom_site_fract_x
_atom_site_fract_y
_atom_site_fract_z
Si Si1 0.966246 0.185577 0.815583
Si Si2 0.182385 0.506749 0.817752
Si Si3 0.038576 0.561238 0.816822
Si Si4 0.325082 0.366774 0.684882
Si Si5 0.828415 0.631780 0.685297
Si Si6 0.826660 0.988297 0.183238
Si Si7 0.962669 0.686599 0.186518
Si Si8 0.960116 0.936267 0.682366
O O1 0.887389 0.177479 0.747773
O O2 0.001609 0.249220 0.745146
O O3 0.011399 0.123966 0.775727
O O4 0.962528 0.192942 0.000000
O O5 0.120581 0.556832 0.783287
O O6 0.157163 0.436654 0.764251
O O7 0.248093 0.532689 0.721308
O O8 0.201005 0.504001 0.000000
O O9 0.000000 0.500000 0.739892
O O10 0.007948 0.627143 0.747574
O O11 0.022885 0.561010 0.000000
O O12 0.329773 0.368453 0.500000
O O13 0.248444 0.342584 0.735757
O O14 0.336555 0.439186 0.745449
O O15 0.832569 0.623067 0.500000
O O16 0.884769 0.682565 0.745660
O O17 0.879034 0.942980 0.277312
O O18 0.840994 0.981371 0.000000
O O19 0.958751 0.687831 0.000000
O O20 0.970916 0.924056 0.500000
O O21 0.000000 0.000000 0.739410
#
# Coordination Sequence:
#
# PCOD8235576 Si02
#       8
#     8   8   8   8   8   8   8   8
#     4  10  20  36  57  78 104 140 183 224 269 325
#     4  10  18  31  53  79 110 142 180 229 276 316
#     4   9  16  30  52  77 106 140 177 220 269 322
#     4   8  16  31  51  75 101 136 177 217 262 322
#     4  10  19  32  51  77 108 141 180 223 275 330
#     4  10  19  33  54  79 110 142 179 222 273 327
#     4  10  20  35  55  79 105 142 187 223 268 330
#     4  11  22  35  54  82 110 137 176 221 270 324
#
# _framework density 18.611806999999999
#
# number of rings (size 3 to 8) (size 9 to 14) (size 15 to 20)
#    0.000    2.250    2.500    2.250    0.000    1.000 
#    0.000    3.750    0.000    3.000    0.000    0.000 
#    0.000    0.000    0.000    0.000    0.000    0.000 
#
# Total GULP energy -793453.099997 kJ/mol
# GULP energy per Si atom -12397.704687 kJ/mol
# Density = 1.856945 g / cm^3
# Si number density = 18.611807 Si / 1000 Ang^3
#
#
#
# Elastic Constant Matrix: (Units=GPa)
#
#
# Indices 1 2 3 4 5 6 
#
# 1 150.2018 70.0569 13.1018 0.0000 0.0000 0.0000
# 2 70.0569 103.1845 4.2967 0.0000 0.0000 0.0000
# 3 13.1018 4.2967 22.8573 0.0000 0.0000 0.0000
# 4 0.0000 0.0000 0.0000 14.9814 0.0000 0.0000
# 5 0.0000 0.0000 0.0000 0.0000 27.6014 0.0000
# 6 0.0000 0.0000 0.0000 0.0000 0.0000 27.4339
#
#
#
# Elastic Compliance Matrix: (Units=1/GPa)
#
#
# Indices 1 2 3 4 5 6 
#
# 1 0.010198 -0.006733 -0.004580 0.000000 0.000000 0.000000
# 2 -0.006733 0.014213 0.001187 0.000000 0.000000 0.000000
# 3 -0.004580 0.001187 0.046151 0.000000 0.000000 0.000000
# 4 0.000000 0.000000 0.000000 0.066749 0.000000 0.000000
# 5 0.000000 0.000000 0.000000 0.000000 0.036230 0.000000
# 6 0.000000 0.000000 0.000000 0.000000 0.000000 0.036451
#
#
# Mechanical properties :
#
#
# Convention : Reuss Voigt Hill
#
# Bulk Modulus (GPa) = 19.87588 50.12827 35.00207
# Shear Modulus (GPa) = 20.24180 26.58921 23.41550
#
# Velocity S-wave (km/s) = 3.30142 3.78381 3.55082
# Velocity P-wave (km/s) = 5.02343 6.78835 5.97146
#
# Compressibility (1/GPa) = 0.05031224
#
# Stress axis : x y z
#
# Youngs Moduli (GPa) = 98.06306 70.35711 21.66780
#
# Poissons Ratio (x) = 0.47371 0.09923
# Poissons Ratio (y) = 0.66025 -0.02573
# Poissons Ratio (z) = 0.44908 -0.08355
#
# Static dielectric constant tensor:
#      x y z
#    x 3.774200 0.000000 0.000000 
#    y 0.000000 3.342840 0.000000 
#    z 0.000000 0.000000 3.143360 
# 
# 
# High freq. dielectric constant tensor:
#      x y z
#    x 1.741610 0.000000 0.000000 
#    y 0.000000 1.690400 0.000000 
#    z 0.000000 0.000000 1.700660 
# 
# From -- ./inp_files/9269.got.cif
#   From: 2010.06.25/outbox.cif.g09.slc.cpg/sg58_5_cif.got.tgz:9269.got - 2010.06.26 21:38:00.
