data_PCOD8235879
_publ_section_title
;
Structure prediction by ZEFSAII (Michael W. Deem and Ramdas Pophale) SiO2 
 PCOD8235879
Probable space group: P N N M
;
_chemical_formula_sum "Si O2"
_cell_formula_units_Z 48
_cell_length_a 18.383905
_cell_length_b 16.258703
_cell_length_c 9.281604
_cell_angle_alpha 90.000000
_cell_angle_beta 90.000000
_cell_angle_gamma 90.000000
_cell_volume 2774.257062
_symmetry_space_group_name_H-M "P N N M"
_symmetry_group_IT_number 58
_symmetry_cell_setting 'orthorhombic'
loop_
_space_group_symop_operation_xyz
x,y,z
-x,-y,z
1/2+x,1/2-y,1/2-z
1/2-x,1/2+y,1/2-z
-x,-y,-z
x,y,-z
1/2-x,1/2+y,1/2+z
1/2+x,1/2-y,1/2+z
loop_
_atom_site_type_symbol
_atom_site_label
_atom_site_fract_x
_atom_site_fract_y
_atom_site_fract_z
Si Si1 0.329478 0.982431 0.830379
Si Si2 0.046941 0.917922 0.337755
Si Si3 0.416354 0.846867 0.666236
Si Si4 0.040484 0.586036 0.658219
Si Si5 0.572318 0.338492 0.335289
Si Si6 0.164486 0.005355 0.168523
O O1 0.357238 0.901335 0.748766
O O2 0.377512 0.063404 0.790370
O O3 0.247876 0.002127 0.781698
O O4 0.335735 0.964070 0.000000
O O5 0.065121 0.889962 0.500000
O O6 0.000265 0.846986 0.260643
O O7 0.121916 0.933777 0.253294
O O8 0.000000 0.000000 0.334639
O O9 0.417446 0.873348 0.500000
O O10 0.498392 0.857072 0.728105
O O11 0.393755 0.751834 0.686314
O O12 0.041375 0.628785 0.500000
O O13 0.000000 0.500000 0.645893
O O14 0.548360 0.352914 0.500000
O O15 0.633716 0.404575 0.290548
O O16 0.155927 0.987353 0.000000
#
# Coordination Sequence:
#
# PCOD8235879 Si02
#       6
#     8   8   8   8   8   8
#     4   9  18  32  50  70  93 125 161 193 232 286
#     4   9  17  29  47  71  94 117 151 193 232 271
#     4  10  19  30  47  71  97 123 156 201 244 278
#     4   8  15  29  47  66  89 119 156 191 226 278
#     4   9  18  32  49  69  94 126 161 194 233 283
#     4   9  17  32  52  69  91 126 161 191 229 284
#
# _framework density 17.301929999999999
#
# number of rings (size 3 to 8) (size 9 to 14) (size 15 to 20)
#    0.000    3.000    0.000    2.000    0.000    7.000 
#    0.000    1.667    0.000    2.000    0.000    0.000 
#    0.000    0.000    0.000    0.000    0.000    0.000 
#
# Total GULP energy -595024.833201 kJ/mol
# GULP energy per Si atom -12396.350692 kJ/mol
# Density = 1.726255 g / cm^3
# Si number density = 17.301930 Si / 1000 Ang^3
#
#
#
# Elastic Constant Matrix: (Units=GPa)
#
#
# Indices 1 2 3 4 5 6 
#
# 1 142.2773 40.6841 54.2463 0.0000 0.0000 0.0000
# 2 40.6841 67.5981 38.6569 0.0000 0.0000 0.0000
# 3 54.2463 38.6569 82.1298 0.0000 0.0000 0.0000
# 4 0.0000 0.0000 0.0000 22.7785 0.0000 0.0000
# 5 0.0000 0.0000 0.0000 0.0000 21.5482 0.0000
# 6 0.0000 0.0000 0.0000 0.0000 0.0000 18.3995
#
#
#
# Elastic Compliance Matrix: (Units=1/GPa)
#
#
# Indices 1 2 3 4 5 6 
#
# 1 0.009823 -0.003013 -0.005070 0.000000 0.000000 0.000000
# 2 -0.003013 0.021166 -0.007972 0.000000 0.000000 0.000000
# 3 -0.005070 -0.007972 0.019277 0.000000 0.000000 0.000000
# 4 0.000000 0.000000 0.000000 0.043901 0.000000 0.000000
# 5 0.000000 0.000000 0.000000 0.000000 0.046408 0.000000
# 6 0.000000 0.000000 0.000000 0.000000 0.000000 0.054349
#
#
# Mechanical properties :
#
#
# Convention : Reuss Voigt Hill
#
# Bulk Modulus (GPa) = 55.07984 62.13111 58.60547
# Shear Modulus (GPa) = 21.45131 23.10642 22.27887
#
# Velocity S-wave (km/s) = 3.52493 3.65839 3.59228
# Velocity P-wave (km/s) = 6.96207 7.33710 7.15204
#
# Compressibility (1/GPa) = 0.01815546
#
# Stress axis : x y z
#
# Youngs Moduli (GPa) = 101.80114 47.24648 51.87509
#
# Poissons Ratio (x) = 0.14234 0.26301
# Poissons Ratio (y) = 0.30669 0.41357
# Poissons Ratio (z) = 0.51614 0.37667
#
# Static dielectric constant tensor:
#      x y z
#    x 3.460790 0.000000 0.000000 
#    y 0.000000 3.015100 0.000000 
#    z 0.000000 0.000000 3.312640 
# 
# 
# High freq. dielectric constant tensor:
#      x y z
#    x 1.659570 0.000000 0.000000 
#    y 0.000000 1.642980 0.000000 
#    z 0.000000 0.000000 1.670540 
# 
# From -- ./inp_files/7859.got.cif
#   From: 2010.06.25/outbox.cif.g09.slc.cpg/sg58_4_cif.got.tgz:7859.got - 2010.06.26 21:38:00.
