data_PCOD8235872
_publ_section_title
;
Structure prediction by ZEFSAII (Michael W. Deem and Ramdas Pophale) SiO2 
 PCOD8235872
Probable space group: P N N M
;
_chemical_formula_sum "Si O2"
_cell_formula_units_Z 56
_cell_length_a 18.334083
_cell_length_b 20.442895
_cell_length_c 8.948174
_cell_angle_alpha 90.000000
_cell_angle_beta 90.000000
_cell_angle_gamma 90.000000
_cell_volume 3353.791129
_symmetry_space_group_name_H-M "P N N M"
_symmetry_group_IT_number 58
_symmetry_cell_setting 'orthorhombic'
loop_
_space_group_symop_operation_xyz
x,y,z
-x,-y,z
1/2+x,1/2-y,1/2-z
1/2-x,1/2+y,1/2-z
-x,-y,-z
x,y,-z
1/2-x,1/2+y,1/2+z
1/2+x,1/2-y,1/2+z
loop_
_atom_site_type_symbol
_atom_site_label
_atom_site_fract_x
_atom_site_fract_y
_atom_site_fract_z
Si Si1 0.577452 0.746286 0.176745
Si Si2 0.653075 0.866614 0.672358
Si Si3 0.285744 0.678269 0.335701
Si Si4 0.084141 0.493485 0.828048
Si Si5 0.926094 0.752674 0.177140
Si Si6 0.351715 0.870108 0.824806
Si Si7 0.719030 0.678634 0.835570
O O1 0.603935 0.816741 0.234109
O O2 0.502737 0.725630 0.254871
O O3 0.635359 0.688707 0.217816
O O4 0.566766 0.751903 0.000000
O O5 0.647622 0.846515 0.500000
O O6 0.738230 0.865101 0.721931
O O7 0.623649 0.938434 0.702548
O O8 0.284076 0.645044 0.500000
O O9 0.369101 0.689154 0.280764
O O10 0.251928 0.749664 0.347537
O O11 0.120888 0.441328 0.719801
O O12 0.000000 0.500000 0.784454
O O13 0.092827 0.471227 0.000000
O O14 0.901524 0.683263 0.243226
O O15 0.931953 0.743821 0.000000
O O16 0.266281 0.864343 0.779091
O O17 0.359030 0.859476 0.000000
O O18 0.721892 0.645383 0.000000
#
# Coordination Sequence:
#
# PCOD8235872 Si02
#       7
#     8   8   8   8   8   8   8
#     4  10  19  30  47  71  96 121 150 189 232 271
#     4  10  19  30  47  68  91 124 159 189 224 271
#     4   8  16  30  46  64  89 121 152 186 229 271
#     4  10  21  35  48  64  91 127 160 188 225 271
#     4  10  19  31  47  67  94 125 152 185 232 278
#     4  11  21  31  47  69  92 122 159 195 226 264
#     4   8  16  31  47  64  91 123 150 182 229 277
#
# _framework density 16.697521999999999
#
# number of rings (size 3 to 8) (size 9 to 14) (size 15 to 20)
#    0.000    2.429    0.000    5.143    0.000    8.857 
#    0.000    0.000    0.000    0.000    0.000    1.000 
#    0.000    8.000    0.000    0.000    0.000    0.000 
#
# Total GULP energy -694233.234492 kJ/mol
# GULP energy per Si atom -12397.022044 kJ/mol
# Density = 1.665952 g / cm^3
# Si number density = 16.697522 Si / 1000 Ang^3
#
#
#
# Elastic Constant Matrix: (Units=GPa)
#
#
# Indices 1 2 3 4 5 6 
#
# 1 152.0423 45.8357 64.5541 0.0000 0.0000 0.0000
# 2 45.8357 50.4856 37.4337 0.0000 0.0000 0.0000
# 3 64.5541 37.4337 99.6931 0.0000 0.0000 0.0000
# 4 0.0000 0.0000 0.0000 22.2177 0.0000 0.0000
# 5 0.0000 0.0000 0.0000 0.0000 26.7245 0.0000
# 6 0.0000 0.0000 0.0000 0.0000 0.0000 22.6541
#
#
#
# Elastic Compliance Matrix: (Units=1/GPa)
#
#
# Indices 1 2 3 4 5 6 
#
# 1 0.010263 -0.006084 -0.004361 0.000000 0.000000 0.000000
# 2 -0.006084 0.031057 -0.007722 0.000000 0.000000 0.000000
# 3 -0.004361 -0.007722 0.015754 0.000000 0.000000 0.000000
# 4 0.000000 0.000000 0.000000 0.045009 0.000000 0.000000
# 5 0.000000 0.000000 0.000000 0.000000 0.037419 0.000000
# 6 0.000000 0.000000 0.000000 0.000000 0.000000 0.044142
#
#
# Mechanical properties :
#
#
# Convention : Reuss Voigt Hill
#
# Bulk Modulus (GPa) = 48.21610 66.42978 57.32294
# Shear Modulus (GPa) = 22.03700 24.61245 23.32473
#
# Velocity S-wave (km/s) = 3.63681 3.84346 3.74156
# Velocity P-wave (km/s) = 6.82452 7.71795 7.28495
#
# Compressibility (1/GPa) = 0.02073996
#
# Stress axis : x y z
#
# Youngs Moduli (GPa) = 97.43890 32.19895 63.47533
#
# Poissons Ratio (x) = 0.19590 0.27682
# Poissons Ratio (y) = 0.59282 0.49015
# Poissons Ratio (z) = 0.42493 0.24864
#
# Static dielectric constant tensor:
#      x y z
#    x 3.735370 0.000000 0.000000 
#    y 0.000000 2.771800 0.000000 
#    z 0.000000 0.000000 3.212530 
# 
# 
# High freq. dielectric constant tensor:
#      x y z
#    x 1.653500 0.000000 0.000000 
#    y 0.000000 1.594970 0.000000 
#    z 0.000000 0.000000 1.651930 
# 
# From -- ./inp_files/8200.got.cif
#   From: 2010.06.25/outbox.cif.g09.slc.cpg/sg58_5_cif.got.tgz:8200.got - 2010.06.26 21:38:00.
