data_PCOD8235815
_publ_section_title
;
Structure prediction by ZEFSAII (Michael W. Deem and Ramdas Pophale) SiO2 
 PCOD8235815
Probable space group: P N N M
;
_chemical_formula_sum "Si O2"
_cell_formula_units_Z 56
_cell_length_a 17.641790
_cell_length_b 14.579151
_cell_length_c 13.702787
_cell_angle_alpha 90.000000
_cell_angle_beta 90.000000
_cell_angle_gamma 90.000000
_cell_volume 3524.388611
_symmetry_space_group_name_H-M "P N N M"
_symmetry_group_IT_number 58
_symmetry_cell_setting 'orthorhombic'
loop_
_space_group_symop_operation_xyz
x,y,z
-x,-y,z
1/2+x,1/2-y,1/2-z
1/2-x,1/2+y,1/2-z
-x,-y,-z
x,y,-z
1/2-x,1/2+y,1/2+z
1/2+x,1/2-y,1/2+z
loop_
_atom_site_type_symbol
_atom_site_label
_atom_site_fract_x
_atom_site_fract_y
_atom_site_fract_z
Si Si1 0.586744 0.179008 0.886777
Si Si2 0.341662 0.470302 0.733588
Si Si3 0.578247 0.857966 0.887590
Si Si4 0.532644 0.601302 0.606686
Si Si5 0.057237 0.143616 0.281015
Si Si6 0.691865 0.009530 0.114265
Si Si7 0.902712 0.148493 0.387316
O O1 0.507985 0.134093 0.847980
O O2 0.603272 0.269476 0.822608
O O3 0.655607 0.109668 0.873533
O O4 0.576685 0.208506 0.000000
O O5 0.384402 0.409163 0.652599
O O6 0.385059 0.560312 0.770569
O O7 0.262607 0.498277 0.686295
O O8 0.336422 0.405402 0.829261
O O9 0.610003 0.756412 0.868557
O O10 0.634117 0.933612 0.841932
O O11 0.575443 0.883862 0.000000
O O12 0.500000 0.500000 0.599065
O O13 0.538279 0.647514 0.500000
O O14 0.478572 0.664623 0.673988
O O15 0.986615 0.117524 0.351441
O O16 0.713839 0.992157 0.000000
O O17 0.894931 0.123129 0.500000
#
# Coordination Sequence:
#
# PCOD8235815 Si02
#       7
#     8   8   8   8   8   8   8
#     4   9  17  30  48  68  88 112 149 192 226 263
#     4  10  19  27  41  67  96 121 143 171 217 275
#     4   8  15  29  48  67  85 110 147 188 227 260
#     4   8  14  26  42  60  85 116 147 176 206 248
#     4   9  17  28  44  67  90 116 149 184 220 260
#     4  10  19  30  45  65  91 120 146 182 229 268
#     4   9  17  30  48  68  90 116 148 186 222 262
#
# _framework density 15.889281
#
# number of rings (size 3 to 8) (size 9 to 14) (size 15 to 20)
#    0.000    3.000    0.000    3.429    0.000    5.143 
#    0.000    0.000    0.000    0.857    0.000    4.000 
#    0.000   11.429    0.000    0.000    0.000    0.000 
#
# Total GULP energy -693928.557385 kJ/mol
# GULP energy per Si atom -12391.581382 kJ/mol
# Density = 1.585312 g / cm^3
# Si number density = 15.889281 Si / 1000 Ang^3
#
#
#
# Elastic Constant Matrix: (Units=GPa)
#
#
# Indices 1 2 3 4 5 6 
#
# 1 50.0747 30.3510 28.1038 0.0000 0.0000 0.0000
# 2 30.3510 65.2654 41.4686 0.0000 0.0000 0.0000
# 3 28.1038 41.4686 95.9547 0.0000 0.0000 0.0000
# 4 0.0000 0.0000 0.0000 17.8743 0.0000 0.0000
# 5 0.0000 0.0000 0.0000 0.0000 24.2955 0.0000
# 6 0.0000 0.0000 0.0000 0.0000 0.0000 15.9954
#
#
#
# Elastic Compliance Matrix: (Units=1/GPa)
#
#
# Indices 1 2 3 4 5 6 
#
# 1 0.028700 -0.011036 -0.003636 0.000000 0.000000 0.000000
# 2 -0.011036 0.025366 -0.007730 0.000000 0.000000 0.000000
# 3 -0.003636 -0.007730 0.014827 0.000000 0.000000 0.000000
# 4 0.000000 0.000000 0.000000 0.055946 0.000000 0.000000
# 5 0.000000 0.000000 0.000000 0.000000 0.041160 0.000000
# 6 0.000000 0.000000 0.000000 0.000000 0.000000 0.062518
#
#
# Mechanical properties :
#
#
# Convention : Reuss Voigt Hill
#
# Bulk Modulus (GPa) = 41.51409 45.68238 43.59824
# Shear Modulus (GPa) = 17.77132 19.05780 18.41456
#
# Velocity S-wave (km/s) = 3.34795 3.46701 3.40800
# Velocity P-wave (km/s) = 6.41318 6.69625 6.55624
#
# Compressibility (1/GPa) = 0.02408821
#
# Stress axis : x y z
#
# Youngs Moduli (GPa) = 34.84282 39.42311 67.44334
#
# Poissons Ratio (x) = 0.43508 0.24525
# Poissons Ratio (y) = 0.38453 0.52133
# Poissons Ratio (z) = 0.12670 0.30474
#
# Static dielectric constant tensor:
#      x y z
#    x 2.878320 0.000000 0.000000 
#    y 0.000000 2.982950 0.000000 
#    z 0.000000 0.000000 3.161190 
# 
# 
# High freq. dielectric constant tensor:
#      x y z
#    x 1.590330 0.000000 0.000000 
#    y 0.000000 1.599860 0.000000 
#    z 0.000000 0.000000 1.596590 
# 
# From -- ./inp_files/23000.got.cif
#   From: 2010.06.25/outbox.cif.g09.slc.cpg/sg58_12_cif.got.tgz:23000.got - 2010.06.26 21:38:00.
