data_PCOD8235039
_publ_section_title
;
Structure prediction by ZEFSAII (Michael W. Deem and Ramdas Pophale) SiO2 
 PCOD8235039
Probable space group: P B C M
;
_chemical_formula_sum "Si O2"
_cell_formula_units_Z 64
_cell_length_a 14.895053
_cell_length_b 23.716342
_cell_length_c 8.745132
_cell_angle_alpha 90.000000
_cell_angle_beta 90.000000
_cell_angle_gamma 90.000000
_cell_volume 3089.271846
_symmetry_space_group_name_H-M "P B C M"
_symmetry_group_IT_number 57
_symmetry_cell_setting 'orthorhombic'
loop_
_space_group_symop_operation_xyz
x,y,z
-x,-y,1/2+z
x,1/2-y,-z
-x,1/2+y,1/2-z
-x,-y,-z
x,y,1/2-z
-x,1/2+y,z
x,1/2-y,1/2+z
loop_
_atom_site_type_symbol
_atom_site_label
_atom_site_fract_x
_atom_site_fract_y
_atom_site_fract_z
Si Si1 0.901818 0.001142 0.430747
Si Si2 0.012736 0.688799 0.568584
Si Si3 0.857234 0.613194 0.068716
Si Si4 0.352057 0.604502 0.927931
Si Si5 0.551194 0.621386 0.923398
Si Si6 0.592886 0.515620 0.425887
Si Si7 0.285822 0.309063 0.426116
Si Si8 0.170940 0.623858 0.428557
O O1 0.906261 0.992092 0.250000
O O2 0.846064 0.950489 0.507355
O O3 0.856079 0.060347 0.473570
O O4 0.000000 0.000000 0.500000
O O5 0.990531 0.750000 0.500000
O O6 0.004541 0.692078 0.750000
O O7 0.111931 0.668986 0.520807
O O8 0.943567 0.642978 0.504430
O O9 0.869178 0.612132 0.250000
O O10 0.767342 0.644913 0.022125
O O11 0.340834 0.620301 0.750000
O O12 0.449963 0.625476 0.991996
O O13 0.340113 0.536791 0.953510
O O14 0.274440 0.634697 0.024711
O O15 0.537084 0.601977 0.750000
O O16 0.606691 0.679513 0.938017
O O17 0.618698 0.575136 0.998337
O O18 0.500000 0.500000 0.500000
O O19 0.579195 0.527697 0.250000
O O20 0.262755 0.250000 0.500000
O O21 0.253987 0.309772 0.250000
O O22 0.157994 0.635493 0.250000
#
# Coordination Sequence:
#
# PCOD8235039 Si02
#       8
#     8   8   8   8   8   8   8   8
#     4  11  23  40  63  93 130 169 209 255 313 375
#     4  12  25  44  69  92 122 161 206 256 309 366
#     4  12  25  42  65  94 128 164 208 255 311 377
#     4   9  19  36  57  85 120 161 202 248 307 364
#     4   9  20  38  59  83 116 156 203 255 305 361
#     4   9  17  30  51  80 113 149 192 240 294 355
#     4  11  24  43  64  90 123 161 210 263 319 377
#     4  11  24  40  61  93 130 167 210 257 308 370
#
# _framework density 20.716857999999998
#
# number of rings (size 3 to 8) (size 9 to 14) (size 15 to 20)
#    0.000    1.500    1.250    4.875    1.750    5.000 
#    0.000    0.625    0.000    1.500    0.000    0.000 
#    0.000    0.000    0.000    0.000    0.000    0.000 
#
# Total GULP energy -793449.890052 kJ/mol
# GULP energy per Si atom -12397.654532 kJ/mol
# Density = 2.066971 g / cm^3
# Si number density = 20.716858 Si / 1000 Ang^3
#
#
#
# Elastic Constant Matrix: (Units=GPa)
#
#
# Indices 1 2 3 4 5 6 
#
# 1 88.8542 10.8672 21.2554 0.0000 0.0000 0.0000
# 2 10.8672 69.7524 25.2944 0.0000 0.0000 0.0000
# 3 21.2554 25.2944 107.7150 0.0000 0.0000 0.0000
# 4 0.0000 0.0000 0.0000 34.6690 0.0000 0.0000
# 5 0.0000 0.0000 0.0000 0.0000 29.3769 0.0000
# 6 0.0000 0.0000 0.0000 0.0000 0.0000 32.1496
#
#
#
# Elastic Compliance Matrix: (Units=1/GPa)
#
#
# Indices 1 2 3 4 5 6 
#
# 1 0.011888 -0.001095 -0.002089 0.000000 0.000000 0.000000
# 2 -0.001095 0.015772 -0.003488 0.000000 0.000000 0.000000
# 3 -0.002089 -0.003488 0.010515 0.000000 0.000000 0.000000
# 4 0.000000 0.000000 0.000000 0.028844 0.000000 0.000000
# 5 0.000000 0.000000 0.000000 0.000000 0.034040 0.000000
# 6 0.000000 0.000000 0.000000 0.000000 0.000000 0.031105
#
#
# Mechanical properties :
#
#
# Convention : Reuss Voigt Hill
#
# Bulk Modulus (GPa) = 40.26989 42.35063 41.31026
# Shear Modulus (GPa) = 32.51327 33.16606 32.83967
#
# Velocity S-wave (km/s) = 3.96588 4.00549 3.98573
# Velocity P-wave (km/s) = 6.36014 6.47139 6.41601
#
# Compressibility (1/GPa) = 0.02483245
#
# Stress axis : x y z
#
# Youngs Moduli (GPa) = 84.11880 63.40474 95.10294
#
# Poissons Ratio (x) = 0.06941 0.19865
# Poissons Ratio (y) = 0.09208 0.33168
# Poissons Ratio (z) = 0.17571 0.22113
#
# Static dielectric constant tensor:
#      x y z
#    x 3.717370 0.000000 0.000000 
#    y 0.000000 4.165390 0.000000 
#    z 0.000000 0.000000 4.163670 
# 
# 
# High freq. dielectric constant tensor:
#      x y z
#    x 1.813700 0.000000 0.000000 
#    y 0.000000 1.800800 0.000000 
#    z 0.000000 0.000000 1.816880 
# 
# From -- ./inp_files/5566.got.cif
#   From: 2010.03.12/outbox.cif.g09.slc.cpg/sg57_3_cif.got.tgz:5566.got - 2010.04.16 15:48:40.
