data_PCOD8235461
_publ_section_title
;
Structure prediction by ZEFSAII (Michael W. Deem and Ramdas Pophale) SiO2 
 PCOD8235461
Probable space group: P N N M
;
_chemical_formula_sum "Si O2"
_cell_formula_units_Z 64
_cell_length_a 18.997327
_cell_length_b 23.372016
_cell_length_c 8.648476
_cell_angle_alpha 90.000000
_cell_angle_beta 90.000000
_cell_angle_gamma 90.000000
_cell_volume 3839.973770
_symmetry_space_group_name_H-M "P N N M"
_symmetry_group_IT_number 58
_symmetry_cell_setting 'orthorhombic'
loop_
_space_group_symop_operation_xyz
x,y,z
-x,-y,z
1/2+x,1/2-y,1/2-z
1/2-x,1/2+y,1/2-z
-x,-y,-z
x,y,-z
1/2-x,1/2+y,1/2+z
1/2+x,1/2-y,1/2+z
loop_
_atom_site_type_symbol
_atom_site_label
_atom_site_fract_x
_atom_site_fract_y
_atom_site_fract_z
Si Si1 0.858329 0.560864 0.182622
Si Si2 0.642138 0.728056 0.680399
Si Si3 0.274004 0.168466 0.818704
Si Si4 0.655016 0.264635 0.819497
Si Si5 0.854807 0.433023 0.179914
Si Si6 0.503227 0.123737 0.319928
Si Si7 0.502383 0.752706 0.178908
Si Si8 0.261889 0.837856 0.318708
O O1 0.846488 0.497164 0.247549
O O2 0.791898 0.600214 0.230148
O O3 0.930559 0.588234 0.246418
O O4 0.866595 0.556977 0.000000
O O5 0.649603 0.739277 0.500000
O O6 0.668694 0.784760 0.767257
O O7 0.560974 0.717633 0.725128
O O8 0.688744 0.673286 0.729251
O O9 0.199552 0.180228 0.734049
O O10 0.300541 0.105796 0.774281
O O11 0.262126 0.172935 0.000000
O O12 0.573113 0.275465 0.783105
O O13 0.680226 0.209467 0.724361
O O14 0.667807 0.252584 0.000000
O O15 0.934759 0.414448 0.207768
O O16 0.834774 0.429094 0.000000
O O17 0.512556 0.139873 0.500000
O O18 0.496750 0.181044 0.222468
O O19 0.521073 0.746845 0.000000
O O20 0.247042 0.834420 0.500000
#
# Coordination Sequence:
#
# PCOD8235461 Si02
#       8
#     8   8   8   8   8   8   8   8
#     4   9  18  31  49  73  99 133 174 205 239 284
#     4  11  21  33  50  70  96 130 165 202 249 299
#     4  11  21  33  49  71  98 128 165 208 247 288
#     4  10  20  33  50  71  97 128 161 201 250 299
#     4  10  19  32  50  71  99 136 173 206 237 286
#     4  10  18  30  48  70  99 135 173 203 234 281
#     4  11  21  32  49  74 102 129 162 203 248 296
#     4  10  18  31  50  72  98 128 165 207 243 285
#
# _framework density 16.666779999999999
#
# number of rings (size 3 to 8) (size 9 to 14) (size 15 to 20)
#    0.000    1.750    2.500    5.250    0.000    3.000 
#    0.000    1.875    0.000    1.500    0.000    0.875 
#    0.000    7.000    0.000    0.000    0.000    0.000 
#
# Total GULP energy -793680.899989 kJ/mol
# GULP energy per Si atom -12401.264062 kJ/mol
# Density = 1.662885 g / cm^3
# Si number density = 16.666780 Si / 1000 Ang^3
#
#
#
# Elastic Constant Matrix: (Units=GPa)
#
#
# Indices 1 2 3 4 5 6 
#
# 1 115.7342 48.2671 30.4210 0.0000 0.0000 0.0000
# 2 48.2671 75.8590 17.2132 0.0000 0.0000 0.0000
# 3 30.4210 17.2132 39.8606 0.0000 0.0000 0.0000
# 4 0.0000 0.0000 0.0000 20.5901 0.0000 0.0000
# 5 0.0000 0.0000 0.0000 0.0000 23.8796 0.0000
# 6 0.0000 0.0000 0.0000 0.0000 0.0000 24.3078
#
#
#
# Elastic Compliance Matrix: (Units=1/GPa)
#
#
# Indices 1 2 3 4 5 6 
#
# 1 0.013426 -0.006893 -0.007270 0.000000 0.000000 0.000000
# 2 -0.006893 0.018153 -0.002579 0.000000 0.000000 0.000000
# 3 -0.007270 -0.002579 0.031749 0.000000 0.000000 0.000000
# 4 0.000000 0.000000 0.000000 0.048567 0.000000 0.000000
# 5 0.000000 0.000000 0.000000 0.000000 0.041877 0.000000
# 6 0.000000 0.000000 0.000000 0.000000 0.000000 0.041139
#
#
# Mechanical properties :
#
#
# Convention : Reuss Voigt Hill
#
# Bulk Modulus (GPa) = 33.50582 47.02849 40.26716
# Shear Modulus (GPa) = 20.97813 22.79233 21.88523
#
# Velocity S-wave (km/s) = 3.55164 3.70203 3.62761
# Velocity P-wave (km/s) = 6.07995 6.82286 6.46209
#
# Compressibility (1/GPa) = 0.02984556
#
# Stress axis : x y z
#
# Youngs Moduli (GPa) = 74.48129 55.08627 31.49678
#
# Poissons Ratio (x) = 0.37972 0.22898
# Poissons Ratio (y) = 0.51341 0.08122
# Poissons Ratio (z) = 0.54148 0.14204
#
# Static dielectric constant tensor:
#      x y z
#    x 3.335970 0.000000 0.000000 
#    y 0.000000 3.075440 0.000000 
#    z 0.000000 0.000000 3.099420 
# 
# 
# High freq. dielectric constant tensor:
#      x y z
#    x 1.642230 0.000000 0.000000 
#    y 0.000000 1.612170 0.000000 
#    z 0.000000 0.000000 1.642740 
# 
# From -- ./inp_files/8512.got.cif
#   From: 2010.06.25/outbox.cif.g09.slc.cpg/sg58_5_cif.got.tgz:8512.got - 2010.06.26 21:38:00.
