data_PCOD8235094
_publ_section_title
;
Structure prediction by ZEFSAII (Michael W. Deem and Ramdas Pophale) SiO2 
 PCOD8235094
Probable space group: P B C M
;
_chemical_formula_sum "Si O2"
_cell_formula_units_Z 56
_cell_length_a 20.490939
_cell_length_b 8.632921
_cell_length_c 14.230682
_cell_angle_alpha 90.000000
_cell_angle_beta 90.000000
_cell_angle_gamma 90.000000
_cell_volume 2517.360081
_symmetry_space_group_name_H-M "P B C M"
_symmetry_group_IT_number 57
_symmetry_cell_setting 'orthorhombic'
loop_
_space_group_symop_operation_xyz
x,y,z
-x,-y,1/2+z
x,1/2-y,-z
-x,1/2+y,1/2-z
-x,-y,-z
x,y,1/2-z
-x,1/2+y,z
x,1/2-y,1/2+z
loop_
_atom_site_type_symbol
_atom_site_label
_atom_site_fract_x
_atom_site_fract_y
_atom_site_fract_z
Si Si1 0.346513 0.441555 0.852965
Si Si2 0.703315 0.428756 0.525239
Si Si3 0.532577 0.382718 0.432024
Si Si4 0.959253 0.292873 0.250000
Si Si5 0.396432 0.105018 0.853877
Si Si6 0.938392 0.414006 0.453919
Si Si7 0.094022 0.433466 0.250000
Si Si8 0.829905 0.592565 0.944478
O O1 0.320717 0.481846 0.750000
O O2 0.290628 0.486634 0.925098
O O3 0.411105 0.543878 0.869592
O O4 0.355355 0.259719 0.865343
O O5 0.705222 0.250000 0.500000
O O6 0.634073 0.477185 0.574820
O O7 0.765653 0.490540 0.582052
O O8 0.561082 0.250000 0.500000
O O9 0.500000 0.500000 0.500000
O O10 0.471110 0.337262 0.366796
O O11 0.937639 0.390708 0.341595
O O12 0.933079 0.113404 0.250000
O O13 0.037710 0.302880 0.250000
O O14 0.389557 0.032694 0.750000
O O15 0.936649 0.250000 0.500000
O O16 0.873488 0.504300 0.479868
O O17 0.000000 0.500000 0.500000
O O18 0.134691 0.393558 0.343806
O O19 0.812128 0.750000 0.000000
#
# Coordination Sequence:
#
# PCOD8235094 Si02
#       8
#     8   8   8   4   8   8   4   8
#     4  11  24  44  69 101 139 185 243 296 363 434
#     4  12  27  49  70  96 138 187 238 300 358 427
#     4  12  21  39  67  99 139 181 228 296 364 425
#     4  12  24  44  76 112 156 188 237 287 356 424
#     4  11  24  43  70  99 135 184 235 294 365 432
#     4  12  23  43  70 107 146 190 231 290 347 411
#     4  12  28  46  80 114 148 196 233 295 362 436
#     4  12  28  49  74 103 147 189 246 293 360 432
#
# _framework density 22.245525000000001
#
# number of rings (size 3 to 8) (size 9 to 14) (size 15 to 20)
#    0.000    0.286    5.714    3.000    3.000    0.571 
#    2.571    0.000    0.000    0.000    0.000    0.000 
#    0.000    0.000    0.000    0.000    0.000    0.000 
#
# Total GULP energy -693891.665773 kJ/mol
# GULP energy per Si atom -12390.922603 kJ/mol
# Density = 2.219489 g / cm^3
# Si number density = 22.245525 Si / 1000 Ang^3
#
#
#
# Elastic Constant Matrix: (Units=GPa)
#
#
# Indices 1 2 3 4 5 6 
#
# 1 85.4320 14.7629 15.8545 0.0000 0.0000 0.0000
# 2 14.7629 99.3430 42.6642 0.0000 0.0000 0.0000
# 3 15.8545 42.6642 154.4851 0.0000 0.0000 0.0000
# 4 0.0000 0.0000 0.0000 25.9199 0.0000 0.0000
# 5 0.0000 0.0000 0.0000 0.0000 23.4902 0.0000
# 6 0.0000 0.0000 0.0000 0.0000 0.0000 36.6223
#
#
#
# Elastic Compliance Matrix: (Units=1/GPa)
#
#
# Indices 1 2 3 4 5 6 
#
# 1 0.012110 -0.001436 -0.000846 0.000000 0.000000 0.000000
# 2 -0.001436 0.011591 -0.003054 0.000000 0.000000 0.000000
# 3 -0.000846 -0.003054 0.007403 0.000000 0.000000 0.000000
# 4 0.000000 0.000000 0.000000 0.038580 0.000000 0.000000
# 5 0.000000 0.000000 0.000000 0.000000 0.042571 0.000000
# 6 0.000000 0.000000 0.000000 0.000000 0.000000 0.027306
#
#
# Mechanical properties :
#
#
# Convention : Reuss Voigt Hill
#
# Bulk Modulus (GPa) = 48.94181 53.98036 51.46109
# Shear Modulus (GPa) = 31.83799 34.93837 33.38818
#
# Velocity S-wave (km/s) = 3.78724 3.96735 3.87834
# Velocity P-wave (km/s) = 6.41660 6.73089 6.57562
#
# Compressibility (1/GPa) = 0.02043243
#
# Stress axis : x y z
#
# Youngs Moduli (GPa) = 82.57335 86.27369 135.07489
#
# Poissons Ratio (x) = 0.12391 0.11430
# Poissons Ratio (y) = 0.11860 0.41248
# Poissons Ratio (z) = 0.06988 0.26345
#
# Static dielectric constant tensor:
#      x y z
#    x 2.234630 0.000000 0.000000 
#    y 0.000000 3.985960 0.000000 
#    z 0.000000 0.000000 4.221580 
# 
# 
# High freq. dielectric constant tensor:
#      x y z
#    x 1.871870 0.000000 0.000000 
#    y 0.000000 1.886230 0.000000 
#    z 0.000000 0.000000 1.889790 
# 
# From -- ./inp_files/19398.got.cif
#   From: 2010.03.12/outbox.cif.g09.slc.cpg/sg57_10_cif.got.tgz:19398.got - 2010.04.16 15:48:40.
