data_PCOD8235020
_publ_section_title
;
Structure prediction by ZEFSAII (Michael W. Deem and Ramdas Pophale) SiO2 
 PCOD8235020
Probable space group: P B C M
;
_chemical_formula_sum "Si O2"
_cell_formula_units_Z 56
_cell_length_a 15.244625
_cell_length_b 11.700356
_cell_length_c 14.623234
_cell_angle_alpha 90.000000
_cell_angle_beta 90.000000
_cell_angle_gamma 90.000000
_cell_volume 2608.310269
_symmetry_space_group_name_H-M "P B C M"
_symmetry_group_IT_number 57
_symmetry_cell_setting 'orthorhombic'
loop_
_space_group_symop_operation_xyz
x,y,z
-x,-y,1/2+z
x,1/2-y,-z
-x,1/2+y,1/2-z
-x,-y,-z
x,y,1/2-z
-x,1/2+y,z
x,1/2-y,1/2+z
loop_
_atom_site_type_symbol
_atom_site_label
_atom_site_fract_x
_atom_site_fract_y
_atom_site_fract_z
Si Si1 0.686245 0.625668 0.987912
Si Si2 0.432338 0.985572 0.646452
Si Si3 0.138077 0.837304 0.582204
Si Si4 0.328001 0.770147 0.893603
Si Si5 0.628966 0.018681 0.648460
Si Si6 0.042804 0.282927 0.854279
Si Si7 0.881853 0.904996 0.025612
O O1 0.634327 0.559165 0.911294
O O2 0.785223 0.643487 0.955199
O O3 0.641989 0.750000 0.000000
O O4 0.690745 0.553828 0.081894
O O5 0.427876 0.029681 0.750000
O O6 0.405507 0.852572 0.640810
O O7 0.530465 0.005530 0.608678
O O8 0.136691 0.750000 0.500000
O O9 0.233754 0.828506 0.630307
O O10 0.061623 0.805196 0.652974
O O11 0.116958 0.960502 0.539960
O O12 0.338753 0.648953 0.844587
O O13 0.339254 0.750000 0.000000
O O14 0.634285 0.965363 0.750000
O O15 0.080175 0.290028 0.750000
O O16 0.057684 0.157545 0.898585
O O17 0.087045 0.376483 0.921949
#
# Coordination Sequence:
#
# PCOD8235020 Si02
#       7
#     8   8   8   8   8   8   8
#     4  12  24  44  70  93 132 182 222 265 337 397
#     4  11  25  43  67  99 135 176 222 276 334 396
#     4  11  22  44  72  95 135 177 221 279 335 395
#     4  11  22  43  73  99 131 177 225 274 335 399
#     4  11  26  44  67 103 138 171 221 285 334 393
#     4  11  25  42  68  99 131 180 225 273 343 403
#     4  11  23  49  66  96 140 170 219 290 326 392
#
# _framework density 21.469837999999999
#
# number of rings (size 3 to 8) (size 9 to 14) (size 15 to 20)
#    0.000    0.857    5.714    2.143    2.000    3.429 
#    0.000    0.000    0.000    0.000    0.000    0.000 
#    0.000    0.000    0.000    0.000    0.000    0.000 
#
# Total GULP energy -694457.432971 kJ/mol
# GULP energy per Si atom -12401.025589 kJ/mol
# Density = 2.142097 g / cm^3
# Si number density = 21.469838 Si / 1000 Ang^3
#
#
#
# Elastic Constant Matrix: (Units=GPa)
#
#
# Indices 1 2 3 4 5 6 
#
# 1 96.6807 29.5669 24.1958 0.0000 0.0000 0.0000
# 2 29.5669 164.1508 27.2264 0.0000 0.0000 0.0000
# 3 24.1958 27.2264 109.6751 0.0000 0.0000 0.0000
# 4 0.0000 0.0000 0.0000 0.8892 0.0000 0.0000
# 5 0.0000 0.0000 0.0000 0.0000 9.3816 0.0000
# 6 0.0000 0.0000 0.0000 0.0000 0.0000 33.5031
#
#
#
# Elastic Compliance Matrix: (Units=1/GPa)
#
#
# Indices 1 2 3 4 5 6 
#
# 1 0.011387 -0.001705 -0.002089 0.000000 0.000000 0.000000
# 2 -0.001705 0.006609 -0.001265 0.000000 0.000000 0.000000
# 3 -0.002089 -0.001265 0.009893 0.000000 0.000000 0.000000
# 4 0.000000 0.000000 0.000000 1.124650 0.000000 0.000000
# 5 0.000000 0.000000 0.000000 0.000000 0.106592 0.000000
# 6 0.000000 0.000000 0.000000 0.000000 0.000000 0.029848
#
#
# Mechanical properties :
#
#
# Convention : Reuss Voigt Hill
#
# Bulk Modulus (GPa) = 56.26700 59.16496 57.71598
# Shear Modulus (GPa) = 3.83136 28.05594 15.94365
#
# Velocity S-wave (km/s) = 1.33731 3.61884 2.72804
# Velocity P-wave (km/s) = 5.35247 6.71404 6.07154
#
# Compressibility (1/GPa) = 0.01777241
#
# Stress axis : x y z
#
# Youngs Moduli (GPa) = 87.81598 151.31496 101.08543
#
# Poissons Ratio (x) = 0.25793 0.21117
# Poissons Ratio (y) = 0.14969 0.12783
# Poissons Ratio (z) = 0.18345 0.19134
#
# Static dielectric constant tensor:
#      x y z
#    x 4.283460 0.000000 0.000000 
#    y 0.000000 3.997010 0.000000 
#    z 0.000000 0.000000 3.721580 
# 
# 
# High freq. dielectric constant tensor:
#      x y z
#    x 1.851670 0.000000 0.000000 
#    y 0.000000 1.848280 0.000000 
#    z 0.000000 0.000000 1.835560 
# 
# From -- ./inp_files/18488.got.cif
#   From: 2010.03.12/outbox.cif.g09.slc.cpg/sg57_10_cif.got.tgz:18488.got - 2010.04.16 15:48:40.
