data_PCOD8235681
_publ_section_title
;
Structure prediction by ZEFSAII (Michael W. Deem and Ramdas Pophale) SiO2 
 PCOD8235681
Probable space group: P N N M
;
_chemical_formula_sum "Si O2"
_cell_formula_units_Z 48
_cell_length_a 28.924054
_cell_length_b 10.262829
_cell_length_c 8.925794
_cell_angle_alpha 90.000000
_cell_angle_beta 90.000000
_cell_angle_gamma 90.000000
_cell_volume 2649.556078
_symmetry_space_group_name_H-M "P N N M"
_symmetry_group_IT_number 58
_symmetry_cell_setting 'orthorhombic'
loop_
_space_group_symop_operation_xyz
x,y,z
-x,-y,z
1/2+x,1/2-y,1/2-z
1/2-x,1/2+y,1/2-z
-x,-y,-z
x,y,-z
1/2-x,1/2+y,1/2+z
1/2+x,1/2-y,1/2+z
loop_
_atom_site_type_symbol
_atom_site_label
_atom_site_fract_x
_atom_site_fract_y
_atom_site_fract_z
Si Si1 0.974138 0.369986 0.822962
Si Si2 0.282181 0.505430 0.176634
Si Si3 0.877246 0.992027 0.824073
Si Si4 0.471860 0.620680 0.676680
Si Si5 0.388955 0.237296 0.172926
Si Si6 0.216640 0.708280 0.328441
O O1 0.924870 0.367056 0.739188
O O2 0.000000 0.500000 0.775120
O O3 0.006650 0.253977 0.761483
O O4 0.965276 0.363022 0.000000
O O5 0.330236 0.554742 0.246483
O O6 0.242063 0.602405 0.226861
O O7 0.271677 0.355958 0.226057
O O8 0.287989 0.510091 0.000000
O O9 0.917417 0.888287 0.783554
O O10 0.894600 0.131225 0.766831
O O11 0.868521 0.001753 0.000000
O O12 0.500000 0.500000 0.748586
O O13 0.478462 0.617091 0.500000
O O14 0.337591 0.179963 0.191134
O O15 0.399415 0.267735 0.000000
O O16 0.232367 0.689724 0.500000
#
# Coordination Sequence:
#
# PCOD8235681 Si02
#       6
#     8   8   8   8   8   8
#     4  10  20  35  54  77 106 142 184 221 264 327
#     4  10  21  37  57  83 112 139 180 228 270 324
#     4  10  18  32  57  80 106 141 179 221 270 317
#     4   9  16  30  53  79 104 133 176 221 256 306
#     4  10  20  35  55  79 110 141 180 224 269 323
#     4   9  20  38  57  79 108 142 179 221 270 325
#
# _framework density 18.116242
#
# number of rings (size 3 to 8) (size 9 to 14) (size 15 to 20)
#    0.000    2.333    1.667    2.500    0.000    4.333 
#    3.000    2.500    0.000    0.000    0.000    0.000 
#    0.000    0.000    0.000    0.000    0.000    0.000 
#
# Total GULP energy -595176.512861 kJ/mol
# GULP energy per Si atom -12399.510685 kJ/mol
# Density = 1.807501 g / cm^3
# Si number density = 18.116242 Si / 1000 Ang^3
#
#
#
# Elastic Constant Matrix: (Units=GPa)
#
#
# Indices 1 2 3 4 5 6 
#
# 1 120.2103 72.1891 48.4579 0.0000 0.0000 0.0000
# 2 72.1891 111.1669 33.9833 0.0000 0.0000 0.0000
# 3 48.4579 33.9833 64.9378 0.0000 0.0000 0.0000
# 4 0.0000 0.0000 0.0000 20.9991 0.0000 0.0000
# 5 0.0000 0.0000 0.0000 0.0000 32.8842 0.0000
# 6 0.0000 0.0000 0.0000 0.0000 0.0000 30.3480
#
#
#
# Elastic Compliance Matrix: (Units=1/GPa)
#
#
# Indices 1 2 3 4 5 6 
#
# 1 0.016511 -0.008280 -0.007988 0.000000 0.000000 0.000000
# 2 -0.008280 0.014861 -0.001598 0.000000 0.000000 0.000000
# 3 -0.007988 -0.001598 0.022196 0.000000 0.000000 0.000000
# 4 0.000000 0.000000 0.000000 0.047621 0.000000 0.000000
# 5 0.000000 0.000000 0.000000 0.000000 0.030410 0.000000
# 6 0.000000 0.000000 0.000000 0.000000 0.000000 0.032951
#
#
# Mechanical properties :
#
#
# Convention : Reuss Voigt Hill
#
# Bulk Modulus (GPa) = 56.06581 67.28618 61.67599
# Shear Modulus (GPa) = 24.24503 26.29191 25.26847
#
# Velocity S-wave (km/s) = 3.66225 3.81371 3.73875
# Velocity P-wave (km/s) = 6.99269 7.52426 7.26334
#
# Compressibility (1/GPa) = 0.01783618
#
# Stress axis : x y z
#
# Youngs Moduli (GPa) = 60.56549 67.29056 45.05236
#
# Poissons Ratio (x) = 0.55717 0.35987
# Poissons Ratio (y) = 0.50148 0.07201
# Poissons Ratio (z) = 0.48378 0.10755
#
# Static dielectric constant tensor:
#      x y z
#    x 3.456660 0.000000 0.000000 
#    y 0.000000 3.297450 0.000000 
#    z 0.000000 0.000000 3.208350 
# 
# 
# High freq. dielectric constant tensor:
#      x y z
#    x 1.711490 0.000000 0.000000 
#    y 0.000000 1.685700 0.000000 
#    z 0.000000 0.000000 1.691770 
# 
# From -- ./inp_files/2894.got.cif
#   From: 2010.06.25/outbox.cif.g09.slc.cpg/sg58_2_cif.got.tgz:2894.got - 2010.06.26 21:38:00.
