data_PCOD8235321
_publ_section_title
;
Structure prediction by ZEFSAII (Michael W. Deem and Ramdas Pophale) SiO2 
 PCOD8235321
Probable space group: P N N M
;
_chemical_formula_sum "Si O2"
_cell_formula_units_Z 56
_cell_length_a 27.973706
_cell_length_b 5.151740
_cell_length_c 30.156646
_cell_angle_alpha 90.000000
_cell_angle_beta 90.000000
_cell_angle_gamma 90.000000
_cell_volume 4345.972570
_symmetry_space_group_name_H-M "P N N M"
_symmetry_group_IT_number 58
_symmetry_cell_setting 'orthorhombic'
loop_
_space_group_symop_operation_xyz
x,y,z
-x,-y,z
1/2+x,1/2-y,1/2-z
1/2-x,1/2+y,1/2-z
-x,-y,-z
x,y,-z
1/2-x,1/2+y,1/2+z
1/2+x,1/2-y,1/2+z
loop_
_atom_site_type_symbol
_atom_site_label
_atom_site_fract_x
_atom_site_fract_y
_atom_site_fract_z
Si Si1 0.752604 0.404819 0.691143
Si Si2 0.841873 0.905566 0.144054
Si Si3 0.198294 0.090660 0.715820
Si Si4 0.469247 0.256646 0.450000
Si Si5 0.104085 0.088751 0.763435
Si Si6 0.945467 0.418231 0.788453
Si Si7 0.108619 0.600476 0.119251
O O1 0.715108 0.382163 0.650643
O O2 0.786445 0.656818 0.687757
O O3 0.724367 0.407462 0.737121
O O4 0.786533 0.156875 0.687307
O O5 0.867100 0.904977 0.191230
O O6 0.864131 0.675030 0.113681
O O7 0.850354 0.183729 0.122162
O O8 0.141227 0.067305 0.722793
O O9 0.500000 0.500000 0.430017
O O10 0.453498 0.329959 0.500000
O O11 0.422245 0.189185 0.422565
O O12 0.500000 0.000000 0.449320
O O13 0.078462 0.363716 0.757853
O O14 0.065049 0.855994 0.764160
O O15 0.925311 0.408672 0.838066
O O16 0.000000 0.500000 0.792556
#
# Coordination Sequence:
#
# PCOD8235321 Si02
#       7
#     8   8   8   8   8   8   8
#     4   9  15  23  35  50  65  83 103 121 150 187
#     4   9  17  26  37  53  69  83 101 126 156 200
#     4   9  15  23  35  47  64  85 103 126 150 182
#     4  10  20  32  44  56  68  84 110 140 169 207
#     4   9  17  26  34  48  65  83 108 132 158 191
#     4  10  18  26  36  48  64  85 109 137 168 202
#     4  10  18  28  40  52  68  85 103 132 170 205
#
# _framework density 12.885494
#
# number of rings (size 3 to 8) (size 9 to 14) (size 15 to 20)
#    0.000    2.571    0.000    3.429    0.000    9.143 
#    0.000    0.000    0.000    0.000    0.000    0.000 
#    0.000    0.000    0.000    0.000    0.000    0.000 
#
# Total GULP energy -694045.330717 kJ/mol
# GULP energy per Si atom -12393.666620 kJ/mol
# Density = 1.285617 g / cm^3
# Si number density = 12.885494 Si / 1000 Ang^3
#
#
#
# Elastic Constant Matrix: (Units=GPa)
#
#
# Indices 1 2 3 4 5 6 
#
# 1 57.4731 35.1911 29.6635 0.0000 0.0000 0.0000
# 2 35.1911 107.1900 18.8550 0.0000 0.0000 0.0000
# 3 29.6635 18.8550 23.7821 0.0000 0.0000 0.0000
# 4 0.0000 0.0000 0.0000 13.2473 0.0000 0.0000
# 5 0.0000 0.0000 0.0000 0.0000 18.0734 0.0000
# 6 0.0000 0.0000 0.0000 0.0000 0.0000 24.4660
#
#
#
# Elastic Compliance Matrix: (Units=1/GPa)
#
#
# Indices 1 2 3 4 5 6 
#
# 1 0.052642 -0.006662 -0.060379 0.000000 0.000000 0.000000
# 2 -0.006662 0.011684 -0.000954 0.000000 0.000000 0.000000
# 3 -0.060379 -0.000954 0.118115 0.000000 0.000000 0.000000
# 4 0.000000 0.000000 0.000000 0.075487 0.000000 0.000000
# 5 0.000000 0.000000 0.000000 0.000000 0.055330 0.000000
# 6 0.000000 0.000000 0.000000 0.000000 0.000000 0.040873
#
#
# Mechanical properties :
#
#
# Convention : Reuss Voigt Hill
#
# Bulk Modulus (GPa) = 21.52754 39.54050 30.53402
# Shear Modulus (GPa) = 9.88915 18.13971 14.01443
#
# Velocity S-wave (km/s) = 2.77332 3.75609 3.30148
# Velocity P-wave (km/s) = 5.19597 7.04014 6.18715
#
# Compressibility (1/GPa) = 0.04645212
#
# Stress axis : x y z
#
# Youngs Moduli (GPa) = 18.99638 85.58588 8.46629
#
# Poissons Ratio (x) = 0.57015 0.51118
# Poissons Ratio (y) = 0.12655 0.00808
# Poissons Ratio (z) = 1.14697 0.08167
#
# Static dielectric constant tensor:
#      x y z
#    x 2.576260 0.000000 0.000000 
#    y 0.000000 2.943190 0.000000 
#    z 0.000000 0.000000 2.233830 
# 
# 
# High freq. dielectric constant tensor:
#      x y z
#    x 1.479100 0.000000 0.000000 
#    y 0.000000 1.517450 0.000000 
#    z 0.000000 0.000000 1.416630 
# 
# From -- ./inp_files/31079.got.cif
#   From: 2010.06.25/outbox.cif.g09.slc.cpg/sg58_16_cif.got.tgz:31079.got - 2010.06.26 21:38:00.
