data_PCOD8235698
_publ_section_title
;
Structure prediction by ZEFSAII (Michael W. Deem and Ramdas Pophale) SiO2 
 PCOD8235698
Probable space group: P N N M
;
_chemical_formula_sum "Si O2"
_cell_formula_units_Z 64
_cell_length_a 15.949123
_cell_length_b 9.151442
_cell_length_c 23.146576
_cell_angle_alpha 90.000000
_cell_angle_beta 90.000000
_cell_angle_gamma 90.000000
_cell_volume 3378.415767
_symmetry_space_group_name_H-M "P N N M"
_symmetry_group_IT_number 58
_symmetry_cell_setting 'orthorhombic'
loop_
_space_group_symop_operation_xyz
x,y,z
-x,-y,z
1/2+x,1/2-y,1/2-z
1/2-x,1/2+y,1/2-z
-x,-y,-z
x,y,-z
1/2-x,1/2+y,1/2+z
1/2+x,1/2-y,1/2+z
loop_
_atom_site_type_symbol
_atom_site_label
_atom_site_fract_x
_atom_site_fract_y
_atom_site_fract_z
Si Si1 0.192938 0.077970 0.726881
Si Si2 0.735829 0.518555 0.934155
Si Si3 0.626759 0.260353 0.433066
Si Si4 0.239327 0.058346 0.144693
Si Si5 0.517367 0.334131 0.225580
Si Si6 0.708325 0.758749 0.360966
Si Si7 0.482910 0.326731 0.648814
Si Si8 0.859167 0.184986 0.657279
O O1 0.189655 0.083701 0.795660
O O2 0.113682 0.175260 0.704431
O O3 0.275391 0.150519 0.698541
O O4 0.185611 0.906476 0.709080
O O5 0.818942 0.614593 0.924176
O O6 0.759424 0.356154 0.914050
O O7 0.656057 0.585676 0.899671
O O8 0.707257 0.514219 0.000000
O O9 0.606638 0.290639 0.500000
O O10 0.679792 0.395890 0.408093
O O11 0.540542 0.242773 0.397859
O O12 0.322858 0.154458 0.147286
O O13 0.263837 0.889177 0.137929
O O14 0.500000 0.500000 0.241357
O O15 0.501511 0.256739 0.287605
O O16 0.456364 0.284799 0.173320
O O17 0.612200 0.712542 0.367071
O O18 0.500000 0.500000 0.643637
#
# Coordination Sequence:
#
# PCOD8235698 Si02
#       8
#     8   8   8   8   8   8   8   8
#     4  10  18  33  54  80 112 143 179 229 279 336
#     4   9  21  40  56  78 109 143 188 238 280 325
#     4  10  21  36  55  77 108 150 189 224 262 315
#     4  11  18  34  52  79 111 143 187 226 272 330
#     4   9  16  31  55  80 110 143 179 226 274 326
#     4  11  22  33  55  79 105 149 183 228 285 329
#     4  11  19  34  52  80 113 147 186 225 268 324
#     4   9  19  32  58  79 103 148 185 225 276 334
#
# _framework density 18.94379
#
# number of rings (size 3 to 8) (size 9 to 14) (size 15 to 20)
#    0.000    2.000    2.500    3.000    0.000    1.750 
#    0.000    1.875    2.750    9.375    0.000    0.000 
#    0.000   20.000    0.000    0.000    0.000    0.000 
#
# Total GULP energy -793235.495590 kJ/mol
# GULP energy per Si atom -12394.304619 kJ/mol
# Density = 1.890067 g / cm^3
# Si number density = 18.943790 Si / 1000 Ang^3
#
#
#
# Elastic Constant Matrix: (Units=GPa)
#
#
# Indices 1 2 3 4 5 6 
#
# 1 74.2564 16.0449 52.2866 0.0000 0.0000 0.0000
# 2 16.0449 77.8141 29.6712 0.0000 0.0000 0.0000
# 3 52.2866 29.6712 126.5754 0.0000 0.0000 0.0000
# 4 0.0000 0.0000 0.0000 17.9760 0.0000 0.0000
# 5 0.0000 0.0000 0.0000 0.0000 27.7544 0.0000
# 6 0.0000 0.0000 0.0000 0.0000 0.0000 17.1780
#
#
#
# Elastic Compliance Matrix: (Units=1/GPa)
#
#
# Indices 1 2 3 4 5 6 
#
# 1 0.019064 -0.001019 -0.007636 0.000000 0.000000 0.000000
# 2 -0.001019 0.014167 -0.002900 0.000000 0.000000 0.000000
# 3 -0.007636 -0.002900 0.011735 0.000000 0.000000 0.000000
# 4 0.000000 0.000000 0.000000 0.055630 0.000000 0.000000
# 5 0.000000 0.000000 0.000000 0.000000 0.036030 0.000000
# 6 0.000000 0.000000 0.000000 0.000000 0.000000 0.058214
#
#
# Mechanical properties :
#
#
# Convention : Reuss Voigt Hill
#
# Bulk Modulus (GPa) = 45.75599 52.73904 49.24752
# Shear Modulus (GPa) = 22.19902 24.62457 23.41180
#
# Velocity S-wave (km/s) = 3.42692 3.60929 3.51929
# Velocity P-wave (km/s) = 6.31383 6.72826 6.52433
#
# Compressibility (1/GPa) = 0.02185506
#
# Stress axis : x y z
#
# Youngs Moduli (GPa) = 52.45496 70.58623 85.21785
#
# Poissons Ratio (x) = 0.07194 0.65074
# Poissons Ratio (y) = 0.05346 0.24713
# Poissons Ratio (z) = 0.40055 0.20470
#
# Static dielectric constant tensor:
#      x y z
#    x 3.627850 0.000000 0.000000 
#    y 0.000000 3.411550 0.000000 
#    z 0.000000 0.000000 3.480070 
# 
# 
# High freq. dielectric constant tensor:
#      x y z
#    x 1.722720 0.000000 0.000000 
#    y 0.000000 1.721480 0.000000 
#    z 0.000000 0.000000 1.728710 
# 
# From -- ./inp_files/32354.got.cif
#   From: 2010.06.25/outbox.cif.g09.slc.cpg/sg58_17_cif.got.tgz:32354.got - 2010.06.26 21:38:00.
