data_PCOD8235835
_publ_section_title
;
Structure prediction by ZEFSAII (Michael W. Deem and Ramdas Pophale) SiO2 
 PCOD8235835
Probable space group: P N N M
;
_chemical_formula_sum "Si O2"
_cell_formula_units_Z 48
_cell_length_a 16.981389
_cell_length_b 16.637354
_cell_length_c 9.409755
_cell_angle_alpha 90.000000
_cell_angle_beta 90.000000
_cell_angle_gamma 90.000000
_cell_volume 2658.494609
_symmetry_space_group_name_H-M "P N N M"
_symmetry_group_IT_number 58
_symmetry_cell_setting 'orthorhombic'
loop_
_space_group_symop_operation_xyz
x,y,z
-x,-y,z
1/2+x,1/2-y,1/2-z
1/2-x,1/2+y,1/2-z
-x,-y,-z
x,y,-z
1/2-x,1/2+y,1/2+z
1/2+x,1/2-y,1/2+z
loop_
_atom_site_type_symbol
_atom_site_label
_atom_site_fract_x
_atom_site_fract_y
_atom_site_fract_z
Si Si1 0.898588 0.933021 0.167288
Si Si2 0.996606 0.630324 0.840691
Si Si3 0.771906 0.397271 0.333730
Si Si4 0.568274 0.611056 0.668532
Si Si5 0.373300 0.993567 0.658155
Si Si6 0.896327 0.263298 0.668067
O O1 0.819020 0.886896 0.215850
O O2 0.976424 0.886040 0.219410
O O3 0.896775 0.025548 0.218704
O O4 0.905316 0.937082 0.000000
O O5 0.059897 0.560317 0.841780
O O6 0.022871 0.697928 0.728684
O O7 0.912465 0.591593 0.794671
O O8 0.990171 0.667722 0.000000
O O9 0.777955 0.412404 0.500000
O O10 0.804628 0.479143 0.263738
O O11 0.821081 0.318295 0.290145
O O12 0.577863 0.626114 0.500000
O O13 0.616393 0.678181 0.755466
O O14 0.337835 0.984658 0.500000
O O15 0.904397 0.252653 0.500000
#
# Coordination Sequence:
#
# PCOD8235835 Si02
#       6
#     8   8   8   8   8   8
#     4   8  16  33  55  73  87 117 165 201 229 273
#     4   8  14  26  43  62  89 126 162 191 219 264
#     4   9  17  30  48  70  98 126 151 188 239 290
#     4   9  17  33  56  72  86 118 164 203 229 269
#     4   8  14  25  42  65  91 121 159 194 224 265
#     4  10  19  29  45  72 102 126 149 187 242 291
#
# _framework density 18.055330999999999
#
# number of rings (size 3 to 8) (size 9 to 14) (size 15 to 20)
#    0.000    3.333    0.000    2.500    0.000    1.333 
#    0.000    8.333    0.000    6.000    0.000    0.000 
#    0.000    0.000    0.000    0.000    0.000    0.000 
#
# Total GULP energy -594745.353346 kJ/mol
# GULP energy per Si atom -12390.528195 kJ/mol
# Density = 1.801424 g / cm^3
# Si number density = 18.055331 Si / 1000 Ang^3
#
#
#
# Elastic Constant Matrix: (Units=GPa)
#
#
# Indices 1 2 3 4 5 6 
#
# 1 87.7747 35.4028 29.4734 0.0000 0.0000 0.0000
# 2 35.4028 79.7762 33.5782 0.0000 0.0000 0.0000
# 3 29.4734 33.5782 54.4879 0.0000 0.0000 0.0000
# 4 0.0000 0.0000 0.0000 27.8398 0.0000 0.0000
# 5 0.0000 0.0000 0.0000 0.0000 14.5133 0.0000
# 6 0.0000 0.0000 0.0000 0.0000 0.0000 17.1253
#
#
#
# Elastic Compliance Matrix: (Units=1/GPa)
#
#
# Indices 1 2 3 4 5 6 
#
# 1 0.014970 -0.004368 -0.005406 0.000000 0.000000 0.000000
# 2 -0.004368 0.018200 -0.008853 0.000000 0.000000 0.000000
# 3 -0.005406 -0.008853 0.026732 0.000000 0.000000 0.000000
# 4 0.000000 0.000000 0.000000 0.035920 0.000000 0.000000
# 5 0.000000 0.000000 0.000000 0.000000 0.068903 0.000000
# 6 0.000000 0.000000 0.000000 0.000000 0.000000 0.058393
#
#
# Mechanical properties :
#
#
# Convention : Reuss Voigt Hill
#
# Bulk Modulus (GPa) = 44.15246 46.54974 45.35110
# Shear Modulus (GPa) = 18.66231 20.13462 19.39847
#
# Velocity S-wave (km/s) = 3.21848 3.34303 3.28134
# Velocity P-wave (km/s) = 6.19020 6.38269 6.28718
#
# Compressibility (1/GPa) = 0.02264879
#
# Stress axis : x y z
#
# Youngs Moduli (GPa) = 66.80177 54.94604 37.40798
#
# Poissons Ratio (x) = 0.24000 0.20221
# Poissons Ratio (y) = 0.29179 0.33117
# Poissons Ratio (z) = 0.36110 0.48643
#
# Static dielectric constant tensor:
#      x y z
#    x 3.626650 0.000000 0.000000 
#    y 0.000000 3.294830 0.000000 
#    z 0.000000 0.000000 3.174410 
# 
# 
# High freq. dielectric constant tensor:
#      x y z
#    x 1.684260 0.000000 0.000000 
#    y 0.000000 1.685880 0.000000 
#    z 0.000000 0.000000 1.676060 
# 
# From -- ./inp_files/7737.got.cif
#   From: 2010.06.25/outbox.cif.g09.slc.cpg/sg58_4_cif.got.tgz:7737.got - 2010.06.26 21:38:00.
