data_PCOD8235863
_publ_section_title
;
Structure prediction by ZEFSAII (Michael W. Deem and Ramdas Pophale) SiO2 
 PCOD8235863
Probable space group: P N N M
;
_chemical_formula_sum "Si O2"
_cell_formula_units_Z 64
_cell_length_a 23.181875
_cell_length_b 19.034983
_cell_length_c 9.017088
_cell_angle_alpha 90.000000
_cell_angle_beta 90.000000
_cell_angle_gamma 90.000000
_cell_volume 3978.939732
_symmetry_space_group_name_H-M "P N N M"
_symmetry_group_IT_number 58
_symmetry_cell_setting 'orthorhombic'
loop_
_space_group_symop_operation_xyz
x,y,z
-x,-y,z
1/2+x,1/2-y,1/2-z
1/2-x,1/2+y,1/2-z
-x,-y,-z
x,y,-z
1/2-x,1/2+y,1/2+z
1/2+x,1/2-y,1/2+z
loop_
_atom_site_type_symbol
_atom_site_label
_atom_site_fract_x
_atom_site_fract_y
_atom_site_fract_z
Si Si1 0.216943 0.367416 0.324711
Si Si2 0.564147 0.626049 0.325299
Si Si3 0.752007 0.998530 0.672905
Si Si4 0.433992 0.639722 0.330109
Si Si5 0.830480 0.212594 0.826157
Si Si6 0.760783 0.340747 0.826427
Si Si7 0.163004 0.244316 0.170833
Si Si8 0.884625 0.993521 0.674848
O O1 0.210269 0.368257 0.500000
O O2 0.212986 0.446385 0.263008
O O3 0.277609 0.335037 0.268682
O O4 0.166599 0.318414 0.257321
O O5 0.572053 0.615855 0.500000
O O6 0.500359 0.652387 0.284816
O O7 0.609307 0.683924 0.259393
O O8 0.575160 0.551289 0.250424
O O9 0.746050 0.015020 0.500000
O O10 0.726834 0.921604 0.711863
O O11 0.818398 0.003598 0.724469
O O12 0.429108 0.613239 0.500000
O O13 0.401483 0.713954 0.309910
O O14 0.405665 0.582627 0.223909
O O15 0.817329 0.293987 0.784136
O O16 0.834355 0.204162 0.000000
O O17 0.706232 0.313926 0.735181
O O18 0.745348 0.331467 0.000000
O O19 0.178521 0.257457 0.000000
O O20 0.891128 0.999529 0.500000
#
# Coordination Sequence:
#
# PCOD8235863 Si02
#       8
#     8   8   8   8   8   8   8   8
#     4  10  19  31  49  69  90 120 155 190 234 285
#     4  10  19  33  48  65  91 126 165 199 226 271
#     4  10  19  30  46  69  97 124 150 189 235 279
#     4  10  21  33  47  65  91 128 165 195 230 272
#     4   8  15  28  47  66  85 114 152 190 228 268
#     4   9  17  31  48  68  92 121 153 190 236 282
#     4  10  19  31  46  67  92 121 155 195 237 275
#     4  11  21  31  44  66  97 128 160 196 230 268
#
# _framework density 16.084686999999999
#
# number of rings (size 3 to 8) (size 9 to 14) (size 15 to 20)
#    0.000    2.250    2.500    2.250    0.000    3.500 
#    0.000    0.000    0.000    0.000    0.000    0.875 
#    0.000    7.000    0.000    0.000    0.000    0.000 
#
# Total GULP energy -793474.795278 kJ/mol
# GULP energy per Si atom -12398.043676 kJ/mol
# Density = 1.604808 g / cm^3
# Si number density = 16.084687 Si / 1000 Ang^3
#
#
#
# Elastic Constant Matrix: (Units=GPa)
#
#
# Indices 1 2 3 4 5 6 
#
# 1 52.1865 31.6604 18.3800 0.0000 0.0000 0.0000
# 2 31.6604 103.3841 34.3614 0.0000 0.0000 0.0000
# 3 18.3800 34.3614 51.3881 0.0000 0.0000 0.0000
# 4 0.0000 0.0000 0.0000 25.0015 0.0000 0.0000
# 5 0.0000 0.0000 0.0000 0.0000 16.2898 0.0000
# 6 0.0000 0.0000 0.0000 0.0000 0.0000 23.7112
#
#
#
# Elastic Compliance Matrix: (Units=1/GPa)
#
#
# Indices 1 2 3 4 5 6 
#
# 1 0.024422 -0.005883 -0.004801 0.000000 0.000000 0.000000
# 2 -0.005883 0.013854 -0.007159 0.000000 0.000000 0.000000
# 3 -0.004801 -0.007159 0.025964 0.000000 0.000000 0.000000
# 4 0.000000 0.000000 0.000000 0.039998 0.000000 0.000000
# 5 0.000000 0.000000 0.000000 0.000000 0.061388 0.000000
# 6 0.000000 0.000000 0.000000 0.000000 0.000000 0.042174
#
#
# Mechanical properties :
#
#
# Convention : Reuss Voigt Hill
#
# Bulk Modulus (GPa) = 35.02287 41.75135 38.38711
# Shear Modulus (GPa) = 19.76244 21.17098 20.46671
#
# Velocity S-wave (km/s) = 3.50901 3.63191 3.57099
# Velocity P-wave (km/s) = 6.18376 6.60312 6.39688
#
# Compressibility (1/GPa) = 0.02855277
#
# Stress axis : x y z
#
# Youngs Moduli (GPa) = 40.94614 72.18182 38.51466
#
# Poissons Ratio (x) = 0.42467 0.18491
# Poissons Ratio (y) = 0.24090 0.27574
# Poissons Ratio (z) = 0.19659 0.51677
#
# Static dielectric constant tensor:
#      x y z
#    x 3.070530 0.000000 0.000000 
#    y 0.000000 3.154850 0.000000 
#    z 0.000000 0.000000 2.971100 
# 
# 
# High freq. dielectric constant tensor:
#      x y z
#    x 1.589910 0.000000 0.000000 
#    y 0.000000 1.615660 0.000000 
#    z 0.000000 0.000000 1.614970 
# 
# From -- ./inp_files/8459.got.cif
#   From: 2010.06.25/outbox.cif.g09.slc.cpg/sg58_5_cif.got.tgz:8459.got - 2010.06.26 21:38:00.
