data_PCOD8235916
_publ_section_title
;
Structure prediction by ZEFSAII (Michael W. Deem and Ramdas Pophale) SiO2 
 PCOD8235916
Probable space group: P N N M
;
_chemical_formula_sum "Si O2"
_cell_formula_units_Z 64
_cell_length_a 21.470328
_cell_length_b 18.599129
_cell_length_c 9.149974
_cell_angle_alpha 90.000000
_cell_angle_beta 90.000000
_cell_angle_gamma 90.000000
_cell_volume 3653.853629
_symmetry_space_group_name_H-M "P N N M"
_symmetry_group_IT_number 58
_symmetry_cell_setting 'orthorhombic'
loop_
_space_group_symop_operation_xyz
x,y,z
-x,-y,z
1/2+x,1/2-y,1/2-z
1/2-x,1/2+y,1/2-z
-x,-y,-z
x,y,-z
1/2-x,1/2+y,1/2+z
1/2+x,1/2-y,1/2+z
loop_
_atom_site_type_symbol
_atom_site_label
_atom_site_fract_x
_atom_site_fract_y
_atom_site_fract_z
Si Si1 0.258918 0.620352 0.667387
Si Si2 0.355795 0.082849 0.669338
Si Si3 0.110804 0.175980 0.170417
Si Si4 0.185727 0.420103 0.165208
Si Si5 0.020035 0.577928 0.330573
Si Si6 0.904104 0.679672 0.330259
Si Si7 0.437343 0.535831 0.832000
Si Si8 0.693343 0.510588 0.835430
O O1 0.237583 0.618317 0.500000
O O2 0.197942 0.634993 0.765309
O O3 0.314068 0.677989 0.693566
O O4 0.288348 0.544314 0.709699
O O5 0.361304 0.099168 0.500000
O O6 0.420260 0.105179 0.743152
O O7 0.339456 0.999805 0.703065
O O8 0.083915 0.246698 0.245588
O O9 0.078581 0.106923 0.242099
O O10 0.093859 0.175580 0.000000
O O11 0.156898 0.362016 0.273605
O O12 0.261704 0.419712 0.183891
O O13 0.167009 0.398914 0.000000
O O14 0.038005 0.573328 0.500000
O O15 0.000000 0.500000 0.270970
O O16 0.964405 0.632164 0.299728
O O17 0.894095 0.695953 0.500000
O O18 0.500000 0.500000 0.768094
O O19 0.381020 0.476596 0.819903
O O20 0.447698 0.558721 0.000000
O O21 0.707160 0.479058 0.000000
#
# Coordination Sequence:
#
# PCOD8235916 Si02
#       8
#     8   8   8   8   8   8   8   8
#     4   9  17  30  50  73  97 127 164 208 256 302
#     4  10  19  30  50  77 103 133 169 213 258 302
#     4  10  21  36  54  77 105 137 175 219 268 320
#     4   9  17  29  46  71 102 133 167 208 257 306
#     4  10  20  34  50  74 107 141 181 222 259 307
#     4  11  22  34  52  74 101 140 179 220 266 315
#     4   9  17  32  57  84 108 136 175 218 263 317
#     4   8  15  28  47  75 104 128 160 205 253 302
#
# _framework density 17.515753
#
# number of rings (size 3 to 8) (size 9 to 14) (size 15 to 20)
#    0.000    2.500    1.250    2.250    0.000    5.000 
#    0.000    0.000    2.750    0.000    0.000    0.000 
#    0.000    0.000    0.000    0.000    0.000    0.000 
#
# Total GULP energy -793249.923899 kJ/mol
# GULP energy per Si atom -12394.530061 kJ/mol
# Density = 1.747589 g / cm^3
# Si number density = 17.515753 Si / 1000 Ang^3
#
#
#
# Elastic Constant Matrix: (Units=GPa)
#
#
# Indices 1 2 3 4 5 6 
#
# 1 133.3635 44.5601 59.3324 0.0000 0.0000 0.0000
# 2 44.5601 69.1782 47.5810 0.0000 0.0000 0.0000
# 3 59.3324 47.5810 92.2889 0.0000 0.0000 0.0000
# 4 0.0000 0.0000 0.0000 23.7259 0.0000 0.0000
# 5 0.0000 0.0000 0.0000 0.0000 27.0734 0.0000
# 6 0.0000 0.0000 0.0000 0.0000 0.0000 19.3545
#
#
#
# Elastic Compliance Matrix: (Units=1/GPa)
#
#
# Indices 1 2 3 4 5 6 
#
# 1 0.011007 -0.003444 -0.005301 0.000000 0.000000 0.000000
# 2 -0.003444 0.023476 -0.009889 0.000000 0.000000 0.000000
# 3 -0.005301 -0.009889 0.019342 0.000000 0.000000 0.000000
# 4 0.000000 0.000000 0.000000 0.042148 0.000000 0.000000
# 5 0.000000 0.000000 0.000000 0.000000 0.036937 0.000000
# 6 0.000000 0.000000 0.000000 0.000000 0.000000 0.051667
#
#
# Mechanical properties :
#
#
# Convention : Reuss Voigt Hill
#
# Bulk Modulus (GPa) = 60.39838 66.41971 63.40905
# Shear Modulus (GPa) = 21.99114 23.58790 22.78952
#
# Velocity S-wave (km/s) = 3.54716 3.67368 3.61097
# Velocity P-wave (km/s) = 7.16475 7.48310 7.32566
#
# Compressibility (1/GPa) = 0.01655673
#
# Stress axis : x y z
#
# Youngs Moduli (GPa) = 90.84736 42.59742 51.70132
#
# Poissons Ratio (x) = 0.14672 0.27406
# Poissons Ratio (y) = 0.31291 0.51127
# Poissons Ratio (z) = 0.48158 0.42124
#
# Static dielectric constant tensor:
#      x y z
#    x 3.523670 0.000000 0.000000 
#    y 0.000000 2.895590 0.000000 
#    z 0.000000 0.000000 3.301260 
# 
# 
# High freq. dielectric constant tensor:
#      x y z
#    x 1.686340 0.000000 0.000000 
#    y 0.000000 1.629470 0.000000 
#    z 0.000000 0.000000 1.685780 
# 
# From -- ./inp_files/9310.got.cif
#   From: 2010.06.25/outbox.cif.g09.slc.cpg/sg58_5_cif.got.tgz:9310.got - 2010.06.26 21:38:00.
