data_PCOD8235023
_publ_section_title
;
Structure prediction by ZEFSAII (Michael W. Deem and Ramdas Pophale) SiO2 
 PCOD8235023
Probable space group: P B C M
;
_chemical_formula_sum "Si O2"
_cell_formula_units_Z 28
_cell_length_a 6.635943
_cell_length_b 19.435039
_cell_length_c 9.633506
_cell_angle_alpha 90.000000
_cell_angle_beta 90.000000
_cell_angle_gamma 90.000000
_cell_volume 1242.431448
_symmetry_space_group_name_H-M "P B C M"
_symmetry_group_IT_number 57
_symmetry_cell_setting 'orthorhombic'
loop_
_space_group_symop_operation_xyz
x,y,z
-x,-y,1/2+z
x,1/2-y,-z
-x,1/2+y,1/2-z
-x,-y,-z
x,y,1/2-z
-x,1/2+y,z
x,1/2-y,1/2+z
loop_
_atom_site_type_symbol
_atom_site_label
_atom_site_fract_x
_atom_site_fract_y
_atom_site_fract_z
Si Si1 0.684544 0.378195 0.250000
Si Si2 0.035355 0.381423 0.456539
Si Si3 0.268016 0.250000 0.000000
Si Si4 0.293598 0.463675 0.250000
Si Si5 0.468327 0.774865 0.750000
Si Si6 0.860621 0.109842 0.250000
O O1 0.815982 0.385206 0.388227
O O2 0.523057 0.439322 0.250000
O O3 0.574636 0.305767 0.250000
O O4 0.011167 0.393940 0.619764
O O5 0.128686 0.306395 0.424831
O O6 0.180565 0.438285 0.389138
O O7 0.403690 0.290787 0.888009
O O8 0.294183 0.546265 0.250000
O O9 0.265227 0.819486 0.750000
#
# Coordination Sequence:
#
# PCOD8235023 Si02
#       6
#     4   8   4   4   4   4
#     4  11  22  47  71  93 135 186 221 275 349 407
#     4  11  24  45  70  99 135 182 228 281 340 407
#     4  12  22  44  70 102 134 178 230 288 334 398
#     4  11  25  48  69  95 145 186 218 276 357 405
#     4  12  23  41  70 103 134 175 232 284 339 398
#     4  12  26  42  68 111 136 175 233 285 333 416
#
# _framework density 22.536455
#
# number of rings (size 3 to 8) (size 9 to 14) (size 15 to 20)
#    0.000    0.571    2.857    6.000    0.000    1.143 
#   10.286    0.000    0.000    0.000    0.000    0.000 
#    0.000    0.000    0.000    0.000    0.000    0.000 
#
# Total GULP energy -347435.815142 kJ/mol
# GULP energy per Si atom -12408.421969 kJ/mol
# Density = 2.248516 g / cm^3
# Si number density = 22.536455 Si / 1000 Ang^3
#
#
#
# Elastic Constant Matrix: (Units=GPa)
#
#
# Indices 1 2 3 4 5 6 
#
# 1 96.4882 -6.4538 47.4956 0.0000 0.0000 0.0000
# 2 -6.4538 60.2430 1.4684 0.0000 0.0000 0.0000
# 3 47.4956 1.4684 167.8141 0.0000 0.0000 0.0000
# 4 0.0000 0.0000 0.0000 24.6059 0.0000 0.0000
# 5 0.0000 0.0000 0.0000 0.0000 -15.0349 0.0000
# 6 0.0000 0.0000 0.0000 0.0000 0.0000 29.1506
#
#
#
# Elastic Compliance Matrix: (Units=1/GPa)
#
#
# Indices 1 2 3 4 5 6 
#
# 1 0.012156 0.001386 -0.003453 0.000000 0.000000 0.000000
# 2 0.001386 0.016761 -0.000539 0.000000 0.000000 0.000000
# 3 -0.003453 -0.000539 0.006941 0.000000 0.000000 0.000000
# 4 0.000000 0.000000 0.000000 0.040641 0.000000 0.000000
# 5 0.000000 0.000000 0.000000 0.000000 -0.066512 0.000000
# 6 0.000000 0.000000 0.000000 0.000000 0.000000 0.034305
#
#
# Mechanical properties :
#
#
# Convention : Reuss Voigt Hill
#
# Bulk Modulus (GPa) = 32.62887 45.50729 39.06808
# Shear Modulus (GPa) = 83.72659 26.54666 55.13662
#
# Velocity S-wave (km/s) = 6.10183 3.43584 4.95163
# Velocity P-wave (km/s) = 8.00954 5.99805 7.07564
#
# Compressibility (1/GPa) = 0.03064771
#
# Stress axis : x y z
#
# Youngs Moduli (GPa) = 82.26233 59.66189 144.07399
#
# Poissons Ratio (x) = -0.08272 0.49744
# Poissons Ratio (y) = -0.11405 0.07766
# Poissons Ratio (z) = 0.28402 0.03216
#
# Static dielectric constant tensor:
#      x y z
#    x 4.013580 0.000000 0.000000 
#    y 0.000000 3.907530 0.000000 
#    z 0.000000 0.000000 4.277770 
# 
# 
# High freq. dielectric constant tensor:
#      x y z
#    x 1.892720 0.000000 0.000000 
#    y 0.000000 1.883820 0.000000 
#    z 0.000000 0.000000 1.901030 
# 
# From -- ./inp_files/10637.got.cif
#   From: 2010.03.12/outbox.cif.g09.slc.cpg/sg57_6_cif.got.tgz:10637.got - 2010.04.16 15:48:40.
