data_PCOD8235937
_publ_section_title
;
Structure prediction by ZEFSAII (Michael W. Deem and Ramdas Pophale) SiO2 
 PCOD8235937
Probable space group: P N N M
;
_chemical_formula_sum "Si O2"
_cell_formula_units_Z 64
_cell_length_a 23.303604
_cell_length_b 19.093267
_cell_length_c 8.841320
_cell_angle_alpha 90.000000
_cell_angle_beta 90.000000
_cell_angle_gamma 90.000000
_cell_volume 3933.874013
_symmetry_space_group_name_H-M "P N N M"
_symmetry_group_IT_number 58
_symmetry_cell_setting 'orthorhombic'
loop_
_space_group_symop_operation_xyz
x,y,z
-x,-y,z
1/2+x,1/2-y,1/2-z
1/2-x,1/2+y,1/2-z
-x,-y,-z
x,y,-z
1/2-x,1/2+y,1/2+z
1/2+x,1/2-y,1/2+z
loop_
_atom_site_type_symbol
_atom_site_label
_atom_site_fract_x
_atom_site_fract_y
_atom_site_fract_z
Si Si1 0.222951 0.351352 0.323719
Si Si2 0.563304 0.632556 0.322325
Si Si3 0.756508 0.996876 0.823103
Si Si4 0.433133 0.633002 0.327177
Si Si5 0.836012 0.226054 0.821632
Si Si6 0.770153 0.357011 0.821104
Si Si7 0.170030 0.228193 0.173905
Si Si8 0.881015 0.999915 0.677847
O O1 0.214682 0.335113 0.500000
O O2 0.218735 0.433916 0.289236
O O3 0.285048 0.324803 0.266007
O O4 0.174366 0.308261 0.232941
O O5 0.573520 0.620364 0.500000
O O6 0.498151 0.653482 0.285416
O O7 0.603653 0.695972 0.259888
O O8 0.578559 0.561291 0.238077
O O9 0.720821 0.931888 0.756907
O O10 0.818498 0.003907 0.749764
O O11 0.766343 0.986163 0.000000
O O12 0.428955 0.605653 0.500000
O O13 0.395342 0.702909 0.305260
O O14 0.411237 0.572846 0.217001
O O15 0.822452 0.305777 0.768974
O O16 0.837421 0.225108 0.000000
O O17 0.710093 0.323203 0.771012
O O18 0.768415 0.367516 0.000000
O O19 0.189467 0.224161 0.000000
O O20 0.874222 0.006514 0.500000
#
# Coordination Sequence:
#
# PCOD8235937 Si02
#       8
#     8   8   8   8   8   8   8   8
#     4   9  18  32  50  69  92 122 158 198 243 289
#     4  10  19  35  53  67  91 132 170 199 232 280
#     4  11  20  33  51  71  96 129 164 197 241 293
#     4  10  21  34  50  69  93 130 170 199 231 278
#     4   8  15  30  49  68  91 121 157 195 236 279
#     4  10  19  31  48  72  97 124 157 196 243 288
#     4  10  19  31  47  70  97 126 159 197 237 283
#     4  12  23  32  45  69 100 131 164 201 238 278
#
# _framework density 16.26895
#
# number of rings (size 3 to 8) (size 9 to 14) (size 15 to 20)
#    0.000    2.000    2.500    3.375    0.000    3.500 
#    0.000    0.625    0.000    0.000    0.000    0.875 
#    0.000    7.000    0.000    0.000    0.000    0.000 
#
# Total GULP energy -793476.145595 kJ/mol
# GULP energy per Si atom -12398.064775 kJ/mol
# Density = 1.623192 g / cm^3
# Si number density = 16.268950 Si / 1000 Ang^3
#
#
#
# Elastic Constant Matrix: (Units=GPa)
#
#
# Indices 1 2 3 4 5 6 
#
# 1 81.7961 54.8456 34.4068 0.0000 0.0000 0.0000
# 2 54.8456 116.5731 47.4944 0.0000 0.0000 0.0000
# 3 34.4068 47.4944 74.6540 0.0000 0.0000 0.0000
# 4 0.0000 0.0000 0.0000 26.0976 0.0000 0.0000
# 5 0.0000 0.0000 0.0000 0.0000 15.2187 0.0000
# 6 0.0000 0.0000 0.0000 0.0000 0.0000 19.3248
#
#
#
# Elastic Compliance Matrix: (Units=1/GPa)
#
#
# Indices 1 2 3 4 5 6 
#
# 1 0.018740 -0.007152 -0.004087 0.000000 0.000000 0.000000
# 2 -0.007152 0.014309 -0.005807 0.000000 0.000000 0.000000
# 3 -0.004087 -0.005807 0.018973 0.000000 0.000000 0.000000
# 4 0.000000 0.000000 0.000000 0.038318 0.000000 0.000000
# 5 0.000000 0.000000 0.000000 0.000000 0.065709 0.000000
# 6 0.000000 0.000000 0.000000 0.000000 0.000000 0.051747
#
#
# Mechanical properties :
#
#
# Convention : Reuss Voigt Hill
#
# Bulk Modulus (GPa) = 55.77131 60.72406 58.24769
# Shear Modulus (GPa) = 20.17231 21.21332 20.69282
#
# Velocity S-wave (km/s) = 3.52508 3.61489 3.57027
# Velocity P-wave (km/s) = 7.13607 7.40469 7.27162
#
# Compressibility (1/GPa) = 0.01793037
#
# Stress axis : x y z
#
# Youngs Moduli (GPa) = 53.36166 69.88592 52.70558
#
# Poissons Ratio (x) = 0.49980 0.21541
# Poissons Ratio (y) = 0.38163 0.30607
# Poissons Ratio (z) = 0.21810 0.40584
#
# Static dielectric constant tensor:
#      x y z
#    x 3.052200 0.000000 0.000000 
#    y 0.000000 3.319690 0.000000 
#    z 0.000000 0.000000 3.068470 
# 
# 
# High freq. dielectric constant tensor:
#      x y z
#    x 1.596740 0.000000 0.000000 
#    y 0.000000 1.623980 0.000000 
#    z 0.000000 0.000000 1.624480 
# 
# From -- ./inp_files/8467.got.cif
#   From: 2010.06.25/outbox.cif.g09.slc.cpg/sg58_5_cif.got.tgz:8467.got - 2010.06.26 21:38:00.
