data_PCOD8235224
_publ_section_title
;
Structure prediction by ZEFSAII (Michael W. Deem and Ramdas Pophale) SiO2 
 PCOD8235224
Probable space group: P N N M
;
_chemical_formula_sum "Si O2"
_cell_formula_units_Z 64
_cell_length_a 26.284234
_cell_length_b 18.426966
_cell_length_c 8.890898
_cell_angle_alpha 90.000000
_cell_angle_beta 90.000000
_cell_angle_gamma 90.000000
_cell_volume 4306.205857
_symmetry_space_group_name_H-M "P N N M"
_symmetry_group_IT_number 58
_symmetry_cell_setting 'orthorhombic'
loop_
_space_group_symop_operation_xyz
x,y,z
-x,-y,z
1/2+x,1/2-y,1/2-z
1/2-x,1/2+y,1/2-z
-x,-y,-z
x,y,-z
1/2-x,1/2+y,1/2+z
1/2+x,1/2-y,1/2+z
loop_
_atom_site_type_symbol
_atom_site_label
_atom_site_fract_x
_atom_site_fract_y
_atom_site_fract_z
Si Si1 0.151405 0.344212 0.676549
Si Si2 0.441924 0.915940 0.678407
Si Si3 0.944708 0.420757 0.822680
Si Si4 0.755534 0.573987 0.821317
Si Si5 0.696105 0.709210 0.834621
Si Si6 0.804346 0.784970 0.165447
Si Si7 0.346578 0.161800 0.677190
Si Si8 0.746246 0.920837 0.822096
O O1 0.156556 0.354680 0.500000
O O2 0.095130 0.362814 0.731987
O O3 0.191135 0.397648 0.756701
O O4 0.161365 0.259610 0.717314
O O5 0.433617 0.906584 0.500000
O O6 0.499352 0.895004 0.729492
O O7 0.431297 0.998246 0.733685
O O8 0.902188 0.364051 0.767265
O O9 0.945891 0.425701 0.000000
O O10 0.708856 0.627915 0.776869
O O11 0.740862 0.497147 0.752630
O O12 0.761821 0.568989 0.000000
O O13 0.749239 0.749858 0.846244
O O14 0.659390 0.753458 0.722392
O O15 0.670499 0.706938 0.000000
O O16 0.794183 0.868067 0.217003
O O17 0.830254 0.782406 0.000000
O O18 0.339600 0.153689 0.500000
O O19 0.305983 0.110270 0.756548
O O20 0.739523 0.929260 0.000000
#
# Coordination Sequence:
#
# PCOD8235224 Si02
#       8
#     8   8   8   8   8   8   8   8
#     4  11  20  28  41  62  84 107 140 175 205 238
#     4   9  16  30  46  57  78 110 141 172 206 241
#     4   8  16  28  43  61  78 105 143 174 200 240
#     4  10  19  30  43  58  80 111 142 168 201 245
#     4   8  16  29  41  56  79 107 138 169 201 238
#     4   8  16  30  43  56  79 110 137 163 200 244
#     4  10  17  26  42  62  83 109 141 170 201 241
#     4  10  19  29  42  62  85 107 136 171 205 241
#
# _framework density 14.862271
#
# number of rings (size 3 to 8) (size 9 to 14) (size 15 to 20)
#    0.000    2.750    0.000    5.250    0.000    6.500 
#    0.000    3.125    0.000    0.000    0.000    0.000 
#    0.000    1.000    0.000   11.250    0.000    5.625 
#
# Total GULP energy -793199.719054 kJ/mol
# GULP energy per Si atom -12393.745610 kJ/mol
# Density = 1.482844 g / cm^3
# Si number density = 14.862271 Si / 1000 Ang^3
#
#
#
# Elastic Constant Matrix: (Units=GPa)
#
#
# Indices 1 2 3 4 5 6 
#
# 1 78.4077 54.3910 37.5027 0.0000 0.0000 0.0000
# 2 54.3910 117.9642 47.9146 0.0000 0.0000 0.0000
# 3 37.5027 47.9146 75.5024 0.0000 0.0000 0.0000
# 4 0.0000 0.0000 0.0000 17.4401 0.0000 0.0000
# 5 0.0000 0.0000 0.0000 0.0000 16.9781 0.0000
# 6 0.0000 0.0000 0.0000 0.0000 0.0000 22.7285
#
#
#
# Elastic Compliance Matrix: (Units=1/GPa)
#
#
# Indices 1 2 3 4 5 6 
#
# 1 0.020370 -0.007117 -0.005601 0.000000 0.000000 0.000000
# 2 -0.007117 0.013908 -0.005291 0.000000 0.000000 0.000000
# 3 -0.005601 -0.005291 0.019385 0.000000 0.000000 0.000000
# 4 0.000000 0.000000 0.000000 0.057339 0.000000 0.000000
# 5 0.000000 0.000000 0.000000 0.000000 0.058899 0.000000
# 6 0.000000 0.000000 0.000000 0.000000 0.000000 0.043998
#
#
# Mechanical properties :
#
#
# Convention : Reuss Voigt Hill
#
# Bulk Modulus (GPa) = 56.67775 61.27676 58.97726
# Shear Modulus (GPa) = 19.54664 20.23375 19.89019
#
# Velocity S-wave (km/s) = 3.63048 3.69374 3.66225
# Velocity P-wave (km/s) = 7.46940 7.71433 7.59285
#
# Compressibility (1/GPa) = 0.01764361
#
# Stress axis : x y z
#
# Youngs Moduli (GPa) = 49.09153 71.90236 51.58749
#
# Poissons Ratio (x) = 0.51174 0.28896
# Poissons Ratio (y) = 0.34939 0.27294
# Poissons Ratio (z) = 0.27498 0.38043
#
# Static dielectric constant tensor:
#      x y z
#    x 2.823720 0.000000 0.000000 
#    y 0.000000 3.222950 0.000000 
#    z 0.000000 0.000000 2.841380 
# 
# 
# High freq. dielectric constant tensor:
#      x y z
#    x 1.533120 0.000000 0.000000 
#    y 0.000000 1.562530 0.000000 
#    z 0.000000 0.000000 1.568530 
# 
# From -- ./inp_files/8539.got.cif
#   From: 2010.06.25/outbox.cif.g09.slc.cpg/sg58_5_cif.got.tgz:8539.got - 2010.06.26 21:38:00.
