data_PCOD8235049
_publ_section_title
;
Structure prediction by ZEFSAII (Michael W. Deem and Ramdas Pophale) SiO2 
 PCOD8235049
Probable space group: P B C M
;
_chemical_formula_sum "Si O2"
_cell_formula_units_Z 40
_cell_length_a 12.288431
_cell_length_b 18.207147
_cell_length_c 8.441042
_cell_angle_alpha 90.000000
_cell_angle_beta 90.000000
_cell_angle_gamma 90.000000
_cell_volume 1888.575690
_symmetry_space_group_name_H-M "P B C M"
_symmetry_group_IT_number 57
_symmetry_cell_setting 'orthorhombic'
loop_
_space_group_symop_operation_xyz
x,y,z
-x,-y,1/2+z
x,1/2-y,-z
-x,1/2+y,1/2-z
-x,-y,-z
x,y,1/2-z
-x,1/2+y,z
x,1/2-y,1/2+z
loop_
_atom_site_type_symbol
_atom_site_label
_atom_site_fract_x
_atom_site_fract_y
_atom_site_fract_z
Si Si1 0.354410 0.830812 0.567721
Si Si2 0.556745 0.928314 0.567742
Si Si3 0.032780 0.328909 0.566015
Si Si4 0.840031 0.418919 0.067756
Si Si5 0.210531 0.427463 0.066833
O O1 0.344737 0.750000 0.500000
O O2 0.317311 0.831436 0.750000
O O3 0.477395 0.858832 0.548502
O O4 0.277005 0.884833 0.470417
O O5 0.587164 0.942554 0.750000
O O6 0.664621 0.909510 0.470741
O O7 0.500000 0.000000 0.500000
O O8 0.997942 0.250000 0.500000
O O9 0.060602 0.323786 0.750000
O O10 0.139680 0.356015 0.473462
O O11 0.932312 0.383552 0.540871
O O12 0.870280 0.405026 0.250000
O O13 0.835056 0.505505 0.036587
O O14 0.199587 0.448396 0.250000
#
# Coordination Sequence:
#
# PCOD8235049 Si02
#       5
#     8   8   8   8   8
#     4  11  24  41  64  96 132 171 217 268 326 389
#     4  11  23  41  66  95 130 172 219 267 323 385
#     4  12  26  46  68  95 132 172 218 269 330 392
#     4  12  24  42  68  97 131 171 218 270 328 388
#     4  12  25  43  68  98 132 172 221 270 326 390
#
# _framework density 21.179981000000002
#
# number of rings (size 3 to 8) (size 9 to 14) (size 15 to 20)
#    0.000    0.400    2.000    7.800    0.000    3.200 
#    0.000    2.000    0.000    0.000    0.000    0.000 
#    0.000    0.000    0.000    0.000    0.000    0.000 
#
# Total GULP energy -496409.490837 kJ/mol
# GULP energy per Si atom -12410.237271 kJ/mol
# Density = 2.113177 g / cm^3
# Si number density = 21.179981 Si / 1000 Ang^3
#
#
#
# Elastic Constant Matrix: (Units=GPa)
#
#
# Indices 1 2 3 4 5 6 
#
# 1 109.9043 13.2558 25.2447 0.0000 0.0000 0.0000
# 2 13.2558 64.1793 24.3522 0.0000 0.0000 0.0000
# 3 25.2447 24.3522 114.8804 0.0000 0.0000 0.0000
# 4 0.0000 0.0000 0.0000 33.4538 0.0000 0.0000
# 5 0.0000 0.0000 0.0000 0.0000 39.1132 0.0000
# 6 0.0000 0.0000 0.0000 0.0000 0.0000 24.8689
#
#
#
# Elastic Compliance Matrix: (Units=1/GPa)
#
#
# Indices 1 2 3 4 5 6 
#
# 1 0.009681 -0.001297 -0.001852 0.000000 0.000000 0.000000
# 2 -0.001297 0.017118 -0.003344 0.000000 0.000000 0.000000
# 3 -0.001852 -0.003344 0.009821 0.000000 0.000000 0.000000
# 4 0.000000 0.000000 0.000000 0.029892 0.000000 0.000000
# 5 0.000000 0.000000 0.000000 0.000000 0.025567 0.000000
# 6 0.000000 0.000000 0.000000 0.000000 0.000000 0.040211
#
#
# Mechanical properties :
#
#
# Convention : Reuss Voigt Hill
#
# Bulk Modulus (GPa) = 42.31255 46.07438 44.19347
# Shear Modulus (GPa) = 32.64724 34.56126 33.60425
#
# Velocity S-wave (km/s) = 3.93035 4.04392 3.98754
# Velocity P-wave (km/s) = 6.37321 6.60344 6.48935
#
# Compressibility (1/GPa) = 0.02363365
#
# Stress axis : x y z
#
# Youngs Moduli (GPa) = 103.29815 58.41844 101.82702
#
# Poissons Ratio (x) = 0.07575 0.18863
# Poissons Ratio (y) = 0.13394 0.34048
# Poissons Ratio (z) = 0.19136 0.19533
#
# Static dielectric constant tensor:
#      x y z
#    x 3.873230 0.000000 0.000000 
#    y 0.000000 3.696410 0.000000 
#    z 0.000000 0.000000 3.931000 
# 
# 
# High freq. dielectric constant tensor:
#      x y z
#    x 1.841750 0.000000 0.000000 
#    y 0.000000 1.831750 0.000000 
#    z 0.000000 0.000000 1.847480 
# 
# From -- ./inp_files/2666.got.cif
#   From: 2010.03.12/outbox.cif.g09.slc.cpg/sg57_2_cif.got.tgz:2666.got - 2010.04.16 15:48:40.
