data_PCOD8235024
_publ_section_title
;
Structure prediction by ZEFSAII (Michael W. Deem and Ramdas Pophale) SiO2 
 PCOD8235024
Probable space group: P B C M
;
_chemical_formula_sum "Si O2"
_cell_formula_units_Z 32
_cell_length_a 6.917969
_cell_length_b 13.248238
_cell_length_c 15.632155
_cell_angle_alpha 90.000000
_cell_angle_beta 90.000000
_cell_angle_gamma 90.000000
_cell_volume 1432.701071
_symmetry_space_group_name_H-M "P B C M"
_symmetry_group_IT_number 57
_symmetry_cell_setting 'orthorhombic'
loop_
_space_group_symop_operation_xyz
x,y,z
-x,-y,1/2+z
x,1/2-y,-z
-x,1/2+y,1/2-z
-x,-y,-z
x,y,1/2-z
-x,1/2+y,z
x,1/2-y,1/2+z
loop_
_atom_site_type_symbol
_atom_site_label
_atom_site_fract_x
_atom_site_fract_y
_atom_site_fract_z
Si Si1 0.656129 0.548659 0.436722
Si Si2 0.407288 0.826865 0.250000
Si Si3 0.849239 0.750000 0.500000
Si Si4 0.792516 0.956064 0.250000
Si Si5 0.910177 0.117564 0.616642
Si Si6 0.498069 0.398677 0.750000
O O1 0.500000 0.500000 0.500000
O O2 0.711732 0.659927 0.468586
O O3 0.837118 0.472165 0.444890
O O4 0.599817 0.555480 0.336115
O O5 0.581643 0.904919 0.250000
O O6 0.273143 0.839696 0.167568
O O7 0.517569 0.720847 0.250000
O O8 0.995933 0.786229 0.427609
O O9 0.915535 0.931635 0.168036
O O10 0.728033 0.073676 0.250000
#
# Coordination Sequence:
#
# PCOD8235024 Si02
#       6
#     8   4   4   4   8   4
#     4  12  28  49  77 115 156 204 259 323 392 459
#     4  11  25  45  75 109 147 201 255 316 378 466
#     4  12  28  44  74 110 156 202 254 318 392 466
#     4  11  22  49  72 106 142 192 252 317 369 457
#     4  11  26  47  72 107 150 195 258 314 384 455
#     4  12  25  44  81 103 149 203 253 305 395 445
#
# _framework density 22.335432999999998
#
# number of rings (size 3 to 8) (size 9 to 14) (size 15 to 20)
#    0.000    0.500    2.500    4.500   10.500    1.000 
#    0.000    0.000    0.000    0.000    0.000    0.000 
#    0.000    0.000    0.000    0.000    0.000    0.000 
#
# Total GULP energy -396652.829433 kJ/mol
# GULP energy per Si atom -12395.400920 kJ/mol
# Density = 2.228460 g / cm^3
# Si number density = 22.335433 Si / 1000 Ang^3
#
#
#
# Elastic Constant Matrix: (Units=GPa)
#
#
# Indices 1 2 3 4 5 6 
#
# 1 147.3178 57.5708 64.2306 0.0000 0.0000 0.0000
# 2 57.5708 143.2678 51.0672 0.0000 0.0000 0.0000
# 3 64.2306 51.0672 126.2305 0.0000 0.0000 0.0000
# 4 0.0000 0.0000 0.0000 6.9208 0.0000 0.0000
# 5 0.0000 0.0000 0.0000 0.0000 13.7052 0.0000
# 6 0.0000 0.0000 0.0000 0.0000 0.0000 54.3310
#
#
#
# Elastic Compliance Matrix: (Units=1/GPa)
#
#
# Indices 1 2 3 4 5 6 
#
# 1 0.009390 -0.002419 -0.003799 0.000000 0.000000 0.000000
# 2 -0.002419 0.008779 -0.002321 0.000000 0.000000 0.000000
# 3 -0.003799 -0.002321 0.010794 0.000000 0.000000 0.000000
# 4 0.000000 0.000000 0.000000 0.144492 0.000000 0.000000
# 5 0.000000 0.000000 0.000000 0.000000 0.072965 0.000000
# 6 0.000000 0.000000 0.000000 0.000000 0.000000 0.018406
#
#
# Mechanical properties :
#
#
# Convention : Reuss Voigt Hill
#
# Bulk Modulus (GPa) = 84.13936 84.72813 84.43375
# Shear Modulus (GPa) = 17.49070 31.25457 24.37263
#
# Velocity S-wave (km/s) = 2.80141 3.74482 3.30693
# Velocity P-wave (km/s) = 6.94381 7.53093 7.24332
#
# Compressibility (1/GPa) = 0.01188504
#
# Stress axis : x y z
#
# Youngs Moduli (GPa) = 106.49797 113.90532 92.64299
#
# Poissons Ratio (x) = 0.27553 0.35198
# Poissons Ratio (y) = 0.25762 0.21501
# Poissons Ratio (z) = 0.40462 0.26435
#
# Static dielectric constant tensor:
#      x y z
#    x 4.180800 0.000000 0.000000 
#    y 0.000000 4.259830 0.000000 
#    z 0.000000 0.000000 4.616080 
# 
# 
# High freq. dielectric constant tensor:
#      x y z
#    x 1.894580 0.000000 0.000000 
#    y 0.000000 1.898960 0.000000 
#    z 0.000000 0.000000 1.886360 
# 
# From -- ./inp_files/19923.got.cif
#   From: 2010.03.12/outbox.cif.g09.slc.cpg/sg57_10_cif.got.tgz:19923.got - 2010.04.16 15:48:40.
