data_PCOD8235330
_publ_section_title
;
Structure prediction by ZEFSAII (Michael W. Deem and Ramdas Pophale) SiO2 
 PCOD8235330
Probable space group: P N N M
;
_chemical_formula_sum "Si O2"
_cell_formula_units_Z 64
_cell_length_a 18.404760
_cell_length_b 26.673218
_cell_length_c 8.778759
_cell_angle_alpha 90.000000
_cell_angle_beta 90.000000
_cell_angle_gamma 90.000000
_cell_volume 4309.617238
_symmetry_space_group_name_H-M "P N N M"
_symmetry_group_IT_number 58
_symmetry_cell_setting 'orthorhombic'
loop_
_space_group_symop_operation_xyz
x,y,z
-x,-y,z
1/2+x,1/2-y,1/2-z
1/2-x,1/2+y,1/2-z
-x,-y,-z
x,y,-z
1/2-x,1/2+y,1/2+z
1/2+x,1/2-y,1/2+z
loop_
_atom_site_type_symbol
_atom_site_label
_atom_site_fract_x
_atom_site_fract_y
_atom_site_fract_z
Si Si1 0.208970 0.299945 0.176438
Si Si2 0.335631 0.350690 0.677874
Si Si3 0.785372 0.290039 0.173792
Si Si4 0.580986 0.449804 0.818606
Si Si5 0.918336 0.750565 0.678934
Si Si6 0.844265 0.851492 0.323958
Si Si7 0.070215 0.755010 0.174181
Si Si8 0.924959 0.052682 0.180019
O O1 0.257077 0.345818 0.241776
O O2 0.253314 0.249406 0.208183
O O3 0.129241 0.295040 0.252044
O O4 0.197326 0.308949 0.000000
O O5 0.321459 0.346868 0.500000
O O6 0.391014 0.306465 0.727501
O O7 0.369084 0.403836 0.725416
O O8 0.742915 0.342684 0.202141
O O9 0.872590 0.291546 0.194761
O O10 0.768053 0.271721 0.000000
O O11 0.630829 0.404358 0.753039
O O12 0.609023 0.499941 0.734610
O O13 0.498767 0.437547 0.771733
O O14 0.586195 0.457063 0.000000
O O15 0.909149 0.748367 0.500000
O O16 0.889183 0.804124 0.743947
O O17 0.001968 0.743151 0.721242
O O18 0.864315 0.855099 0.500000
O O19 0.043979 0.759474 0.000000
O O20 0.941108 0.051776 0.000000
#
# Coordination Sequence:
#
# PCOD8235330 Si02
#       8
#     8   8   8   8   8   8   8   8
#     4  10  18  27  41  60  80 102 134 171 202 237
#     4   9  18  31  44  57  79 111 140 168 205 246
#     4   8  15  29  43  56  80 109 134 163 202 243
#     4  10  18  28  42  60  82 106 138 176 206 233
#     4  10  18  28  41  57  82 111 137 164 198 240
#     4   8  15  27  42  57  75 107 141 165 196 236
#     4   9  16  26  41  60  80 103 134 168 198 232
#     4  10  19  30  42  57  80 109 139 169 206 245
#
# _framework density 14.850505999999999
#
# number of rings (size 3 to 8) (size 9 to 14) (size 15 to 20)
#    0.000    2.750    0.000    5.250    0.000    3.000 
#    0.000    5.625    0.000    0.000    0.000    0.000 
#    0.000    1.000    0.000   11.500    0.000    2.875 
#
# Total GULP energy -793075.767382 kJ/mol
# GULP energy per Si atom -12391.808865 kJ/mol
# Density = 1.481671 g / cm^3
# Si number density = 14.850506 Si / 1000 Ang^3
#
#
#
# Elastic Constant Matrix: (Units=GPa)
#
#
# Indices 1 2 3 4 5 6 
#
# 1 105.2185 56.8512 30.7758 0.0000 0.0000 0.0000
# 2 56.8512 89.4120 21.8707 0.0000 0.0000 0.0000
# 3 30.7758 21.8707 50.0142 0.0000 0.0000 0.0000
# 4 0.0000 0.0000 0.0000 14.4439 0.0000 0.0000
# 5 0.0000 0.0000 0.0000 0.0000 22.4311 0.0000
# 6 0.0000 0.0000 0.0000 0.0000 0.0000 29.2157
#
#
#
# Elastic Compliance Matrix: (Units=1/GPa)
#
#
# Indices 1 2 3 4 5 6 
#
# 1 0.015949 -0.008668 -0.006024 0.000000 0.000000 0.000000
# 2 -0.008668 0.017234 -0.002203 0.000000 0.000000 0.000000
# 3 -0.006024 -0.002203 0.024664 0.000000 0.000000 0.000000
# 4 0.000000 0.000000 0.000000 0.069234 0.000000 0.000000
# 5 0.000000 0.000000 0.000000 0.000000 0.044581 0.000000
# 6 0.000000 0.000000 0.000000 0.000000 0.000000 0.034228
#
#
# Mechanical properties :
#
#
# Convention : Reuss Voigt Hill
#
# Bulk Modulus (GPa) = 41.56440 51.51556 46.53998
# Shear Modulus (GPa) = 20.18580 22.22793 21.20687
#
# Velocity S-wave (km/s) = 3.69082 3.87302 3.78302
# Velocity P-wave (km/s) = 6.79796 7.40035 7.10554
#
# Compressibility (1/GPa) = 0.02405905
#
# Stress axis : x y z
#
# Youngs Moduli (GPa) = 62.69891 58.02439 40.54432
#
# Poissons Ratio (x) = 0.50293 0.24424
# Poissons Ratio (y) = 0.54345 0.08931
# Poissons Ratio (z) = 0.37770 0.12782
#
# Static dielectric constant tensor:
#      x y z
#    x 2.947490 0.000000 0.000000 
#    y 0.000000 2.899070 0.000000 
#    z 0.000000 0.000000 2.785060 
# 
# 
# High freq. dielectric constant tensor:
#      x y z
#    x 1.558160 0.000000 0.000000 
#    y 0.000000 1.535040 0.000000 
#    z 0.000000 0.000000 1.567470 
# 
# From -- ./inp_files/8546.got.cif
#   From: 2010.06.25/outbox.cif.g09.slc.cpg/sg58_5_cif.got.tgz:8546.got - 2010.06.26 21:38:00.
