data_PCOD8235764
_publ_section_title
;
Structure prediction by ZEFSAII (Michael W. Deem and Ramdas Pophale) SiO2 
 PCOD8235764
Probable space group: P N N M
;
_chemical_formula_sum "Si O2"
_cell_formula_units_Z 56
_cell_length_a 12.311993
_cell_length_b 16.940632
_cell_length_c 13.149074
_cell_angle_alpha 90.000000
_cell_angle_beta 90.000000
_cell_angle_gamma 90.000000
_cell_volume 2742.541057
_symmetry_space_group_name_H-M "P N N M"
_symmetry_group_IT_number 58
_symmetry_cell_setting 'orthorhombic'
loop_
_space_group_symop_operation_xyz
x,y,z
-x,-y,z
1/2+x,1/2-y,1/2-z
1/2-x,1/2+y,1/2-z
-x,-y,-z
x,y,-z
1/2-x,1/2+y,1/2+z
1/2+x,1/2-y,1/2+z
loop_
_atom_site_type_symbol
_atom_site_label
_atom_site_fract_x
_atom_site_fract_y
_atom_site_fract_z
Si Si1 0.774175 0.540935 0.385240
Si Si2 0.040470 0.166464 0.300662
Si Si3 0.727995 0.453978 0.191215
Si Si4 0.880480 0.667763 0.743360
Si Si5 0.309519 0.369876 0.116266
Si Si6 0.455757 0.086000 0.383569
Si Si7 0.534820 0.585463 0.612742
O O1 0.805202 0.512972 0.500000
O O2 0.755564 0.464878 0.311969
O O3 0.866755 0.598168 0.339904
O O4 0.664388 0.592387 0.388039
O O5 0.125025 0.099636 0.333084
O O6 0.094704 0.251603 0.316271
O O7 0.932634 0.158503 0.368015
O O8 0.011894 0.154915 0.181809
O O9 0.703969 0.538471 0.142382
O O10 0.827986 0.411006 0.137105
O O11 0.772682 0.678843 0.812149
O O12 0.983471 0.649084 0.813827
O O13 0.276486 0.355365 0.000000
O O14 0.479794 0.107716 0.500000
O O15 0.500000 0.000000 0.355678
O O16 0.500000 0.500000 0.657945
O O17 0.485067 0.595074 0.500000
#
# Coordination Sequence:
#
# PCOD8235764 Si02
#       7
#     8   8   8   8   8   8   8
#     4  10  20  38  62  88 121 164 207 250 306 368
#     4  12  24  39  63  95 132 161 203 262 329 380
#     4  11  22  39  68  97 124 161 213 270 314 376
#     4  11  25  41  63  88 132 170 210 262 317 377
#     4  11  23  43  66  93 127 168 213 265 323 379
#     4  11  22  41  67  92 121 166 219 261 307 378
#     4  10  18  34  61  90 116 151 198 249 305 371
#
# _framework density 20.419018999999999
#
# number of rings (size 3 to 8) (size 9 to 14) (size 15 to 20)
#    0.000    1.143    7.143    1.286    2.000    3.429 
#    0.000    2.857    0.000    0.000    0.000    0.000 
#    0.000    0.000    0.000    0.000    0.000    0.000 
#
# Total GULP energy -694506.097515 kJ/mol
# GULP energy per Si atom -12401.894598 kJ/mol
# Density = 2.037254 g / cm^3
# Si number density = 20.419019 Si / 1000 Ang^3
#
#
#
# Elastic Constant Matrix: (Units=GPa)
#
#
# Indices 1 2 3 4 5 6 
#
# 1 111.8721 27.9419 11.9694 0.0000 0.0000 0.0000
# 2 27.9419 53.3487 6.8147 0.0000 0.0000 0.0000
# 3 11.9694 6.8147 80.3831 0.0000 0.0000 0.0000
# 4 0.0000 0.0000 0.0000 14.3703 0.0000 0.0000
# 5 0.0000 0.0000 0.0000 0.0000 24.9936 0.0000
# 6 0.0000 0.0000 0.0000 0.0000 0.0000 30.1535
#
#
#
# Elastic Compliance Matrix: (Units=1/GPa)
#
#
# Indices 1 2 3 4 5 6 
#
# 1 0.010379 -0.005296 -0.001096 0.000000 0.000000 0.000000
# 2 -0.005296 0.021652 -0.001047 0.000000 0.000000 0.000000
# 3 -0.001096 -0.001047 0.012692 0.000000 0.000000 0.000000
# 4 0.000000 0.000000 0.000000 0.069588 0.000000 0.000000
# 5 0.000000 0.000000 0.000000 0.000000 0.040010 0.000000
# 6 0.000000 0.000000 0.000000 0.000000 0.000000 0.033164
#
#
# Mechanical properties :
#
#
# Convention : Reuss Voigt Hill
#
# Bulk Modulus (GPa) = 33.50699 37.67289 35.58994
# Shear Modulus (GPa) = 23.55020 27.16200 25.35610
#
# Velocity S-wave (km/s) = 3.39978 3.65119 3.52772
# Velocity P-wave (km/s) = 5.64417 6.02203 5.83616
#
# Compressibility (1/GPa) = 0.02984451
#
# Stress axis : x y z
#
# Youngs Moduli (GPa) = 96.34991 46.18484 78.78693
#
# Poissons Ratio (x) = 0.24459 0.08639
# Poissons Ratio (y) = 0.51026 0.08249
# Poissons Ratio (z) = 0.10565 0.04836
#
# Static dielectric constant tensor:
#      x y z
#    x 3.858290 0.000000 0.000000 
#    y 0.000000 3.346110 0.000000 
#    z 0.000000 0.000000 3.905090 
# 
# 
# High freq. dielectric constant tensor:
#      x y z
#    x 1.806530 0.000000 0.000000 
#    y 0.000000 1.762690 0.000000 
#    z 0.000000 0.000000 1.799790 
# 
# From -- ./inp_files/21287.got.cif
#   From: 2010.06.25/outbox.cif.g09.slc.cpg/sg58_11_cif.got.tgz:21287.got - 2010.06.26 21:38:00.
