data_PCOD8235244
_publ_section_title
;
Structure prediction by ZEFSAII (Michael W. Deem and Ramdas Pophale) SiO2 
 PCOD8235244
Probable space group: P N N M
;
_chemical_formula_sum "Si O2"
_cell_formula_units_Z 64
_cell_length_a 27.866542
_cell_length_b 14.723677
_cell_length_c 9.046553
_cell_angle_alpha 90.000000
_cell_angle_beta 90.000000
_cell_angle_gamma 90.000000
_cell_volume 3711.782273
_symmetry_space_group_name_H-M "P N N M"
_symmetry_group_IT_number 58
_symmetry_cell_setting 'orthorhombic'
loop_
_space_group_symop_operation_xyz
x,y,z
-x,-y,z
1/2+x,1/2-y,1/2-z
1/2-x,1/2+y,1/2-z
-x,-y,-z
x,y,-z
1/2-x,1/2+y,1/2+z
1/2+x,1/2-y,1/2+z
loop_
_atom_site_type_symbol
_atom_site_label
_atom_site_fract_x
_atom_site_fract_y
_atom_site_fract_z
Si Si1 0.054931 0.903315 0.175005
Si Si2 0.718047 0.404221 0.825821
Si Si3 0.139688 0.780911 0.174630
Si Si4 0.669431 0.106732 0.671520
Si Si5 0.324045 0.093785 0.324817
Si Si6 0.866515 0.778217 0.324272
Si Si7 0.946913 0.891939 0.175066
Si Si8 0.281481 0.390871 0.830482
O O1 0.093786 0.833096 0.244013
O O2 0.001807 0.874189 0.225417
O O3 0.067426 0.005898 0.225182
O O4 0.056578 0.900426 0.000000
O O5 0.770979 0.384107 0.758896
O O6 0.678408 0.336032 0.759089
O O7 0.703493 0.507063 0.785908
O O8 0.719359 0.390779 0.000000
O O9 0.139345 0.674235 0.221485
O O10 0.189410 0.823033 0.227925
O O11 0.138620 0.789859 0.000000
O O12 0.655898 0.119191 0.500000
O O13 0.637953 0.175223 0.768345
O O14 0.725465 0.125423 0.698173
O O15 0.656926 0.004508 0.728846
O O16 0.317788 0.086547 0.500000
O O17 0.868533 0.779873 0.500000
O O18 0.915313 0.819684 0.261695
O O19 0.940345 0.879097 0.000000
O O20 0.294698 0.371662 0.000000
#
# Coordination Sequence:
#
# PCOD8235244 Si02
#       8
#     8   8   8   8   8   8   8   8
#     4   8  16  30  49  71  93 119 150 184 223 273
#     4   8  15  27  41  61  92 122 143 172 219 267
#     4  10  17  27  47  71  90 112 149 191 226 260
#     4   9  18  32  46  61  87 124 156 179 214 265
#     4   8  15  28  45  63  86 117 149 182 220 259
#     4  11  20  29  46  71  93 116 152 193 229 264
#     4   9  17  32  49  66  94 125 148 177 226 281
#     4   9  17  29  44  64  92 123 150 174 211 269
#
# _framework density 17.24239
#
# number of rings (size 3 to 8) (size 9 to 14) (size 15 to 20)
#    0.000    3.000    0.000    4.125    0.000    1.500 
#    0.000    3.125    0.000    3.000    0.000    5.250 
#    0.000    0.000    0.000    0.000    0.000    0.000 
#
# Total GULP energy -793245.764477 kJ/mol
# GULP energy per Si atom -12394.465070 kJ/mol
# Density = 1.720315 g / cm^3
# Si number density = 17.242390 Si / 1000 Ang^3
#
#
#
# Elastic Constant Matrix: (Units=GPa)
#
#
# Indices 1 2 3 4 5 6 
#
# 1 85.3962 74.7738 26.5755 0.0000 0.0000 0.0000
# 2 74.7738 140.5735 32.9175 0.0000 0.0000 0.0000
# 3 26.5755 32.9175 29.5543 0.0000 0.0000 0.0000
# 4 0.0000 0.0000 0.0000 16.0193 0.0000 0.0000
# 5 0.0000 0.0000 0.0000 0.0000 20.3454 0.0000
# 6 0.0000 0.0000 0.0000 0.0000 0.0000 28.6247
#
#
#
# Elastic Compliance Matrix: (Units=1/GPa)
#
#
# Indices 1 2 3 4 5 6 
#
# 1 0.023889 -0.010386 -0.009914 0.000000 0.000000 0.000000
# 2 -0.010386 0.014139 -0.006409 0.000000 0.000000 0.000000
# 3 -0.009914 -0.006409 0.049889 0.000000 0.000000 0.000000
# 4 0.000000 0.000000 0.000000 0.062425 0.000000 0.000000
# 5 0.000000 0.000000 0.000000 0.000000 0.049151 0.000000
# 6 0.000000 0.000000 0.000000 0.000000 0.000000 0.034935
#
#
# Mechanical properties :
#
#
# Convention : Reuss Voigt Hill
#
# Bulk Modulus (GPa) = 28.98551 58.22863 43.60707
# Shear Modulus (GPa) = 16.70320 21.08169 18.89244
#
# Velocity S-wave (km/s) = 3.11582 3.50046 3.31372
# Velocity P-wave (km/s) = 5.45816 7.08389 6.32349
#
# Compressibility (1/GPa) = 0.03450000
#
# Stress axis : x y z
#
# Youngs Moduli (GPa) = 41.86017 70.72756 20.04460
#
# Poissons Ratio (x) = 0.73455 0.19872
# Poissons Ratio (y) = 0.43474 0.12846
# Poissons Ratio (z) = 0.41499 0.45329
#
# Static dielectric constant tensor:
#      x y z
#    x 3.288460 0.000000 0.000000 
#    y 0.000000 3.458480 0.000000 
#    z 0.000000 0.000000 2.797320 
# 
# 
# High freq. dielectric constant tensor:
#      x y z
#    x 1.647590 0.000000 0.000000 
#    y 0.000000 1.671750 0.000000 
#    z 0.000000 0.000000 1.627360 
# 
# From -- ./inp_files/11147.got.cif
#   From: 2010.06.25/outbox.cif.g09.slc.cpg/sg58_6_cif.got.tgz:11147.got - 2010.06.26 21:38:00.
