data_PCOD8235405
_publ_section_title
;
Structure prediction by ZEFSAII (Michael W. Deem and Ramdas Pophale) SiO2 
 PCOD8235405
Probable space group: P N N M
;
_chemical_formula_sum "Si O2"
_cell_formula_units_Z 64
_cell_length_a 26.357571
_cell_length_b 11.293675
_cell_length_c 13.140020
_cell_angle_alpha 90.000000
_cell_angle_beta 90.000000
_cell_angle_gamma 90.000000
_cell_volume 3911.440220
_symmetry_space_group_name_H-M "P N N M"
_symmetry_group_IT_number 58
_symmetry_cell_setting 'orthorhombic'
loop_
_space_group_symop_operation_xyz
x,y,z
-x,-y,z
1/2+x,1/2-y,1/2-z
1/2-x,1/2+y,1/2-z
-x,-y,-z
x,y,-z
1/2-x,1/2+y,1/2+z
1/2+x,1/2-y,1/2+z
loop_
_atom_site_type_symbol
_atom_site_label
_atom_site_fract_x
_atom_site_fract_y
_atom_site_fract_z
Si Si1 0.858252 0.342541 0.884582
Si Si2 0.787656 0.190819 0.385114
Si Si3 0.943823 0.503789 0.121150
Si Si4 0.610316 0.238522 0.384225
Si Si5 0.743754 0.941704 0.385546
Si Si6 0.705645 0.359908 0.301538
Si Si7 0.557225 0.477878 0.616624
Si Si8 0.651648 0.596260 0.300470
O O1 0.911719 0.389611 0.838394
O O2 0.810543 0.410693 0.835219
O O3 0.849461 0.202809 0.880282
O O4 0.859303 0.384933 0.000000
O O5 0.809436 0.206725 0.500000
O O6 0.756709 0.309848 0.354858
O O7 0.833869 0.156016 0.308751
O O8 0.748054 0.083021 0.381323
O O9 0.914380 0.619921 0.160174
O O10 0.000000 0.500000 0.170104
O O11 0.949160 0.507919 0.000000
O O12 0.629550 0.222360 0.500000
O O13 0.659152 0.271329 0.317309
O O14 0.567056 0.338127 0.378690
O O15 0.749940 0.892898 0.500000
O O16 0.786141 0.873422 0.319507
O O17 0.690890 0.493967 0.339374
O O18 0.500000 0.500000 0.653022
O O19 0.565488 0.524065 0.500000
O O20 0.594821 0.542592 0.696719
#
# Coordination Sequence:
#
# PCOD8235405 Si02
#       8
#     8   8   8   8   8   8   8   8
#     4  10  18  29  45  67  98 127 155 193 236 281
#     4  10  19  32  50  68  94 130 164 202 237 279
#     4   9  18  29  44  67  95 127 160 195 235 286
#     4   9  17  29  44  66  94 126 164 196 231 288
#     4   9  18  31  47  69  94 125 158 193 238 278
#     4  10  18  31  48  67  94 127 164 193 233 288
#     4   9  18  30  47  69  98 132 159 196 250 298
#     4  10  20  31  46  72  98 128 162 200 241 292
#
# _framework density 16.362259000000002
#
# number of rings (size 3 to 8) (size 9 to 14) (size 15 to 20)
#    0.000    2.500    1.250    1.500    1.750    3.500 
#    0.000    0.000    0.000    0.375    0.000    0.000 
#    0.000    1.000    0.000    0.000    0.000    0.000 
#
# Total GULP energy -792935.108835 kJ/mol
# GULP energy per Si atom -12389.611076 kJ/mol
# Density = 1.632502 g / cm^3
# Si number density = 16.362259 Si / 1000 Ang^3
#
#
#
# Elastic Constant Matrix: (Units=GPa)
#
#
# Indices 1 2 3 4 5 6 
#
# 1 112.9200 51.6686 41.5262 0.0000 0.0000 0.0000
# 2 51.6686 91.7461 30.6726 0.0000 0.0000 0.0000
# 3 41.5262 30.6726 48.5827 0.0000 0.0000 0.0000
# 4 0.0000 0.0000 0.0000 17.6041 0.0000 0.0000
# 5 0.0000 0.0000 0.0000 0.0000 19.9615 0.0000
# 6 0.0000 0.0000 0.0000 0.0000 0.0000 26.9821
#
#
#
# Elastic Compliance Matrix: (Units=1/GPa)
#
#
# Indices 1 2 3 4 5 6 
#
# 1 0.014604 -0.005135 -0.009240 0.000000 0.000000 0.000000
# 2 -0.005135 0.015621 -0.005473 0.000000 0.000000 0.000000
# 3 -0.009240 -0.005473 0.031937 0.000000 0.000000 0.000000
# 4 0.000000 0.000000 0.000000 0.056805 0.000000 0.000000
# 5 0.000000 0.000000 0.000000 0.000000 0.050096 0.000000
# 6 0.000000 0.000000 0.000000 0.000000 0.000000 0.037062
#
#
# Mechanical properties :
#
#
# Convention : Reuss Voigt Hill
#
# Bulk Modulus (GPa) = 44.51439 55.66484 50.08961
# Shear Modulus (GPa) = 19.73855 21.53498 20.63677
#
# Velocity S-wave (km/s) = 3.47702 3.63180 3.55525
# Velocity P-wave (km/s) = 6.58666 7.18893 6.89438
#
# Compressibility (1/GPa) = 0.02246464
#
# Stress axis : x y z
#
# Youngs Moduli (GPa) = 68.47616 64.01474 31.31123
#
# Poissons Ratio (x) = 0.32872 0.28933
# Poissons Ratio (y) = 0.35163 0.17138
# Poissons Ratio (z) = 0.63275 0.35038
#
# Static dielectric constant tensor:
#      x y z
#    x 3.205130 0.000000 0.000000 
#    y 0.000000 3.214870 0.000000 
#    z 0.000000 0.000000 2.852940 
# 
# 
# High freq. dielectric constant tensor:
#      x y z
#    x 1.625580 0.000000 0.000000 
#    y 0.000000 1.641110 0.000000 
#    z 0.000000 0.000000 1.580450 
# 
# From -- ./inp_files/14935.got.cif
#   From: 2010.06.25/outbox.cif.g09.slc.cpg/sg58_8_cif.got.tgz:14935.got - 2010.06.26 21:38:00.
