data_PCOD8235886
_publ_section_title
;
Structure prediction by ZEFSAII (Michael W. Deem and Ramdas Pophale) SiO2 
 PCOD8235886
Probable space group: P N N M
;
_chemical_formula_sum "Si O2"
_cell_formula_units_Z 48
_cell_length_a 13.808197
_cell_length_b 14.140826
_cell_length_c 13.751191
_cell_angle_alpha 90.000000
_cell_angle_beta 90.000000
_cell_angle_gamma 90.000000
_cell_volume 2685.048082
_symmetry_space_group_name_H-M "P N N M"
_symmetry_group_IT_number 58
_symmetry_cell_setting 'orthorhombic'
loop_
_space_group_symop_operation_xyz
x,y,z
-x,-y,z
1/2+x,1/2-y,1/2-z
1/2-x,1/2+y,1/2-z
-x,-y,-z
x,y,-z
1/2-x,1/2+y,1/2+z
1/2+x,1/2-y,1/2+z
loop_
_atom_site_type_symbol
_atom_site_label
_atom_site_fract_x
_atom_site_fract_y
_atom_site_fract_z
Si Si1 0.478206 0.780174 0.106018
Si Si2 0.520622 0.104437 0.290720
Si Si3 0.834730 0.361503 0.111938
Si Si4 0.069540 0.921223 0.389319
Si Si5 0.729838 0.051049 0.708935
Si Si6 0.740910 0.168670 0.891865
O O1 0.516567 0.838365 0.197033
O O2 0.511089 0.674174 0.122220
O O3 0.363207 0.783190 0.106282
O O4 0.516525 0.817358 0.000000
O O5 0.451709 0.131596 0.380938
O O6 0.633912 0.112092 0.322544
O O7 0.500000 0.000000 0.254466
O O8 0.785104 0.439935 0.183256
O O9 0.808239 0.255224 0.145080
O O10 0.803785 0.380879 0.000000
O O11 0.088458 0.950547 0.500000
O O12 0.174907 0.910503 0.342554
O O13 0.000000 0.000000 0.339302
O O14 0.745323 0.075212 0.823639
O O15 0.771944 0.135092 0.000000
#
# Coordination Sequence:
#
# PCOD8235886 Si02
#       6
#     8   8   8   8   8   8
#     4   9  17  30  47  68  94 121 154 195 237 286
#     4   9  19  31  45  69  94 122 157 194 237 281
#     4  10  19  32  50  71  97 128 161 197 238 286
#     4  10  19  30  47  72  98 123 154 196 243 283
#     4  10  19  31  50  72  97 126 161 201 240 282
#     4   9  18  33  52  72  96 128 162 195 236 288
#
# _framework density 17.876774999999999
#
# number of rings (size 3 to 8) (size 9 to 14) (size 15 to 20)
#    0.000    2.500    0.000    2.500    0.000    6.667 
#    0.000    2.500    0.000    2.500    0.000    4.667 
#    0.000    0.000    0.000    0.000    0.000    0.000 
#
# Total GULP energy -594628.578620 kJ/mol
# GULP energy per Si atom -12388.095388 kJ/mol
# Density = 1.783609 g / cm^3
# Si number density = 17.876775 Si / 1000 Ang^3
#
#
#
# Elastic Constant Matrix: (Units=GPa)
#
#
# Indices 1 2 3 4 5 6 
#
# 1 67.5952 29.0301 39.6953 0.0000 0.0000 0.0000
# 2 29.0301 68.7360 54.1155 0.0000 0.0000 0.0000
# 3 39.6953 54.1155 87.5391 0.0000 0.0000 0.0000
# 4 0.0000 0.0000 0.0000 29.5409 0.0000 0.0000
# 5 0.0000 0.0000 0.0000 0.0000 23.3042 0.0000
# 6 0.0000 0.0000 0.0000 0.0000 0.0000 17.1868
#
#
#
# Elastic Compliance Matrix: (Units=1/GPa)
#
#
# Indices 1 2 3 4 5 6 
#
# 1 0.020398 -0.002596 -0.007645 0.000000 0.000000 0.000000
# 2 -0.002596 0.028673 -0.016548 0.000000 0.000000 0.000000
# 3 -0.007645 -0.016548 0.025120 0.000000 0.000000 0.000000
# 4 0.000000 0.000000 0.000000 0.033851 0.000000 0.000000
# 5 0.000000 0.000000 0.000000 0.000000 0.042911 0.000000
# 6 0.000000 0.000000 0.000000 0.000000 0.000000 0.058184
#
#
# Mechanical properties :
#
#
# Convention : Reuss Voigt Hill
#
# Bulk Modulus (GPa) = 48.51305 52.17245 50.34275
# Shear Modulus (GPa) = 18.54691 20.74169 19.64430
#
# Velocity S-wave (km/s) = 3.22450 3.40995 3.31852
# Velocity P-wave (km/s) = 6.40777 6.68966 6.55023
#
# Compressibility (1/GPa) = 0.02061301
#
# Stress axis : x y z
#
# Youngs Moduli (GPa) = 49.02342 34.87584 39.80932
#
# Poissons Ratio (x) = 0.09055 0.30433
# Poissons Ratio (y) = 0.12729 0.65876
# Poissons Ratio (z) = 0.37477 0.57712
#
# Static dielectric constant tensor:
#      x y z
#    x 3.558590 0.000000 0.000000 
#    y 0.000000 3.197500 0.000000 
#    z 0.000000 0.000000 3.463300 
# 
# 
# High freq. dielectric constant tensor:
#      x y z
#    x 1.696360 0.000000 0.000000 
#    y 0.000000 1.678850 0.000000 
#    z 0.000000 0.000000 1.681390 
# 
# From -- ./inp_files/14394.got.cif
#   From: 2010.06.25/outbox.cif.g09.slc.cpg/sg58_8_cif.got.tgz:14394.got - 2010.06.26 21:38:00.
