data_PCOD8235986
_publ_section_title
;
Structure prediction by ZEFSAII (Michael W. Deem and Ramdas Pophale) SiO2 
 PCOD8235986
Probable space group: P N N M
;
_chemical_formula_sum "Si O2"
_cell_formula_units_Z 64
_cell_length_a 18.342104
_cell_length_b 20.565865
_cell_length_c 9.204261
_cell_angle_alpha 90.000000
_cell_angle_beta 90.000000
_cell_angle_gamma 90.000000
_cell_volume 3472.042699
_symmetry_space_group_name_H-M "P N N M"
_symmetry_group_IT_number 58
_symmetry_cell_setting 'orthorhombic'
loop_
_space_group_symop_operation_xyz
x,y,z
-x,-y,z
1/2+x,1/2-y,1/2-z
1/2-x,1/2+y,1/2-z
-x,-y,-z
x,y,-z
1/2-x,1/2+y,1/2+z
1/2+x,1/2-y,1/2+z
loop_
_atom_site_type_symbol
_atom_site_label
_atom_site_fract_x
_atom_site_fract_y
_atom_site_fract_z
Si Si1 0.177756 0.869195 0.672003
Si Si2 0.092042 0.242785 0.333079
Si Si3 0.673032 0.487815 0.839534
Si Si4 0.327778 0.875769 0.832077
Si Si5 0.845980 0.498726 0.163298
Si Si6 0.179383 0.135399 0.832943
Si Si7 0.149367 0.626799 0.331375
Si Si8 0.428094 0.255989 0.827570
O O1 0.194185 0.863375 0.500000
O O2 0.252305 0.855768 0.756620
O O3 0.119047 0.817038 0.727727
O O4 0.144757 0.940754 0.708577
O O5 0.095580 0.220321 0.500000
O O6 0.116048 0.317038 0.316339
O O7 0.145166 0.197459 0.242786
O O8 0.010298 0.236516 0.269999
O O9 0.759648 0.492245 0.840788
O O10 0.646234 0.431720 0.731003
O O11 0.643647 0.470189 0.000000
O O12 0.366233 0.937064 0.754390
O O13 0.312416 0.893216 0.000000
O O14 0.879196 0.435436 0.241995
O O15 0.877739 0.504038 0.000000
O O16 0.265339 0.139292 0.806770
O O17 0.158076 0.137173 0.000000
O O18 0.132351 0.614094 0.500000
O O19 0.106903 0.689236 0.268743
O O20 0.427152 0.253618 0.000000
#
# Coordination Sequence:
#
# PCOD8235986 Si02
#       8
#     8   8   8   8   8   8   8   8
#     4   9  17  32  55  78  98 125 163 205 246 288
#     4  10  21  35  50  70  99 134 168 202 241 290
#     4   8  15  28  48  74  99 122 154 198 243 288
#     4  10  19  31  50  76 102 128 161 201 246 294
#     4   9  17  30  50  75 101 128 161 202 245 291
#     4  10  19  31  51  76  99 126 160 201 248 292
#     4   9  17  31  53  77  99 126 163 206 248 290
#     4   9  18  34  53  72  97 131 170 206 241 288
#
# _framework density 18.432953000000001
#
# number of rings (size 3 to 8) (size 9 to 14) (size 15 to 20)
#    0.000    2.750    0.000    2.625    0.000    5.500 
#    0.000    3.125    0.000    7.500    0.000    0.000 
#    0.000    0.000    0.000    0.000    0.000    0.000 
#
# Total GULP energy -793531.513276 kJ/mol
# GULP energy per Si atom -12398.929895 kJ/mol
# Density = 1.839100 g / cm^3
# Si number density = 18.432953 Si / 1000 Ang^3
#
#
#
# Elastic Constant Matrix: (Units=GPa)
#
#
# Indices 1 2 3 4 5 6 
#
# 1 35.7130 17.1876 25.7349 0.0000 0.0000 0.0000
# 2 17.1876 108.4834 49.8586 0.0000 0.0000 0.0000
# 3 25.7349 49.8586 88.8021 0.0000 0.0000 0.0000
# 4 0.0000 0.0000 0.0000 31.7505 0.0000 0.0000
# 5 0.0000 0.0000 0.0000 0.0000 14.9833 0.0000
# 6 0.0000 0.0000 0.0000 0.0000 0.0000 5.2319
#
#
#
# Elastic Compliance Matrix: (Units=1/GPa)
#
#
# Indices 1 2 3 4 5 6 
#
# 1 0.035509 -0.001208 -0.009612 0.000000 0.000000 0.000000
# 2 -0.001208 0.012465 -0.006648 0.000000 0.000000 0.000000
# 3 -0.009612 -0.006648 0.017779 0.000000 0.000000 0.000000
# 4 0.000000 0.000000 0.000000 0.031496 0.000000 0.000000
# 5 0.000000 0.000000 0.000000 0.000000 0.066741 0.000000
# 6 0.000000 0.000000 0.000000 0.000000 0.000000 0.191136
#
#
# Mechanical properties :
#
#
# Convention : Reuss Voigt Hill
#
# Bulk Modulus (GPa) = 32.45083 46.50676 39.47879
# Shear Modulus (GPa) = 12.48952 19.74094 16.11523
#
# Velocity S-wave (km/s) = 2.60583 3.27610 2.96000
# Velocity P-wave (km/s) = 5.16690 6.29249 5.75727
#
# Compressibility (1/GPa) = 0.03081586
#
# Stress axis : x y z
#
# Youngs Moduli (GPa) = 28.16186 80.22444 56.24472
#
# Poissons Ratio (x) = 0.09692 0.54063
# Poissons Ratio (y) = 0.03402 0.37394
# Poissons Ratio (z) = 0.27070 0.53337
#
# Static dielectric constant tensor:
#      x y z
#    x 3.102470 0.000000 0.000000 
#    y 0.000000 3.699240 0.000000 
#    z 0.000000 0.000000 3.402510 
# 
# 
# High freq. dielectric constant tensor:
#      x y z
#    x 1.677160 0.000000 0.000000 
#    y 0.000000 1.733480 0.000000 
#    z 0.000000 0.000000 1.704460 
# 
# From -- ./inp_files/8287.got.cif
#   From: 2010.06.25/outbox.cif.g09.slc.cpg/sg58_5_cif.got.tgz:8287.got - 2010.06.26 21:38:00.
