data_PCOD8235065
_publ_section_title
;
Structure prediction by ZEFSAII (Michael W. Deem and Ramdas Pophale) SiO2 
 PCOD8235065
Probable space group: P B C M
;
_chemical_formula_sum "Si O2"
_cell_formula_units_Z 28
_cell_length_a 5.369303
_cell_length_b 11.136623
_cell_length_c 19.886177
_cell_angle_alpha 90.000000
_cell_angle_beta 90.000000
_cell_angle_gamma 90.000000
_cell_volume 1189.111917
_symmetry_space_group_name_H-M "P B C M"
_symmetry_group_IT_number 57
_symmetry_cell_setting 'orthorhombic'
loop_
_space_group_symop_operation_xyz
x,y,z
-x,-y,1/2+z
x,1/2-y,-z
-x,1/2+y,1/2-z
-x,-y,-z
x,y,1/2-z
-x,1/2+y,z
x,1/2-y,1/2+z
loop_
_atom_site_type_symbol
_atom_site_label
_atom_site_fract_x
_atom_site_fract_y
_atom_site_fract_z
Si Si1 0.271683 0.250000 0.000000
Si Si2 0.861160 0.141028 0.172147
Si Si3 0.627812 0.931569 0.890237
Si Si4 0.812395 0.329280 0.060377
O O1 0.410508 0.185092 0.062699
O O2 0.090494 0.354213 0.031662
O O3 0.869402 0.174191 0.250000
O O4 0.616926 0.059423 0.156897
O O5 0.835716 0.265037 0.132017
O O6 0.115323 0.072910 0.152194
O O7 0.642503 0.053284 0.934218
O O8 0.677855 0.250000 0.000000
#
# Coordination Sequence:
#
# PCOD8235065 Si02
#       4
#     4   8   8   8
#     4   8  20  38  68 104 126 168 218 282 332 392
#     4  11  26  43  64  98 136 181 225 271 337 408
#     4  11  23  44  69  97 137 171 226 276 339 396
#     4   9  22  44  69 101 132 175 220 284 332 396
#
# _framework density 23.546987000000001
#
# number of rings (size 3 to 8) (size 9 to 14) (size 15 to 20)
#    0.857    1.143    0.000    1.714    2.000    8.000 
#    0.000    0.000    0.000    0.000    0.000    0.000 
#    0.000    0.000    0.000    0.000    0.000    0.000 
#
# Total GULP energy -346884.543022 kJ/mol
# GULP energy per Si atom -12388.733679 kJ/mol
# Density = 2.349339 g / cm^3
# Si number density = 23.546987 Si / 1000 Ang^3
#
#
#
# Elastic Constant Matrix: (Units=GPa)
#
#
# Indices 1 2 3 4 5 6 
#
# 1 176.3333 11.9364 59.1553 0.0000 0.0000 0.0000
# 2 11.9364 64.0734 38.5621 0.0000 0.0000 0.0000
# 3 59.1553 38.5621 174.2743 0.0000 0.0000 0.0000
# 4 0.0000 0.0000 0.0000 28.8468 0.0000 0.0000
# 5 0.0000 0.0000 0.0000 0.0000 172.6564 0.0000
# 6 0.0000 0.0000 0.0000 0.0000 0.0000 -16.3317
#
#
#
# Elastic Compliance Matrix: (Units=1/GPa)
#
#
# Indices 1 2 3 4 5 6 
#
# 1 0.006401 0.000133 -0.002202 0.000000 0.000000 0.000000
# 2 0.000133 0.018008 -0.004030 0.000000 0.000000 0.000000
# 3 -0.002202 -0.004030 0.007377 0.000000 0.000000 0.000000
# 4 0.000000 0.000000 0.000000 0.034666 0.000000 0.000000
# 5 0.000000 0.000000 0.000000 0.000000 0.005792 0.000000
# 6 0.000000 0.000000 0.000000 0.000000 0.000000 -0.061231
#
#
# Mechanical properties :
#
#
# Convention : Reuss Voigt Hill
#
# Bulk Modulus (GPa) = 51.05208 70.44317 60.74763
# Shear Modulus (GPa) = 168.12441 57.36945 112.74693
#
# Velocity S-wave (km/s) = 8.45899 4.94133 6.92717
# Velocity P-wave (km/s) = 10.82285 7.90801 9.47815
#
# Compressibility (1/GPa) = 0.01958784
#
# Stress axis : x y z
#
# Youngs Moduli (GPa) = 156.22985 55.53216 135.55263
#
# Poissons Ratio (x) = -0.00738 0.29850
# Poissons Ratio (y) = -0.02076 0.54623
# Poissons Ratio (z) = 0.34403 0.22378
#
# Static dielectric constant tensor:
#      x y z
#    x 4.725080 0.000000 0.000000 
#    y 0.000000 3.795100 0.000000 
#    z 0.000000 0.000000 4.019380 
# 
# 
# High freq. dielectric constant tensor:
#      x y z
#    x 1.981790 0.000000 0.000000 
#    y 0.000000 1.898670 0.000000 
#    z 0.000000 0.000000 1.927470 
# 
# From -- ./inp_files/23298.got.cif
#   From: 2010.03.12/outbox.cif.g09.slc.cpg/sg57_12_cif.got.tgz:23298.got - 2010.04.16 15:48:40.
