data_PCOD8235270
_publ_section_title
;
Structure prediction by ZEFSAII (Michael W. Deem and Ramdas Pophale) SiO2 
 PCOD8235270
Probable space group: P N N M
;
_chemical_formula_sum "Si O2"
_cell_formula_units_Z 64
_cell_length_a 22.090146
_cell_length_b 17.157934
_cell_length_c 8.792563
_cell_angle_alpha 90.000000
_cell_angle_beta 90.000000
_cell_angle_gamma 90.000000
_cell_volume 3332.568369
_symmetry_space_group_name_H-M "P N N M"
_symmetry_group_IT_number 58
_symmetry_cell_setting 'orthorhombic'
loop_
_space_group_symop_operation_xyz
x,y,z
-x,-y,z
1/2+x,1/2-y,1/2-z
1/2-x,1/2+y,1/2-z
-x,-y,-z
x,y,-z
1/2-x,1/2+y,1/2+z
1/2+x,1/2-y,1/2+z
loop_
_atom_site_type_symbol
_atom_site_label
_atom_site_fract_x
_atom_site_fract_y
_atom_site_fract_z
Si Si1 0.398511 0.775383 0.817430
Si Si2 0.340296 0.623722 0.169682
Si Si3 0.863216 0.198280 0.677546
Si Si4 0.827603 0.586412 0.819803
Si Si5 0.468589 0.191993 0.820472
Si Si6 0.706652 0.825503 0.330119
Si Si7 0.693979 0.540582 0.178877
Si Si8 0.620862 0.940041 0.821480
O O1 0.387277 0.686085 0.758033
O O2 0.347321 0.831457 0.750038
O O3 0.464252 0.800507 0.752132
O O4 0.394976 0.778687 0.000000
O O5 0.278073 0.670634 0.168075
O O6 0.331494 0.540005 0.254447
O O7 0.363086 0.604988 0.000000
O O8 0.852480 0.215168 0.500000
O O9 0.927993 0.233218 0.730262
O O10 0.810155 0.240238 0.770090
O O11 0.856473 0.106539 0.713145
O O12 0.760356 0.564179 0.757583
O O13 0.876535 0.521801 0.766438
O O14 0.828015 0.593068 0.000000
O O15 0.437315 0.111022 0.767106
O O16 0.473379 0.191785 0.000000
O O17 0.680456 0.839150 0.500000
O O18 0.680703 0.891063 0.217726
O O19 0.702897 0.526065 0.000000
O O20 0.618138 0.957223 0.000000
#
# Coordination Sequence:
#
# PCOD8235270 Si02
#       8
#     8   8   8   8   8   8   8   8
#     4  10  20  35  53  72 100 137 175 209 247 300
#     4   9  17  30  50  74 101 133 163 205 260 300
#     4   9  17  31  52  73  97 133 172 204 247 299
#     4  11  21  34  52  77 109 133 163 210 260 304
#     4   8  17  33  51  73 100 132 173 214 244 285
#     4  10  17  29  49  74 104 130 161 204 253 299
#     4   9  17  31  51  76 105 131 159 208 260 301
#     4  10  19  33  53  76 102 135 170 204 249 302
#
# _framework density 19.204405999999999
#
# number of rings (size 3 to 8) (size 9 to 14) (size 15 to 20)
#    0.000    2.500    1.250    2.625    0.000    0.500 
#    0.000    7.500    0.000    3.750    0.000    0.000 
#    0.000    5.000    0.000    0.000    0.000    0.000 
#
# Total GULP energy -793094.235900 kJ/mol
# GULP energy per Si atom -12392.097436 kJ/mol
# Density = 1.916070 g / cm^3
# Si number density = 19.204406 Si / 1000 Ang^3
#
#
#
# Elastic Constant Matrix: (Units=GPa)
#
#
# Indices 1 2 3 4 5 6 
#
# 1 59.6830 41.9954 9.9182 0.0000 0.0000 0.0000
# 2 41.9954 141.1687 16.8957 0.0000 0.0000 0.0000
# 3 9.9182 16.8957 29.2194 0.0000 0.0000 0.0000
# 4 0.0000 0.0000 0.0000 21.0569 0.0000 0.0000
# 5 0.0000 0.0000 0.0000 0.0000 15.8396 0.0000
# 6 0.0000 0.0000 0.0000 0.0000 0.0000 25.0743
#
#
#
# Elastic Compliance Matrix: (Units=1/GPa)
#
#
# Indices 1 2 3 4 5 6 
#
# 1 0.021594 -0.005959 -0.003884 0.000000 0.000000 0.000000
# 2 -0.005959 0.009255 -0.003329 0.000000 0.000000 0.000000
# 3 -0.003884 -0.003329 0.037467 0.000000 0.000000 0.000000
# 4 0.000000 0.000000 0.000000 0.047490 0.000000 0.000000
# 5 0.000000 0.000000 0.000000 0.000000 0.063133 0.000000
# 6 0.000000 0.000000 0.000000 0.000000 0.000000 0.039882
#
#
# Mechanical properties :
#
#
# Convention : Reuss Voigt Hill
#
# Bulk Modulus (GPa) = 23.82543 40.85442 32.33993
# Shear Modulus (GPa) = 19.29352 23.14494 21.21923
#
# Velocity S-wave (km/s) = 3.17304 3.47535 3.32763
# Velocity P-wave (km/s) = 5.08502 6.11749 5.62500
#
# Compressibility (1/GPa) = 0.04197196
#
# Stress axis : x y z
#
# Youngs Moduli (GPa) = 46.31010 108.05214 26.69013
#
# Poissons Ratio (x) = 0.64387 0.10367
# Poissons Ratio (y) = 0.27596 0.08885
# Poissons Ratio (z) = 0.17987 0.35968
#
# Static dielectric constant tensor:
#      x y z
#    x 3.602250 0.000000 0.000000 
#    y 0.000000 3.740110 0.000000 
#    z 0.000000 0.000000 3.221360 
# 
# 
# High freq. dielectric constant tensor:
#      x y z
#    x 1.729040 0.000000 0.000000 
#    y 0.000000 1.758850 0.000000 
#    z 0.000000 0.000000 1.705640 
# 
# From -- ./inp_files/8271.got.cif
#   From: 2010.06.25/outbox.cif.g09.slc.cpg/sg58_5_cif.got.tgz:8271.got - 2010.06.26 21:38:00.
