data_PCOD8235013
_publ_section_title
;
Structure prediction by ZEFSAII (Michael W. Deem and Ramdas Pophale) SiO2 
 PCOD8235013
Probable space group: P B C M
;
_chemical_formula_sum "Si O2"
_cell_formula_units_Z 48
_cell_length_a 12.180245
_cell_length_b 8.843683
_cell_length_c 21.672023
_cell_angle_alpha 90.000000
_cell_angle_beta 90.000000
_cell_angle_gamma 90.000000
_cell_volume 2334.471864
_symmetry_space_group_name_H-M "P B C M"
_symmetry_group_IT_number 57
_symmetry_cell_setting 'orthorhombic'
loop_
_space_group_symop_operation_xyz
x,y,z
-x,-y,1/2+z
x,1/2-y,-z
-x,1/2+y,1/2-z
-x,-y,-z
x,y,1/2-z
-x,1/2+y,z
x,1/2-y,1/2+z
loop_
_atom_site_type_symbol
_atom_site_label
_atom_site_fract_x
_atom_site_fract_y
_atom_site_fract_z
Si Si1 0.745183 0.990856 0.879169
Si Si2 0.150272 0.499766 0.750000
Si Si3 0.869940 0.023779 0.379147
Si Si4 0.916867 0.352412 0.750000
Si Si5 0.309578 0.796250 0.569880
Si Si6 0.069652 0.293427 0.929529
Si Si7 0.455424 0.127249 0.045692
O O1 0.838595 0.921229 0.922297
O O2 0.628583 0.925406 0.901924
O O3 0.772735 0.958840 0.808033
O O4 0.743248 0.170650 0.885998
O O5 0.105589 0.672025 0.750000
O O6 0.047643 0.384557 0.750000
O O7 0.905474 0.850355 0.386326
O O8 0.860419 0.064937 0.307589
O O9 0.752062 0.047571 0.412739
O O10 0.954092 0.138420 0.410693
O O11 0.286707 0.750000 0.500000
O O12 0.439527 0.807748 0.582346
O O13 0.063538 0.250000 0.000000
O O14 0.399713 0.250000 0.000000
O O15 0.500000 0.000000 0.000000
#
# Coordination Sequence:
#
# PCOD8235013 Si02
#       7
#     8   4   8   4   8   8   8
#     4  12  24  43  67 101 134 181 228 285 339 410
#     4  12  26  46  69  97 140 188 235 282 333 416
#     4  12  24  41  65  99 134 179 230 276 341 415
#     4  12  24  46  69  91 138 186 231 268 333 410
#     4  11  22  41  68  99 137 174 224 282 348 406
#     4  12  25  40  65  98 141 170 222 287 352 407
#     4  11  23  43  72 100 134 178 226 283 351 415
#
# _framework density 20.561395000000001
#
# number of rings (size 3 to 8) (size 9 to 14) (size 15 to 20)
#    0.000    0.333    6.667    4.500    2.333    0.000 
#    0.000    1.667    0.000    0.000    0.000    0.000 
#    0.000    0.000    0.000    0.000    0.000    0.000 
#
# Total GULP energy -595275.753434 kJ/mol
# GULP energy per Si atom -12401.578197 kJ/mol
# Density = 2.051460 g / cm^3
# Si number density = 20.561395 Si / 1000 Ang^3
#
#
#
# Elastic Constant Matrix: (Units=GPa)
#
#
# Indices 1 2 3 4 5 6 
#
# 1 101.0091 21.8244 45.0149 0.0000 0.0000 0.0000
# 2 21.8244 86.3861 14.3342 0.0000 0.0000 0.0000
# 3 45.0149 14.3342 111.2308 0.0000 0.0000 0.0000
# 4 0.0000 0.0000 0.0000 32.6944 0.0000 0.0000
# 5 0.0000 0.0000 0.0000 0.0000 28.0522 0.0000
# 6 0.0000 0.0000 0.0000 0.0000 0.0000 33.4533
#
#
#
# Elastic Compliance Matrix: (Units=1/GPa)
#
#
# Indices 1 2 3 4 5 6 
#
# 1 0.012538 -0.002377 -0.004768 0.000000 0.000000 0.000000
# 2 -0.002377 0.012279 -0.000621 0.000000 0.000000 0.000000
# 3 -0.004768 -0.000621 0.011000 0.000000 0.000000 0.000000
# 4 0.000000 0.000000 0.000000 0.030586 0.000000 0.000000
# 5 0.000000 0.000000 0.000000 0.000000 0.035648 0.000000
# 6 0.000000 0.000000 0.000000 0.000000 0.000000 0.029892
#
#
# Mechanical properties :
#
#
# Convention : Reuss Voigt Hill
#
# Bulk Modulus (GPa) = 49.29196 51.21922 50.25559
# Shear Modulus (GPa) = 32.41762 33.33680 32.87721
#
# Velocity S-wave (km/s) = 3.97498 4.03094 4.00306
# Velocity P-wave (km/s) = 6.71509 6.82855 6.77206
#
# Compressibility (1/GPa) = 0.02028728
#
# Stress axis : x y z
#
# Youngs Moduli (GPa) = 79.75458 81.43771 90.90981
#
# Poissons Ratio (x) = 0.19354 0.43346
# Poissons Ratio (y) = 0.18954 0.05642
# Poissons Ratio (z) = 0.38027 0.05054
#
# Static dielectric constant tensor:
#      x y z
#    x 4.008720 0.000000 0.000000 
#    y 0.000000 4.186970 0.000000 
#    z 0.000000 0.000000 4.144910 
# 
# 
# High freq. dielectric constant tensor:
#      x y z
#    x 1.804320 0.000000 0.000000 
#    y 0.000000 1.820130 0.000000 
#    z 0.000000 0.000000 1.799520 
# 
# From -- ./inp_files/27150.got.cif
#   From: 2010.03.12/outbox.cif.g09.slc.cpg/sg57_14_cif.got.tgz:27150.got - 2010.04.16 15:48:40.
