data_PCOD8235736
_publ_section_title
;
Structure prediction by ZEFSAII (Michael W. Deem and Ramdas Pophale) SiO2 
 PCOD8235736
Probable space group: P N N M
;
_chemical_formula_sum "Si O2"
_cell_formula_units_Z 64
_cell_length_a 18.709601
_cell_length_b 13.634860
_cell_length_c 13.543637
_cell_angle_alpha 90.000000
_cell_angle_beta 90.000000
_cell_angle_gamma 90.000000
_cell_volume 3455.019589
_symmetry_space_group_name_H-M "P N N M"
_symmetry_group_IT_number 58
_symmetry_cell_setting 'orthorhombic'
loop_
_space_group_symop_operation_xyz
x,y,z
-x,-y,z
1/2+x,1/2-y,1/2-z
1/2-x,1/2+y,1/2-z
-x,-y,-z
x,y,-z
1/2-x,1/2+y,1/2+z
1/2+x,1/2-y,1/2+z
loop_
_atom_site_type_symbol
_atom_site_label
_atom_site_fract_x
_atom_site_fract_y
_atom_site_fract_z
Si Si1 0.680104 0.291289 0.775650
Si Si2 0.977164 0.610167 0.887789
Si Si3 0.206979 0.988147 0.711502
Si Si4 0.060414 0.433305 0.612911
Si Si5 0.520100 0.251950 0.214960
Si Si6 0.437835 0.420802 0.885989
Si Si7 0.216045 0.393825 0.615045
Si Si8 0.187522 0.354496 0.889991
O O1 0.718347 0.395435 0.783481
O O2 0.594721 0.308090 0.765093
O O3 0.704753 0.223036 0.867713
O O4 0.708801 0.237197 0.677762
O O5 0.008310 0.691978 0.811972
O O6 0.892741 0.611118 0.872157
O O7 0.000000 0.500000 0.861036
O O8 0.999697 0.637912 0.000000
O O9 0.128809 0.964887 0.671560
O O10 0.220087 0.939878 0.819865
O O11 0.263774 0.947924 0.633416
O O12 0.063518 0.462974 0.500000
O O13 0.035421 0.322113 0.625522
O O14 0.141761 0.445763 0.652885
O O15 0.000000 0.500000 0.667389
O O16 0.459981 0.325666 0.176966
O O17 0.500000 0.500000 0.884909
O O18 0.419241 0.393504 0.000000
O O19 0.232576 0.411984 0.500000
O O20 0.201379 0.318249 0.000000
#
# Coordination Sequence:
#
# PCOD8235736 Si02
#       8
#     8   8   8   8   8   8   8   8
#     4   9  19  35  57  78 106 146 189 220 274 334
#     4   9  18  35  59  85 112 146 187 227 274 332
#     4  11  21  38  56  80 113 148 185 234 279 331
#     4   9  17  32  55  85 114 142 181 226 283 343
#     4  10  18  34  56  79 108 146 181 230 277 330
#     4  11  23  38  58  83 109 142 187 235 283 331
#     4   9  20  37  56  81 113 149 188 228 276 340
#     4   9  19  36  56  80 110 144 184 227 278 337
#
# _framework density 18.523772999999998
#
# number of rings (size 3 to 8) (size 9 to 14) (size 15 to 20)
#    0.000    2.375    1.250    1.875    0.000    2.000 
#    9.000    0.625    0.000    0.750    0.000    0.000 
#    0.000    0.000    0.000    0.000    0.000    0.000 
#
# Total GULP energy -793128.777666 kJ/mol
# GULP energy per Si atom -12392.637151 kJ/mol
# Density = 1.848161 g / cm^3
# Si number density = 18.523773 Si / 1000 Ang^3
#
#
#
# Elastic Constant Matrix: (Units=GPa)
#
#
# Indices 1 2 3 4 5 6 
#
# 1 67.3096 48.1310 41.2647 0.0000 0.0000 0.0000
# 2 48.1310 109.1464 37.7004 0.0000 0.0000 0.0000
# 3 41.2647 37.7004 114.0842 0.0000 0.0000 0.0000
# 4 0.0000 0.0000 0.0000 22.3165 0.0000 0.0000
# 5 0.0000 0.0000 0.0000 0.0000 21.5748 0.0000
# 6 0.0000 0.0000 0.0000 0.0000 0.0000 30.5913
#
#
#
# Elastic Compliance Matrix: (Units=1/GPa)
#
#
# Indices 1 2 3 4 5 6 
#
# 1 0.024952 -0.008902 -0.006083 0.000000 0.000000 0.000000
# 2 -0.008902 0.013518 -0.001247 0.000000 0.000000 0.000000
# 3 -0.006083 -0.001247 0.011378 0.000000 0.000000 0.000000
# 4 0.000000 0.000000 0.000000 0.044810 0.000000 0.000000
# 5 0.000000 0.000000 0.000000 0.000000 0.046350 0.000000
# 6 0.000000 0.000000 0.000000 0.000000 0.000000 0.032689
#
#
# Mechanical properties :
#
#
# Convention : Reuss Voigt Hill
#
# Bulk Modulus (GPa) = 57.52840 60.52582 59.02711
# Shear Modulus (GPa) = 23.58970 25.79279 24.69125
#
# Velocity S-wave (km/s) = 3.57246 3.73556 3.65492
# Velocity P-wave (km/s) = 6.93834 7.16599 7.05309
#
# Compressibility (1/GPa) = 0.01738272
#
# Stress axis : x y z
#
# Youngs Moduli (GPa) = 40.07765 73.97336 87.88822
#
# Poissons Ratio (x) = 0.65849 0.53466
# Poissons Ratio (y) = 0.35676 0.10964
# Poissons Ratio (z) = 0.24381 0.09228
#
# Static dielectric constant tensor:
#      x y z
#    x 3.409260 0.000000 0.000000 
#    y 0.000000 3.316910 0.000000 
#    z 0.000000 0.000000 3.605420 
# 
# 
# High freq. dielectric constant tensor:
#      x y z
#    x 1.705700 0.000000 0.000000 
#    y 0.000000 1.707900 0.000000 
#    z 0.000000 0.000000 1.727990 
# 
# From -- ./inp_files/22952.got.cif
#   From: 2010.06.25/outbox.cif.g09.slc.cpg/sg58_12_cif.got.tgz:22952.got - 2010.06.26 21:38:00.
