data_PCOD8235969
_publ_section_title
;
Structure prediction by ZEFSAII (Michael W. Deem and Ramdas Pophale) SiO2 
 PCOD8235969
Probable space group: P N N M
;
_chemical_formula_sum "Si O2"
_cell_formula_units_Z 64
_cell_length_a 14.892530
_cell_length_b 25.237310
_cell_length_c 9.073336
_cell_angle_alpha 90.000000
_cell_angle_beta 90.000000
_cell_angle_gamma 90.000000
_cell_volume 3410.189711
_symmetry_space_group_name_H-M "P N N M"
_symmetry_group_IT_number 58
_symmetry_cell_setting 'orthorhombic'
loop_
_space_group_symop_operation_xyz
x,y,z
-x,-y,z
1/2+x,1/2-y,1/2-z
1/2-x,1/2+y,1/2-z
-x,-y,-z
x,y,-z
1/2-x,1/2+y,1/2+z
1/2+x,1/2-y,1/2+z
loop_
_atom_site_type_symbol
_atom_site_label
_atom_site_fract_x
_atom_site_fract_y
_atom_site_fract_z
Si Si1 0.469151 0.570202 0.164184
Si Si2 0.690195 0.482667 0.667830
Si Si3 0.286146 0.119667 0.166565
Si Si4 0.132539 0.174520 0.336929
Si Si5 0.189973 0.798358 0.325138
Si Si6 0.108655 0.275990 0.827002
Si Si7 0.359002 0.406396 0.330566
Si Si8 0.065774 0.699817 0.669664
O O1 0.386845 0.534983 0.219874
O O2 0.444376 0.631314 0.155285
O O3 0.549823 0.564918 0.279293
O O4 0.496450 0.550601 0.000000
O O5 0.655546 0.475173 0.500000
O O6 0.777441 0.444110 0.693173
O O7 0.713960 0.545348 0.691919
O O8 0.225097 0.150613 0.281059
O O9 0.385634 0.142817 0.190299
O O10 0.254575 0.133850 0.000000
O O11 0.148348 0.199049 0.500000
O O12 0.092563 0.216026 0.222174
O O13 0.187871 0.799917 0.500000
O O14 0.292456 0.791967 0.268427
O O15 0.158426 0.854910 0.266188
O O16 0.127879 0.748973 0.270356
O O17 0.027363 0.308949 0.755663
O O18 0.101650 0.282303 0.000000
O O19 0.364636 0.388522 0.500000
O O20 0.043161 0.711340 0.500000
#
# Coordination Sequence:
#
# PCOD8235969 Si02
#       8
#     8   8   8   8   8   8   8   8
#     4  10  20  32  49  76 108 144 180 216 263 320
#     4   9  19  34  53  76 104 139 180 225 267 314
#     4   9  17  34  56  75 102 138 172 214 267 313
#     4  10  19  31  49  75 106 137 175 217 256 309
#     4  10  22  39  55  76 110 146 179 215 264 327
#     4  11  22  36  54  78 108 143 180 218 270 324
#     4  11  22  34  50  76 106 139 181 223 266 316
#     4  10  20  36  57  81 106 136 177 220 267 321
#
# _framework density 18.767285000000001
#
# number of rings (size 3 to 8) (size 9 to 14) (size 15 to 20)
#    0.000    2.000    1.250    2.625    0.000    9.000 
#    0.000    0.000    0.000    0.750    0.000    5.250 
#    0.000    0.000    0.000    0.000    0.000    0.000 
#
# Total GULP energy -793035.450342 kJ/mol
# GULP energy per Si atom -12391.178912 kJ/mol
# Density = 1.872457 g / cm^3
# Si number density = 18.767285 Si / 1000 Ang^3
#
#
#
# Elastic Constant Matrix: (Units=GPa)
#
#
# Indices 1 2 3 4 5 6 
#
# 1 69.6048 8.7011 21.2969 0.0000 0.0000 0.0000
# 2 8.7011 66.6990 7.8094 0.0000 0.0000 0.0000
# 3 21.2969 7.8094 36.4591 0.0000 0.0000 0.0000
# 4 0.0000 0.0000 0.0000 12.4693 0.0000 0.0000
# 5 0.0000 0.0000 0.0000 0.0000 29.0718 0.0000
# 6 0.0000 0.0000 0.0000 0.0000 0.0000 11.3625
#
#
#
# Elastic Compliance Matrix: (Units=1/GPa)
#
#
# Indices 1 2 3 4 5 6 
#
# 1 0.017574 -0.001119 -0.010026 0.000000 0.000000 0.000000
# 2 -0.001119 0.015450 -0.002656 0.000000 0.000000 0.000000
# 3 -0.010026 -0.002656 0.033853 0.000000 0.000000 0.000000
# 4 0.000000 0.000000 0.000000 0.080197 0.000000 0.000000
# 5 0.000000 0.000000 0.000000 0.000000 0.034398 0.000000
# 6 0.000000 0.000000 0.000000 0.000000 0.000000 0.088008
#
#
# Mechanical properties :
#
#
# Convention : Reuss Voigt Hill
#
# Bulk Modulus (GPa) = 25.46071 27.59751 26.52911
# Shear Modulus (GPa) = 16.12000 19.57776 17.84888
#
# Velocity S-wave (km/s) = 2.93395 3.23334 3.08728
# Velocity P-wave (km/s) = 5.00734 5.35503 5.18410
#
# Compressibility (1/GPa) = 0.03927621
#
# Stress axis : x y z
#
# Youngs Moduli (GPa) = 56.90110 64.72649 29.53913
#
# Poissons Ratio (x) = 0.07241 0.29616
# Poissons Ratio (y) = 0.06366 0.07845
# Poissons Ratio (z) = 0.57050 0.17190
#
# Static dielectric constant tensor:
#      x y z
#    x 3.325410 0.000000 0.000000 
#    y 0.000000 3.663180 0.000000 
#    z 0.000000 0.000000 3.529420 
# 
# 
# High freq. dielectric constant tensor:
#      x y z
#    x 1.697840 0.000000 0.000000 
#    y 0.000000 1.729140 0.000000 
#    z 0.000000 0.000000 1.733150 
# 
# From -- ./inp_files/6976.got.cif
#   From: 2010.06.25/outbox.cif.g09.slc.cpg/sg58_4_cif.got.tgz:6976.got - 2010.06.26 21:38:00.
