data_PCOD8235351
_publ_section_title
;
Structure prediction by ZEFSAII (Michael W. Deem and Ramdas Pophale) SiO2 
 PCOD8235351
Probable space group: P N N M
;
_chemical_formula_sum "Si O2"
_cell_formula_units_Z 56
_cell_length_a 21.890393
_cell_length_b 17.579542
_cell_length_c 9.279369
_cell_angle_alpha 90.000000
_cell_angle_beta 90.000000
_cell_angle_gamma 90.000000
_cell_volume 3570.915388
_symmetry_space_group_name_H-M "P N N M"
_symmetry_group_IT_number 58
_symmetry_cell_setting 'orthorhombic'
loop_
_space_group_symop_operation_xyz
x,y,z
-x,-y,z
1/2+x,1/2-y,1/2-z
1/2-x,1/2+y,1/2-z
-x,-y,-z
x,y,-z
1/2-x,1/2+y,1/2+z
1/2+x,1/2-y,1/2+z
loop_
_atom_site_type_symbol
_atom_site_label
_atom_site_fract_x
_atom_site_fract_y
_atom_site_fract_z
Si Si1 0.322524 0.732741 0.840175
Si Si2 0.680235 0.728835 0.662378
Si Si3 0.276588 0.577658 0.166951
Si Si4 0.212967 0.908779 0.664772
Si Si5 0.658971 0.872635 0.832152
Si Si6 0.851916 0.628488 0.832489
Si Si7 0.569826 0.008064 0.833995
O O1 0.250935 0.750165 0.834669
O O2 0.327398 0.642925 0.799501
O O3 0.359141 0.785768 0.729509
O O4 0.348586 0.748348 0.000000
O O5 0.654475 0.725168 0.500000
O O6 0.672031 0.646257 0.736132
O O7 0.644147 0.793254 0.751690
O O8 0.307439 0.495624 0.194502
O O9 0.218237 0.585853 0.268765
O O10 0.254599 0.584559 0.000000
O O11 0.201869 0.884628 0.500000
O O12 0.284659 0.902867 0.702411
O O13 0.601461 0.927079 0.806386
O O14 0.670567 0.855833 0.000000
O O15 0.900874 0.573998 0.760563
O O16 0.866059 0.632010 0.000000
O O17 0.500000 0.000000 0.786542
O O18 0.576262 0.032551 0.000000
#
# Coordination Sequence:
#
# PCOD8235351 Si02
#       7
#     8   8   8   8   8   8   8
#     4   8  15  26  40  57  81 112 141 167 204 252
#     4   9  17  27  40  58  82 111 142 172 208 253
#     4   9  16  27  42  62  87 114 141 172 208 249
#     4   9  16  26  41  62  88 113 141 173 207 249
#     4  10  18  28  43  59  79 109 144 179 216 252
#     4  10  18  28  43  60  82 110 142 180 216 247
#     4  10  21  34  46  61  82 111 148 185 219 257
#
# _framework density 15.682252999999999
#
# number of rings (size 3 to 8) (size 9 to 14) (size 15 to 20)
#    0.000    2.714    1.429    2.143    0.000    5.429 
#    0.000    0.000    0.000    0.000    0.000    0.000 
#    0.000    1.143    0.000   13.143    0.000    5.143 
#
# Total GULP energy -694236.589628 kJ/mol
# GULP energy per Si atom -12397.081958 kJ/mol
# Density = 1.564656 g / cm^3
# Si number density = 15.682253 Si / 1000 Ang^3
#
#
#
# Elastic Constant Matrix: (Units=GPa)
#
#
# Indices 1 2 3 4 5 6 
#
# 1 39.2317 35.9426 37.5957 0.0000 0.0000 0.0000
# 2 35.9426 148.1606 72.7870 0.0000 0.0000 0.0000
# 3 37.5957 72.7870 104.2832 0.0000 0.0000 0.0000
# 4 0.0000 0.0000 0.0000 28.8428 0.0000 0.0000
# 5 0.0000 0.0000 0.0000 0.0000 13.7639 0.0000
# 6 0.0000 0.0000 0.0000 0.0000 0.0000 14.1372
#
#
#
# Elastic Compliance Matrix: (Units=1/GPa)
#
#
# Indices 1 2 3 4 5 6 
#
# 1 0.040468 -0.004033 -0.011774 0.000000 0.000000 0.000000
# 2 -0.004033 0.010673 -0.005996 0.000000 0.000000 0.000000
# 3 -0.011774 -0.005996 0.018019 0.000000 0.000000 0.000000
# 4 0.000000 0.000000 0.000000 0.034671 0.000000 0.000000
# 5 0.000000 0.000000 0.000000 0.000000 0.072654 0.000000
# 6 0.000000 0.000000 0.000000 0.000000 0.000000 0.070735
#
#
# Mechanical properties :
#
#
# Convention : Reuss Voigt Hill
#
# Bulk Modulus (GPa) = 39.13281 64.92511 52.02896
# Shear Modulus (GPa) = 16.70319 21.03880 18.87099
#
# Velocity S-wave (km/s) = 3.26713 3.66671 3.47267
# Velocity P-wave (km/s) = 6.26418 7.70822 7.02341
#
# Compressibility (1/GPa) = 0.02555401
#
# Stress axis : x y z
#
# Youngs Moduli (GPa) = 24.71113 93.69158 55.49668
#
# Poissons Ratio (x) = 0.37783 0.65344
# Poissons Ratio (y) = 0.09965 0.33275
# Poissons Ratio (z) = 0.29096 0.56176
#
# Static dielectric constant tensor:
#      x y z
#    x 2.431090 0.000000 0.000000 
#    y 0.000000 3.353790 0.000000 
#    z 0.000000 0.000000 3.128410 
# 
# 
# High freq. dielectric constant tensor:
#      x y z
#    x 1.524340 0.000000 0.000000 
#    y 0.000000 1.619210 0.000000 
#    z 0.000000 0.000000 1.613280 
# 
# From -- ./inp_files/8150.got.cif
#   From: 2010.06.25/outbox.cif.g09.slc.cpg/sg58_5_cif.got.tgz:8150.got - 2010.06.26 21:38:00.
