data_PCOD8235727
_publ_section_title
;
Structure prediction by ZEFSAII (Michael W. Deem and Ramdas Pophale) SiO2 
 PCOD8235727
Probable space group: P N N M
;
_chemical_formula_sum "Si O2"
_cell_formula_units_Z 64
_cell_length_a 30.504814
_cell_length_b 11.852222
_cell_length_c 8.991831
_cell_angle_alpha 90.000000
_cell_angle_beta 90.000000
_cell_angle_gamma 90.000000
_cell_volume 3250.994948
_symmetry_space_group_name_H-M "P N N M"
_symmetry_group_IT_number 58
_symmetry_cell_setting 'orthorhombic'
loop_
_space_group_symop_operation_xyz
x,y,z
-x,-y,z
1/2+x,1/2-y,1/2-z
1/2-x,1/2+y,1/2-z
-x,-y,-z
x,y,-z
1/2-x,1/2+y,1/2+z
1/2+x,1/2-y,1/2+z
loop_
_atom_site_type_symbol
_atom_site_label
_atom_site_fract_x
_atom_site_fract_y
_atom_site_fract_z
Si Si1 0.623188 0.131021 0.325449
Si Si2 0.447540 0.263740 0.176271
Si Si3 0.334560 0.499941 0.330387
Si Si4 0.044324 0.245002 0.327786
Si Si5 0.132145 0.609171 0.677048
Si Si6 0.290814 0.727627 0.669235
Si Si7 0.202063 0.762106 0.175583
Si Si8 0.421977 0.505380 0.828933
O O1 0.620395 0.105555 0.500000
O O2 0.578947 0.193337 0.276332
O O3 0.664672 0.208547 0.285890
O O4 0.627636 0.016450 0.235229
O O5 0.495493 0.217345 0.223165
O O6 0.409855 0.180058 0.235347
O O7 0.439914 0.389286 0.244030
O O8 0.446265 0.270860 0.000000
O O9 0.349236 0.488216 0.500000
O O10 0.296922 0.593462 0.312417
O O11 0.317429 0.380890 0.269265
O O12 0.376234 0.542164 0.240873
O O13 0.053864 0.276366 0.500000
O O14 0.044890 0.109276 0.306019
O O15 0.135038 0.608795 0.500000
O O16 0.176589 0.662229 0.741617
O O17 0.277601 0.757605 0.500000
O O18 0.252839 0.763905 0.780655
O O19 0.197847 0.745168 0.000000
O O20 0.412883 0.481985 0.000000
#
# Coordination Sequence:
#
# PCOD8235727 Si02
#       8
#     8   8   8   8   8   8   8   8
#     4  11  24  42  61  85 120 157 201 251 298 350
#     4   9  19  36  59  89 120 154 196 243 293 350
#     4  10  21  39  61  87 121 155 188 238 296 350
#     4  10  20  36  61  90 119 154 198 246 296 351
#     4  11  23  41  63  85 118 159 200 243 294 354
#     4  10  23  42  62  85 118 159 196 239 293 350
#     4  11  24  40  62  92 121 151 194 245 294 348
#     4  10  18  33  60  91 120 152 194 243 291 347
#
# _framework density 19.686281000000001
#
# number of rings (size 3 to 8) (size 9 to 14) (size 15 to 20)
#    0.000    1.750    2.500    1.500    1.750    4.000 
#    0.000    4.375    0.000    1.500    0.000    0.000 
#    0.000    0.000    0.000    0.000    0.000    0.000 
#
# Total GULP energy -793704.377419 kJ/mol
# GULP energy per Si atom -12401.630897 kJ/mol
# Density = 1.964147 g / cm^3
# Si number density = 19.686281 Si / 1000 Ang^3
#
#
#
# Elastic Constant Matrix: (Units=GPa)
#
#
# Indices 1 2 3 4 5 6 
#
# 1 117.1959 30.6045 36.4965 0.0000 0.0000 0.0000
# 2 30.6045 99.2404 31.3306 0.0000 0.0000 0.0000
# 3 36.4965 31.3306 59.3083 0.0000 0.0000 0.0000
# 4 0.0000 0.0000 0.0000 22.6171 0.0000 0.0000
# 5 0.0000 0.0000 0.0000 0.0000 30.2281 0.0000
# 6 0.0000 0.0000 0.0000 0.0000 0.0000 24.1032
#
#
#
# Elastic Compliance Matrix: (Units=1/GPa)
#
#
# Indices 1 2 3 4 5 6 
#
# 1 0.010731 -0.001470 -0.005827 0.000000 0.000000 0.000000
# 2 -0.001470 0.012295 -0.005590 0.000000 0.000000 0.000000
# 3 -0.005827 -0.005590 0.023400 0.000000 0.000000 0.000000
# 4 0.000000 0.000000 0.000000 0.044214 0.000000 0.000000
# 5 0.000000 0.000000 0.000000 0.000000 0.033082 0.000000
# 6 0.000000 0.000000 0.000000 0.000000 0.000000 0.041488
#
#
# Mechanical properties :
#
#
# Convention : Reuss Voigt Hill
#
# Bulk Modulus (GPa) = 48.42314 52.51198 50.46756
# Shear Modulus (GPa) = 25.26922 27.21054 26.23988
#
# Velocity S-wave (km/s) = 3.58662 3.72184 3.65485
# Velocity P-wave (km/s) = 6.46549 6.72323 6.59562
#
# Compressibility (1/GPa) = 0.02065128
#
# Stress axis : x y z
#
# Youngs Moduli (GPa) = 93.18603 81.33578 42.73457
#
# Poissons Ratio (x) = 0.11954 0.24903
# Poissons Ratio (y) = 0.13695 0.23891
# Poissons Ratio (z) = 0.54302 0.45471
#
# Static dielectric constant tensor:
#      x y z
#    x 3.643900 0.000000 0.000000 
#    y 0.000000 3.696880 0.000000 
#    z 0.000000 0.000000 3.400370 
# 
# 
# High freq. dielectric constant tensor:
#      x y z
#    x 1.774000 0.000000 0.000000 
#    y 0.000000 1.775050 0.000000 
#    z 0.000000 0.000000 1.750470 
# 
# From -- ./inp_files/4675.got.cif
#   From: 2010.06.25/outbox.cif.g09.slc.cpg/sg58_3_cif.got.tgz:4675.got - 2010.06.26 21:38:00.
