data_PCOD8235914
_publ_section_title
;
Structure prediction by ZEFSAII (Michael W. Deem and Ramdas Pophale) SiO2 
 PCOD8235914
Probable space group: P N N M
;
_chemical_formula_sum "Si O2"
_cell_formula_units_Z 48
_cell_length_a 11.953130
_cell_length_b 9.551207
_cell_length_c 23.999391
_cell_angle_alpha 90.000000
_cell_angle_beta 90.000000
_cell_angle_gamma 90.000000
_cell_volume 2739.934127
_symmetry_space_group_name_H-M "P N N M"
_symmetry_group_IT_number 58
_symmetry_cell_setting 'orthorhombic'
loop_
_space_group_symop_operation_xyz
x,y,z
-x,-y,z
1/2+x,1/2-y,1/2-z
1/2-x,1/2+y,1/2-z
-x,-y,-z
x,y,-z
1/2-x,1/2+y,1/2+z
1/2+x,1/2-y,1/2+z
loop_
_atom_site_type_symbol
_atom_site_label
_atom_site_fract_x
_atom_site_fract_y
_atom_site_fract_z
Si Si1 0.416144 0.290454 0.061222
Si Si2 0.761387 0.453507 0.829234
Si Si3 0.950846 0.357204 0.751822
Si Si4 0.153640 0.111512 0.437748
Si Si5 0.400387 0.605678 0.271300
Si Si6 0.217624 0.730183 0.662352
O O1 0.549522 0.282680 0.072443
O O2 0.386022 0.452417 0.066258
O O3 0.343317 0.196731 0.103775
O O4 0.388119 0.231676 0.000000
O O5 0.876610 0.392957 0.805831
O O6 0.741016 0.368242 0.887115
O O7 0.657388 0.432716 0.787080
O O8 0.775525 0.618307 0.840179
O O9 0.878868 0.268061 0.708606
O O10 0.000000 0.500000 0.725279
O O11 0.054968 0.263067 0.769022
O O12 0.204771 0.139320 0.500000
O O13 0.500000 0.500000 0.286659
O O14 0.308001 0.609811 0.321301
#
# Coordination Sequence:
#
# PCOD8235914 Si02
#       6
#     8   8   8   8   8   8
#     4   8  14  26  46  73  98 124 160 204 250 295
#     4  10  19  30  50  73 100 132 163 202 249 295
#     4  11  21  33  47  72 102 131 164 203 243 291
#     4   8  14  25  45  73 101 125 155 202 258 297
#     4  11  21  33  49  71 102 135 165 200 245 293
#     4  10  19  31  50  73  97 132 166 201 247 298
#
# _framework density 17.518668999999999
#
# number of rings (size 3 to 8) (size 9 to 14) (size 15 to 20)
#    0.000    2.333    3.333    2.000    2.333    0.000 
#    0.000    0.000    0.000    2.500    0.000    2.333 
#    0.000    0.000    0.000    0.000    0.000    0.000 
#
# Total GULP energy -594839.932652 kJ/mol
# GULP energy per Si atom -12392.498597 kJ/mol
# Density = 1.747880 g / cm^3
# Si number density = 17.518669 Si / 1000 Ang^3
#
#
#
# Elastic Constant Matrix: (Units=GPa)
#
#
# Indices 1 2 3 4 5 6 
#
# 1 50.0361 6.3134 28.3182 0.0000 0.0000 0.0000
# 2 6.3134 40.8830 9.3732 0.0000 0.0000 0.0000
# 3 28.3182 9.3732 114.1587 0.0000 0.0000 0.0000
# 4 0.0000 0.0000 0.0000 17.1356 0.0000 0.0000
# 5 0.0000 0.0000 0.0000 0.0000 11.0415 0.0000
# 6 0.0000 0.0000 0.0000 0.0000 0.0000 29.2430
#
#
#
# Elastic Compliance Matrix: (Units=1/GPa)
#
#
# Indices 1 2 3 4 5 6 
#
# 1 0.023466 -0.002333 -0.005629 0.000000 0.000000 0.000000
# 2 -0.002333 0.025161 -0.001487 0.000000 0.000000 0.000000
# 3 -0.005629 -0.001487 0.010278 0.000000 0.000000 0.000000
# 4 0.000000 0.000000 0.000000 0.058358 0.000000 0.000000
# 5 0.000000 0.000000 0.000000 0.000000 0.090567 0.000000
# 6 0.000000 0.000000 0.000000 0.000000 0.000000 0.034196
#
#
# Mechanical properties :
#
#
# Convention : Reuss Voigt Hill
#
# Bulk Modulus (GPa) = 24.99613 32.56527 28.78070
# Shear Modulus (GPa) = 18.23076 22.22223 20.22649
#
# Velocity S-wave (km/s) = 3.22941 3.56545 3.40158
# Velocity P-wave (km/s) = 5.31081 5.96483 5.64729
#
# Compressibility (1/GPa) = 0.04000619
#
# Stress axis : x y z
#
# Youngs Moduli (GPa) = 42.61491 39.74360 97.29260
#
# Poissons Ratio (x) = 0.09273 0.54770
# Poissons Ratio (y) = 0.09942 0.14469
# Poissons Ratio (z) = 0.23990 0.05911
#
# Static dielectric constant tensor:
#      x y z
#    x 3.260730 0.000000 0.000000 
#    y 0.000000 2.945340 0.000000 
#    z 0.000000 0.000000 3.464710 
# 
# 
# High freq. dielectric constant tensor:
#      x y z
#    x 1.668810 0.000000 0.000000 
#    y 0.000000 1.646150 0.000000 
#    z 0.000000 0.000000 1.667720 
# 
# From -- ./inp_files/29529.got.cif
#   From: 2010.06.25/outbox.cif.g09.slc.cpg/sg58_15_cif.got.tgz:29529.got - 2010.06.26 21:38:00.
