data_PCOD8235148
_publ_section_title
;
Structure prediction by ZEFSAII (Michael W. Deem and Ramdas Pophale) SiO2 
 PCOD8235148
Probable space group: P B C M
;
_chemical_formula_sum "Si O2"
_cell_formula_units_Z 40
_cell_length_a 5.085838
_cell_length_b 24.644373
_cell_length_c 14.333526
_cell_angle_alpha 90.000000
_cell_angle_beta 90.000000
_cell_angle_gamma 90.000000
_cell_volume 1796.525286
_symmetry_space_group_name_H-M "P B C M"
_symmetry_group_IT_number 57
_symmetry_cell_setting 'orthorhombic'
loop_
_space_group_symop_operation_xyz
x,y,z
-x,-y,1/2+z
x,1/2-y,-z
-x,1/2+y,1/2-z
-x,-y,-z
x,y,1/2-z
-x,1/2+y,z
x,1/2-y,1/2+z
loop_
_atom_site_type_symbol
_atom_site_label
_atom_site_fract_x
_atom_site_fract_y
_atom_site_fract_z
Si Si1 0.988127 0.896145 0.556844
Si Si2 0.464780 0.970640 0.250000
Si Si3 0.964540 0.458613 0.750000
Si Si4 0.008135 0.715115 0.149650
Si Si5 0.496867 0.774720 0.401740
Si Si6 0.517804 0.400071 0.433954
O O1 0.010004 0.831149 0.570536
O O2 0.720749 0.910640 0.504401
O O3 0.990598 0.923649 0.657459
O O4 0.223528 0.916798 0.491540
O O5 0.515279 0.936268 0.157208
O O6 0.665948 0.020659 0.250000
O O7 0.166223 0.991396 0.250000
O O8 0.943178 0.688119 0.250000
O O9 0.791807 0.760223 0.126512
O O10 0.283449 0.746143 0.164106
O O11 0.421238 0.750000 0.500000
O O12 0.467052 0.838889 0.398227
#
# Coordination Sequence:
#
# PCOD8235148 Si02
#       6
#     8   4   4   8   8   8
#     4  12  24  46  75 103 133 179 232 289 342 397
#     4  12  30  50  66 104 138 180 234 286 346 410
#     4  12  28  50  76 100 132 172 240 302 346 398
#     4  12  24  40  66 106 140 180 225 274 334 406
#     4  12  23  42  66 101 144 184 219 267 337 415
#     4  12  27  45  71 102 144 183 225 276 343 416
#
# _framework density 22.265204000000001
#
# number of rings (size 3 to 8) (size 9 to 14) (size 15 to 20)
#    0.000    0.000    5.000    4.800    2.800    4.800 
#    0.000    0.000    0.000    0.000    0.000    0.000 
#    0.000    0.000    0.000    0.000    0.000    0.000 
#
# Total GULP energy -496160.765111 kJ/mol
# GULP energy per Si atom -12404.019128 kJ/mol
# Density = 2.221453 g / cm^3
# Si number density = 22.265204 Si / 1000 Ang^3
#
#
#
# Elastic Constant Matrix: (Units=GPa)
#
#
# Indices 1 2 3 4 5 6 
#
# 1 110.0553 27.9004 22.2447 0.0000 0.0000 0.0000
# 2 27.9004 83.2007 41.7078 0.0000 0.0000 0.0000
# 3 22.2447 41.7078 132.1832 0.0000 0.0000 0.0000
# 4 0.0000 0.0000 0.0000 31.3504 0.0000 0.0000
# 5 0.0000 0.0000 0.0000 0.0000 -19.3289 0.0000
# 6 0.0000 0.0000 0.0000 0.0000 0.0000 28.9610
#
#
#
# Elastic Compliance Matrix: (Units=1/GPa)
#
#
# Indices 1 2 3 4 5 6 
#
# 1 0.009991 -0.002979 -0.000742 0.000000 0.000000 0.000000
# 2 -0.002979 0.015166 -0.004284 0.000000 0.000000 0.000000
# 3 -0.000742 -0.004284 0.009042 0.000000 0.000000 0.000000
# 4 0.000000 0.000000 0.000000 0.031897 0.000000 0.000000
# 5 0.000000 0.000000 0.000000 0.000000 -0.051736 0.000000
# 6 0.000000 0.000000 0.000000 0.000000 0.000000 0.034529
#
#
# Mechanical properties :
#
#
# Convention : Reuss Voigt Hill
#
# Bulk Modulus (GPa) = 54.97447 56.57164 55.77306
# Shear Modulus (GPa) = 70.46098 23.76891 47.11494
#
# Velocity S-wave (km/s) = 5.63160 3.27086 4.60508
# Velocity P-wave (km/s) = 8.18724 6.30301 7.30612
#
# Compressibility (1/GPa) = 0.01819026
#
# Stress axis : x y z
#
# Youngs Moduli (GPa) = 100.08633 65.93913 110.59814
#
# Poissons Ratio (x) = 0.19642 0.08201
# Poissons Ratio (y) = 0.29813 0.47379
# Poissons Ratio (z) = 0.07422 0.28248
#
# Static dielectric constant tensor:
#      x y z
#    x 4.136480 0.000000 0.000000 
#    y 0.000000 3.991540 0.000000 
#    z 0.000000 0.000000 4.292630 
# 
# 
# High freq. dielectric constant tensor:
#      x y z
#    x 1.892150 0.000000 0.000000 
#    y 0.000000 1.871180 0.000000 
#    z 0.000000 0.000000 1.899740 
# 
# From -- ./inp_files/14981.got.cif
#   From: 2010.03.12/outbox.cif.g09.slc.cpg/sg57_8_cif.got.tgz:14981.got - 2010.04.16 15:48:40.
