data_PCOD8235435
_publ_section_title
;
Structure prediction by ZEFSAII (Michael W. Deem and Ramdas Pophale) SiO2 
 PCOD8235435
Probable space group: P N N M
;
_chemical_formula_sum "Si O2"
_cell_formula_units_Z 64
_cell_length_a 18.614454
_cell_length_b 21.194667
_cell_length_c 9.141581
_cell_angle_alpha 90.000000
_cell_angle_beta 90.000000
_cell_angle_gamma 90.000000
_cell_volume 3606.601934
_symmetry_space_group_name_H-M "P N N M"
_symmetry_group_IT_number 58
_symmetry_cell_setting 'orthorhombic'
loop_
_space_group_symop_operation_xyz
x,y,z
-x,-y,z
1/2+x,1/2-y,1/2-z
1/2-x,1/2+y,1/2-z
-x,-y,-z
x,y,-z
1/2-x,1/2+y,1/2+z
1/2+x,1/2-y,1/2+z
loop_
_atom_site_type_symbol
_atom_site_label
_atom_site_fract_x
_atom_site_fract_y
_atom_site_fract_z
Si Si1 0.332549 0.109202 0.330599
Si Si2 0.375737 0.241756 0.661654
Si Si3 0.966919 0.683772 0.163808
Si Si4 0.171028 0.084144 0.668485
Si Si5 0.579736 0.518056 0.327507
Si Si6 0.972879 0.430014 0.670955
Si Si7 0.923450 0.799526 0.668663
Si Si8 0.422498 0.354391 0.170299
O O1 0.356067 0.102532 0.500000
O O2 0.324645 0.183722 0.291666
O O3 0.255593 0.078232 0.300905
O O4 0.392099 0.075169 0.232448
O O5 0.355705 0.267369 0.500000
O O6 0.455148 0.213848 0.660615
O O7 0.369607 0.298270 0.777582
O O8 0.914255 0.734799 0.240152
O O9 0.971352 0.618256 0.252729
O O10 0.938512 0.670021 0.000000
O O11 0.152411 0.067705 0.500000
O O12 0.143508 0.154903 0.703344
O O13 0.133916 0.035444 0.776053
O O14 0.500000 0.500000 0.276087
O O15 0.585073 0.525640 0.500000
O O16 0.602080 0.583358 0.253912
O O17 0.971140 0.414131 0.500000
O O18 0.000000 0.500000 0.703183
O O19 0.926999 0.779537 0.500000
O O20 0.995623 0.837599 0.711706
O O21 0.411549 0.365608 0.000000
#
# Coordination Sequence:
#
# PCOD8235435 Si02
#       8
#     8   8   8   8   8   8   8   8
#     4   9  19  35  56  80 105 136 173 216 268 322
#     4   8  15  29  48  72  99 125 159 204 254 303
#     4   9  17  29  49  76 103 129 163 208 255 303
#     4  10  20  35  54  76 105 141 178 216 264 321
#     4  11  22  33  48  74 107 143 183 222 260 306
#     4  10  20  34  55  81 107 136 175 220 266 318
#     4   9  17  29  48  74 103 134 168 209 258 306
#     4  10  18  29  49  74  99 132 173 214 256 299
#
# _framework density 17.745235000000001
#
# number of rings (size 3 to 8) (size 9 to 14) (size 15 to 20)
#    0.000    2.500    1.250    2.250    0.000    6.000 
#    0.000    0.000    2.750    0.000    0.000    0.000 
#    0.000    0.000    0.000    0.000    0.000    0.000 
#
# Total GULP energy -793545.196542 kJ/mol
# GULP energy per Si atom -12399.143696 kJ/mol
# Density = 1.770485 g / cm^3
# Si number density = 17.745235 Si / 1000 Ang^3
#
#
#
# Elastic Constant Matrix: (Units=GPa)
#
#
# Indices 1 2 3 4 5 6 
#
# 1 51.1937 36.1419 32.7132 0.0000 0.0000 0.0000
# 2 36.1419 120.7813 68.5215 0.0000 0.0000 0.0000
# 3 32.7132 68.5215 98.9761 0.0000 0.0000 0.0000
# 4 0.0000 0.0000 0.0000 35.3788 0.0000 0.0000
# 5 0.0000 0.0000 0.0000 0.0000 18.0008 0.0000
# 6 0.0000 0.0000 0.0000 0.0000 0.0000 22.2279
#
#
#
# Elastic Compliance Matrix: (Units=1/GPa)
#
#
# Indices 1 2 3 4 5 6 
#
# 1 0.026386 -0.004855 -0.005360 0.000000 0.000000 0.000000
# 2 -0.004855 0.014528 -0.008453 0.000000 0.000000 0.000000
# 3 -0.005360 -0.008453 0.017727 0.000000 0.000000 0.000000
# 4 0.000000 0.000000 0.000000 0.028266 0.000000 0.000000
# 5 0.000000 0.000000 0.000000 0.000000 0.055553 0.000000
# 6 0.000000 0.000000 0.000000 0.000000 0.000000 0.044988
#
#
# Mechanical properties :
#
#
# Convention : Reuss Voigt Hill
#
# Bulk Modulus (GPa) = 46.93678 60.63383 53.78531
# Shear Modulus (GPa) = 21.56238 24.02647 22.79443
#
# Velocity S-wave (km/s) = 3.48962 3.68362 3.58793
# Velocity P-wave (km/s) = 6.53792 7.23432 6.89492
#
# Compressibility (1/GPa) = 0.02130525
#
# Stress axis : x y z
#
# Youngs Moduli (GPa) = 37.89861 68.83412 56.41085
#
# Poissons Ratio (x) = 0.33417 0.30237
# Poissons Ratio (y) = 0.18399 0.47684
# Poissons Ratio (z) = 0.20314 0.58185
#
# Static dielectric constant tensor:
#      x y z
#    x 3.042560 0.000000 0.000000 
#    y 0.000000 3.396500 0.000000 
#    z 0.000000 0.000000 3.392740 
# 
# 
# High freq. dielectric constant tensor:
#      x y z
#    x 1.645860 0.000000 0.000000 
#    y 0.000000 1.689590 0.000000 
#    z 0.000000 0.000000 1.692590 
# 
# From -- ./inp_files/9407.got.cif
#   From: 2010.06.25/outbox.cif.g09.slc.cpg/sg58_5_cif.got.tgz:9407.got - 2010.06.26 21:38:00.
