data_PCOD8235420
_publ_section_title
;
Structure prediction by ZEFSAII (Michael W. Deem and Ramdas Pophale) SiO2 
 PCOD8235420
Probable space group: P N N M
;
_chemical_formula_sum "Si O2"
_cell_formula_units_Z 64
_cell_length_a 23.247744
_cell_length_b 19.230772
_cell_length_c 8.827901
_cell_angle_alpha 90.000000
_cell_angle_beta 90.000000
_cell_angle_gamma 90.000000
_cell_volume 3946.707924
_symmetry_space_group_name_H-M "P N N M"
_symmetry_group_IT_number 58
_symmetry_cell_setting 'orthorhombic'
loop_
_space_group_symop_operation_xyz
x,y,z
-x,-y,z
1/2+x,1/2-y,1/2-z
1/2-x,1/2+y,1/2-z
-x,-y,-z
x,y,-z
1/2-x,1/2+y,1/2+z
1/2+x,1/2-y,1/2+z
loop_
_atom_site_type_symbol
_atom_site_label
_atom_site_fract_x
_atom_site_fract_y
_atom_site_fract_z
Si Si1 0.064597 0.147032 0.823333
Si Si2 0.744232 0.493414 0.820119
Si Si3 0.264135 0.156301 0.322561
Si Si4 0.153945 0.241419 0.679097
Si Si5 0.886013 0.991413 0.321342
Si Si6 0.218677 0.360208 0.178360
Si Si7 0.825131 0.210882 0.176164
Si Si8 0.565452 0.625156 0.674381
O O1 0.094747 0.214005 0.749258
O O2 0.086878 0.076038 0.753050
O O3 0.997072 0.155385 0.789093
O O4 0.078012 0.146227 0.000000
O O5 0.771337 0.421384 0.753428
O O6 0.678896 0.501181 0.760350
O O7 0.782907 0.558927 0.768087
O O8 0.742263 0.492579 0.000000
O O9 0.257204 0.147139 0.500000
O O10 0.205286 0.191321 0.262561
O O11 0.317956 0.206775 0.283081
O O12 0.148540 0.242756 0.500000
O O13 0.167641 0.319328 0.736967
O O14 0.887916 0.980771 0.500000
O O15 0.923223 0.058352 0.277312
O O16 0.281721 0.332563 0.221175
O O17 0.209708 0.352219 0.000000
O O18 0.889734 0.187018 0.211856
O O19 0.808378 0.199260 0.000000
O O20 0.570653 0.601524 0.500000
#
# Coordination Sequence:
#
# PCOD8235420 Si02
#       8
#     8   8   8   8   8   8   8   8
#     4  11  22  34  47  66  95 129 163 204 245 283
#     4   9  16  27  45  70  96 122 150 190 235 278
#     4   8  14  27  47  67  88 114 150 192 235 276
#     4  10  19  33  50  68  92 123 160 198 235 284
#     4  11  20  32  47  67  96 130 168 200 230 279
#     4  10  18  29  47  70  96 122 151 191 241 285
#     4   9  17  30  48  67  89 124 162 199 237 280
#     4  10  21  34  46  66  97 129 165 204 244 282
#
# _framework density 16.216047
#
# number of rings (size 3 to 8) (size 9 to 14) (size 15 to 20)
#    0.000    2.250    2.500    2.625    0.000    2.500 
#    0.000    0.000    0.000    0.000    0.000    0.875 
#    0.000    7.000    0.000    0.000    0.000    0.000 
#
# Total GULP energy -793355.105679 kJ/mol
# GULP energy per Si atom -12396.173526 kJ/mol
# Density = 1.617914 g / cm^3
# Si number density = 16.216047 Si / 1000 Ang^3
#
#
#
# Elastic Constant Matrix: (Units=GPa)
#
#
# Indices 1 2 3 4 5 6 
#
# 1 69.5191 37.9006 24.1553 0.0000 0.0000 0.0000
# 2 37.9006 105.6309 24.2812 0.0000 0.0000 0.0000
# 3 24.1553 24.2812 50.3420 0.0000 0.0000 0.0000
# 4 0.0000 0.0000 0.0000 17.6736 0.0000 0.0000
# 5 0.0000 0.0000 0.0000 0.0000 19.8472 0.0000
# 6 0.0000 0.0000 0.0000 0.0000 0.0000 22.9149
#
#
#
# Elastic Compliance Matrix: (Units=1/GPa)
#
#
# Indices 1 2 3 4 5 6 
#
# 1 0.019766 -0.005524 -0.006820 0.000000 0.000000 0.000000
# 2 -0.005524 0.012191 -0.003230 0.000000 0.000000 0.000000
# 3 -0.006820 -0.003230 0.024694 0.000000 0.000000 0.000000
# 4 0.000000 0.000000 0.000000 0.056582 0.000000 0.000000
# 5 0.000000 0.000000 0.000000 0.000000 0.050385 0.000000
# 6 0.000000 0.000000 0.000000 0.000000 0.000000 0.043640
#
#
# Mechanical properties :
#
#
# Convention : Reuss Voigt Hill
#
# Bulk Modulus (GPa) = 39.20899 44.24068 41.72483
# Shear Modulus (GPa) = 20.25062 21.36415 20.80738
#
# Velocity S-wave (km/s) = 3.53767 3.63363 3.58597
# Velocity P-wave (km/s) = 6.39675 6.70415 6.55226
#
# Compressibility (1/GPa) = 0.02550436
#
# Stress axis : x y z
#
# Youngs Moduli (GPa) = 50.59214 82.02462 40.49565
#
# Poissons Ratio (x) = 0.45314 0.27616
# Poissons Ratio (y) = 0.27949 0.13078
# Poissons Ratio (z) = 0.34502 0.26490
#
# Static dielectric constant tensor:
#      x y z
#    x 3.006970 0.000000 0.000000 
#    y 0.000000 3.461810 0.000000 
#    z 0.000000 0.000000 2.963040 
# 
# 
# High freq. dielectric constant tensor:
#      x y z
#    x 1.595240 0.000000 0.000000 
#    y 0.000000 1.625090 0.000000 
#    z 0.000000 0.000000 1.614520 
# 
# From -- ./inp_files/9395.got.cif
#   From: 2010.06.25/outbox.cif.g09.slc.cpg/sg58_5_cif.got.tgz:9395.got - 2010.06.26 21:38:00.
