data_PCOD8235791
_publ_section_title
;
Structure prediction by ZEFSAII (Michael W. Deem and Ramdas Pophale) SiO2 
 PCOD8235791
Probable space group: P N N M
;
_chemical_formula_sum "Si O2"
_cell_formula_units_Z 36
_cell_length_a 12.935363
_cell_length_b 4.824264
_cell_length_c 22.371014
_cell_angle_alpha 90.000000
_cell_angle_beta 90.000000
_cell_angle_gamma 90.000000
_cell_volume 1396.031945
_symmetry_space_group_name_H-M "P N N M"
_symmetry_group_IT_number 58
_symmetry_cell_setting 'orthorhombic'
loop_
_space_group_symop_operation_xyz
x,y,z
-x,-y,z
1/2+x,1/2-y,1/2-z
1/2-x,1/2+y,1/2-z
-x,-y,-z
x,y,-z
1/2-x,1/2+y,1/2+z
1/2+x,1/2-y,1/2+z
loop_
_atom_site_type_symbol
_atom_site_label
_atom_site_fract_x
_atom_site_fract_y
_atom_site_fract_z
Si Si1 0.135837 0.923301 0.643099
Si Si2 0.151265 0.373159 0.806138
Si Si3 0.185051 0.419839 0.432806
Si Si4 0.000000 0.500000 0.295480
Si Si5 0.896327 0.131768 0.117876
O O1 0.226166 0.948808 0.693737
O O2 0.175904 0.736496 0.587927
O O3 0.031647 0.777898 0.668078
O O4 0.118561 0.227520 0.613163
O O5 0.087680 0.567612 0.852509
O O6 0.101477 0.403630 0.740674
O O7 0.138199 0.057696 0.826244
O O8 0.142627 0.385808 0.500000
O O9 0.306948 0.343856 0.431783
O O10 0.000000 0.000000 0.088699
#
# Coordination Sequence:
#
# PCOD8235791 Si02
#       5
#     8   8   8   4   8
#     4  10  25  41  64  99 128 169 232 269 325 419
#     4  10  22  38  61  93 134 170 207 273 333 396
#     4  10  22  43  64  88 132 173 217 289 336 372
#     4  12  24  44  69  94 137 186 216 272 346 404
#     4  10  18  36  61  94 127 163 216 263 335 420
#
# _framework density 25.787374
#
# number of rings (size 3 to 8) (size 9 to 14) (size 15 to 20)
#    0.000    1.778    2.222    0.667    0.000   10.222 
#    0.000    3.333    0.000    8.000    0.000    0.000 
#    0.000    0.000    0.000    0.000    0.000    0.000 
#
# Total GULP energy -446361.120977 kJ/mol
# GULP energy per Si atom -12398.920027 kJ/mol
# Density = 2.572868 g / cm^3
# Si number density = 25.787374 Si / 1000 Ang^3
#
#
#
# Elastic Constant Matrix: (Units=GPa)
#
#
# Indices 1 2 3 4 5 6 
#
# 1 118.1892 15.0013 30.5286 0.0000 0.0000 0.0000
# 2 15.0013 92.3471 -8.2053 0.0000 0.0000 0.0000
# 3 30.5286 -8.2053 71.1668 0.0000 0.0000 0.0000
# 4 0.0000 0.0000 0.0000 19.1788 0.0000 0.0000
# 5 0.0000 0.0000 0.0000 0.0000 17.4166 0.0000
# 6 0.0000 0.0000 0.0000 0.0000 0.0000 45.4089
#
#
#
# Elastic Compliance Matrix: (Units=1/GPa)
#
#
# Indices 1 2 3 4 5 6 
#
# 1 0.009868 -0.002000 -0.004464 0.000000 0.000000 0.000000
# 2 -0.002000 0.011346 0.002166 0.000000 0.000000 0.000000
# 3 -0.004464 0.002166 0.016216 0.000000 0.000000 0.000000
# 4 0.000000 0.000000 0.000000 0.052141 0.000000 0.000000
# 5 0.000000 0.000000 0.000000 0.000000 0.057417 0.000000
# 6 0.000000 0.000000 0.000000 0.000000 0.000000 0.022022
#
#
# Mechanical properties :
#
#
# Convention : Reuss Voigt Hill
#
# Bulk Modulus (GPa) = 34.67973 39.59471 37.13722
# Shear Modulus (GPa) = 26.70721 32.69276 29.69998
#
# Velocity S-wave (km/s) = 3.22167 3.56446 3.39739
# Velocity P-wave (km/s) = 5.22651 5.68578 5.46098
#
# Compressibility (1/GPa) = 0.02883529
#
# Stress axis : x y z
#
# Youngs Moduli (GPa) = 101.34023 88.13700 61.66773
#
# Poissons Ratio (x) = 0.17624 0.27526
# Poissons Ratio (y) = 0.20264 -0.13357
# Poissons Ratio (z) = 0.45233 -0.19090
#
# Static dielectric constant tensor:
#      x y z
#    x 4.735360 0.000000 0.000000 
#    y 0.000000 4.774590 0.000000 
#    z 0.000000 0.000000 4.001540 
# 
# 
# High freq. dielectric constant tensor:
#      x y z
#    x 2.050120 0.000000 0.000000 
#    y 0.000000 2.055610 0.000000 
#    z 0.000000 0.000000 1.980500 
# 
# From -- ./inp_files/32123.got.cif
#   From: 2010.06.25/outbox.cif.g09.slc.cpg/sg58_17_cif.got.tgz:32123.got - 2010.06.26 21:38:00.
