data_PCOD8235714
_publ_section_title
;
Structure prediction by ZEFSAII (Michael W. Deem and Ramdas Pophale) SiO2 
 PCOD8235714
Probable space group: P N N M
;
_chemical_formula_sum "Si O2"
_cell_formula_units_Z 56
_cell_length_a 21.934679
_cell_length_b 14.687609
_cell_length_c 8.859481
_cell_angle_alpha 90.000000
_cell_angle_beta 90.000000
_cell_angle_gamma 90.000000
_cell_volume 2854.241175
_symmetry_space_group_name_H-M "P N N M"
_symmetry_group_IT_number 58
_symmetry_cell_setting 'orthorhombic'
loop_
_space_group_symop_operation_xyz
x,y,z
-x,-y,z
1/2+x,1/2-y,1/2-z
1/2-x,1/2+y,1/2-z
-x,-y,-z
x,y,-z
1/2-x,1/2+y,1/2+z
1/2+x,1/2-y,1/2+z
loop_
_atom_site_type_symbol
_atom_site_label
_atom_site_fract_x
_atom_site_fract_y
_atom_site_fract_z
Si Si1 0.323430 0.030027 0.321495
Si Si2 0.550073 0.924226 0.176039
Si Si3 0.772499 0.822288 0.679484
Si Si4 0.747482 0.619917 0.321560
Si Si5 0.621070 0.583088 0.824052
Si Si6 0.519922 0.720938 0.178781
Si Si7 0.402795 0.619477 0.176271
O O1 0.319839 0.020952 0.500000
O O2 0.391376 0.053941 0.274122
O O3 0.278119 0.107910 0.259153
O O4 0.303976 0.935040 0.247553
O O5 0.524432 0.825979 0.227666
O O6 0.500000 0.000000 0.212364
O O7 0.567617 0.923646 0.000000
O O8 0.774324 0.827316 0.500000
O O9 0.753825 0.722880 0.736872
O O10 0.838541 0.848506 0.747935
O O11 0.751459 0.613672 0.500000
O O12 0.683696 0.579869 0.266554
O O13 0.578512 0.664501 0.761852
O O14 0.586436 0.487731 0.795331
O O15 0.636976 0.595024 0.000000
O O16 0.458425 0.677002 0.249267
O O17 0.518033 0.709887 0.000000
O O18 0.400656 0.641218 0.000000
#
# Coordination Sequence:
#
# PCOD8235714 Si02
#       7
#     8   8   8   8   8   8   8
#     4  11  22  40  61  84 114 150 189 234 284 335
#     4  10  22  38  57  83 115 151 191 232 278 333
#     4   9  19  34  55  82 112 148 188 230 282 341
#     4  11  22  35  57  85 112 147 188 230 282 339
#     4  10  18  33  56  84 113 142 185 235 284 335
#     4   9  18  31  54  84 111 145 189 237 279 326
#     4   9  16  30  54  82 109 140 184 232 279 331
#
# _framework density 19.619926
#
# number of rings (size 3 to 8) (size 9 to 14) (size 15 to 20)
#    0.000    2.143    1.429    2.143    2.000    2.000 
#    0.000    2.143    0.000    2.571    0.000    0.000 
#    0.000    0.000    0.000    0.000    0.000    0.000 
#
# Total GULP energy -694475.691037 kJ/mol
# GULP energy per Si atom -12401.351626 kJ/mol
# Density = 1.957527 g / cm^3
# Si number density = 19.619926 Si / 1000 Ang^3
#
#
#
# Elastic Constant Matrix: (Units=GPa)
#
#
# Indices 1 2 3 4 5 6 
#
# 1 117.9278 55.7846 25.8603 0.0000 0.0000 0.0000
# 2 55.7846 134.8249 32.1773 0.0000 0.0000 0.0000
# 3 25.8603 32.1773 39.7644 0.0000 0.0000 0.0000
# 4 0.0000 0.0000 0.0000 17.4810 0.0000 0.0000
# 5 0.0000 0.0000 0.0000 0.0000 24.6320 0.0000
# 6 0.0000 0.0000 0.0000 0.0000 0.0000 38.7092
#
#
#
# Elastic Compliance Matrix: (Units=1/GPa)
#
#
# Indices 1 2 3 4 5 6 
#
# 1 0.011118 -0.003563 -0.004348 0.000000 0.000000 0.000000
# 2 -0.003563 0.010334 -0.006045 0.000000 0.000000 0.000000
# 3 -0.004348 -0.006045 0.032867 0.000000 0.000000 0.000000
# 4 0.000000 0.000000 0.000000 0.057205 0.000000 0.000000
# 5 0.000000 0.000000 0.000000 0.000000 0.040598 0.000000
# 6 0.000000 0.000000 0.000000 0.000000 0.000000 0.025834
#
#
# Mechanical properties :
#
#
# Convention : Reuss Voigt Hill
#
# Bulk Modulus (GPa) = 37.86684 57.79572 47.83128
# Shear Modulus (GPa) = 23.29155 28.07744 25.68450
#
# Velocity S-wave (km/s) = 3.44922 3.78705 3.62208
# Velocity P-wave (km/s) = 5.93338 6.97452 6.47491
#
# Compressibility (1/GPa) = 0.02640833
#
# Stress axis : x y z
#
# Youngs Moduli (GPa) = 89.94026 96.76933 30.42523
#
# Poissons Ratio (x) = 0.34476 0.13228
# Poissons Ratio (y) = 0.32043 0.18393
# Poissons Ratio (z) = 0.39105 0.58499
#
# Static dielectric constant tensor:
#      x y z
#    x 3.716930 0.000000 0.000000 
#    y 0.000000 3.852480 0.000000 
#    z 0.000000 0.000000 3.086740 
# 
# 
# High freq. dielectric constant tensor:
#      x y z
#    x 1.775970 0.000000 0.000000 
#    y 0.000000 1.781660 0.000000 
#    z 0.000000 0.000000 1.713470 
# 
# From -- ./inp_files/8998.got.cif
#   From: 2010.06.25/outbox.cif.g09.slc.cpg/sg58_5_cif.got.tgz:8998.got - 2010.06.26 21:38:00.
