data_PCOD8235153
_publ_section_title
;
Structure prediction by ZEFSAII (Michael W. Deem and Ramdas Pophale) SiO2 
 PCOD8235153
Probable space group: P B C M
;
_chemical_formula_sum "Si O2"
_cell_formula_units_Z 44
_cell_length_a 9.150784
_cell_length_b 15.882914
_cell_length_c 15.330927
_cell_angle_alpha 90.000000
_cell_angle_beta 90.000000
_cell_angle_gamma 90.000000
_cell_volume 2228.214029
_symmetry_space_group_name_H-M "P B C M"
_symmetry_group_IT_number 57
_symmetry_cell_setting 'orthorhombic'
loop_
_space_group_symop_operation_xyz
x,y,z
-x,-y,1/2+z
x,1/2-y,-z
-x,1/2+y,1/2-z
-x,-y,-z
x,y,1/2-z
-x,1/2+y,z
x,1/2-y,1/2+z
loop_
_atom_site_type_symbol
_atom_site_label
_atom_site_fract_x
_atom_site_fract_y
_atom_site_fract_z
Si Si1 0.616433 0.030696 0.655289
Si Si2 0.817689 0.772242 0.348618
Si Si3 0.956420 0.250000 0.000000
Si Si4 0.277166 0.892041 0.980851
Si Si5 0.301942 0.066266 0.902751
Si Si6 0.594590 0.643938 0.420671
O O1 0.679994 0.056930 0.750000
O O2 0.702969 0.077596 0.579788
O O3 0.449268 0.057728 0.650774
O O4 0.622526 0.929780 0.648643
O O5 0.852514 0.741770 0.250000
O O6 0.803564 0.874029 0.346581
O O7 0.665768 0.729474 0.383065
O O8 0.949831 0.750379 0.412203
O O9 0.859002 0.331374 0.983922
O O10 0.421269 0.845368 0.941831
O O11 0.236977 0.973407 0.921638
O O12 0.323519 0.116391 0.992367
#
# Coordination Sequence:
#
# PCOD8235153 Si02
#       6
#     8   8   4   8   8   8
#     4   9  17  33  61  97 121 144 202 261 308 366
#     4  12  24  40  63  89 122 167 209 252 308 368
#     4  12  26  42  58  86 136 164 206 252 300 376
#     4   9  22  38  65  87 122 169 196 253 318 355
#     4   9  18  38  61  88 117 156 204 254 306 357
#     4   9  18  38  64  90 116 152 203 255 308 357
#
# _framework density 19.746756999999999
#
# number of rings (size 3 to 8) (size 9 to 14) (size 15 to 20)
#    0.000    2.182    1.818    3.273    5.091    1.455 
#    0.000    5.455    0.000    0.000    0.000    0.000 
#    0.000    0.000    0.000    0.000    0.000    0.000 
#
# Total GULP energy -545264.492037 kJ/mol
# GULP energy per Si atom -12392.374819 kJ/mol
# Density = 1.970181 g / cm^3
# Si number density = 19.746757 Si / 1000 Ang^3
#
#
#
# Elastic Constant Matrix: (Units=GPa)
#
#
# Indices 1 2 3 4 5 6 
#
# 1 94.0820 61.6226 47.6641 0.0000 0.0000 0.0000
# 2 61.6226 116.1280 41.0367 0.0000 0.0000 0.0000
# 3 47.6641 41.0367 104.0120 0.0000 0.0000 0.0000
# 4 0.0000 0.0000 0.0000 22.8823 0.0000 0.0000
# 5 0.0000 0.0000 0.0000 0.0000 16.4499 0.0000
# 6 0.0000 0.0000 0.0000 0.0000 0.0000 26.7783
#
#
#
# Elastic Compliance Matrix: (Units=1/GPa)
#
#
# Indices 1 2 3 4 5 6 
#
# 1 0.018555 -0.007950 -0.005366 0.000000 0.000000 0.000000
# 2 -0.007950 0.013412 -0.001649 0.000000 0.000000 0.000000
# 3 -0.005366 -0.001649 0.012724 0.000000 0.000000 0.000000
# 4 0.000000 0.000000 0.000000 0.043702 0.000000 0.000000
# 5 0.000000 0.000000 0.000000 0.000000 0.060791 0.000000
# 6 0.000000 0.000000 0.000000 0.000000 0.000000 0.037344
#
#
# Mechanical properties :
#
#
# Convention : Reuss Voigt Hill
#
# Bulk Modulus (GPa) = 67.74378 68.31876 68.03127
# Shear Modulus (GPa) = 22.58596 24.14867 23.36731
#
# Velocity S-wave (km/s) = 3.38565 3.50082 3.44372
# Velocity P-wave (km/s) = 7.04729 7.14238 7.09499
#
# Compressibility (1/GPa) = 0.01476150
#
# Stress axis : x y z
#
# Youngs Moduli (GPa) = 53.89495 74.55913 78.59218
#
# Poissons Ratio (x) = 0.59271 0.42175
# Poissons Ratio (y) = 0.42844 0.12957
# Poissons Ratio (z) = 0.28922 0.12292
#
# Static dielectric constant tensor:
#      x y z
#    x 3.308850 0.000000 0.000000 
#    y 0.000000 3.815080 0.000000 
#    z 0.000000 0.000000 3.655150 
# 
# 
# High freq. dielectric constant tensor:
#      x y z
#    x 1.737490 0.000000 0.000000 
#    y 0.000000 1.778370 0.000000 
#    z 0.000000 0.000000 1.771830 
# 
# From -- ./inp_files/16200.got.cif
#   From: 2010.03.12/outbox.cif.g09.slc.cpg/sg57_9_cif.got.tgz:16200.got - 2010.04.16 15:48:40.
