data_PCOD8235856
_publ_section_title
;
Structure prediction by ZEFSAII (Michael W. Deem and Ramdas Pophale) SiO2 
 PCOD8235856
Probable space group: P N N M
;
_chemical_formula_sum "Si O2"
_cell_formula_units_Z 64
_cell_length_a 23.232376
_cell_length_b 19.271547
_cell_length_c 8.907369
_cell_angle_alpha 90.000000
_cell_angle_beta 90.000000
_cell_angle_gamma 90.000000
_cell_volume 3988.041328
_symmetry_space_group_name_H-M "P N N M"
_symmetry_group_IT_number 58
_symmetry_cell_setting 'orthorhombic'
loop_
_space_group_symop_operation_xyz
x,y,z
-x,-y,z
1/2+x,1/2-y,1/2-z
1/2-x,1/2+y,1/2-z
-x,-y,-z
x,y,-z
1/2-x,1/2+y,1/2+z
1/2+x,1/2-y,1/2+z
loop_
_atom_site_type_symbol
_atom_site_label
_atom_site_fract_x
_atom_site_fract_y
_atom_site_fract_z
Si Si1 0.615469 0.496394 0.177216
Si Si2 0.173801 0.791906 0.828433
Si Si3 0.060879 0.870543 0.824519
Si Si4 0.344753 0.733802 0.677838
Si Si5 0.260021 0.159751 0.325727
Si Si6 0.559022 0.350407 0.823402
Si Si7 0.753859 0.991484 0.677290
Si Si8 0.222568 0.363362 0.177105
O O1 0.580216 0.555684 0.260806
O O2 0.586940 0.423552 0.221937
O O3 0.680791 0.495478 0.238307
O O4 0.611535 0.509815 0.000000
O O5 0.108307 0.811112 0.791111
O O6 0.185078 0.709737 0.798627
O O7 0.214774 0.837104 0.724444
O O8 0.188857 0.810476 0.000000
O O9 0.004245 0.844059 0.743042
O O10 0.048881 0.879044 0.000000
O O11 0.352147 0.730027 0.500000
O O12 0.293957 0.682527 0.726879
O O13 0.403989 0.712647 0.755606
O O14 0.327842 0.811949 0.734734
O O15 0.240357 0.160742 0.500000
O O16 0.276131 0.081130 0.275437
O O17 0.556156 0.340888 0.000000
O O18 0.757590 0.996727 0.500000
O O19 0.716323 0.057201 0.737945
O O20 0.221444 0.361858 0.000000
#
# Coordination Sequence:
#
# PCOD8235856 Si02
#       8
#     8   8   8   8   8   8   8   8
#     4  10  19  32  47  65  90 124 163 190 213 261
#     4   9  18  30  45  66  92 120 151 187 228 268
#     4  11  22  33  45  67  95 124 155 194 235 266
#     4  10  19  30  45  68  94 118 146 190 234 268
#     4   9  16  30  49  67  90 122 155 185 220 271
#     4  11  22  35  49  64  86 125 166 194 221 266
#     4   9  15  27  48  70  91 120 154 185 216 263
#     4   9  17  29  47  68  91 118 149 183 226 271
#
# _framework density 16.047978000000001
#
# number of rings (size 3 to 8) (size 9 to 14) (size 15 to 20)
#    0.000    2.250    2.500    1.500    0.000    3.500 
#    0.000    0.625    0.000    0.000    0.000    0.875 
#    0.000    7.000    0.000    0.000    0.000    0.000 
#
# Total GULP energy -793300.423352 kJ/mol
# GULP energy per Si atom -12395.319115 kJ/mol
# Density = 1.601145 g / cm^3
# Si number density = 16.047978 Si / 1000 Ang^3
#
#
#
# Elastic Constant Matrix: (Units=GPa)
#
#
# Indices 1 2 3 4 5 6 
#
# 1 74.3364 49.5953 23.3055 0.0000 0.0000 0.0000
# 2 49.5953 121.2867 21.8248 0.0000 0.0000 0.0000
# 3 23.3055 21.8248 31.6798 0.0000 0.0000 0.0000
# 4 0.0000 0.0000 0.0000 18.6820 0.0000 0.0000
# 5 0.0000 0.0000 0.0000 0.0000 22.5618 0.0000
# 6 0.0000 0.0000 0.0000 0.0000 0.0000 24.9614
#
#
#
# Elastic Compliance Matrix: (Units=1/GPa)
#
#
# Indices 1 2 3 4 5 6 
#
# 1 0.021457 -0.006773 -0.011119 0.000000 0.000000 0.000000
# 2 -0.006773 0.011550 -0.002974 0.000000 0.000000 0.000000
# 3 -0.011119 -0.002974 0.041794 0.000000 0.000000 0.000000
# 4 0.000000 0.000000 0.000000 0.053527 0.000000 0.000000
# 5 0.000000 0.000000 0.000000 0.000000 0.044323 0.000000
# 6 0.000000 0.000000 0.000000 0.000000 0.000000 0.040062
#
#
# Mechanical properties :
#
#
# Convention : Reuss Voigt Hill
#
# Bulk Modulus (GPa) = 30.23983 46.30601 38.27292
# Shear Modulus (GPa) = 18.83459 22.07953 20.45706
#
# Velocity S-wave (km/s) = 3.42956 3.71326 3.57423
# Velocity P-wave (km/s) = 5.87936 6.87763 6.39799
#
# Compressibility (1/GPa) = 0.03306897
#
# Stress axis : x y z
#
# Youngs Moduli (GPa) = 46.60426 86.58197 23.92660
#
# Poissons Ratio (x) = 0.58644 0.26604
# Poissons Ratio (y) = 0.31566 0.07116
# Poissons Ratio (z) = 0.51819 0.25750
#
# Static dielectric constant tensor:
#      x y z
#    x 2.955440 0.000000 0.000000 
#    y 0.000000 3.528600 0.000000 
#    z 0.000000 0.000000 2.995240 
# 
# 
# High freq. dielectric constant tensor:
#      x y z
#    x 1.588250 0.000000 0.000000 
#    y 0.000000 1.620260 0.000000 
#    z 0.000000 0.000000 1.612180 
# 
# From -- ./inp_files/9396.got.cif
#   From: 2010.06.25/outbox.cif.g09.slc.cpg/sg58_5_cif.got.tgz:9396.got - 2010.06.26 21:38:00.
