data_PCOD8235355
_publ_section_title
;
Structure prediction by ZEFSAII (Michael W. Deem and Ramdas Pophale) SiO2 
 PCOD8235355
Probable space group: P N N M
;
_chemical_formula_sum "Si O2"
_cell_formula_units_Z 64
_cell_length_a 19.171083
_cell_length_b 23.513956
_cell_length_c 8.872396
_cell_angle_alpha 90.000000
_cell_angle_beta 90.000000
_cell_angle_gamma 90.000000
_cell_volume 3999.569667
_symmetry_space_group_name_H-M "P N N M"
_symmetry_group_IT_number 58
_symmetry_cell_setting 'orthorhombic'
loop_
_space_group_symop_operation_xyz
x,y,z
-x,-y,z
1/2+x,1/2-y,1/2-z
1/2-x,1/2+y,1/2-z
-x,-y,-z
x,y,-z
1/2-x,1/2+y,1/2+z
1/2+x,1/2-y,1/2+z
loop_
_atom_site_type_symbol
_atom_site_label
_atom_site_fract_x
_atom_site_fract_y
_atom_site_fract_z
Si Si1 0.144417 0.224375 0.324769
Si Si2 0.633556 0.061275 0.321597
Si Si3 0.345371 0.265773 0.177413
Si Si4 0.240349 0.657397 0.678487
Si Si5 0.995131 0.259653 0.324680
Si Si6 0.215305 0.330422 0.178476
Si Si7 0.650203 0.934580 0.679296
Si Si8 0.005744 0.619228 0.178693
O O1 0.163839 0.221142 0.500000
O O2 0.182348 0.172781 0.238151
O O3 0.061085 0.218307 0.298281
O O4 0.166064 0.285583 0.261121
O O5 0.629272 0.057873 0.500000
O O6 0.693215 0.106263 0.271315
O O7 0.558027 0.080720 0.259502
O O8 0.653118 0.999194 0.258904
O O9 0.311855 0.206868 0.237111
O O10 0.424834 0.272017 0.236223
O O11 0.296082 0.318722 0.227112
O O12 0.345805 0.262647 0.000000
O O13 0.242624 0.652254 0.500000
O O14 0.215568 0.598035 0.748611
O O15 0.987491 0.275430 0.500000
O O16 0.005232 0.317485 0.235450
O O17 0.204826 0.321484 0.000000
O O18 0.656069 0.931639 0.500000
O O19 0.578151 0.906933 0.737984
O O20 0.004796 0.620246 0.000000
#
# Coordination Sequence:
#
# PCOD8235355 Si02
#       8
#     8   8   8   8   8   8   8   8
#     4  10  19  29  45  66  90 116 146 188 232 271
#     4   9  17  29  45  65  92 125 160 191 224 264
#     4   8  15  27  44  63  85 113 145 180 225 270
#     4  10  19  32  48  64  88 120 152 189 229 275
#     4  10  18  29  44  65  93 121 147 183 230 273
#     4   9  16  29  47  65  87 119 154 188 223 269
#     4  10  19  30  45  66  92 124 159 194 226 261
#     4  10  18  28  43  64  93 126 160 188 214 262
#
# _framework density 16.001721
#
# number of rings (size 3 to 8) (size 9 to 14) (size 15 to 20)
#    0.000    2.500    2.500    1.875    0.000    2.000 
#    0.000    1.250    0.000    1.500    0.000    0.875 
#    0.000    7.000    0.000    0.000    0.000    0.000 
#
# Total GULP energy -793263.065774 kJ/mol
# GULP energy per Si atom -12394.735403 kJ/mol
# Density = 1.596530 g / cm^3
# Si number density = 16.001721 Si / 1000 Ang^3
#
#
#
# Elastic Constant Matrix: (Units=GPa)
#
#
# Indices 1 2 3 4 5 6 
#
# 1 110.0191 50.4183 19.4171 0.0000 0.0000 0.0000
# 2 50.4183 84.3455 16.7963 0.0000 0.0000 0.0000
# 3 19.4171 16.7963 27.8086 0.0000 0.0000 0.0000
# 4 0.0000 0.0000 0.0000 18.5357 0.0000 0.0000
# 5 0.0000 0.0000 0.0000 0.0000 15.9951 0.0000
# 6 0.0000 0.0000 0.0000 0.0000 0.0000 26.0229
#
#
#
# Elastic Compliance Matrix: (Units=1/GPa)
#
#
# Indices 1 2 3 4 5 6 
#
# 1 0.013108 -0.006835 -0.005024 0.000000 0.000000 0.000000
# 2 -0.006835 0.017041 -0.005520 0.000000 0.000000 0.000000
# 3 -0.005024 -0.005520 0.042803 0.000000 0.000000 0.000000
# 4 0.000000 0.000000 0.000000 0.053950 0.000000 0.000000
# 5 0.000000 0.000000 0.000000 0.000000 0.062519 0.000000
# 6 0.000000 0.000000 0.000000 0.000000 0.000000 0.038428
#
#
# Mechanical properties :
#
#
# Convention : Reuss Voigt Hill
#
# Bulk Modulus (GPa) = 26.18314 43.93740 35.06027
# Shear Modulus (GPa) = 18.15944 21.14684 19.65314
#
# Velocity S-wave (km/s) = 3.37240 3.63924 3.50835
# Velocity P-wave (km/s) = 5.61803 6.72133 6.19429
#
# Compressibility (1/GPa) = 0.03819251
#
# Stress axis : x y z
#
# Youngs Moduli (GPa) = 76.28698 58.68199 23.36310
#
# Poissons Ratio (x) = 0.40110 0.11739
# Poissons Ratio (y) = 0.52143 0.12897
# Poissons Ratio (z) = 0.38330 0.32393
#
# Static dielectric constant tensor:
#      x y z
#    x 3.450540 0.000000 0.000000 
#    y 0.000000 3.000870 0.000000 
#    z 0.000000 0.000000 2.831030 
# 
# 
# High freq. dielectric constant tensor:
#      x y z
#    x 1.616720 0.000000 0.000000 
#    y 0.000000 1.587380 0.000000 
#    z 0.000000 0.000000 1.596750 
# 
# From -- ./inp_files/8513.got.cif
#   From: 2010.06.25/outbox.cif.g09.slc.cpg/sg58_5_cif.got.tgz:8513.got - 2010.06.26 21:38:00.
