data_PCOD8235187
_publ_section_title
;
Structure prediction by ZEFSAII (Michael W. Deem and Ramdas Pophale) SiO2 
 PCOD8235187
Probable space group: P B C M
;
_chemical_formula_sum "Si O2"
_cell_formula_units_Z 56
_cell_length_a 15.000000
_cell_length_b 21.000000
_cell_length_c 9.000000
_cell_angle_alpha 90.000000
_cell_angle_beta 90.000000
_cell_angle_gamma 90.000000
_cell_volume 2835.000000
_symmetry_space_group_name_H-M "P B C M"
_symmetry_group_IT_number 57
_symmetry_cell_setting 'orthorhombic'
loop_
_space_group_symop_operation_xyz
x,y,z
-x,-y,1/2+z
x,1/2-y,-z
-x,1/2+y,1/2-z
-x,-y,-z
x,y,1/2-z
-x,1/2+y,z
x,1/2-y,1/2+z
loop_
_atom_site_type_symbol
_atom_site_label
_atom_site_fract_x
_atom_site_fract_y
_atom_site_fract_z
Si Si1 0.816848 0.917443 0.573770
Si Si2 0.564748 0.450300 0.921616
Si Si3 0.695006 0.814393 0.428807
Si Si4 0.230928 0.954277 0.924635
Si Si5 0.497321 0.187450 0.072430
Si Si6 0.836836 0.184485 0.075181
Si Si7 0.958671 0.686889 0.078248
O O1 0.797488 0.919983 0.750000
O O2 0.740402 0.878517 0.488682
O O3 0.907520 0.878529 0.537770
O O4 0.823648 0.989946 0.510832
O O5 0.543351 0.458092 0.750000
O O6 0.665955 0.468145 0.959543
O O7 0.551530 0.376425 0.967061
O O8 0.500000 0.500000 0.000000
O O9 0.738843 0.750000 0.500000
O O10 0.699542 0.811493 0.250000
O O11 0.595203 0.818821 0.487000
O O12 0.208618 0.959584 0.750000
O O13 0.208553 0.881966 0.979712
O O14 0.484984 0.196302 0.250000
O O15 0.545954 0.250000 0.000000
O O16 0.821516 0.192628 0.250000
O O17 0.939659 0.176575 0.029617
O O18 0.798619 0.250000 0.000000
O O19 0.949830 0.701937 0.250000
O O20 0.918464 0.750000 0.000000
#
# Coordination Sequence:
#
# PCOD8235187 Si02
#       7
#     8   8   8   8   8   8   8
#     4  11  22  35  52  79 113 145 183 226 267 319
#     4  10  22  38  56  78 106 141 180 222 268 322
#     4  11  21  34  53  78 109 145 183 223 272 325
#     4  10  22  39  57  80 110 144 181 223 276 328
#     4  10  20  35  54  78 106 137 177 224 273 324
#     4   9  19  38  61  83 110 143 180 224 271 322
#     4   9  19  35  56  82 111 144 181 220 264 316
#
# _framework density 19.753086
#
# number of rings (size 3 to 8) (size 9 to 14) (size 15 to 20)
#    0.000    2.000    0.000    4.286    0.000    8.000 
#    0.000    0.000    0.000    0.000    0.000    0.000 
#    0.000    0.000    0.000    0.000    0.000    0.000 
#
# Total GULP energy -694124.002878 kJ/mol
# GULP energy per Si atom -12395.071480 kJ/mol
# Density = 1.970813 g / cm^3
# Si number density = 19.753086 Si / 1000 Ang^3
#
#
#
# Elastic Constant Matrix: (Units=GPa)
#
#
# Indices 1 2 3 4 5 6 
#
# 1 56.6492 42.7446 28.8615 0.0000 0.0000 0.0000
# 2 42.7446 202.5001 62.9537 0.0000 0.0000 0.0000
# 3 28.8615 62.9537 104.3677 0.0000 0.0000 0.0000
# 4 0.0000 0.0000 0.0000 47.9393 0.0000 0.0000
# 5 0.0000 0.0000 0.0000 0.0000 21.9844 0.0000
# 6 0.0000 0.0000 0.0000 0.0000 0.0000 39.5442
#
#
#
# Elastic Compliance Matrix: (Units=1/GPa)
#
#
# Indices 1 2 3 4 5 6 
#
# 1 0.022338 -0.003440 -0.004102 0.000000 0.000000 0.000000
# 2 -0.003440 0.006608 -0.003034 0.000000 0.000000 0.000000
# 3 -0.004102 -0.003034 0.012546 0.000000 0.000000 0.000000
# 4 0.000000 0.000000 0.000000 0.020860 0.000000 0.000000
# 5 0.000000 0.000000 0.000000 0.000000 0.045487 0.000000
# 6 0.000000 0.000000 0.000000 0.000000 0.000000 0.025288
#
#
# Mechanical properties :
#
#
# Convention : Reuss Voigt Hill
#
# Bulk Modulus (GPa) = 49.16736 70.29297 59.73016
# Shear Modulus (GPa) = 31.04434 37.15740 34.10087
#
# Velocity S-wave (km/s) = 3.96867 4.34186 4.15945
# Velocity P-wave (km/s) = 6.77831 7.79736 7.30562
#
# Compressibility (1/GPa) = 0.02033870
#
# Stress axis : x y z
#
# Youngs Moduli (GPa) = 44.76645 151.33769 79.70443
#
# Poissons Ratio (x) = 0.52058 0.32698
# Poissons Ratio (y) = 0.15399 0.24186
# Poissons Ratio (z) = 0.18365 0.45923
#
# Static dielectric constant tensor:
#      x y z
#    x 3.564380 0.000000 0.000000 
#    y 0.000000 4.266190 0.000000 
#    z 0.000000 0.000000 3.671390 
# 
# 
# High freq. dielectric constant tensor:
#      x y z
#    x 1.759360 0.000000 0.000000 
#    y 0.000000 1.804830 0.000000 
#    z 0.000000 0.000000 1.773590 
# 
# From -- ./inp_files/5117.got.cif
#   From: 2010.03.12/outbox.ucp.g09.slc.cvg/sg57_3_cif.got.tgz:5117.got - 2010.05.04 19:26:41.
