data_PCOD8235422
_publ_section_title
;
Structure prediction by ZEFSAII (Michael W. Deem and Ramdas Pophale) SiO2 
 PCOD8235422
Probable space group: P N N M
;
_chemical_formula_sum "Si O2"
_cell_formula_units_Z 64
_cell_length_a 24.215601
_cell_length_b 15.402850
_cell_length_c 9.329794
_cell_angle_alpha 90.000000
_cell_angle_beta 90.000000
_cell_angle_gamma 90.000000
_cell_volume 3479.913052
_symmetry_space_group_name_H-M "P N N M"
_symmetry_group_IT_number 58
_symmetry_cell_setting 'orthorhombic'
loop_
_space_group_symop_operation_xyz
x,y,z
-x,-y,z
1/2+x,1/2-y,1/2-z
1/2-x,1/2+y,1/2-z
-x,-y,-z
x,y,-z
1/2-x,1/2+y,1/2+z
1/2+x,1/2-y,1/2+z
loop_
_atom_site_type_symbol
_atom_site_label
_atom_site_fract_x
_atom_site_fract_y
_atom_site_fract_z
Si Si1 0.307422 0.818077 0.834478
Si Si2 0.082747 0.061107 0.169566
Si Si3 0.188552 0.122580 0.331335
Si Si4 0.963378 0.113749 0.833534
Si Si5 0.099755 0.530478 0.165438
Si Si6 0.568860 0.130401 0.167605
Si Si7 0.277410 0.981405 0.667123
Si Si8 0.467697 0.196430 0.334091
O O1 0.289047 0.719780 0.795400
O O2 0.372199 0.826785 0.797363
O O3 0.271708 0.888527 0.746103
O O4 0.296473 0.838910 0.000000
O O5 0.131666 0.108537 0.250614
O O6 0.025911 0.104902 0.224578
O O7 0.079038 0.959895 0.222267
O O8 0.093134 0.071290 0.000000
O O9 0.177684 0.115215 0.500000
O O10 0.232043 0.050181 0.278187
O O11 0.940482 0.209772 0.799733
O O12 0.969018 0.094377 0.000000
O O13 0.064901 0.464649 0.262086
O O14 0.164141 0.525663 0.203265
O O15 0.078967 0.626540 0.203736
O O16 0.088655 0.506937 0.000000
O O17 0.521886 0.188983 0.237658
O O18 0.557792 0.121798 0.000000
O O19 0.270633 0.962692 0.500000
O O20 0.485950 0.190346 0.500000
#
# Coordination Sequence:
#
# PCOD8235422 Si02
#       8
#     8   8   8   8   8   8   8   8
#     4   9  19  35  53  75 101 131 167 208 251 300
#     4   9  17  32  53  75 100 131 166 204 248 296
#     4  10  20  35  54  77 104 131 166 212 257 298
#     4   8  16  31  49  73 104 130 160 207 248 286
#     4   9  18  32  48  66  92 128 167 203 245 294
#     4  10  19  30  47  71 100 129 161 201 247 296
#     4   9  19  36  53  71  99 132 166 210 255 294
#     4  10  18  29  47  71  97 128 166 202 241 295
#
# _framework density 18.391262999999999
#
# number of rings (size 3 to 8) (size 9 to 14) (size 15 to 20)
#    0.000    2.750    0.000    2.250    0.000    3.500 
#    2.250    1.875    0.000    0.000    0.000    0.000 
#    0.000    0.000    0.000    0.000    0.000    0.000 
#
# Total GULP energy -793392.199045 kJ/mol
# GULP energy per Si atom -12396.753110 kJ/mol
# Density = 1.834940 g / cm^3
# Si number density = 18.391263 Si / 1000 Ang^3
#
#
#
# Elastic Constant Matrix: (Units=GPa)
#
#
# Indices 1 2 3 4 5 6 
#
# 1 44.0304 35.2124 20.7017 0.0000 0.0000 0.0000
# 2 35.2124 145.5050 38.9697 0.0000 0.0000 0.0000
# 3 20.7017 38.9697 44.6911 0.0000 0.0000 0.0000
# 4 0.0000 0.0000 0.0000 20.2605 0.0000 0.0000
# 5 0.0000 0.0000 0.0000 0.0000 20.3197 0.0000
# 6 0.0000 0.0000 0.0000 0.0000 0.0000 27.1772
#
#
#
# Elastic Compliance Matrix: (Units=1/GPa)
#
#
# Indices 1 2 3 4 5 6 
#
# 1 0.031446 -0.004839 -0.010347 0.000000 0.000000 0.000000
# 2 -0.004839 0.009711 -0.006227 0.000000 0.000000 0.000000
# 3 -0.010347 -0.006227 0.032598 0.000000 0.000000 0.000000
# 4 0.000000 0.000000 0.000000 0.049357 0.000000 0.000000
# 5 0.000000 0.000000 0.000000 0.000000 0.049213 0.000000
# 6 0.000000 0.000000 0.000000 0.000000 0.000000 0.036796
#
#
# Mechanical properties :
#
#
# Convention : Reuss Voigt Hill
#
# Bulk Modulus (GPa) = 32.33034 47.11046 39.72040
# Shear Modulus (GPa) = 19.06526 22.84097 20.95311
#
# Velocity S-wave (km/s) = 3.22319 3.52795 3.37901
# Velocity P-wave (km/s) = 5.60975 6.50127 6.07190
#
# Compressibility (1/GPa) = 0.03093069
#
# Stress axis : x y z
#
# Youngs Moduli (GPa) = 31.80032 102.97347 30.67651
#
# Poissons Ratio (x) = 0.49827 0.31741
# Poissons Ratio (y) = 0.15388 0.19101
# Poissons Ratio (z) = 0.32904 0.64117
#
# Static dielectric constant tensor:
#      x y z
#    x 3.215870 0.000000 0.000000 
#    y 0.000000 3.628990 0.000000 
#    z 0.000000 0.000000 3.201950 
# 
# 
# High freq. dielectric constant tensor:
#      x y z
#    x 1.691600 0.000000 0.000000 
#    y 0.000000 1.728620 0.000000 
#    z 0.000000 0.000000 1.692780 
# 
# From -- ./inp_files/9931.got.cif
#   From: 2010.06.25/outbox.cif.g09.slc.cpg/sg58_5_cif.got.tgz:9931.got - 2010.06.26 21:38:00.
