data_PCOD8235723
_publ_section_title
;
Structure prediction by ZEFSAII (Michael W. Deem and Ramdas Pophale) SiO2 
 PCOD8235723
Probable space group: P N N M
;
_chemical_formula_sum "Si O2"
_cell_formula_units_Z 56
_cell_length_a 9.572071
_cell_length_b 22.129994
_cell_length_c 13.797102
_cell_angle_alpha 90.000000
_cell_angle_beta 90.000000
_cell_angle_gamma 90.000000
_cell_volume 2922.638375
_symmetry_space_group_name_H-M "P N N M"
_symmetry_group_IT_number 58
_symmetry_cell_setting 'orthorhombic'
loop_
_space_group_symop_operation_xyz
x,y,z
-x,-y,z
1/2+x,1/2-y,1/2-z
1/2-x,1/2+y,1/2-z
-x,-y,-z
x,y,-z
1/2-x,1/2+y,1/2+z
1/2+x,1/2-y,1/2+z
loop_
_atom_site_type_symbol
_atom_site_label
_atom_site_fract_x
_atom_site_fract_y
_atom_site_fract_z
Si Si1 0.910812 0.439922 0.607812
Si Si2 0.969078 0.883968 0.614078
Si Si3 0.778537 0.776657 0.385784
Si Si4 0.234643 0.545257 0.801398
Si Si5 0.669873 0.141294 0.889700
Si Si6 0.760622 0.593826 0.799719
Si Si7 0.035539 0.640183 0.112504
O O1 0.843369 0.442248 0.500000
O O2 0.790754 0.436841 0.688717
O O3 0.000000 0.500000 0.627293
O O4 0.009259 0.380849 0.616609
O O5 0.949803 0.894009 0.500000
O O6 0.899310 0.821756 0.651366
O O7 0.894113 0.938942 0.671032
O O8 0.130816 0.881802 0.640098
O O9 0.781460 0.777722 0.500000
O O10 0.814078 0.709589 0.350095
O O11 0.625404 0.801081 0.352256
O O12 0.207934 0.475352 0.823542
O O13 0.130099 0.581011 0.871471
O O14 0.763429 0.100997 0.816427
O O15 0.725791 0.133692 0.000000
O O16 0.893458 0.635364 0.826802
O O17 0.996110 0.644717 0.000000
#
# Coordination Sequence:
#
# PCOD8235723 Si02
#       7
#     8   8   8   8   8   8   8
#     4  10  18  33  58  86 113 144 190 245 289 335
#     4  10  23  40  56  79 119 159 191 235 289 343
#     4   8  18  38  58  77 108 151 188 228 291 351
#     4  11  20  36  54  82 115 150 194 230 283 346
#     4  10  20  36  60  83 111 148 185 236 297 343
#     4  12  22  33  55  87 113 147 193 237 281 343
#     4  10  20  34  55  81 111 143 187 239 279 333
#
# _framework density 19.160768999999998
#
# number of rings (size 3 to 8) (size 9 to 14) (size 15 to 20)
#    0.000    1.857    2.857    2.571    0.000    4.571 
#    0.000    0.714    0.000    1.714    0.000    0.000 
#    0.000    0.000    0.000    0.000    0.000    0.000 
#
# Total GULP energy -694218.252049 kJ/mol
# GULP energy per Si atom -12396.754501 kJ/mol
# Density = 1.911716 g / cm^3
# Si number density = 19.160769 Si / 1000 Ang^3
#
#
#
# Elastic Constant Matrix: (Units=GPa)
#
#
# Indices 1 2 3 4 5 6 
#
# 1 99.7690 39.2465 27.6125 0.0000 0.0000 0.0000
# 2 39.2465 106.3278 21.1521 0.0000 0.0000 0.0000
# 3 27.6125 21.1521 83.9680 0.0000 0.0000 0.0000
# 4 0.0000 0.0000 0.0000 24.5139 0.0000 0.0000
# 5 0.0000 0.0000 0.0000 0.0000 27.2229 0.0000
# 6 0.0000 0.0000 0.0000 0.0000 0.0000 21.4913
#
#
#
# Elastic Compliance Matrix: (Units=1/GPa)
#
#
# Indices 1 2 3 4 5 6 
#
# 1 0.012443 -0.003978 -0.003090 0.000000 0.000000 0.000000
# 2 -0.003978 0.011173 -0.001506 0.000000 0.000000 0.000000
# 3 -0.003090 -0.001506 0.013305 0.000000 0.000000 0.000000
# 4 0.000000 0.000000 0.000000 0.040793 0.000000 0.000000
# 5 0.000000 0.000000 0.000000 0.000000 0.036734 0.000000
# 6 0.000000 0.000000 0.000000 0.000000 0.000000 0.046531
#
#
# Mechanical properties :
#
#
# Convention : Reuss Voigt Hill
#
# Bulk Modulus (GPa) = 50.57568 51.78744 51.18156
# Shear Modulus (GPa) = 27.06831 28.11586 27.59208
#
# Velocity S-wave (km/s) = 3.76266 3.83478 3.79889
# Velocity P-wave (km/s) = 6.73272 6.83329 6.78319
#
# Compressibility (1/GPa) = 0.01977235
#
# Stress axis : x y z
#
# Youngs Moduli (GPa) = 80.36502 89.50200 75.16081
#
# Poissons Ratio (x) = 0.35606 0.23223
# Poissons Ratio (y) = 0.31971 0.11321
# Poissons Ratio (z) = 0.24831 0.13482
#
# Static dielectric constant tensor:
#      x y z
#    x 3.358250 0.000000 0.000000 
#    y 0.000000 3.861960 0.000000 
#    z 0.000000 0.000000 3.598200 
# 
# 
# High freq. dielectric constant tensor:
#      x y z
#    x 1.719890 0.000000 0.000000 
#    y 0.000000 1.744030 0.000000 
#    z 0.000000 0.000000 1.748750 
# 
# From -- ./inp_files/20143.got.cif
#   From: 2010.06.25/outbox.cif.g09.slc.cpg/sg58_11_cif.got.tgz:20143.got - 2010.06.26 21:38:00.
