data_PCOD8235911
_publ_section_title
;
Structure prediction by ZEFSAII (Michael W. Deem and Ramdas Pophale) SiO2 
 PCOD8235911
Probable space group: P N N M
;
_chemical_formula_sum "Si O2"
_cell_formula_units_Z 64
_cell_length_a 12.950636
_cell_length_b 25.892210
_cell_length_c 9.354608
_cell_angle_alpha 90.000000
_cell_angle_beta 90.000000
_cell_angle_gamma 90.000000
_cell_volume 3136.792645
_symmetry_space_group_name_H-M "P N N M"
_symmetry_group_IT_number 58
_symmetry_cell_setting 'orthorhombic'
loop_
_space_group_symop_operation_xyz
x,y,z
-x,-y,z
1/2+x,1/2-y,1/2-z
1/2-x,1/2+y,1/2-z
-x,-y,-z
x,y,-z
1/2-x,1/2+y,1/2+z
1/2+x,1/2-y,1/2+z
loop_
_atom_site_type_symbol
_atom_site_label
_atom_site_fract_x
_atom_site_fract_y
_atom_site_fract_z
Si Si1 0.968425 0.943715 0.833219
Si Si2 0.253149 0.095696 0.168037
Si Si3 0.613264 0.099898 0.337458
Si Si4 0.088889 0.659579 0.831604
Si Si5 0.052399 0.836976 0.161584
Si Si6 0.472216 0.750791 0.836379
Si Si7 0.715322 0.182224 0.842089
Si Si8 0.117786 0.495487 0.336469
O O1 0.860516 0.919940 0.775233
O O2 0.053561 0.898757 0.801129
O O3 0.953480 0.954097 0.000000
O O4 0.000000 0.000000 0.764359
O O5 0.302432 0.142917 0.258815
O O6 0.323261 0.046826 0.202399
O O7 0.254011 0.110323 0.000000
O O8 0.636280 0.088685 0.500000
O O9 0.492539 0.112591 0.309898
O O10 0.680455 0.147838 0.288652
O O11 0.660859 0.051821 0.253635
O O12 0.043926 0.709979 0.753210
O O13 0.105043 0.671778 0.000000
O O14 0.163182 0.809447 0.175952
O O15 0.977643 0.806268 0.268409
O O16 0.009697 0.831108 0.000000
O O17 0.350460 0.765056 0.830105
O O18 0.511769 0.750214 0.000000
O O19 0.693338 0.157456 0.000000
O O20 0.131890 0.480262 0.500000
O O21 0.000000 0.500000 0.291454
#
# Coordination Sequence:
#
# PCOD8235911 Si02
#       8
#     8   8   8   8   8   8   8   8
#     4   9  20  38  60  86 114 150 200 249 287 336
#     4  10  20  34  55  83 115 155 199 239 289 343
#     4  10  20  32  50  78 113 148 187 237 285 337
#     4  10  20  35  55  82 117 151 185 230 287 345
#     4  10  21  39  63  88 115 149 193 240 287 340
#     4  10  21  38  60  87 119 149 186 234 286 348
#     4   9  20  37  59  84 111 149 190 231 284 345
#     4  10  19  30  49  78 112 151 194 239 287 348
#
# _framework density 20.403008
#
# number of rings (size 3 to 8) (size 9 to 14) (size 15 to 20)
#    0.000    2.250    1.250    1.125    1.750    3.750 
#    0.000    3.125    0.000    0.750    0.000    0.000 
#    0.000    0.000    0.000    0.000    0.000    0.000 
#
# Total GULP energy -793161.389113 kJ/mol
# GULP energy per Si atom -12393.146705 kJ/mol
# Density = 2.035657 g / cm^3
# Si number density = 20.403008 Si / 1000 Ang^3
#
#
#
# Elastic Constant Matrix: (Units=GPa)
#
#
# Indices 1 2 3 4 5 6 
#
# 1 91.3884 34.1197 23.3026 0.0000 0.0000 0.0000
# 2 34.1197 108.9704 57.2094 0.0000 0.0000 0.0000
# 3 23.3026 57.2094 64.9828 0.0000 0.0000 0.0000
# 4 0.0000 0.0000 0.0000 24.3225 0.0000 0.0000
# 5 0.0000 0.0000 0.0000 0.0000 24.9230 0.0000
# 6 0.0000 0.0000 0.0000 0.0000 0.0000 23.2467
#
#
#
# Elastic Compliance Matrix: (Units=1/GPa)
#
#
# Indices 1 2 3 4 5 6 
#
# 1 0.012520 -0.002906 -0.001931 0.000000 0.000000 0.000000
# 2 -0.002906 0.017738 -0.014574 0.000000 0.000000 0.000000
# 3 -0.001931 -0.014574 0.028912 0.000000 0.000000 0.000000
# 4 0.000000 0.000000 0.000000 0.041114 0.000000 0.000000
# 5 0.000000 0.000000 0.000000 0.000000 0.040124 0.000000
# 6 0.000000 0.000000 0.000000 0.000000 0.000000 0.043017
#
#
# Mechanical properties :
#
#
# Convention : Reuss Voigt Hill
#
# Bulk Modulus (GPa) = 49.14703 54.95612 52.05157
# Shear Modulus (GPa) = 21.83128 24.54578 23.18853
#
# Velocity S-wave (km/s) = 3.27464 3.47226 3.37490
# Velocity P-wave (km/s) = 6.19985 6.56272 6.38386
#
# Compressibility (1/GPa) = 0.02034711
#
# Stress axis : x y z
#
# Youngs Moduli (GPa) = 79.87394 56.37548 34.58798
#
# Poissons Ratio (x) = 0.16385 0.06678
# Poissons Ratio (y) = 0.23214 0.50409
# Poissons Ratio (z) = 0.15422 0.82162
#
# Static dielectric constant tensor:
#      x y z
#    x 3.712960 0.000000 0.000000 
#    y 0.000000 3.774600 0.000000 
#    z 0.000000 0.000000 3.554370 
# 
# 
# High freq. dielectric constant tensor:
#      x y z
#    x 1.788360 0.000000 0.000000 
#    y 0.000000 1.794870 0.000000 
#    z 0.000000 0.000000 1.779200 
# 
# From -- ./inp_files/6930.got.cif
#   From: 2010.06.25/outbox.cif.g09.slc.cpg/sg58_4_cif.got.tgz:6930.got - 2010.06.26 21:38:00.
