data_PCOD8235502
_publ_section_title
;
Structure prediction by ZEFSAII (Michael W. Deem and Ramdas Pophale) SiO2 
 PCOD8235502
Probable space group: P N N M
;
_chemical_formula_sum "Si O2"
_cell_formula_units_Z 64
_cell_length_a 22.343994
_cell_length_b 16.791924
_cell_length_c 9.153700
_cell_angle_alpha 90.000000
_cell_angle_beta 90.000000
_cell_angle_gamma 90.000000
_cell_volume 3434.455874
_symmetry_space_group_name_H-M "P N N M"
_symmetry_group_IT_number 58
_symmetry_cell_setting 'orthorhombic'
loop_
_space_group_symop_operation_xyz
x,y,z
-x,-y,z
1/2+x,1/2-y,1/2-z
1/2-x,1/2+y,1/2-z
-x,-y,-z
x,y,-z
1/2-x,1/2+y,1/2+z
1/2+x,1/2-y,1/2+z
loop_
_atom_site_type_symbol
_atom_site_label
_atom_site_fract_x
_atom_site_fract_y
_atom_site_fract_z
Si Si1 0.324428 0.085334 0.830468
Si Si2 0.692390 0.460108 0.673577
Si Si3 0.614671 0.075745 0.169649
Si Si4 0.969511 0.688621 0.825036
Si Si5 0.210248 0.326218 0.836224
Si Si6 0.376499 0.685927 0.662686
Si Si7 0.822521 0.138449 0.167299
Si Si8 0.103383 0.714743 0.167286
O O1 0.259893 0.056078 0.767745
O O2 0.346567 0.164373 0.750447
O O3 0.375446 0.018184 0.805735
O O4 0.317763 0.105800 0.000000
O O5 0.693041 0.450419 0.500000
O O6 0.644154 0.396572 0.740730
O O7 0.668906 0.547396 0.720183
O O8 0.556532 0.106758 0.257651
O O9 0.674210 0.117173 0.228023
O O10 0.606350 0.096413 0.000000
O O11 0.930417 0.763724 0.762488
O O12 0.037035 0.699653 0.769989
O O13 0.962921 0.683520 0.000000
O O14 0.183392 0.238326 0.840078
O O15 0.276204 0.317899 0.772827
O O16 0.210659 0.362522 0.000000
O O17 0.398788 0.665732 0.500000
O O18 0.883032 0.190568 0.181884
O O19 0.799254 0.139052 0.000000
O O20 0.105447 0.687375 0.000000
#
# Coordination Sequence:
#
# PCOD8235502 Si02
#       8
#     8   8   8   8   8   8   8   8
#     4  10  20  34  53  77 106 134 170 216 264 321
#     4   9  16  30  51  76 103 130 164 212 261 305
#     4  10  19  33  54  79 104 135 171 214 260 309
#     4   9  19  36  52  73 105 140 180 219 257 306
#     4  10  18  30  51  77 105 135 167 207 259 316
#     4   8  15  28  50  73  95 129 170 208 249 300
#     4  10  19  33  51  73 104 139 172 211 263 312
#     4  10  22  36  51  73 106 143 176 218 264 306
#
# _framework density 18.634682999999999
#
# number of rings (size 3 to 8) (size 9 to 14) (size 15 to 20)
#    0.000    2.500    1.250    2.250    0.000    3.500 
#    0.000    3.125    0.000    6.750    0.000    0.000 
#    0.000    6.000    0.000    0.000    0.000    0.000 
#
# Total GULP energy -793192.162629 kJ/mol
# GULP energy per Si atom -12393.627541 kJ/mol
# Density = 1.859227 g / cm^3
# Si number density = 18.634683 Si / 1000 Ang^3
#
#
#
# Elastic Constant Matrix: (Units=GPa)
#
#
# Indices 1 2 3 4 5 6 
#
# 1 59.0573 36.7133 14.0471 0.0000 0.0000 0.0000
# 2 36.7133 107.2644 26.4865 0.0000 0.0000 0.0000
# 3 14.0471 26.4865 37.9905 0.0000 0.0000 0.0000
# 4 0.0000 0.0000 0.0000 20.9634 0.0000 0.0000
# 5 0.0000 0.0000 0.0000 0.0000 20.5685 0.0000
# 6 0.0000 0.0000 0.0000 0.0000 0.0000 20.9864
#
#
#
# Elastic Compliance Matrix: (Units=1/GPa)
#
#
# Indices 1 2 3 4 5 6 
#
# 1 0.021881 -0.006633 -0.003466 0.000000 0.000000 0.000000
# 2 -0.006633 0.013272 -0.006801 0.000000 0.000000 0.000000
# 3 -0.003466 -0.006801 0.032345 0.000000 0.000000 0.000000
# 4 0.000000 0.000000 0.000000 0.047702 0.000000 0.000000
# 5 0.000000 0.000000 0.000000 0.000000 0.048618 0.000000
# 6 0.000000 0.000000 0.000000 0.000000 0.000000 0.047650
#
#
# Mechanical properties :
#
#
# Convention : Reuss Voigt Hill
#
# Bulk Modulus (GPa) = 29.67467 39.86734 34.77100
# Shear Modulus (GPa) = 19.49311 20.97467 20.23389
#
# Velocity S-wave (km/s) = 3.23780 3.35859 3.29875
# Velocity P-wave (km/s) = 5.47146 6.03993 5.76271
#
# Compressibility (1/GPa) = 0.03369877
#
# Stress axis : x y z
#
# Youngs Moduli (GPa) = 45.70235 75.34424 30.91653
#
# Poissons Ratio (x) = 0.49978 0.10715
# Poissons Ratio (y) = 0.30316 0.21025
# Poissons Ratio (z) = 0.15839 0.51239
#
# Static dielectric constant tensor:
#      x y z
#    x 3.366480 0.000000 0.000000 
#    y 0.000000 3.527730 0.000000 
#    z 0.000000 0.000000 3.161230 
# 
# 
# High freq. dielectric constant tensor:
#      x y z
#    x 1.709240 0.000000 0.000000 
#    y 0.000000 1.726710 0.000000 
#    z 0.000000 0.000000 1.692170 
# 
# From -- ./inp_files/9923.got.cif
#   From: 2010.06.25/outbox.cif.g09.slc.cpg/sg58_5_cif.got.tgz:9923.got - 2010.06.26 21:38:00.
