data_PCOD8235618
_publ_section_title
;
Structure prediction by ZEFSAII (Michael W. Deem and Ramdas Pophale) SiO2 
 PCOD8235618
Probable space group: P N N M
;
_chemical_formula_sum "Si O2"
_cell_formula_units_Z 48
_cell_length_a 20.282467
_cell_length_b 14.892596
_cell_length_c 8.799636
_cell_angle_alpha 90.000000
_cell_angle_beta 90.000000
_cell_angle_gamma 90.000000
_cell_volume 2658.005616
_symmetry_space_group_name_H-M "P N N M"
_symmetry_group_IT_number 58
_symmetry_cell_setting 'orthorhombic'
loop_
_space_group_symop_operation_xyz
x,y,z
-x,-y,z
1/2+x,1/2-y,1/2-z
1/2-x,1/2+y,1/2-z
-x,-y,-z
x,y,-z
1/2-x,1/2+y,1/2+z
1/2+x,1/2-y,1/2+z
loop_
_atom_site_type_symbol
_atom_site_label
_atom_site_fract_x
_atom_site_fract_y
_atom_site_fract_z
Si Si1 0.163068 0.799663 0.679161
Si Si2 0.692858 0.503901 0.820006
Si Si3 0.445035 0.572723 0.821065
Si Si4 0.043696 0.578683 0.823164
Si Si5 0.188340 0.616707 0.181058
Si Si6 0.976344 0.221242 0.823248
O O1 0.165348 0.785323 0.500000
O O2 0.200719 0.717570 0.759444
O O3 0.087402 0.808410 0.728918
O O4 0.199316 0.891981 0.728445
O O5 0.625098 0.461188 0.757625
O O6 0.754923 0.448582 0.754401
O O7 0.691425 0.496985 0.000000
O O8 0.500000 0.500000 0.777482
O O9 0.461073 0.665458 0.735167
O O10 0.443651 0.590988 0.000000
O O11 0.117946 0.581278 0.755440
O O12 0.008023 0.673809 0.794680
O O13 0.000000 0.500000 0.744956
O O14 0.050534 0.557133 0.000000
O O15 0.188265 0.620719 0.000000
O O16 0.962331 0.203252 0.000000
#
# Coordination Sequence:
#
# PCOD8235618 Si02
#       6
#     8   8   8   8   8   8
#     4  10  18  33  54  74  98 135 174 203 248 310
#     4   9  18  33  52  72  98 137 173 203 250 310
#     4  10  18  32  52  73 100 136 171 203 249 311
#     4   8  15  30  51  72  95 127 164 203 250 301
#     4   9  18  34  53  73  98 131 171 212 253 300
#     4  10  19  31  50  78 104 129 166 213 258 297
#
# _framework density 18.058653
#
# number of rings (size 3 to 8) (size 9 to 14) (size 15 to 20)
#    0.000    2.667    1.667    2.000    0.000    0.333 
#    3.000    2.500    0.000   12.500    0.000    0.000 
#    0.000    0.000    0.000    0.000    0.000    0.000 
#
# Total GULP energy -595073.764832 kJ/mol
# GULP energy per Si atom -12397.370101 kJ/mol
# Density = 1.801755 g / cm^3
# Si number density = 18.058653 Si / 1000 Ang^3
#
#
#
# Elastic Constant Matrix: (Units=GPa)
#
#
# Indices 1 2 3 4 5 6 
#
# 1 114.3863 91.2533 18.9272 0.0000 0.0000 0.0000
# 2 91.2533 161.2104 28.9566 0.0000 0.0000 0.0000
# 3 18.9272 28.9566 27.9465 0.0000 0.0000 0.0000
# 4 0.0000 0.0000 0.0000 26.0874 0.0000 0.0000
# 5 0.0000 0.0000 0.0000 0.0000 16.3275 0.0000
# 6 0.0000 0.0000 0.0000 0.0000 0.0000 38.2146
#
#
#
# Elastic Compliance Matrix: (Units=1/GPa)
#
#
# Indices 1 2 3 4 5 6 
#
# 1 0.016013 -0.008743 -0.001786 0.000000 0.000000 0.000000
# 2 -0.008743 0.012396 -0.006922 0.000000 0.000000 0.000000
# 3 -0.001786 -0.006922 0.044164 0.000000 0.000000 0.000000
# 4 0.000000 0.000000 0.000000 0.038333 0.000000 0.000000
# 5 0.000000 0.000000 0.000000 0.000000 0.061246 0.000000
# 6 0.000000 0.000000 0.000000 0.000000 0.000000 0.026168
#
#
# Mechanical properties :
#
#
# Convention : Reuss Voigt Hill
#
# Bulk Modulus (GPa) = 26.54580 64.64638 45.59609
# Shear Modulus (GPa) = 20.34349 27.08631 23.71490
#
# Velocity S-wave (km/s) = 3.36001 3.87707 3.62776
# Velocity P-wave (km/s) = 5.45753 7.47783 6.54609
#
# Compressibility (1/GPa) = 0.03767075
#
# Stress axis : x y z
#
# Youngs Moduli (GPa) = 62.44948 80.67359 22.64273
#
# Poissons Ratio (x) = 0.70536 0.04043
# Poissons Ratio (y) = 0.54602 0.15673
# Poissons Ratio (z) = 0.11151 0.55843
#
# Static dielectric constant tensor:
#      x y z
#    x 3.485750 0.000000 0.000000 
#    y 0.000000 3.578440 0.000000 
#    z 0.000000 0.000000 3.006960 
# 
# 
# High freq. dielectric constant tensor:
#      x y z
#    x 1.684790 0.000000 0.000000 
#    y 0.000000 1.710460 0.000000 
#    z 0.000000 0.000000 1.668110 
# 
# From -- ./inp_files/4220.got.cif
#   From: 2010.06.25/outbox.cif.g09.slc.cpg/sg58_3_cif.got.tgz:4220.got - 2010.06.26 21:38:00.
