data_PCOD8235474
_publ_section_title
;
Structure prediction by ZEFSAII (Michael W. Deem and Ramdas Pophale) SiO2 
 PCOD8235474
Probable space group: P N N M
;
_chemical_formula_sum "Si O2"
_cell_formula_units_Z 64
_cell_length_a 33.448339
_cell_length_b 8.320063
_cell_length_c 12.069358
_cell_angle_alpha 90.000000
_cell_angle_beta 90.000000
_cell_angle_gamma 90.000000
_cell_volume 3358.809249
_symmetry_space_group_name_H-M "P N N M"
_symmetry_group_IT_number 58
_symmetry_cell_setting 'orthorhombic'
loop_
_space_group_symop_operation_xyz
x,y,z
-x,-y,z
1/2+x,1/2-y,1/2-z
1/2-x,1/2+y,1/2-z
-x,-y,-z
x,y,-z
1/2-x,1/2+y,1/2+z
1/2+x,1/2-y,1/2+z
loop_
_atom_site_type_symbol
_atom_site_label
_atom_site_fract_x
_atom_site_fract_y
_atom_site_fract_z
Si Si1 0.838372 0.387269 0.127643
Si Si2 0.408579 0.332906 0.303548
Si Si3 0.718132 0.657154 0.742079
Si Si4 0.435716 0.666340 0.623481
Si Si5 0.854134 0.006493 0.630203
Si Si6 0.718740 0.338127 0.376046
Si Si7 0.984710 0.323082 0.870210
Si Si8 0.642369 0.219273 0.721032
O O1 0.873169 0.255153 0.131378
O O2 0.797607 0.305544 0.168512
O O3 0.846797 0.530953 0.215584
O O4 0.833850 0.448632 0.000000
O O5 0.425239 0.478989 0.377031
O O6 0.392250 0.405060 0.187428
O O7 0.446039 0.211337 0.292539
O O8 0.685992 0.597952 0.832626
O O9 0.730327 0.517274 0.658251
O O10 0.758910 0.707487 0.801314
O O11 0.433642 0.736103 0.500000
O O12 0.480583 0.698333 0.666862
O O13 0.404043 0.769352 0.692072
O O14 0.859749 0.021370 0.500000
O O15 0.851471 0.815884 0.662762
O O16 0.733144 0.311169 0.500000
O O17 0.670897 0.313167 0.366110
O O18 0.000000 0.500000 0.842761
O O19 0.973103 0.305228 0.000000
#
# Coordination Sequence:
#
# PCOD8235474 Si02
#       8
#     8   8   8   8   8   8   8   8
#     4  11  20  34  54  80 114 141 170 213 264 321
#     4  10  20  32  53  79 106 141 180 216 263 321
#     4  10  22  36  55  83 107 141 182 217 266 323
#     4  10  18  30  49  75 108 141 174 212 261 319
#     4   9  20  40  59  76 103 140 186 234 272 308
#     4  11  21  37  56  77 109 140 176 222 267 316
#     4  10  19  30  48  78 115 148 175 212 267 327
#     4  10  21  34  54  79 103 138 178 216 265 320
#
# _framework density 19.054372000000001
#
# number of rings (size 3 to 8) (size 9 to 14) (size 15 to 20)
#    0.000    1.875    0.000    5.625    0.000    2.000 
#    0.000   11.250    0.000    6.375    0.000    0.000 
#    0.000    0.000    0.000    0.000    0.000    0.000 
#
# Total GULP energy -793378.989118 kJ/mol
# GULP energy per Si atom -12396.546705 kJ/mol
# Density = 1.901100 g / cm^3
# Si number density = 19.054372 Si / 1000 Ang^3
#
#
#
# Elastic Constant Matrix: (Units=GPa)
#
#
# Indices 1 2 3 4 5 6 
#
# 1 71.0228 5.9588 24.9126 0.0000 0.0000 0.0000
# 2 5.9588 88.1484 19.5969 0.0000 0.0000 0.0000
# 3 24.9126 19.5969 84.1081 0.0000 0.0000 0.0000
# 4 0.0000 0.0000 0.0000 22.1538 0.0000 0.0000
# 5 0.0000 0.0000 0.0000 0.0000 19.2582 0.0000
# 6 0.0000 0.0000 0.0000 0.0000 0.0000 37.2178
#
#
#
# Elastic Compliance Matrix: (Units=1/GPa)
#
#
# Indices 1 2 3 4 5 6 
#
# 1 0.015713 -0.000029 -0.004647 0.000000 0.000000 0.000000
# 2 -0.000029 0.011964 -0.002779 0.000000 0.000000 0.000000
# 3 -0.004647 -0.002779 0.013913 0.000000 0.000000 0.000000
# 4 0.000000 0.000000 0.000000 0.045139 0.000000 0.000000
# 5 0.000000 0.000000 0.000000 0.000000 0.051926 0.000000
# 6 0.000000 0.000000 0.000000 0.000000 0.000000 0.026869
#
#
# Mechanical properties :
#
#
# Convention : Reuss Voigt Hill
#
# Bulk Modulus (GPa) = 37.48167 38.24620 37.86394
# Shear Modulus (GPa) = 26.40920 28.58002 27.49461
#
# Velocity S-wave (km/s) = 3.72693 3.87708 3.80275
# Velocity P-wave (km/s) = 6.18333 6.33704 6.26066
#
# Compressibility (1/GPa) = 0.02667970
#
# Stress axis : x y z
#
# Youngs Moduli (GPa) = 63.64349 83.58200 71.87281
#
# Poissons Ratio (x) = 0.00242 0.33401
# Poissons Ratio (y) = 0.00185 0.19974
# Poissons Ratio (z) = 0.29577 0.23228
#
# Static dielectric constant tensor:
#      x y z
#    x 3.629410 0.000000 0.000000 
#    y 0.000000 3.674310 0.000000 
#    z 0.000000 0.000000 3.085420 
# 
# 
# High freq. dielectric constant tensor:
#      x y z
#    x 1.750970 0.000000 0.000000 
#    y 0.000000 1.755170 0.000000 
#    z 0.000000 0.000000 1.693990 
# 
# From -- ./inp_files/18012.got.cif
#   From: 2010.06.25/outbox.cif.g09.slc.cpg/sg58_10_cif.got.tgz:18012.got - 2010.06.26 21:38:00.
