data_PCOD8235421
_publ_section_title
;
Structure prediction by ZEFSAII (Michael W. Deem and Ramdas Pophale) SiO2 
 PCOD8235421
Probable space group: P N N M
;
_chemical_formula_sum "Si O2"
_cell_formula_units_Z 64
_cell_length_a 15.475675
_cell_length_b 13.669126
_cell_length_c 18.605902
_cell_angle_alpha 90.000000
_cell_angle_beta 90.000000
_cell_angle_gamma 90.000000
_cell_volume 3935.873001
_symmetry_space_group_name_H-M "P N N M"
_symmetry_group_IT_number 58
_symmetry_cell_setting 'orthorhombic'
loop_
_space_group_symop_operation_xyz
x,y,z
-x,-y,z
1/2+x,1/2-y,1/2-z
1/2-x,1/2+y,1/2-z
-x,-y,-z
x,y,-z
1/2-x,1/2+y,1/2+z
1/2+x,1/2-y,1/2+z
loop_
_atom_site_type_symbol
_atom_site_label
_atom_site_fract_x
_atom_site_fract_y
_atom_site_fract_z
Si Si1 0.293624 0.288972 0.914683
Si Si2 0.558863 0.646313 0.186315
Si Si3 0.940316 0.413961 0.919427
Si Si4 0.657169 0.356955 0.654603
Si Si5 0.903850 0.040670 0.081004
Si Si6 0.876938 0.932175 0.307934
Si Si7 0.749334 0.994773 0.421242
Si Si8 0.032530 0.781634 0.839641
O O1 0.388224 0.298766 0.877002
O O2 0.237278 0.206130 0.874957
O O3 0.244912 0.390939 0.900457
O O4 0.304001 0.265507 0.000000
O O5 0.461733 0.621704 0.160372
O O6 0.602494 0.544744 0.212378
O O7 0.550656 0.716690 0.254851
O O8 0.844921 0.453329 0.920316
O O9 0.945916 0.325790 0.864959
O O10 0.000000 0.500000 0.889311
O O11 0.969615 0.382373 0.000000
O O12 0.661246 0.461853 0.615169
O O13 0.663178 0.375698 0.739801
O O14 0.566335 0.304042 0.638309
O O15 0.901184 0.143052 0.122915
O O16 0.874178 0.060357 0.000000
O O17 0.000000 0.000000 0.086204
O O18 0.806102 0.928132 0.369535
O O19 0.791752 0.985927 0.500000
#
# Coordination Sequence:
#
# PCOD8235421 Si02
#       8
#     8   8   8   8   8   8   8   8
#     4  10  20  32  48  72 101 131 162 202 254 305
#     4   9  18  32  49  71  97 125 165 207 250 298
#     4  10  20  32  47  69  99 133 165 199 240 293
#     4  10  18  29  47  70  99 127 156 199 250 300
#     4   9  16  26  43  68  95 123 154 188 233 293
#     4   9  17  32  50  69  96 129 162 208 255 289
#     4   9  19  33  48  69  96 129 167 202 241 294
#     4  10  18  30  47  69  95 129 162 196 244 293
#
# _framework density 16.260687999999998
#
# number of rings (size 3 to 8) (size 9 to 14) (size 15 to 20)
#    0.000    2.500    1.250    1.500    1.750    3.000 
#    0.000    2.500    0.000    0.000    0.000    0.000 
#    0.000    0.500    0.000    0.375    0.000    0.000 
#
# Total GULP energy -793373.913072 kJ/mol
# GULP energy per Si atom -12396.467392 kJ/mol
# Density = 1.622368 g / cm^3
# Si number density = 16.260688 Si / 1000 Ang^3
#
#
#
# Elastic Constant Matrix: (Units=GPa)
#
#
# Indices 1 2 3 4 5 6 
#
# 1 69.7252 41.4983 49.5295 0.0000 0.0000 0.0000
# 2 41.4983 89.5116 49.5485 0.0000 0.0000 0.0000
# 3 49.5295 49.5485 91.0984 0.0000 0.0000 0.0000
# 4 0.0000 0.0000 0.0000 30.1863 0.0000 0.0000
# 5 0.0000 0.0000 0.0000 0.0000 26.8329 0.0000
# 6 0.0000 0.0000 0.0000 0.0000 0.0000 24.2624
#
#
#
# Elastic Compliance Matrix: (Units=1/GPa)
#
#
# Indices 1 2 3 4 5 6 
#
# 1 0.025375 -0.005905 -0.010585 0.000000 0.000000 0.000000
# 2 -0.005905 0.017358 -0.006231 0.000000 0.000000 0.000000
# 3 -0.010585 -0.006231 0.020121 0.000000 0.000000 0.000000
# 4 0.000000 0.000000 0.000000 0.033128 0.000000 0.000000
# 5 0.000000 0.000000 0.000000 0.000000 0.037268 0.000000
# 6 0.000000 0.000000 0.000000 0.000000 0.000000 0.041216
#
#
# Mechanical properties :
#
#
# Convention : Reuss Voigt Hill
#
# Bulk Modulus (GPa) = 57.42605 59.05422 58.24013
# Shear Modulus (GPa) = 22.15220 23.57358 22.86289
#
# Velocity S-wave (km/s) = 3.69496 3.81166 3.75376
# Velocity P-wave (km/s) = 7.32094 7.46778 7.39472
#
# Compressibility (1/GPa) = 0.01741370
#
# Stress axis : x y z
#
# Youngs Moduli (GPa) = 39.40817 57.60911 49.69999
#
# Poissons Ratio (x) = 0.34020 0.52605
# Poissons Ratio (y) = 0.23272 0.30966
# Poissons Ratio (z) = 0.41712 0.35894
#
# Static dielectric constant tensor:
#      x y z
#    x 2.917800 0.000000 0.000000 
#    y 0.000000 2.907160 0.000000 
#    z 0.000000 0.000000 3.172210 
# 
# 
# High freq. dielectric constant tensor:
#      x y z
#    x 1.605050 0.000000 0.000000 
#    y 0.000000 1.615190 0.000000 
#    z 0.000000 0.000000 1.629160 
# 
# From -- ./inp_files/27008.got.cif
#   From: 2010.06.25/outbox.cif.g09.slc.cpg/sg58_14_cif.got.tgz:27008.got - 2010.06.26 21:38:00.
