data_PCOD8235873
_publ_section_title
;
Structure prediction by ZEFSAII (Michael W. Deem and Ramdas Pophale) SiO2 
 PCOD8235873
Probable space group: P N N M
;
_chemical_formula_sum "Si O2"
_cell_formula_units_Z 56
_cell_length_a 18.480866
_cell_length_b 6.339879
_cell_length_c 22.163333
_cell_angle_alpha 90.000000
_cell_angle_beta 90.000000
_cell_angle_gamma 90.000000
_cell_volume 2596.799142
_symmetry_space_group_name_H-M "P N N M"
_symmetry_group_IT_number 58
_symmetry_cell_setting 'orthorhombic'
loop_
_space_group_symop_operation_xyz
x,y,z
-x,-y,z
1/2+x,1/2-y,1/2-z
1/2-x,1/2+y,1/2-z
-x,-y,-z
x,y,-z
1/2-x,1/2+y,1/2+z
1/2+x,1/2-y,1/2+z
loop_
_atom_site_type_symbol
_atom_site_label
_atom_site_fract_x
_atom_site_fract_y
_atom_site_fract_z
Si Si1 0.717951 0.464036 0.433986
Si Si2 0.178512 0.366482 0.763771
Si Si3 0.854679 0.713058 0.433449
Si Si4 0.401060 0.314240 0.204066
Si Si5 0.232717 0.923727 0.371255
Si Si6 0.315021 0.400407 0.688741
Si Si7 0.943463 0.705059 0.681192
O O1 0.680741 0.492193 0.500000
O O2 0.803374 0.511493 0.438526
O O3 0.717059 0.220781 0.413559
O O4 0.677852 0.614741 0.384415
O O5 0.212780 0.516715 0.817710
O O6 0.233077 0.348900 0.707656
O O7 0.103730 0.437641 0.729512
O O8 0.167980 0.142330 0.794578
O O9 0.886675 0.768109 0.500000
O O10 0.920543 0.669484 0.388088
O O11 0.802042 0.898708 0.411579
O O12 0.330468 0.285532 0.161658
O O13 0.373655 0.262860 0.272904
O O14 0.469254 0.161596 0.185338
O O15 0.428287 0.553702 0.198995
#
# Coordination Sequence:
#
# PCOD8235873 Si02
#       7
#     8   8   8   8   8   8   8
#     4  10  19  30  47  70  95 123 157 194 230 276
#     4   9  16  26  48  67  89 118 150 199 245 265
#     4  10  19  31  48  68  95 129 159 187 226 280
#     4   8  16  28  48  68  94 122 156 195 243 271
#     4   9  18  32  47  68  92 123 159 198 231 274
#     4   9  16  28  45  69  89 119 152 198 237 277
#     4   9  15  29  46  71  95 122 157 195 232 287
#
# _framework density 21.565010999999998
#
# number of rings (size 3 to 8) (size 9 to 14) (size 15 to 20)
#    0.000    2.857    1.429    1.286    0.000    0.000 
#    0.000    7.143    0.000    1.714    0.000   19.000 
#    0.000    2.286    0.000    0.000    0.000    0.000 
#
# Total GULP energy -693916.075191 kJ/mol
# GULP energy per Si atom -12391.358486 kJ/mol
# Density = 2.151593 g / cm^3
# Si number density = 21.565011 Si / 1000 Ang^3
#
#
#
# Elastic Constant Matrix: (Units=GPa)
#
#
# Indices 1 2 3 4 5 6 
#
# 1 82.7943 18.8116 58.6262 0.0000 0.0000 0.0000
# 2 18.8116 29.6627 33.7029 0.0000 0.0000 0.0000
# 3 58.6262 33.7029 204.7338 0.0000 0.0000 0.0000
# 4 0.0000 0.0000 0.0000 25.6844 0.0000 0.0000
# 5 0.0000 0.0000 0.0000 0.0000 27.6506 0.0000
# 6 0.0000 0.0000 0.0000 0.0000 0.0000 35.6201
#
#
#
# Elastic Compliance Matrix: (Units=1/GPa)
#
#
# Indices 1 2 3 4 5 6 
#
# 1 0.015993 -0.006075 -0.003580 0.000000 0.000000 0.000000
# 2 -0.006075 0.043777 -0.005467 0.000000 0.000000 0.000000
# 3 -0.003580 -0.005467 0.006809 0.000000 0.000000 0.000000
# 4 0.000000 0.000000 0.000000 0.038934 0.000000 0.000000
# 5 0.000000 0.000000 0.000000 0.000000 0.036166 0.000000
# 6 0.000000 0.000000 0.000000 0.000000 0.000000 0.028074
#
#
# Mechanical properties :
#
#
# Convention : Reuss Voigt Hill
#
# Bulk Modulus (GPa) = 27.52118 59.94134 43.73126
# Shear Modulus (GPa) = 23.57288 31.52770 27.55029
#
# Velocity S-wave (km/s) = 3.30980 3.82774 3.57815
# Velocity P-wave (km/s) = 5.23413 6.88414 6.11504
#
# Compressibility (1/GPa) = 0.03633566
#
# Stress axis : x y z
#
# Youngs Moduli (GPa) = 62.52659 22.84325 146.85731
#
# Poissons Ratio (x) = 0.13878 0.52569
# Poissons Ratio (y) = 0.37988 0.80282
# Poissons Ratio (z) = 0.22382 0.12488
#
# Static dielectric constant tensor:
#      x y z
#    x 4.071620 0.000000 0.000000 
#    y 0.000000 4.232760 0.000000 
#    z 0.000000 0.000000 4.201200 
# 
# 
# High freq. dielectric constant tensor:
#      x y z
#    x 1.799380 0.000000 0.000000 
#    y 0.000000 1.890870 0.000000 
#    z 0.000000 0.000000 1.840380 
# 
# From -- ./inp_files/32323.got.cif
#   From: 2010.06.25/outbox.cif.g09.slc.cpg/sg58_17_cif.got.tgz:32323.got - 2010.06.26 21:38:00.
