data_PCOD8235965
_publ_section_title
;
Structure prediction by ZEFSAII (Michael W. Deem and Ramdas Pophale) SiO2 
 PCOD8235965
Probable space group: P N N M
;
_chemical_formula_sum "Si O2"
_cell_formula_units_Z 48
_cell_length_a 17.943910
_cell_length_b 12.713029
_cell_length_c 10.826307
_cell_angle_alpha 90.000000
_cell_angle_beta 90.000000
_cell_angle_gamma 90.000000
_cell_volume 2469.712832
_symmetry_space_group_name_H-M "P N N M"
_symmetry_group_IT_number 58
_symmetry_cell_setting 'orthorhombic'
loop_
_space_group_symop_operation_xyz
x,y,z
-x,-y,z
1/2+x,1/2-y,1/2-z
1/2-x,1/2+y,1/2-z
-x,-y,-z
x,y,-z
1/2-x,1/2+y,1/2+z
1/2+x,1/2-y,1/2+z
loop_
_atom_site_type_symbol
_atom_site_label
_atom_site_fract_x
_atom_site_fract_y
_atom_site_fract_z
Si Si1 0.671407 0.619921 0.198068
Si Si2 0.014048 0.817478 0.357292
Si Si3 0.237167 0.181412 0.863472
Si Si4 0.644800 0.390034 0.863457
Si Si5 0.706436 0.043730 0.861354
Si Si6 0.451729 0.904467 0.852528
O O1 0.585005 0.647347 0.224365
O O2 0.712465 0.714378 0.127457
O O3 0.676078 0.508471 0.126631
O O4 0.717299 0.601010 0.322754
O O5 0.040644 0.815128 0.500000
O O6 0.944288 0.896317 0.339968
O O7 0.988382 0.703824 0.308929
O O8 0.180167 0.180304 0.747050
O O9 0.291249 0.082035 0.843483
O O10 0.197641 0.171013 0.000000
O O11 0.658958 0.337249 0.000000
O O12 0.631574 0.086042 0.793801
O O13 0.696688 0.077339 0.000000
O O14 0.500000 0.000000 0.798240
O O15 0.449169 0.910277 0.000000
#
# Coordination Sequence:
#
# PCOD8235965 Si02
#       6
#     8   8   8   8   8   8
#     4  11  20  32  53  77 104 139 176 215 260 312
#     4  10  19  31  49  74 102 132 172 219 260 303
#     4  10  20  34  53  77 105 137 173 214 261 316
#     4  10  21  36  54  77 106 139 175 218 265 311
#     4   9  19  34  50  74 107 138 171 214 265 316
#     4   9  16  28  49  74 100 131 168 216 268 309
#
# _framework density 19.435459000000002
#
# number of rings (size 3 to 8) (size 9 to 14) (size 15 to 20)
#    0.000    2.167    0.000    4.000    0.000    6.000 
#    0.000    0.833    0.000    4.000    0.000    0.000 
#    0.000   17.333    0.000    0.000    0.000    0.000 
#
# Total GULP energy -594650.007828 kJ/mol
# GULP energy per Si atom -12388.541830 kJ/mol
# Density = 1.939122 g / cm^3
# Si number density = 19.435459 Si / 1000 Ang^3
#
#
#
# Elastic Constant Matrix: (Units=GPa)
#
#
# Indices 1 2 3 4 5 6 
#
# 1 141.5226 46.2612 48.3822 0.0000 0.0000 0.0000
# 2 46.2612 97.2058 26.7734 0.0000 0.0000 0.0000
# 3 48.3822 26.7734 66.3872 0.0000 0.0000 0.0000
# 4 0.0000 0.0000 0.0000 7.8481 0.0000 0.0000
# 5 0.0000 0.0000 0.0000 0.0000 26.9273 0.0000
# 6 0.0000 0.0000 0.0000 0.0000 0.0000 34.8517
#
#
#
# Elastic Compliance Matrix: (Units=1/GPa)
#
#
# Indices 1 2 3 4 5 6 
#
# 1 0.010206 -0.003159 -0.006164 0.000000 0.000000 0.000000
# 2 -0.003159 0.012551 -0.002759 0.000000 0.000000 0.000000
# 3 -0.006164 -0.002759 0.020668 0.000000 0.000000 0.000000
# 4 0.000000 0.000000 0.000000 0.127419 0.000000 0.000000
# 5 0.000000 0.000000 0.000000 0.000000 0.037137 0.000000
# 6 0.000000 0.000000 0.000000 0.000000 0.000000 0.028693
#
#
# Mechanical properties :
#
#
# Convention : Reuss Voigt Hill
#
# Bulk Modulus (GPa) = 51.92063 60.88326 56.40195
# Shear Modulus (GPa) = 18.70842 26.17200 22.44021
#
# Velocity S-wave (km/s) = 3.10593 3.67360 3.40163
# Velocity P-wave (km/s) = 6.29562 7.02764 6.67167
#
# Compressibility (1/GPa) = 0.01926017
#
# Stress axis : x y z
#
# Youngs Moduli (GPa) = 97.98168 79.67484 48.38392
#
# Poissons Ratio (x) = 0.25173 0.29823
# Poissons Ratio (y) = 0.30957 0.13350
# Poissons Ratio (z) = 0.60394 0.21984
#
# Static dielectric constant tensor:
#      x y z
#    x 3.688670 0.000000 0.000000 
#    y 0.000000 3.737340 0.000000 
#    z 0.000000 0.000000 3.237210 
# 
# 
# High freq. dielectric constant tensor:
#      x y z
#    x 1.757020 0.000000 0.000000 
#    y 0.000000 1.776680 0.000000 
#    z 0.000000 0.000000 1.703820 
# 
# From -- ./inp_files/14357.got.cif
#   From: 2010.06.25/outbox.cif.g09.slc.cpg/sg58_8_cif.got.tgz:14357.got - 2010.06.26 21:38:00.
