data_PCOD8235707
_publ_section_title
;
Structure prediction by ZEFSAII (Michael W. Deem and Ramdas Pophale) SiO2 
 PCOD8235707
Probable space group: P N N M
;
_chemical_formula_sum "Si O2"
_cell_formula_units_Z 64
_cell_length_a 9.983369
_cell_length_b 35.956623
_cell_length_c 9.260033
_cell_angle_alpha 90.000000
_cell_angle_beta 90.000000
_cell_angle_gamma 90.000000
_cell_volume 3324.057706
_symmetry_space_group_name_H-M "P N N M"
_symmetry_group_IT_number 58
_symmetry_cell_setting 'orthorhombic'
loop_
_space_group_symop_operation_xyz
x,y,z
-x,-y,z
1/2+x,1/2-y,1/2-z
1/2-x,1/2+y,1/2-z
-x,-y,-z
x,y,-z
1/2-x,1/2+y,1/2+z
1/2+x,1/2-y,1/2+z
loop_
_atom_site_type_symbol
_atom_site_label
_atom_site_fract_x
_atom_site_fract_y
_atom_site_fract_z
Si Si1 0.621837 0.106754 0.330553
Si Si2 0.362380 0.149526 0.668649
Si Si3 0.767059 0.271459 0.829365
Si Si4 0.594327 0.633457 0.170795
Si Si5 0.642650 0.486028 0.333382
Si Si6 0.400269 0.968011 0.166589
Si Si7 0.461364 0.283666 0.170145
Si Si8 0.659610 0.411684 0.171101
O O1 0.631193 0.098431 0.500000
O O2 0.516030 0.139520 0.297722
O O3 0.762505 0.120920 0.265179
O O4 0.573199 0.069075 0.256170
O O5 0.331022 0.151482 0.500000
O O6 0.325577 0.189708 0.733414
O O7 0.267272 0.117554 0.733220
O O8 0.609400 0.268539 0.791569
O O9 0.846204 0.238951 0.750436
O O10 0.790933 0.267987 0.000000
O O11 0.550834 0.674006 0.227063
O O12 0.486420 0.602830 0.219118
O O13 0.603563 0.635390 0.000000
O O14 0.500000 0.500000 0.274295
O O15 0.632888 0.474103 0.500000
O O16 0.747696 0.519165 0.310303
O O17 0.691179 0.450833 0.243234
O O18 0.500000 0.000000 0.223483
O O19 0.431398 0.959282 0.000000
O O20 0.434843 0.281106 0.000000
O O21 0.671184 0.416574 0.000000
#
# Coordination Sequence:
#
# PCOD8235707 Si02
#       8
#     8   8   8   8   8   8   8   8
#     4  10  20  33  54  81 104 133 180 227 265 315
#     4   9  18  34  55  79 105 138 177 221 271 317
#     4  10  21  38  59  84 116 150 187 229 277 333
#     4   9  18  34  55  79 107 140 177 221 274 323
#     4  10  21  35  51  74 105 138 171 210 263 321
#     4  10  21  37  53  72 105 144 175 210 267 327
#     4  10  21  38  59  84 116 151 187 229 277 333
#     4  10  18  33  56  77 100 133 176 221 265 314
#
# _framework density 19.253577
#
# number of rings (size 3 to 8) (size 9 to 14) (size 15 to 20)
#    0.000    2.250    1.250    1.500    1.750    1.500 
#    0.000    2.500    0.000    0.000    0.000    0.000 
#    0.000    0.000    0.000    0.000    0.000    0.000 
#
# Total GULP energy -793691.514019 kJ/mol
# GULP energy per Si atom -12401.429907 kJ/mol
# Density = 1.920976 g / cm^3
# Si number density = 19.253577 Si / 1000 Ang^3
#
#
#
# Elastic Constant Matrix: (Units=GPa)
#
#
# Indices 1 2 3 4 5 6 
#
# 1 88.1441 7.5486 18.7272 0.0000 0.0000 0.0000
# 2 7.5486 78.2778 24.9792 0.0000 0.0000 0.0000
# 3 18.7272 24.9792 32.2543 0.0000 0.0000 0.0000
# 4 0.0000 0.0000 0.0000 26.7845 0.0000 0.0000
# 5 0.0000 0.0000 0.0000 0.0000 24.9477 0.0000
# 6 0.0000 0.0000 0.0000 0.0000 0.0000 35.4955
#
#
#
# Elastic Compliance Matrix: (Units=1/GPa)
#
#
# Indices 1 2 3 4 5 6 
#
# 1 0.013080 0.001544 -0.008790 0.000000 0.000000 0.000000
# 2 0.001544 0.017151 -0.014178 0.000000 0.000000 0.000000
# 3 -0.008790 -0.014178 0.047088 0.000000 0.000000 0.000000
# 4 0.000000 0.000000 0.000000 0.037335 0.000000 0.000000
# 5 0.000000 0.000000 0.000000 0.000000 0.040084 0.000000
# 6 0.000000 0.000000 0.000000 0.000000 0.000000 0.028173
#
#
# Mechanical properties :
#
#
# Convention : Reuss Voigt Hill
#
# Bulk Modulus (GPa) = 29.01169 33.46512 31.23841
# Shear Modulus (GPa) = 21.07488 27.27362 24.17425
#
# Velocity S-wave (km/s) = 3.31206 3.76779 3.54725
# Velocity P-wave (km/s) = 5.45227 6.02887 5.74780
#
# Compressibility (1/GPa) = 0.03446886
#
# Stress axis : x y z
#
# Youngs Moduli (GPa) = 76.45020 58.30690 21.23705
#
# Poissons Ratio (x) = -0.09000 0.18667
# Poissons Ratio (y) = -0.11801 0.30111
# Poissons Ratio (z) = 0.67200 0.82670
#
# Static dielectric constant tensor:
#      x y z
#    x 3.741920 0.000000 0.000000 
#    y 0.000000 3.529440 0.000000 
#    z 0.000000 0.000000 3.112860 
# 
# 
# High freq. dielectric constant tensor:
#      x y z
#    x 1.768320 0.000000 0.000000 
#    y 0.000000 1.754800 0.000000 
#    z 0.000000 0.000000 1.708120 
# 
# From -- ./inp_files/13449.got.cif
#   From: 2010.06.25/outbox.cif.g09.slc.cpg/sg58_7_cif.got.tgz:13449.got - 2010.06.26 21:38:00.
