data_PCOD8235480
_publ_section_title
;
Structure prediction by ZEFSAII (Michael W. Deem and Ramdas Pophale) SiO2 
 PCOD8235480
Probable space group: P N N M
;
_chemical_formula_sum "Si O2"
_cell_formula_units_Z 56
_cell_length_a 19.091274
_cell_length_b 19.271984
_cell_length_c 8.909902
_cell_angle_alpha 90.000000
_cell_angle_beta 90.000000
_cell_angle_gamma 90.000000
_cell_volume 3278.191081
_symmetry_space_group_name_H-M "P N N M"
_symmetry_group_IT_number 58
_symmetry_cell_setting 'orthorhombic'
loop_
_space_group_symop_operation_xyz
x,y,z
-x,-y,z
1/2+x,1/2-y,1/2-z
1/2-x,1/2+y,1/2-z
-x,-y,-z
x,y,-z
1/2-x,1/2+y,1/2+z
1/2+x,1/2-y,1/2+z
loop_
_atom_site_type_symbol
_atom_site_label
_atom_site_fract_x
_atom_site_fract_y
_atom_site_fract_z
Si Si1 0.985046 0.300732 0.677014
Si Si2 0.750000 0.828783 0.326187
Si Si3 0.255491 0.382715 0.322251
Si Si4 0.791781 0.481320 0.174782
Si Si5 0.064140 0.551096 0.325545
Si Si6 0.849850 0.223831 0.324549
Si Si7 0.637965 0.222637 0.824198
O O1 0.992788 0.310256 0.500000
O O2 0.956730 0.373798 0.741296
O O3 0.931265 0.238593 0.714541
O O4 0.060799 0.282433 0.750137
O O5 0.731398 0.812948 0.500000
O O6 0.749954 0.910241 0.292051
O O7 0.692330 0.792388 0.223228
O O8 0.826557 0.797042 0.287068
O O9 0.258308 0.386744 0.500000
O O10 0.252765 0.459365 0.255780
O O11 0.325550 0.344350 0.264749
O O12 0.188185 0.338928 0.264331
O O13 0.870171 0.478746 0.236400
O O14 0.795294 0.497912 0.000000
O O15 0.084961 0.555071 0.500000
O O16 0.000000 0.500000 0.298445
O O17 0.838461 0.211060 0.500000
O O18 0.629264 0.212842 0.000000
#
# Coordination Sequence:
#
# PCOD8235480 Si02
#       7
#     8   8   8   8   8   8   8
#     4   9  16  27  47  74  98 125 161 205 246 290
#     4   9  18  32  50  71  98 133 169 206 246 298
#     4  10  20  34  52  71  97 133 171 208 249 301
#     4  11  21  32  48  73 103 132 167 211 258 299
#     4  10  19  31  48  72 103 139 173 199 241 308
#     4  10  18  30  50  74  99 125 163 209 252 297
#     4   8  15  30  50  71  94 124 166 206 242 289
#
# _framework density 17.082592999999999
#
# number of rings (size 3 to 8) (size 9 to 14) (size 15 to 20)
#    0.000    2.429    1.429    3.000    0.000    3.143 
#    0.000    0.000    0.000    9.429    0.000    6.000 
#    0.000    0.000    0.000    0.000    0.000    0.000 
#
# Total GULP energy -694293.894632 kJ/mol
# GULP energy per Si atom -12398.105261 kJ/mol
# Density = 1.704371 g / cm^3
# Si number density = 17.082593 Si / 1000 Ang^3
#
#
#
# Elastic Constant Matrix: (Units=GPa)
#
#
# Indices 1 2 3 4 5 6 
#
# 1 61.2711 36.0790 17.8893 0.0000 0.0000 0.0000
# 2 36.0790 110.4896 34.8154 0.0000 0.0000 0.0000
# 3 17.8893 34.8154 51.7154 0.0000 0.0000 0.0000
# 4 0.0000 0.0000 0.0000 25.5272 0.0000 0.0000
# 5 0.0000 0.0000 0.0000 0.0000 18.9873 0.0000
# 6 0.0000 0.0000 0.0000 0.0000 0.0000 22.5106
#
#
#
# Elastic Compliance Matrix: (Units=1/GPa)
#
#
# Indices 1 2 3 4 5 6 
#
# 1 0.020641 -0.005699 -0.003303 0.000000 0.000000 0.000000
# 2 -0.005699 0.013061 -0.006821 0.000000 0.000000 0.000000
# 3 -0.003303 -0.006821 0.025072 0.000000 0.000000 0.000000
# 4 0.000000 0.000000 0.000000 0.039174 0.000000 0.000000
# 5 0.000000 0.000000 0.000000 0.000000 0.052667 0.000000
# 6 0.000000 0.000000 0.000000 0.000000 0.000000 0.044424
#
#
# Mechanical properties :
#
#
# Convention : Reuss Voigt Hill
#
# Bulk Modulus (GPa) = 36.86516 44.56036 40.71276
# Shear Modulus (GPa) = 21.21085 22.38450 21.79767
#
# Velocity S-wave (km/s) = 3.52755 3.62383 3.57601
# Velocity P-wave (km/s) = 6.18214 6.60692 6.39806
#
# Compressibility (1/GPa) = 0.02712588
#
# Stress axis : x y z
#
# Youngs Moduli (GPa) = 48.44636 76.56335 39.88583
#
# Poissons Ratio (x) = 0.43636 0.13176
# Poissons Ratio (y) = 0.27611 0.27208
# Poissons Ratio (z) = 0.16004 0.52227
#
# Static dielectric constant tensor:
#      x y z
#    x 3.341600 0.000000 0.000000 
#    y 0.000000 3.246160 0.000000 
#    z 0.000000 0.000000 3.028610 
# 
# 
# High freq. dielectric constant tensor:
#      x y z
#    x 1.649740 0.000000 0.000000 
#    y 0.000000 1.655880 0.000000 
#    z 0.000000 0.000000 1.640720 
# 
# From -- ./inp_files/8102.got.cif
#   From: 2010.06.25/outbox.cif.g09.slc.cpg/sg58_5_cif.got.tgz:8102.got - 2010.06.26 21:38:00.
