data_PCOD8235112
_publ_section_title
;
Structure prediction by ZEFSAII (Michael W. Deem and Ramdas Pophale) SiO2 
 PCOD8235112
Probable space group: P B C M
;
_chemical_formula_sum "Si O2"
_cell_formula_units_Z 40
_cell_length_a 8.808250
_cell_length_b 11.459171
_cell_length_c 18.476282
_cell_angle_alpha 90.000000
_cell_angle_beta 90.000000
_cell_angle_gamma 90.000000
_cell_volume 1864.908013
_symmetry_space_group_name_H-M "P B C M"
_symmetry_group_IT_number 57
_symmetry_cell_setting 'orthorhombic'
loop_
_space_group_symop_operation_xyz
x,y,z
-x,-y,1/2+z
x,1/2-y,-z
-x,1/2+y,1/2-z
-x,-y,-z
x,y,1/2-z
-x,1/2+y,z
x,1/2-y,1/2+z
loop_
_atom_site_type_symbol
_atom_site_label
_atom_site_fract_x
_atom_site_fract_y
_atom_site_fract_z
Si Si1 0.619771 0.680094 0.167574
Si Si2 0.891159 0.319031 0.069503
Si Si3 0.210032 0.397150 0.100499
Si Si4 0.275861 0.643930 0.332442
Si Si5 0.337626 0.481167 0.536595
O O1 0.662844 0.646528 0.250000
O O2 0.711430 0.794378 0.144974
O O3 0.440617 0.703914 0.160676
O O4 0.660186 0.571112 0.116935
O O5 0.843240 0.228434 0.130495
O O6 0.750832 0.396988 0.042487
O O7 0.027303 0.393307 0.105370
O O8 0.953915 0.250000 0.000000
O O9 0.275079 0.517859 0.130734
O O10 0.250736 0.390362 0.015429
O O11 0.225829 0.627838 0.250000
O O12 0.500000 0.500000 0.500000
#
# Coordination Sequence:
#
# PCOD8235112 Si02
#       5
#     8   8   8   8   8
#     4  11  25  45  69 101 139 182 234 290 352 417
#     4  12  25  44  70 101 139 181 229 292 352 413
#     4  12  25  45  72 101 139 183 233 290 350 416
#     4  11  26  46  68  99 140 181 229 285 346 419
#     4  12  23  44  75 102 136 186 238 289 346 419
#
# _framework density 21.448778999999998
#
# number of rings (size 3 to 8) (size 9 to 14) (size 15 to 20)
#    0.000    0.400    4.000    4.200    2.800    2.400 
#    0.000    0.000    0.000    0.000    0.000    0.000 
#    0.000    0.000    0.000    0.000    0.000    0.000 
#
# Total GULP energy -496163.080089 kJ/mol
# GULP energy per Si atom -12404.077002 kJ/mol
# Density = 2.139996 g / cm^3
# Si number density = 21.448779 Si / 1000 Ang^3
#
#
#
# Elastic Constant Matrix: (Units=GPa)
#
#
# Indices 1 2 3 4 5 6 
#
# 1 124.7393 59.2304 46.2818 0.0000 0.0000 0.0000
# 2 59.2304 93.2355 46.4949 0.0000 0.0000 0.0000
# 3 46.2818 46.4949 159.6216 0.0000 0.0000 0.0000
# 4 0.0000 0.0000 0.0000 32.8967 0.0000 0.0000
# 5 0.0000 0.0000 0.0000 0.0000 21.0516 0.0000
# 6 0.0000 0.0000 0.0000 0.0000 0.0000 40.9782
#
#
#
# Elastic Compliance Matrix: (Units=1/GPa)
#
#
# Indices 1 2 3 4 5 6 
#
# 1 0.011757 -0.006749 -0.001443 0.000000 0.000000 0.000000
# 2 -0.006749 0.016423 -0.002827 0.000000 0.000000 0.000000
# 3 -0.001443 -0.002827 0.007507 0.000000 0.000000 0.000000
# 4 0.000000 0.000000 0.000000 0.030398 0.000000 0.000000
# 5 0.000000 0.000000 0.000000 0.000000 0.047502 0.000000
# 6 0.000000 0.000000 0.000000 0.000000 0.000000 0.024403
#
#
# Mechanical properties :
#
#
# Convention : Reuss Voigt Hill
#
# Bulk Modulus (GPa) = 73.26891 75.73452 74.50172
# Shear Modulus (GPa) = 30.38083 34.02458 32.20270
#
# Velocity S-wave (km/s) = 3.76764 3.98718 3.87896
# Velocity P-wave (km/s) = 7.29115 7.52216 7.40756
#
# Compressibility (1/GPa) = 0.01364835
#
# Stress axis : x y z
#
# Youngs Moduli (GPa) = 85.05647 60.89067 133.21670
#
# Poissons Ratio (x) = 0.41097 0.19222
# Poissons Ratio (y) = 0.57407 0.37657
# Poissons Ratio (z) = 0.12273 0.17212
#
# Static dielectric constant tensor:
#      x y z
#    x 3.909560 0.000000 0.000000 
#    y 0.000000 4.019750 0.000000 
#    z 0.000000 0.000000 4.171450 
# 
# 
# High freq. dielectric constant tensor:
#      x y z
#    x 1.849950 0.000000 0.000000 
#    y 0.000000 1.840910 0.000000 
#    z 0.000000 0.000000 1.857050 
# 
# From -- ./inp_files/20511.got.cif
#   From: 2010.03.12/outbox.cif.g09.slc.cpg/sg57_11_cif.got.tgz:20511.got - 2010.04.16 15:48:40.
