data_PCOD8235522
_publ_section_title
;
Structure prediction by ZEFSAII (Michael W. Deem and Ramdas Pophale) SiO2 
 PCOD8235522
Probable space group: P N N M
;
_chemical_formula_sum "Si O2"
_cell_formula_units_Z 64
_cell_length_a 19.023757
_cell_length_b 9.604558
_cell_length_c 19.963707
_cell_angle_alpha 90.000000
_cell_angle_beta 90.000000
_cell_angle_gamma 90.000000
_cell_volume 3647.664282
_symmetry_space_group_name_H-M "P N N M"
_symmetry_group_IT_number 58
_symmetry_cell_setting 'orthorhombic'
loop_
_space_group_symop_operation_xyz
x,y,z
-x,-y,z
1/2+x,1/2-y,1/2-z
1/2-x,1/2+y,1/2-z
-x,-y,-z
x,y,-z
1/2-x,1/2+y,1/2+z
1/2+x,1/2-y,1/2+z
loop_
_atom_site_type_symbol
_atom_site_label
_atom_site_fract_x
_atom_site_fract_y
_atom_site_fract_z
Si Si1 0.666930 0.803843 0.187250
Si Si2 0.174228 0.287895 0.824512
Si Si3 0.580241 0.543092 0.840231
Si Si4 0.160513 0.149657 0.423665
Si Si5 0.165266 0.780865 0.163140
Si Si6 0.319746 0.883262 0.825541
Si Si7 0.186176 0.536154 0.922178
Si Si8 0.082551 0.028721 0.803515
O O1 0.745768 0.762384 0.165262
O O2 0.605024 0.705308 0.156173
O O3 0.661565 0.803599 0.267397
O O4 0.654471 0.959748 0.160017
O O5 0.162830 0.350158 0.751113
O O6 0.160226 0.402397 0.881375
O O7 0.113966 0.169992 0.835314
O O8 0.500000 0.500000 0.833322
O O9 0.604508 0.469994 0.908295
O O10 0.615676 0.482232 0.771956
O O11 0.156550 0.199537 0.500000
O O12 0.140328 0.279976 0.376459
O O13 0.233268 0.073922 0.405971
O O14 0.238348 0.863156 0.157301
O O15 0.146342 0.673490 0.103825
O O16 0.107759 0.898630 0.153300
O O17 0.171312 0.509545 0.000000
O O18 0.000000 0.000000 0.803079
#
# Coordination Sequence:
#
# PCOD8235522 Si02
#       8
#     8   8   8   8   8   8   8   8
#     4  10  18  30  55  85 104 136 193 232 270 321
#     4  11  18  32  57  83 106 141 184 238 274 321
#     4  10  20  35  54  80 116 151 183 225 270 329
#     4  10  20  35  53  80 116 151 182 222 275 326
#     4   9  18  30  52  80 107 140 174 228 286 326
#     4  10  18  30  54  83 105 139 188 232 273 320
#     4  10  20  34  54  83 112 139 181 233 279 329
#     4  10  20  34  55  83 112 139 181 233 280 331
#
# _framework density 17.545473999999999
#
# number of rings (size 3 to 8) (size 9 to 14) (size 15 to 20)
#    0.000    2.000    5.000    0.000    0.000    0.250 
#    0.000    3.125    0.000    3.000    0.000    0.000 
#    0.000    0.000    0.000    0.000    0.000    0.000 
#
# Total GULP energy -792941.847702 kJ/mol
# GULP energy per Si atom -12389.716370 kJ/mol
# Density = 1.750554 g / cm^3
# Si number density = 17.545474 Si / 1000 Ang^3
#
#
#
# Elastic Constant Matrix: (Units=GPa)
#
#
# Indices 1 2 3 4 5 6 
#
# 1 58.6139 44.4639 22.4332 0.0000 0.0000 0.0000
# 2 44.4639 151.9996 64.4158 0.0000 0.0000 0.0000
# 3 22.4332 64.4158 86.6029 0.0000 0.0000 0.0000
# 4 0.0000 0.0000 0.0000 27.2855 0.0000 0.0000
# 5 0.0000 0.0000 0.0000 0.0000 13.5416 0.0000
# 6 0.0000 0.0000 0.0000 0.0000 0.0000 27.0600
#
#
#
# Elastic Compliance Matrix: (Units=1/GPa)
#
#
# Indices 1 2 3 4 5 6 
#
# 1 0.022031 -0.005880 -0.001334 0.000000 0.000000 0.000000
# 2 -0.005880 0.011176 -0.006790 0.000000 0.000000 0.000000
# 3 -0.001334 -0.006790 0.016943 0.000000 0.000000 0.000000
# 4 0.000000 0.000000 0.000000 0.036650 0.000000 0.000000
# 5 0.000000 0.000000 0.000000 0.000000 0.073847 0.000000
# 6 0.000000 0.000000 0.000000 0.000000 0.000000 0.036955
#
#
# Mechanical properties :
#
#
# Convention : Reuss Voigt Hill
#
# Bulk Modulus (GPa) = 45.15868 62.20471 53.68169
# Shear Modulus (GPa) = 21.46015 24.63764 23.04890
#
# Velocity S-wave (km/s) = 3.50110 3.75135 3.62839
# Velocity P-wave (km/s) = 6.49135 7.36844 6.94376
#
# Compressibility (1/GPa) = 0.02214414
#
# Stress axis : x y z
#
# Youngs Moduli (GPa) = 45.38975 89.47359 59.02159
#
# Poissons Ratio (x) = 0.52607 0.07871
# Poissons Ratio (y) = 0.26687 0.40076
# Poissons Ratio (z) = 0.06053 0.60754
#
# Static dielectric constant tensor:
#      x y z
#    x 3.062460 0.000000 0.000000 
#    y 0.000000 3.356370 0.000000 
#    z 0.000000 0.000000 3.091740 
# 
# 
# High freq. dielectric constant tensor:
#      x y z
#    x 1.649690 0.000000 0.000000 
#    y 0.000000 1.688260 0.000000 
#    z 0.000000 0.000000 1.655400 
# 
# From -- ./inp_files/27551.got.cif
#   From: 2010.06.25/outbox.cif.g09.slc.cpg/sg58_14_cif.got.tgz:27551.got - 2010.06.26 21:38:00.
