data_PCOD8235625
_publ_section_title
;
Structure prediction by ZEFSAII (Michael W. Deem and Ramdas Pophale) SiO2 
 PCOD8235625
Probable space group: P N N M
;
_chemical_formula_sum "Si O2"
_cell_formula_units_Z 56
_cell_length_a 16.862822
_cell_length_b 19.928849
_cell_length_c 9.026096
_cell_angle_alpha 90.000000
_cell_angle_beta 90.000000
_cell_angle_gamma 90.000000
_cell_volume 3033.279434
_symmetry_space_group_name_H-M "P N N M"
_symmetry_group_IT_number 58
_symmetry_cell_setting 'orthorhombic'
loop_
_space_group_symop_operation_xyz
x,y,z
-x,-y,z
1/2+x,1/2-y,1/2-z
1/2-x,1/2+y,1/2-z
-x,-y,-z
x,y,-z
1/2-x,1/2+y,1/2+z
1/2+x,1/2-y,1/2+z
loop_
_atom_site_type_symbol
_atom_site_label
_atom_site_fract_x
_atom_site_fract_y
_atom_site_fract_z
Si Si1 0.817551 0.116324 0.827476
Si Si2 0.077515 0.699161 0.673962
Si Si3 0.757356 0.481543 0.323152
Si Si4 0.479605 0.324930 0.672558
Si Si5 0.263520 0.239521 0.326932
Si Si6 0.932320 0.451956 0.674264
Si Si7 0.845345 0.856116 0.827947
O O1 0.762443 0.180781 0.795460
O O2 0.906451 0.130327 0.765240
O O3 0.777656 0.050718 0.754383
O O4 0.825175 0.101644 0.000000
O O5 0.084450 0.711771 0.500000
O O6 0.164559 0.704050 0.742851
O O7 0.044542 0.624914 0.709269
O O8 0.018011 0.753461 0.744149
O O9 0.759500 0.483467 0.500000
O O10 0.845768 0.470156 0.258774
O O11 0.699525 0.422031 0.269222
O O12 0.465352 0.308944 0.500000
O O13 0.560775 0.365095 0.699910
O O14 0.272235 0.224697 0.500000
O O15 0.182527 0.208673 0.264275
O O16 0.927966 0.464349 0.500000
O O17 0.000000 0.500000 0.744611
O O18 0.827090 0.843183 0.000000
#
# Coordination Sequence:
#
# PCOD8235625 Si02
#       7
#     8   8   8   8   8   8   8
#     4   8  16  30  48  72 101 132 166 214 263 300
#     4  10  18  32  53  75 100 133 174 211 261 312
#     4   9  16  29  49  73 101 132 170 213 260 305
#     4   9  19  33  49  75 105 133 170 215 263 306
#     4  10  19  32  52  76 103 135 173 215 260 310
#     4   9  17  28  46  75 104 128 162 214 261 301
#     4  10  19  32  52  76 102 135 175 215 259 314
#
# _framework density 18.461867000000002
#
# number of rings (size 3 to 8) (size 9 to 14) (size 15 to 20)
#    0.000    2.714    1.429    1.714    0.000    2.286 
#    0.000    5.714    0.000    6.000    0.000    5.000 
#    0.000    0.000    0.000    0.000    0.000    0.000 
#
# Total GULP energy -694222.302725 kJ/mol
# GULP energy per Si atom -12396.826834 kJ/mol
# Density = 1.841985 g / cm^3
# Si number density = 18.461867 Si / 1000 Ang^3
#
#
#
# Elastic Constant Matrix: (Units=GPa)
#
#
# Indices 1 2 3 4 5 6 
#
# 1 120.3568 80.9364 22.1379 0.0000 0.0000 0.0000
# 2 80.9364 138.4159 30.1978 0.0000 0.0000 0.0000
# 3 22.1379 30.1978 39.3346 0.0000 0.0000 0.0000
# 4 0.0000 0.0000 0.0000 21.4590 0.0000 0.0000
# 5 0.0000 0.0000 0.0000 0.0000 20.4263 0.0000
# 6 0.0000 0.0000 0.0000 0.0000 0.0000 32.3778
#
#
#
# Elastic Compliance Matrix: (Units=1/GPa)
#
#
# Indices 1 2 3 4 5 6 
#
# 1 0.013809 -0.007662 -0.001889 0.000000 0.000000 0.000000
# 2 -0.007662 0.012930 -0.005614 0.000000 0.000000 0.000000
# 3 -0.001889 -0.005614 0.030796 0.000000 0.000000 0.000000
# 4 0.000000 0.000000 0.000000 0.046601 0.000000 0.000000
# 5 0.000000 0.000000 0.000000 0.000000 0.048957 0.000000
# 6 0.000000 0.000000 0.000000 0.000000 0.000000 0.030885
#
#
# Mechanical properties :
#
#
# Convention : Reuss Voigt Hill
#
# Bulk Modulus (GPa) = 36.75974 62.73905 49.74940
# Shear Modulus (GPa) = 22.38376 25.84162 24.11269
#
# Velocity S-wave (km/s) = 3.48578 3.74535 3.61789
# Velocity P-wave (km/s) = 6.01292 7.26364 6.66767
#
# Compressibility (1/GPa) = 0.02720367
#
# Stress axis : x y z
#
# Youngs Moduli (GPa) = 72.41772 77.34085 32.47154
#
# Poissons Ratio (x) = 0.59261 0.06135
# Poissons Ratio (y) = 0.55488 0.18230
# Poissons Ratio (z) = 0.13682 0.43419
#
# Static dielectric constant tensor:
#      x y z
#    x 3.533760 0.000000 0.000000 
#    y 0.000000 3.576590 0.000000 
#    z 0.000000 0.000000 3.023420 
# 
# 
# High freq. dielectric constant tensor:
#      x y z
#    x 1.716500 0.000000 0.000000 
#    y 0.000000 1.720580 0.000000 
#    z 0.000000 0.000000 1.670270 
# 
# From -- ./inp_files/8120.got.cif
#   From: 2010.06.25/outbox.cif.g09.slc.cpg/sg58_5_cif.got.tgz:8120.got - 2010.06.26 21:38:00.
