data_PCOD8235697
_publ_section_title
;
Structure prediction by ZEFSAII (Michael W. Deem and Ramdas Pophale) SiO2 
 PCOD8235697
Probable space group: P N N M
;
_chemical_formula_sum "Si O2"
_cell_formula_units_Z 64
_cell_length_a 12.775651
_cell_length_b 29.544977
_cell_length_c 8.556020
_cell_angle_alpha 90.000000
_cell_angle_beta 90.000000
_cell_angle_gamma 90.000000
_cell_volume 3229.523780
_symmetry_space_group_name_H-M "P N N M"
_symmetry_group_IT_number 58
_symmetry_cell_setting 'orthorhombic'
loop_
_space_group_symop_operation_xyz
x,y,z
-x,-y,z
1/2+x,1/2-y,1/2-z
1/2-x,1/2+y,1/2-z
-x,-y,-z
x,y,-z
1/2-x,1/2+y,1/2+z
1/2+x,1/2-y,1/2+z
loop_
_atom_site_type_symbol
_atom_site_label
_atom_site_fract_x
_atom_site_fract_y
_atom_site_fract_z
Si Si1 0.114513 0.201112 0.820039
Si Si2 0.613550 0.107666 0.315096
Si Si3 0.451132 0.795891 0.318717
Si Si4 0.174083 0.937571 0.685124
Si Si5 0.345836 0.174932 0.177454
Si Si6 0.797138 0.966587 0.816497
Si Si7 0.385336 0.082497 0.683361
Si Si8 0.529751 0.393581 0.313637
O O1 0.080696 0.248331 0.737091
O O2 0.237936 0.200324 0.799937
O O3 0.060632 0.156259 0.748320
O O4 0.080812 0.201882 0.000000
O O5 0.621235 0.110896 0.500000
O O6 0.605197 0.159191 0.246893
O O7 0.717200 0.083665 0.248881
O O8 0.508538 0.079125 0.268885
O O9 0.423036 0.793129 0.500000
O O10 0.574627 0.801387 0.295523
O O11 0.178386 0.944059 0.500000
O O12 0.079402 0.905049 0.731744
O O13 0.155240 0.985454 0.767394
O O14 0.330298 0.122655 0.221021
O O15 0.386497 0.178766 0.000000
O O16 0.683634 0.961092 0.731293
O O17 0.880117 0.928699 0.761421
O O18 0.778647 0.964634 0.000000
O O19 0.376692 0.091755 0.500000
O O20 0.517083 0.394845 0.500000
#
# Coordination Sequence:
#
# PCOD8235697 Si02
#       8
#     8   8   8   8   8   8   8   8
#     4   9  18  34  57  80 107 146 185 222 278 344
#     4   8  18  36  55  78 112 149 181 226 285 332
#     4   9  18  35  57  80 107 147 189 225 275 337
#     4  11  23  38  56  81 114 150 190 234 279 336
#     4  10  18  33  54  80 111 146 182 228 283 332
#     4  11  22  38  59  83 113 148 187 233 288 342
#     4  10  19  35  60  84 108 144 188 232 277 333
#     4  10  21  39  57  78 111 150 185 228 288 342
#
# _framework density 19.817162
#
# number of rings (size 3 to 8) (size 9 to 14) (size 15 to 20)
#    0.000    2.250    1.250    2.625    0.000    4.000 
#    0.000   11.875    0.000    0.000    0.000    0.000 
#    0.000    0.000    0.000    0.000    0.000    0.000 
#
# Total GULP energy -793346.710206 kJ/mol
# GULP energy per Si atom -12396.042347 kJ/mol
# Density = 1.977206 g / cm^3
# Si number density = 19.817162 Si / 1000 Ang^3
#
#
#
# Elastic Constant Matrix: (Units=GPa)
#
#
# Indices 1 2 3 4 5 6 
#
# 1 101.2130 46.1053 24.7175 0.0000 0.0000 0.0000
# 2 46.1053 94.5619 9.1024 0.0000 0.0000 0.0000
# 3 24.7175 9.1024 25.0727 0.0000 0.0000 0.0000
# 4 0.0000 0.0000 0.0000 21.0930 0.0000 0.0000
# 5 0.0000 0.0000 0.0000 0.0000 28.5915 0.0000
# 6 0.0000 0.0000 0.0000 0.0000 0.0000 29.1260
#
#
#
# Elastic Compliance Matrix: (Units=1/GPa)
#
#
# Indices 1 2 3 4 5 6 
#
# 1 0.016198 -0.006591 -0.013576 0.000000 0.000000 0.000000
# 2 -0.006591 0.013640 0.001546 0.000000 0.000000 0.000000
# 3 -0.013576 0.001546 0.052706 0.000000 0.000000 0.000000
# 4 0.000000 0.000000 0.000000 0.047409 0.000000 0.000000
# 5 0.000000 0.000000 0.000000 0.000000 0.034975 0.000000
# 6 0.000000 0.000000 0.000000 0.000000 0.000000 0.034334
#
#
# Mechanical properties :
#
#
# Convention : Reuss Voigt Hill
#
# Bulk Modulus (GPa) = 22.07395 42.29978 32.18686
# Shear Modulus (GPa) = 19.87250 25.15693 22.51471
#
# Velocity S-wave (km/s) = 3.17012 3.56680 3.37430
# Velocity P-wave (km/s) = 4.95606 6.19307 5.60877
#
# Compressibility (1/GPa) = 0.04530226
#
# Stress axis : x y z
#
# Youngs Moduli (GPa) = 61.73705 73.31532 18.97307
#
# Poissons Ratio (x) = 0.48320 0.25757
# Poissons Ratio (y) = 0.40689 -0.02932
# Poissons Ratio (z) = 0.83812 -0.11331
#
# Static dielectric constant tensor:
#      x y z
#    x 3.670020 0.000000 0.000000 
#    y 0.000000 3.897700 0.000000 
#    z 0.000000 0.000000 3.295490 
# 
# 
# High freq. dielectric constant tensor:
#      x y z
#    x 1.776600 0.000000 0.000000 
#    y 0.000000 1.776080 0.000000 
#    z 0.000000 0.000000 1.744580 
# 
# From -- ./inp_files/4664.got.cif
#   From: 2010.06.25/outbox.cif.g09.slc.cpg/sg58_3_cif.got.tgz:4664.got - 2010.06.26 21:38:00.
