data_PCOD8235192
_publ_section_title
;
Structure prediction by ZEFSAII (Michael W. Deem and Ramdas Pophale) SiO2 
 PCOD8235192
Probable space group: P B C M
;
_chemical_formula_sum "Si O2"
_cell_formula_units_Z 64
_cell_length_a 24.000000
_cell_length_b 15.000000
_cell_length_c 9.000000
_cell_angle_alpha 90.000000
_cell_angle_beta 90.000000
_cell_angle_gamma 90.000000
_cell_volume 3240.000000
_symmetry_space_group_name_H-M "P B C M"
_symmetry_group_IT_number 57
_symmetry_cell_setting 'orthorhombic'
loop_
_space_group_symop_operation_xyz
x,y,z
-x,-y,1/2+z
x,1/2-y,-z
-x,1/2+y,1/2-z
-x,-y,-z
x,y,1/2-z
-x,1/2+y,z
x,1/2-y,1/2+z
loop_
_atom_site_type_symbol
_atom_site_label
_atom_site_fract_x
_atom_site_fract_y
_atom_site_fract_z
Si Si1 0.496123 0.849705 0.073020
Si Si2 0.892544 0.592455 0.081635
Si Si3 0.418056 0.015660 0.074029
Si Si4 0.882843 0.111749 0.584490
Si Si5 0.214682 0.162179 0.924173
Si Si6 0.701176 0.998109 0.074426
Si Si7 0.236375 0.839327 0.071293
Si Si8 0.996350 0.657997 0.928499
O O1 0.506118 0.837473 0.250000
O O2 0.443485 0.916275 0.044393
O O3 0.487641 0.750000 0.000000
O O4 0.547478 0.902559 0.998564
O O5 0.900343 0.629232 0.250000
O O6 0.871190 0.492397 0.086123
O O7 0.846180 0.648400 0.995508
O O8 0.951298 0.589149 0.993643
O O9 0.413769 0.033173 0.250000
O O10 0.358305 0.021809 0.997140
O O11 0.887720 0.150204 0.750000
O O12 0.827630 0.153551 0.510162
O O13 0.941684 0.136382 0.506587
O O14 0.206401 0.176788 0.750000
O O15 0.257420 0.083288 0.958247
O O16 0.240761 0.250000 0.000000
O O17 0.694988 0.015918 0.250000
O O18 0.726083 0.082760 0.992057
O O19 0.239276 0.839575 0.250000
O O20 0.261590 0.750000 0.000000
O O21 0.994268 0.656595 0.750000
O O22 0.976414 0.750000 0.000000
#
# Coordination Sequence:
#
# PCOD8235192 Si02
#       8
#     8   8   8   8   8   8   8   8
#     4  10  21  39  65  97 132 171 213 257 306 361
#     4  11  21  38  60  83 111 148 191 243 304 367
#     4  10  22  40  64  94 130 172 213 258 309 360
#     4   9  20  37  59  83 111 147 192 243 302 366
#     4  11  24  41  62  88 117 156 203 252 308 367
#     4  11  24  42  63  91 126 164 210 260 307 363
#     4  11  22  40  63  89 120 159 204 254 310 371
#     4  11  22  37  54  80 112 145 188 240 298 366
#
# _framework density 19.753086
#
# number of rings (size 3 to 8) (size 9 to 14) (size 15 to 20)
#    0.000    1.500    1.250    3.750    0.000    4.000 
#    0.000    6.250    0.000    0.000    0.000    0.000 
#    0.000    0.000    0.000    0.000    0.000    0.000 
#
# Total GULP energy -793371.791121 kJ/mol
# GULP energy per Si atom -12396.434236 kJ/mol
# Density = 1.970813 g / cm^3
# Si number density = 19.753086 Si / 1000 Ang^3
#
#
#
# Elastic Constant Matrix: (Units=GPa)
#
#
# Indices 1 2 3 4 5 6 
#
# 1 113.5988 26.4753 46.8666 0.0000 0.0000 0.0000
# 2 26.4753 110.5540 46.8532 0.0000 0.0000 0.0000
# 3 46.8666 46.8532 134.3878 0.0000 0.0000 0.0000
# 4 0.0000 0.0000 0.0000 36.8151 0.0000 0.0000
# 5 0.0000 0.0000 0.0000 0.0000 35.8636 0.0000
# 6 0.0000 0.0000 0.0000 0.0000 0.0000 5.8845
#
#
#
# Elastic Compliance Matrix: (Units=1/GPa)
#
#
# Indices 1 2 3 4 5 6 
#
# 1 0.010399 -0.001119 -0.003237 0.000000 0.000000 0.000000
# 2 -0.001119 0.010734 -0.003352 0.000000 0.000000 0.000000
# 3 -0.003237 -0.003352 0.009739 0.000000 0.000000 0.000000
# 4 0.000000 0.000000 0.000000 0.027163 0.000000 0.000000
# 5 0.000000 0.000000 0.000000 0.000000 0.027883 0.000000
# 6 0.000000 0.000000 0.000000 0.000000 0.000000 0.169939
#
#
# Mechanical properties :
#
#
# Convention : Reuss Voigt Hill
#
# Bulk Modulus (GPa) = 64.69694 66.54786 65.62240
# Shear Modulus (GPa) = 18.08819 31.60232 24.84526
#
# Velocity S-wave (km/s) = 3.02936 4.00417 3.55038
# Velocity P-wave (km/s) = 6.71267 7.42569 7.07816
#
# Compressibility (1/GPa) = 0.01545668
#
# Stress axis : x y z
#
# Youngs Moduli (GPa) = 96.16413 93.16263 102.68454
#
# Poissons Ratio (x) = 0.10422 0.33234
# Poissons Ratio (y) = 0.10758 0.34422
# Poissons Ratio (z) = 0.31124 0.31230
#
# Static dielectric constant tensor:
#      x y z
#    x 3.717950 0.000000 0.000000 
#    y 0.000000 3.737500 0.000000 
#    z 0.000000 0.000000 3.782260 
# 
# 
# High freq. dielectric constant tensor:
#      x y z
#    x 1.778710 0.000000 0.000000 
#    y 0.000000 1.784460 0.000000 
#    z 0.000000 0.000000 1.783460 
# 
# From -- ./inp_files/9398.got.cif
#   From: 2010.03.12/outbox.ucp.g09.slc.cvg/sg57_5_cif.got.tgz:9398.got - 2010.05.04 19:26:41.
