data_PCOD8235332
_publ_section_title
;
Structure prediction by ZEFSAII (Michael W. Deem and Ramdas Pophale) SiO2 
 PCOD8235332
Probable space group: P N N M
;
_chemical_formula_sum "Si O2"
_cell_formula_units_Z 56
_cell_length_a 21.247846
_cell_length_b 18.380336
_cell_length_c 8.971182
_cell_angle_alpha 90.000000
_cell_angle_beta 90.000000
_cell_angle_gamma 90.000000
_cell_volume 3503.628284
_symmetry_space_group_name_H-M "P N N M"
_symmetry_group_IT_number 58
_symmetry_cell_setting 'orthorhombic'
loop_
_space_group_symop_operation_xyz
x,y,z
-x,-y,z
1/2+x,1/2-y,1/2-z
1/2-x,1/2+y,1/2-z
-x,-y,-z
x,y,-z
1/2-x,1/2+y,1/2+z
1/2+x,1/2-y,1/2+z
loop_
_atom_site_type_symbol
_atom_site_label
_atom_site_fract_x
_atom_site_fract_y
_atom_site_fract_z
Si Si1 0.500409 0.582510 0.322514
Si Si2 0.190404 0.292859 0.170786
Si Si3 0.746082 0.429072 0.171045
Si Si4 0.870306 0.851448 0.825135
Si Si5 0.244065 0.421600 0.675759
Si Si6 0.200411 0.717957 0.831115
Si Si7 0.373465 0.350005 0.328198
O O1 0.500000 0.500000 0.263970
O O2 0.501715 0.585060 0.500000
O O3 0.438185 0.623440 0.265242
O O4 0.561939 0.622604 0.252118
O O5 0.133684 0.235929 0.204108
O O6 0.189066 0.366266 0.269470
O O7 0.252530 0.247000 0.206872
O O8 0.190796 0.317417 0.000000
O O9 0.681690 0.396818 0.235992
O O10 0.769317 0.499357 0.258670
O O11 0.802921 0.369394 0.185890
O O12 0.734201 0.449833 0.000000
O O13 0.860817 0.868835 0.000000
O O14 0.241170 0.426463 0.500000
O O15 0.311884 0.392231 0.734534
O O16 0.134858 0.762126 0.806016
O O17 0.224750 0.737137 0.000000
O O18 0.378660 0.371031 0.500000
#
# Coordination Sequence:
#
# PCOD8235332 Si02
#       7
#     8   8   8   8   8   8   8
#     4   9  15  23  39  63  86 109 140 172 197 228
#     4   9  16  26  40  59  83 108 135 168 205 244
#     4  10  18  27  41  61  85 110 136 171 212 248
#     4   9  17  28  42  61  85 113 142 169 198 239
#     4  10  18  28  43  62  83 107 137 172 211 252
#     4   8  15  27  41  58  80 108 140 170 204 246
#     4   8  14  25  41  59  80 107 138 170 200 236
#
# _framework density 15.983431
#
# number of rings (size 3 to 8) (size 9 to 14) (size 15 to 20)
#    0.000    3.000    0.000    3.000    0.000    3.429 
#    0.000    0.000    0.000    7.286    0.000    1.000 
#    0.000    8.000    0.000    0.000    0.000    0.000 
#
# Total GULP energy -693761.409978 kJ/mol
# GULP energy per Si atom -12388.596607 kJ/mol
# Density = 1.594705 g / cm^3
# Si number density = 15.983431 Si / 1000 Ang^3
#
#
#
# Elastic Constant Matrix: (Units=GPa)
#
#
# Indices 1 2 3 4 5 6 
#
# 1 73.4128 60.3811 18.8176 0.0000 0.0000 0.0000
# 2 60.3811 146.8985 42.3106 0.0000 0.0000 0.0000
# 3 18.8176 42.3106 50.3245 0.0000 0.0000 0.0000
# 4 0.0000 0.0000 0.0000 25.6673 0.0000 0.0000
# 5 0.0000 0.0000 0.0000 0.0000 11.4536 0.0000
# 6 0.0000 0.0000 0.0000 0.0000 0.0000 27.9352
#
#
#
# Elastic Compliance Matrix: (Units=1/GPa)
#
#
# Indices 1 2 3 4 5 6 
#
# 1 0.020601 -0.008246 -0.000770 0.000000 0.000000 0.000000
# 2 -0.008246 0.012283 -0.007244 0.000000 0.000000 0.000000
# 3 -0.000770 -0.007244 0.026249 0.000000 0.000000 0.000000
# 4 0.000000 0.000000 0.000000 0.038960 0.000000 0.000000
# 5 0.000000 0.000000 0.000000 0.000000 0.087309 0.000000
# 6 0.000000 0.000000 0.000000 0.000000 0.000000 0.035797
#
#
# Mechanical properties :
#
#
# Convention : Reuss Voigt Hill
#
# Bulk Modulus (GPa) = 37.57511 57.07271 47.32391
# Shear Modulus (GPa) = 19.04097 22.95299 20.99698
#
# Velocity S-wave (km/s) = 3.45526 3.79364 3.62839
# Velocity P-wave (km/s) = 6.28317 7.41443 6.87212
#
# Compressibility (1/GPa) = 0.02661336
#
# Stress axis : x y z
#
# Youngs Moduli (GPa) = 48.54044 81.41144 38.09610
#
# Poissons Ratio (x) = 0.67132 0.02935
# Poissons Ratio (y) = 0.40027 0.27596
# Poissons Ratio (z) = 0.03740 0.58973
#
# Static dielectric constant tensor:
#      x y z
#    x 2.969480 0.000000 0.000000 
#    y 0.000000 3.327700 0.000000 
#    z 0.000000 0.000000 2.878620 
# 
# 
# High freq. dielectric constant tensor:
#      x y z
#    x 1.568670 0.000000 0.000000 
#    y 0.000000 1.623710 0.000000 
#    z 0.000000 0.000000 1.598240 
# 
# From -- ./inp_files/8103.got.cif
#   From: 2010.06.25/outbox.cif.g09.slc.cpg/sg58_5_cif.got.tgz:8103.got - 2010.06.26 21:38:00.
