data_PCOD8235439
_publ_section_title
;
Structure prediction by ZEFSAII (Michael W. Deem and Ramdas Pophale) SiO2 
 PCOD8235439
Probable space group: P N N M
;
_chemical_formula_sum "Si O2"
_cell_formula_units_Z 56
_cell_length_a 21.563455
_cell_length_b 14.452758
_cell_length_c 9.467624
_cell_angle_alpha 90.000000
_cell_angle_beta 90.000000
_cell_angle_gamma 90.000000
_cell_volume 2950.598244
_symmetry_space_group_name_H-M "P N N M"
_symmetry_group_IT_number 58
_symmetry_cell_setting 'orthorhombic'
loop_
_space_group_symop_operation_xyz
x,y,z
-x,-y,z
1/2+x,1/2-y,1/2-z
1/2-x,1/2+y,1/2-z
-x,-y,-z
x,y,-z
1/2-x,1/2+y,1/2+z
1/2+x,1/2-y,1/2+z
loop_
_atom_site_type_symbol
_atom_site_label
_atom_site_fract_x
_atom_site_fract_y
_atom_site_fract_z
Si Si1 0.387580 0.062961 0.661484
Si Si2 0.935495 0.592279 0.657860
Si Si3 0.300184 0.823830 0.156900
Si Si4 0.257400 0.983928 0.335645
Si Si5 0.470384 0.594572 0.663487
Si Si6 0.845925 0.872014 0.666605
Si Si7 0.522641 0.785256 0.340713
O O1 0.395764 0.030309 0.500000
O O2 0.408346 0.170654 0.680159
O O3 0.435965 0.004121 0.756191
O O4 0.316512 0.047682 0.708621
O O5 0.960791 0.574719 0.500000
O O6 0.866155 0.628119 0.653451
O O7 0.975407 0.670444 0.731845
O O8 0.255683 0.885442 0.255830
O O9 0.308280 0.719575 0.215493
O O10 0.270766 0.821251 0.000000
O O11 0.259699 0.961010 0.500000
O O12 0.195754 0.039537 0.295142
O O13 0.500000 0.500000 0.722022
O O14 0.451219 0.583708 0.500000
O O15 0.409801 0.620247 0.750988
O O16 0.522312 0.674804 0.684548
O O17 0.860275 0.864975 0.500000
O O18 0.499281 0.806365 0.500000
#
# Coordination Sequence:
#
# PCOD8235439 Si02
#       7
#     8   8   8   8   8   8   8
#     4   9  18  32  49  74 107 141 172 213 264 320
#     4  10  18  29  49  77 106 136 171 213 262 319
#     4   9  18  33  53  78 107 140 179 221 270 326
#     4   9  19  35  55  79 108 141 183 225 267 324
#     4  10  22  39  57  82 109 140 187 235 273 321
#     4  10  20  38  60  82 108 144 184 224 275 332
#     4  10  19  32  51  74 104 140 175 214 266 321
#
# _framework density 18.979201
#
# number of rings (size 3 to 8) (size 9 to 14) (size 15 to 20)
#    0.000    2.429    1.429    0.857    0.000    4.286 
#    2.571    0.000    0.000    0.000    0.000    0.000 
#    0.000    0.000    0.000    0.000    0.000    0.000 
#
# Total GULP energy -694201.524855 kJ/mol
# GULP energy per Si atom -12396.455801 kJ/mol
# Density = 1.893600 g / cm^3
# Si number density = 18.979201 Si / 1000 Ang^3
#
#
#
# Elastic Constant Matrix: (Units=GPa)
#
#
# Indices 1 2 3 4 5 6 
#
# 1 36.1252 26.5944 21.7161 0.0000 0.0000 0.0000
# 2 26.5944 120.4004 37.9209 0.0000 0.0000 0.0000
# 3 21.7161 37.9209 65.9795 0.0000 0.0000 0.0000
# 4 0.0000 0.0000 0.0000 22.9312 0.0000 0.0000
# 5 0.0000 0.0000 0.0000 0.0000 17.3542 0.0000
# 6 0.0000 0.0000 0.0000 0.0000 0.0000 27.5797
#
#
#
# Elastic Compliance Matrix: (Units=1/GPa)
#
#
# Indices 1 2 3 4 5 6 
#
# 1 0.037095 -0.005309 -0.009158 0.000000 0.000000 0.000000
# 2 -0.005309 0.010901 -0.004518 0.000000 0.000000 0.000000
# 3 -0.009158 -0.004518 0.020767 0.000000 0.000000 0.000000
# 4 0.000000 0.000000 0.000000 0.043609 0.000000 0.000000
# 5 0.000000 0.000000 0.000000 0.000000 0.057623 0.000000
# 6 0.000000 0.000000 0.000000 0.000000 0.000000 0.036259
#
#
# Mechanical properties :
#
#
# Convention : Reuss Voigt Hill
#
# Bulk Modulus (GPa) = 32.47457 43.88532 38.17994
# Shear Modulus (GPa) = 19.64726 22.65792 21.15259
#
# Velocity S-wave (km/s) = 3.22094 3.45893 3.34206
# Velocity P-wave (km/s) = 5.56600 6.25502 5.92054
#
# Compressibility (1/GPa) = 0.03079333
#
# Stress axis : x y z
#
# Youngs Moduli (GPa) = 26.95764 91.73206 48.15334
#
# Poissons Ratio (x) = 0.48704 0.44098
# Poissons Ratio (y) = 0.14313 0.21755
# Poissons Ratio (z) = 0.24687 0.41444
#
# Static dielectric constant tensor:
#      x y z
#    x 3.270810 0.000000 0.000000 
#    y 0.000000 3.666730 0.000000 
#    z 0.000000 0.000000 3.620440 
# 
# 
# High freq. dielectric constant tensor:
#      x y z
#    x 1.713970 0.000000 0.000000 
#    y 0.000000 1.740960 0.000000 
#    z 0.000000 0.000000 1.733660 
# 
# From -- ./inp_files/6356.got.cif
#   From: 2010.06.25/outbox.cif.g09.slc.cpg/sg58_4_cif.got.tgz:6356.got - 2010.06.26 21:38:00.
