data_PCOD8235491
_publ_section_title
;
Structure prediction by ZEFSAII (Michael W. Deem and Ramdas Pophale) SiO2 
 PCOD8235491
Probable space group: P N N M
;
_chemical_formula_sum "Si O2"
_cell_formula_units_Z 64
_cell_length_a 28.652184
_cell_length_b 12.493919
_cell_length_c 9.092411
_cell_angle_alpha 90.000000
_cell_angle_beta 90.000000
_cell_angle_gamma 90.000000
_cell_volume 3254.883706
_symmetry_space_group_name_H-M "P N N M"
_symmetry_group_IT_number 58
_symmetry_cell_setting 'orthorhombic'
loop_
_space_group_symop_operation_xyz
x,y,z
-x,-y,z
1/2+x,1/2-y,1/2-z
1/2-x,1/2+y,1/2-z
-x,-y,-z
x,y,-z
1/2-x,1/2+y,1/2+z
1/2+x,1/2-y,1/2+z
loop_
_atom_site_type_symbol
_atom_site_label
_atom_site_fract_x
_atom_site_fract_y
_atom_site_fract_z
Si Si1 0.623762 0.296345 0.671072
Si Si2 0.661941 0.704839 0.825217
Si Si3 0.661525 0.109312 0.837692
Si Si4 0.282947 0.088728 0.171831
Si Si5 0.574221 0.787136 0.669797
Si Si6 0.528104 0.195721 0.669418
Si Si7 0.437460 0.996210 0.163719
Si Si8 0.317133 0.509520 0.670277
O O1 0.629780 0.276563 0.500000
O O2 0.661718 0.217815 0.744272
O O3 0.570263 0.273651 0.721002
O O4 0.637592 0.418462 0.710482
O O5 0.609713 0.713741 0.760747
O O6 0.684558 0.594904 0.770709
O O7 0.694205 0.802272 0.764486
O O8 0.658879 0.703806 0.000000
O O9 0.692600 0.017091 0.759390
O O10 0.608791 0.072275 0.849835
O O11 0.681631 0.135410 0.000000
O O12 0.228028 0.083056 0.204225
O O13 0.294767 0.087542 0.000000
O O14 0.589589 0.787103 0.500000
O O15 0.521164 0.742228 0.688340
O O16 0.574825 0.907077 0.729559
O O17 0.535635 0.161220 0.500000
O O18 0.524538 0.085940 0.765710
O O19 0.453458 0.033828 0.000000
O O20 0.317871 0.473919 0.500000
#
# Coordination Sequence:
#
# PCOD8235491 Si02
#       8
#     8   8   8   8   8   8   8   8
#     4   9  19  36  57  81 112 147 189 236 279 331
#     4  11  23  41  61  84 117 150 189 237 286 339
#     4   9  17  32  53  78 111 147 179 219 275 333
#     4   9  19  37  58  81 113 146 177 225 283 337
#     4  11  21  34  54  79 112 152 194 240 290 342
#     4   9  19  34  52  79 113 151 195 241 287 340
#     4  10  18  30  50  79 116 153 185 228 288 345
#     4  10  22  40  61  83 111 148 188 232 283 338
#
# _framework density 19.662761
#
# number of rings (size 3 to 8) (size 9 to 14) (size 15 to 20)
#    0.000    2.250    1.250    1.500    1.750    3.500 
#    0.000    1.875    0.000    3.750    0.000    0.000 
#    0.000    0.000    0.000    0.000    0.000    0.000 
#
# Total GULP energy -793384.875336 kJ/mol
# GULP energy per Si atom -12396.638677 kJ/mol
# Density = 1.961801 g / cm^3
# Si number density = 19.662761 Si / 1000 Ang^3
#
#
#
# Elastic Constant Matrix: (Units=GPa)
#
#
# Indices 1 2 3 4 5 6 
#
# 1 87.4794 47.9765 36.0134 0.0000 0.0000 0.0000
# 2 47.9765 101.8141 41.5118 0.0000 0.0000 0.0000
# 3 36.0134 41.5118 70.9963 0.0000 0.0000 0.0000
# 4 0.0000 0.0000 0.0000 30.9062 0.0000 0.0000
# 5 0.0000 0.0000 0.0000 0.0000 22.6121 0.0000
# 6 0.0000 0.0000 0.0000 0.0000 0.0000 27.5685
#
#
#
# Elastic Compliance Matrix: (Units=1/GPa)
#
#
# Indices 1 2 3 4 5 6 
#
# 1 0.016704 -0.005799 -0.005083 0.000000 0.000000 0.000000
# 2 -0.005799 0.014909 -0.005776 0.000000 0.000000 0.000000
# 3 -0.005083 -0.005776 0.020041 0.000000 0.000000 0.000000
# 4 0.000000 0.000000 0.000000 0.032356 0.000000 0.000000
# 5 0.000000 0.000000 0.000000 0.000000 0.044224 0.000000
# 6 0.000000 0.000000 0.000000 0.000000 0.000000 0.036273
#
#
# Mechanical properties :
#
#
# Convention : Reuss Voigt Hill
#
# Bulk Modulus (GPa) = 54.52860 56.81038 55.66949
# Shear Modulus (GPa) = 24.51756 25.20322 24.86039
#
# Velocity S-wave (km/s) = 3.53498 3.58407 3.55961
# Velocity P-wave (km/s) = 6.66735 6.78841 6.72815
#
# Compressibility (1/GPa) = 0.01833900
#
# Stress axis : x y z
#
# Youngs Moduli (GPa) = 59.86600 67.07188 49.89849
#
# Poissons Ratio (x) = 0.38894 0.25361
# Poissons Ratio (y) = 0.34716 0.28822
# Poissons Ratio (z) = 0.30427 0.38741
#
# Static dielectric constant tensor:
#      x y z
#    x 3.778310 0.000000 0.000000 
#    y 0.000000 3.429970 0.000000 
#    z 0.000000 0.000000 3.639830 
# 
# 
# High freq. dielectric constant tensor:
#      x y z
#    x 1.776050 0.000000 0.000000 
#    y 0.000000 1.744210 0.000000 
#    z 0.000000 0.000000 1.752300 
# 
# From -- ./inp_files/11003.got.cif
#   From: 2010.06.25/outbox.cif.g09.slc.cpg/sg58_6_cif.got.tgz:11003.got - 2010.06.26 21:38:00.
