data_PCOD8235184
_publ_section_title
;
Structure prediction by ZEFSAII (Michael W. Deem and Ramdas Pophale) SiO2 
 PCOD8235184
Probable space group: P B C M
;
_chemical_formula_sum "Si O2"
_cell_formula_units_Z 40
_cell_length_a 12.000000
_cell_length_b 21.000000
_cell_length_c 9.000000
_cell_angle_alpha 90.000000
_cell_angle_beta 90.000000
_cell_angle_gamma 90.000000
_cell_volume 2268.000000
_symmetry_space_group_name_H-M "P B C M"
_symmetry_group_IT_number 57
_symmetry_cell_setting 'orthorhombic'
loop_
_space_group_symop_operation_xyz
x,y,z
-x,-y,1/2+z
x,1/2-y,-z
-x,1/2+y,1/2-z
-x,-y,-z
x,y,1/2-z
-x,1/2+y,z
x,1/2-y,1/2+z
loop_
_atom_site_type_symbol
_atom_site_label
_atom_site_fract_x
_atom_site_fract_y
_atom_site_fract_z
Si Si1 0.213534 0.816680 0.572973
Si Si2 0.831588 0.971248 0.078612
Si Si3 0.424786 0.445364 0.423630
Si Si4 0.061384 0.588143 0.579701
Si Si5 0.443967 0.681621 0.572659
O O1 0.186309 0.750000 0.500000
O O2 0.227689 0.812379 0.750000
O O3 0.106723 0.858645 0.531630
O O4 0.328002 0.842686 0.499660
O O5 0.830318 0.995936 0.250000
O O6 0.706842 0.948750 0.031930
O O7 0.926460 0.916272 0.063067
O O8 0.872231 0.024705 0.965239
O O9 0.500000 0.500000 0.500000
O O10 0.439330 0.457221 0.250000
O O11 0.466542 0.373872 0.465116
O O12 0.092357 0.603934 0.750000
O O13 0.479249 0.750000 0.500000
O O14 0.430598 0.691025 0.750000
#
# Coordination Sequence:
#
# PCOD8235184 Si02
#       5
#     8   8   8   8   8
#     4  11  21  34  53  76 102 132 169 210 254 303
#     4   9  19  35  53  74 103 137 170 207 254 304
#     4  10  21  35  53  78 106 137 174 215 258 306
#     4  10  19  33  53  76 103 133 168 211 255 301
#     4  10  20  35  54  77 105 137 173 212 258 310
#
# _framework density 17.636683999999999
#
# number of rings (size 3 to 8) (size 9 to 14) (size 15 to 20)
#    0.000    2.000    0.000    5.400    0.000    6.400 
#    0.000    1.000    0.000    2.400    0.000    0.000 
#    0.000    0.000    0.000    0.000    0.000    0.000 
#
# Total GULP energy -495741.347400 kJ/mol
# GULP energy per Si atom -12393.533685 kJ/mol
# Density = 1.759654 g / cm^3
# Si number density = 17.636684 Si / 1000 Ang^3
#
#
#
# Elastic Constant Matrix: (Units=GPa)
#
#
# Indices 1 2 3 4 5 6 
#
# 1 160.4444 68.3327 45.6550 0.0000 0.0000 0.0000
# 2 68.3327 92.3949 42.6688 0.0000 0.0000 0.0000
# 3 45.6550 42.6688 112.2421 0.0000 0.0000 0.0000
# 4 0.0000 0.0000 0.0000 35.0323 0.0000 0.0000
# 5 0.0000 0.0000 0.0000 0.0000 29.7630 0.0000
# 6 0.0000 0.0000 0.0000 0.0000 0.0000 34.8542
#
#
#
# Elastic Compliance Matrix: (Units=1/GPa)
#
#
# Indices 1 2 3 4 5 6 
#
# 1 0.009280 -0.006210 -0.001414 0.000000 0.000000 0.000000
# 2 -0.006210 0.017284 -0.004044 0.000000 0.000000 0.000000
# 3 -0.001414 -0.004044 0.011022 0.000000 0.000000 0.000000
# 4 0.000000 0.000000 0.000000 0.028545 0.000000 0.000000
# 5 0.000000 0.000000 0.000000 0.000000 0.033599 0.000000
# 6 0.000000 0.000000 0.000000 0.000000 0.000000 0.028691
#
#
# Mechanical properties :
#
#
# Convention : Reuss Voigt Hill
#
# Bulk Modulus (GPa) = 70.18207 75.37714 72.77961
# Shear Modulus (GPa) = 31.94750 33.82490 32.88620
#
# Velocity S-wave (km/s) = 4.26070 4.38410 4.32284
# Velocity P-wave (km/s) = 8.00527 8.27398 8.14073
#
# Compressibility (1/GPa) = 0.01424865
#
# Stress axis : x y z
#
# Youngs Moduli (GPa) = 107.75948 57.85777 90.72882
#
# Poissons Ratio (x) = 0.35931 0.12827
# Poissons Ratio (y) = 0.66921 0.36694
# Poissons Ratio (z) = 0.15235 0.23400
#
# Static dielectric constant tensor:
#      x y z
#    x 3.670120 0.000000 0.000000 
#    y 0.000000 3.369710 0.000000 
#    z 0.000000 0.000000 3.490140 
# 
# 
# High freq. dielectric constant tensor:
#      x y z
#    x 1.696920 0.000000 0.000000 
#    y 0.000000 1.678670 0.000000 
#    z 0.000000 0.000000 1.703160 
# 
# From -- ./inp_files/2693.got.cif
#   From: 2010.03.12/outbox.ucp.g09.slc.cvg/sg57_2_cif.got.tgz:2693.got - 2010.05.04 19:26:41.
