data_PCOD8235935
_publ_section_title
;
Structure prediction by ZEFSAII (Michael W. Deem and Ramdas Pophale) SiO2 
 PCOD8235935
Probable space group: P N N M
;
_chemical_formula_sum "Si O2"
_cell_formula_units_Z 40
_cell_length_a 25.606531
_cell_length_b 9.541703
_cell_length_c 9.341479
_cell_angle_alpha 90.000000
_cell_angle_beta 90.000000
_cell_angle_gamma 90.000000
_cell_volume 2282.402758
_symmetry_space_group_name_H-M "P N N M"
_symmetry_group_IT_number 58
_symmetry_cell_setting 'orthorhombic'
loop_
_space_group_symop_operation_xyz
x,y,z
-x,-y,z
1/2+x,1/2-y,1/2-z
1/2-x,1/2+y,1/2-z
-x,-y,-z
x,y,-z
1/2-x,1/2+y,1/2+z
1/2+x,1/2-y,1/2+z
loop_
_atom_site_type_symbol
_atom_site_label
_atom_site_fract_x
_atom_site_fract_y
_atom_site_fract_z
Si Si1 0.132262 0.277573 0.331136
Si Si2 0.835232 0.990260 0.834229
Si Si3 0.440733 0.975512 0.666444
Si Si4 0.715173 0.992416 0.165920
Si Si5 0.856136 0.299605 0.836197
O O1 0.123630 0.265315 0.500000
O O2 0.137992 0.124127 0.265373
O O3 0.081671 0.349552 0.261420
O O4 0.183792 0.367011 0.291046
O O5 0.775021 0.012526 0.790669
O O6 0.865043 0.135921 0.802951
O O7 0.840292 0.945021 0.000000
O O8 0.436396 0.933359 0.500000
O O9 0.500000 0.000000 0.713360
O O10 0.409492 0.118761 0.699455
O O11 0.692261 0.858317 0.246541
O O12 0.708130 0.960951 0.000000
O O13 0.839426 0.319861 0.000000
#
# Coordination Sequence:
#
# PCOD8235935 Si02
#       5
#     8   8   8   8   8
#     4  10  20  33  50  74 101 129 163 201 242 288
#     4  10  19  31  47  70 101 131 158 193 237 284
#     4   9  18  35  57  75  92 122 165 208 250 296
#     4   9  18  31  47  69  98 131 163 193 230 282
#     4   9  18  32  50  72  97 126 162 202 241 285
#
# _framework density 17.525390999999999
#
# number of rings (size 3 to 8) (size 9 to 14) (size 15 to 20)
#    0.000    2.600    0.000    1.800    0.000    4.400 
#    0.000    1.000    0.000    6.000    0.000    0.000 
#    0.000    0.000    0.000    0.000    0.000    0.000 
#
# Total GULP energy -496096.646663 kJ/mol
# GULP energy per Si atom -12402.416167 kJ/mol
# Density = 1.748550 g / cm^3
# Si number density = 17.525391 Si / 1000 Ang^3
#
#
#
# Elastic Constant Matrix: (Units=GPa)
#
#
# Indices 1 2 3 4 5 6 
#
# 1 103.6869 52.1288 42.5673 0.0000 0.0000 0.0000
# 2 52.1288 121.7313 53.3369 0.0000 0.0000 0.0000
# 3 42.5673 53.3369 62.1366 0.0000 0.0000 0.0000
# 4 0.0000 0.0000 0.0000 28.6245 0.0000 0.0000
# 5 0.0000 0.0000 0.0000 0.0000 25.0061 0.0000
# 6 0.0000 0.0000 0.0000 0.0000 0.0000 13.3950
#
#
#
# Elastic Compliance Matrix: (Units=1/GPa)
#
#
# Indices 1 2 3 4 5 6 
#
# 1 0.014020 -0.002878 -0.007134 0.000000 0.000000 0.000000
# 2 -0.002878 0.013758 -0.009838 0.000000 0.000000 0.000000
# 3 -0.007134 -0.009838 0.029426 0.000000 0.000000 0.000000
# 4 0.000000 0.000000 0.000000 0.034935 0.000000 0.000000
# 5 0.000000 0.000000 0.000000 0.000000 0.039990 0.000000
# 6 0.000000 0.000000 0.000000 0.000000 0.000000 0.074655
#
#
# Mechanical properties :
#
#
# Convention : Reuss Voigt Hill
#
# Bulk Modulus (GPa) = 57.13174 64.84676 60.98925
# Shear Modulus (GPa) = 19.81623 22.70655 21.26139
#
# Velocity S-wave (km/s) = 3.36626 3.60340 3.48685
# Velocity P-wave (km/s) = 6.91224 7.37527 7.14751
#
# Compressibility (1/GPa) = 0.01750341
#
# Stress axis : x y z
#
# Youngs Moduli (GPa) = 71.32559 72.68673 33.98401
#
# Poissons Ratio (x) = 0.20919 0.24245
# Poissons Ratio (y) = 0.20527 0.33433
# Poissons Ratio (z) = 0.50886 0.71508
#
# Static dielectric constant tensor:
#      x y z
#    x 3.175320 0.000000 0.000000 
#    y 0.000000 3.290900 0.000000 
#    z 0.000000 0.000000 3.232360 
# 
# 
# High freq. dielectric constant tensor:
#      x y z
#    x 1.661700 0.000000 0.000000 
#    y 0.000000 1.678550 0.000000 
#    z 0.000000 0.000000 1.676950 
# 
# From -- ./inp_files/2400.got.cif
#   From: 2010.06.25/outbox.cif.g09.slc.cpg/sg58_2_cif.got.tgz:2400.got - 2010.06.26 21:38:00.
