data_PCOD8235798
_publ_section_title
;
Structure prediction by ZEFSAII (Michael W. Deem and Ramdas Pophale) SiO2 
 PCOD8235798
Probable space group: P N N M
;
_chemical_formula_sum "Si O2"
_cell_formula_units_Z 64
_cell_length_a 18.125946
_cell_length_b 9.328559
_cell_length_c 19.108792
_cell_angle_alpha 90.000000
_cell_angle_beta 90.000000
_cell_angle_gamma 90.000000
_cell_volume 3231.085703
_symmetry_space_group_name_H-M "P N N M"
_symmetry_group_IT_number 58
_symmetry_cell_setting 'orthorhombic'
loop_
_space_group_symop_operation_xyz
x,y,z
-x,-y,z
1/2+x,1/2-y,1/2-z
1/2-x,1/2+y,1/2-z
-x,-y,-z
x,y,-z
1/2-x,1/2+y,1/2+z
1/2+x,1/2-y,1/2+z
loop_
_atom_site_type_symbol
_atom_site_label
_atom_site_fract_x
_atom_site_fract_y
_atom_site_fract_z
Si Si1 0.576465 0.558175 0.657259
Si Si2 0.185440 0.161391 0.219925
Si Si3 0.826829 0.281296 0.917801
Si Si4 0.413341 0.026755 0.190305
Si Si5 0.098206 0.130868 0.352880
Si Si6 0.693497 0.017888 0.696498
Si Si7 0.934074 0.159865 0.686823
Si Si8 0.825167 0.646121 0.576763
O O1 0.500000 0.500000 0.623346
O O2 0.637819 0.431484 0.663936
O O3 0.603193 0.691922 0.610097
O O4 0.554601 0.618829 0.732835
O O5 0.134417 0.208412 0.285340
O O6 0.251425 0.061702 0.249350
O O7 0.214606 0.312479 0.185788
O O8 0.812813 0.430983 0.876522
O O9 0.759586 0.172154 0.903585
O O10 0.835780 0.318093 0.000000
O O11 0.387362 0.982617 0.267692
O O12 0.392880 0.192172 0.178616
O O13 0.500000 0.000000 0.182509
O O14 0.366269 0.954242 0.130293
O O15 0.134377 0.198117 0.422047
O O16 0.012122 0.164310 0.351926
O O17 0.116151 0.961401 0.350501
O O18 0.832461 0.578522 0.500000
#
# Coordination Sequence:
#
# PCOD8235798 Si02
#       8
#     8   8   8   8   8   8   8   8
#     4  11  21  39  65  92 122 158 201 257 313 372
#     4  11  21  35  61  98 118 149 203 253 306 354
#     4  11  25  43  60  85 122 165 204 251 318 374
#     4  12  22  35  60  91 120 155 198 250 300 350
#     4  10  18  37  55  87 120 154 192 244 296 353
#     4  12  22  36  63  91 121 154 203 257 306 358
#     4  10  19  33  59  91 122 142 200 262 290 344
#     4  11  23  41  58  82 126 167 196 239 304 370
#
# _framework density 19.807583999999999
#
# number of rings (size 3 to 8) (size 9 to 14) (size 15 to 20)
#    0.000    1.000    7.500    1.500    1.750    0.500 
#    0.000    2.500    0.000    6.375    0.000    0.000 
#    0.000    0.000    0.000    0.000    0.000    0.000 
#
# Total GULP energy -793137.075091 kJ/mol
# GULP energy per Si atom -12392.766798 kJ/mol
# Density = 1.976250 g / cm^3
# Si number density = 19.807584 Si / 1000 Ang^3
#
#
#
# Elastic Constant Matrix: (Units=GPa)
#
#
# Indices 1 2 3 4 5 6 
#
# 1 71.1492 33.0666 31.4981 0.0000 0.0000 0.0000
# 2 33.0666 126.1644 30.6907 0.0000 0.0000 0.0000
# 3 31.4981 30.6907 65.3330 0.0000 0.0000 0.0000
# 4 0.0000 0.0000 0.0000 18.9747 0.0000 0.0000
# 5 0.0000 0.0000 0.0000 0.0000 14.4668 0.0000
# 6 0.0000 0.0000 0.0000 0.0000 0.0000 28.7264
#
#
#
# Elastic Compliance Matrix: (Units=1/GPa)
#
#
# Indices 1 2 3 4 5 6 
#
# 1 0.018876 -0.003086 -0.007651 0.000000 0.000000 0.000000
# 2 -0.003086 0.009453 -0.002953 0.000000 0.000000 0.000000
# 3 -0.007651 -0.002953 0.020382 0.000000 0.000000 0.000000
# 4 0.000000 0.000000 0.000000 0.052702 0.000000 0.000000
# 5 0.000000 0.000000 0.000000 0.000000 0.069124 0.000000
# 6 0.000000 0.000000 0.000000 0.000000 0.000000 0.034811
#
#
# Mechanical properties :
#
#
# Convention : Reuss Voigt Hill
#
# Bulk Modulus (GPa) = 46.87833 50.35082 48.61457
# Shear Modulus (GPa) = 20.84733 23.59298 22.22016
#
# Velocity S-wave (km/s) = 3.24773 3.45499 3.35296
# Velocity P-wave (km/s) = 6.14670 6.43359 6.29178
#
# Compressibility (1/GPa) = 0.02133182
#
# Stress axis : x y z
#
# Youngs Moduli (GPa) = 52.97636 105.78263 49.06307
#
# Poissons Ratio (x) = 0.32646 0.37537
# Poissons Ratio (y) = 0.16349 0.14488
# Poissons Ratio (z) = 0.40531 0.31236
#
# Static dielectric constant tensor:
#      x y z
#    x 3.753340 0.000000 0.000000 
#    y 0.000000 4.051520 0.000000 
#    z 0.000000 0.000000 3.266180 
# 
# 
# High freq. dielectric constant tensor:
#      x y z
#    x 1.781190 0.000000 0.000000 
#    y 0.000000 1.787400 0.000000 
#    z 0.000000 0.000000 1.726380 
# 
# From -- ./inp_files/30291.got.cif
#   From: 2010.06.25/outbox.cif.g09.slc.cpg/sg58_16_cif.got.tgz:30291.got - 2010.06.26 21:38:00.
