data_PCOD8235943
_publ_section_title
;
Structure prediction by ZEFSAII (Michael W. Deem and Ramdas Pophale) SiO2 
 PCOD8235943
Probable space group: P N N M
;
_chemical_formula_sum "Si O2"
_cell_formula_units_Z 64
_cell_length_a 14.397612
_cell_length_b 25.801169
_cell_length_c 9.961685
_cell_angle_alpha 90.000000
_cell_angle_beta 90.000000
_cell_angle_gamma 90.000000
_cell_volume 3700.519131
_symmetry_space_group_name_H-M "P N N M"
_symmetry_group_IT_number 58
_symmetry_cell_setting 'orthorhombic'
loop_
_space_group_symop_operation_xyz
x,y,z
-x,-y,z
1/2+x,1/2-y,1/2-z
1/2-x,1/2+y,1/2-z
-x,-y,-z
x,y,-z
1/2-x,1/2+y,1/2+z
1/2+x,1/2-y,1/2+z
loop_
_atom_site_type_symbol
_atom_site_label
_atom_site_fract_x
_atom_site_fract_y
_atom_site_fract_z
Si Si1 0.796852 0.885767 0.351435
Si Si2 0.405897 0.717353 0.159529
Si Si3 0.281871 0.814426 0.841069
Si Si4 0.963439 0.414196 0.650791
Si Si5 0.731029 0.966547 0.843159
Si Si6 0.916947 0.222133 0.845947
Si Si7 0.833114 0.573750 0.344331
Si Si8 0.904499 0.339929 0.143879
O O1 0.829929 0.904214 0.500000
O O2 0.854035 0.835941 0.303632
O O3 0.804496 0.933110 0.244298
O O4 0.690572 0.870694 0.357096
O O5 0.345906 0.766773 0.212872
O O6 0.500737 0.712733 0.242024
O O7 0.425413 0.721226 0.000000
O O8 0.313542 0.869912 0.777951
O O9 0.173598 0.810067 0.800966
O O10 0.292332 0.812722 0.000000
O O11 0.959776 0.393020 0.500000
O O12 0.875385 0.449614 0.682099
O O13 0.969135 0.362321 0.740017
O O14 0.059875 0.444291 0.677648
O O15 0.733107 0.026716 0.793125
O O16 0.757652 0.960637 0.000000
O O17 0.881999 0.280545 0.832611
O O18 0.947175 0.209131 0.000000
O O19 0.811393 0.580089 0.500000
O O20 0.954961 0.347852 0.000000
#
# Coordination Sequence:
#
# PCOD8235943 Si02
#       8
#     8   8   8   8   8   8   8   8
#     4   9  17  31  49  67  91 125 160 190 228 285
#     4  10  19  33  53  74  96 127 165 199 238 294
#     4   9  17  31  50  71  98 132 164 192 235 298
#     4   9  16  26  43  69  96 123 157 196 235 279
#     4   9  17  28  45  70  97 123 156 202 243 274
#     4  10  19  31  48  71  98 126 158 200 244 284
#     4   9  16  27  45  68  95 127 160 192 235 291
#     4   9  16  28  44  64  93 125 154 187 229 280
#
# _framework density 17.294871000000001
#
# number of rings (size 3 to 8) (size 9 to 14) (size 15 to 20)
#    0.000    2.750    1.250    1.125    0.000    3.500 
#    0.000    1.250    0.000    6.000    0.000    5.250 
#    0.000    0.000    0.000    0.000    0.000    0.000 
#
# Total GULP energy -792858.871312 kJ/mol
# GULP energy per Si atom -12388.419864 kJ/mol
# Density = 1.725551 g / cm^3
# Si number density = 17.294871 Si / 1000 Ang^3
#
#
#
# Elastic Constant Matrix: (Units=GPa)
#
#
# Indices 1 2 3 4 5 6 
#
# 1 57.4655 34.8334 27.4230 0.0000 0.0000 0.0000
# 2 34.8334 90.8155 31.5626 0.0000 0.0000 0.0000
# 3 27.4230 31.5626 50.2697 0.0000 0.0000 0.0000
# 4 0.0000 0.0000 0.0000 22.1738 0.0000 0.0000
# 5 0.0000 0.0000 0.0000 0.0000 21.6200 0.0000
# 6 0.0000 0.0000 0.0000 0.0000 0.0000 18.2855
#
#
#
# Elastic Compliance Matrix: (Units=1/GPa)
#
#
# Indices 1 2 3 4 5 6 
#
# 1 0.026222 -0.006506 -0.010220 0.000000 0.000000 0.000000
# 2 -0.006506 0.015699 -0.006308 0.000000 0.000000 0.000000
# 3 -0.010220 -0.006308 0.029428 0.000000 0.000000 0.000000
# 4 0.000000 0.000000 0.000000 0.045098 0.000000 0.000000
# 5 0.000000 0.000000 0.000000 0.000000 0.046254 0.000000
# 6 0.000000 0.000000 0.000000 0.000000 0.000000 0.054688
#
#
# Mechanical properties :
#
#
# Convention : Reuss Voigt Hill
#
# Bulk Modulus (GPa) = 39.55317 42.90983 41.23150
# Shear Modulus (GPa) = 18.39015 19.39795 18.89405
#
# Velocity S-wave (km/s) = 3.26441 3.35267 3.30883
# Velocity P-wave (km/s) = 6.09328 6.31282 6.20402
#
# Compressibility (1/GPa) = 0.02528243
#
# Stress axis : x y z
#
# Youngs Moduli (GPa) = 38.13524 63.69816 33.98097
#
# Poissons Ratio (x) = 0.41442 0.34728
# Poissons Ratio (y) = 0.24811 0.21434
# Poissons Ratio (z) = 0.38974 0.40179
#
# Static dielectric constant tensor:
#      x y z
#    x 3.036100 0.000000 0.000000 
#    y 0.000000 3.513840 0.000000 
#    z 0.000000 0.000000 3.351400 
# 
# 
# High freq. dielectric constant tensor:
#      x y z
#    x 1.639700 0.000000 0.000000 
#    y 0.000000 1.670240 0.000000 
#    z 0.000000 0.000000 1.642080 
# 
# From -- ./inp_files/14834.got.cif
#   From: 2010.06.25/outbox.cif.g09.slc.cpg/sg58_8_cif.got.tgz:14834.got - 2010.06.26 21:38:00.
