data_PCOD8235403
_publ_section_title
;
Structure prediction by ZEFSAII (Michael W. Deem and Ramdas Pophale) SiO2 
 PCOD8235403
Probable space group: P N N M
;
_chemical_formula_sum "Si O2"
_cell_formula_units_Z 64
_cell_length_a 11.254777
_cell_length_b 26.441966
_cell_length_c 13.108931
_cell_angle_alpha 90.000000
_cell_angle_beta 90.000000
_cell_angle_gamma 90.000000
_cell_volume 3901.197295
_symmetry_space_group_name_H-M "P N N M"
_symmetry_group_IT_number 58
_symmetry_cell_setting 'orthorhombic'
loop_
_space_group_symop_operation_xyz
x,y,z
-x,-y,z
1/2+x,1/2-y,1/2-z
1/2-x,1/2+y,1/2-z
-x,-y,-z
x,y,-z
1/2-x,1/2+y,1/2+z
1/2+x,1/2-y,1/2+z
loop_
_atom_site_type_symbol
_atom_site_label
_atom_site_fract_x
_atom_site_fract_y
_atom_site_fract_z
Si Si1 0.808977 0.744803 0.385316
Si Si2 0.008934 0.892359 0.116104
Si Si3 0.150468 0.652416 0.698675
Si Si4 0.942814 0.287284 0.885181
Si Si5 0.389897 0.704212 0.697844
Si Si6 0.904157 0.642556 0.384745
Si Si7 0.246443 0.944547 0.121152
Si Si8 0.734676 0.442771 0.617636
O O1 0.858831 0.750385 0.500000
O O2 0.667414 0.749016 0.381954
O O3 0.877506 0.787156 0.319311
O O4 0.838233 0.690506 0.334503
O O5 0.126644 0.917945 0.162268
O O6 0.976903 0.842785 0.181395
O O7 0.906347 0.934318 0.121003
O O8 0.028290 0.873798 0.000000
O O9 0.089199 0.666809 0.807558
O O10 0.254381 0.690993 0.660556
O O11 0.203317 0.595799 0.696973
O O12 0.044558 0.651231 0.617569
O O13 0.060140 0.254972 0.855836
O O14 0.959800 0.309318 0.000000
O O15 0.859370 0.641045 0.500000
O O16 0.857790 0.589241 0.337939
O O17 0.261958 0.001502 0.162281
O O18 0.237801 0.949528 0.000000
O O19 0.780114 0.435344 0.500000
#
# Coordination Sequence:
#
# PCOD8235403 Si02
#       8
#     8   8   8   8   8   8   8   8
#     4   9  18  31  46  66  93 121 150 188 228 271
#     4   9  16  27  45  70  97 123 156 196 230 270
#     4  10  20  31  44  67  95 121 153 192 233 275
#     4  10  19  32  49  67  88 119 161 196 224 271
#     4  10  18  30  48  67  90 122 155 187 229 277
#     4  10  18  29  44  65  94 123 151 184 228 279
#     4   9  17  28  45  68  94 127 158 189 232 280
#     4   9  17  29  45  68  98 126 154 190 235 285
#
# _framework density 16.40522
#
# number of rings (size 3 to 8) (size 9 to 14) (size 15 to 20)
#    0.000    2.500    1.250    1.875    0.000    5.500 
#    0.000    1.875    0.000    0.000    0.000    2.625 
#    0.000    6.000    0.000    0.000    0.000    0.000 
#
# Total GULP energy -792925.587725 kJ/mol
# GULP energy per Si atom -12389.462308 kJ/mol
# Density = 1.636788 g / cm^3
# Si number density = 16.405220 Si / 1000 Ang^3
#
#
#
# Elastic Constant Matrix: (Units=GPa)
#
#
# Indices 1 2 3 4 5 6 
#
# 1 86.1468 52.3112 29.3454 0.0000 0.0000 0.0000
# 2 52.3112 118.0312 42.5688 0.0000 0.0000 0.0000
# 3 29.3454 42.5688 48.4069 0.0000 0.0000 0.0000
# 4 0.0000 0.0000 0.0000 20.3926 0.0000 0.0000
# 5 0.0000 0.0000 0.0000 0.0000 17.3047 0.0000
# 6 0.0000 0.0000 0.0000 0.0000 0.0000 25.9635
#
#
#
# Elastic Compliance Matrix: (Units=1/GPa)
#
#
# Indices 1 2 3 4 5 6 
#
# 1 0.016767 -0.005514 -0.005316 0.000000 0.000000 0.000000
# 2 -0.005514 0.014221 -0.009163 0.000000 0.000000 0.000000
# 3 -0.005316 -0.009163 0.031939 0.000000 0.000000 0.000000
# 4 0.000000 0.000000 0.000000 0.049037 0.000000 0.000000
# 5 0.000000 0.000000 0.000000 0.000000 0.057788 0.000000
# 6 0.000000 0.000000 0.000000 0.000000 0.000000 0.038516
#
#
# Mechanical properties :
#
#
# Convention : Reuss Voigt Hill
#
# Bulk Modulus (GPa) = 43.58963 55.67064 49.63014
# Shear Modulus (GPa) = 19.53890 21.28945 20.41417
#
# Velocity S-wave (km/s) = 3.45486 3.60630 3.53139
# Velocity P-wave (km/s) = 6.52250 7.16582 6.85171
#
# Compressibility (1/GPa) = 0.02294123
#
# Stress axis : x y z
#
# Youngs Moduli (GPa) = 59.64041 70.31925 31.31011
#
# Poissons Ratio (x) = 0.38774 0.16643
# Poissons Ratio (y) = 0.32886 0.28689
# Poissons Ratio (z) = 0.31703 0.64434
#
# Static dielectric constant tensor:
#      x y z
#    x 3.196830 0.000000 0.000000 
#    y 0.000000 3.219840 0.000000 
#    z 0.000000 0.000000 2.860030 
# 
# 
# High freq. dielectric constant tensor:
#      x y z
#    x 1.640090 0.000000 0.000000 
#    y 0.000000 1.628700 0.000000 
#    z 0.000000 0.000000 1.581690 
# 
# From -- ./inp_files/14927.got.cif
#   From: 2010.06.25/outbox.cif.g09.slc.cpg/sg58_8_cif.got.tgz:14927.got - 2010.06.26 21:38:00.
