data_PCOD8235454
_publ_section_title
;
Structure prediction by ZEFSAII (Michael W. Deem and Ramdas Pophale) SiO2 
 PCOD8235454
Probable space group: P N N M
;
_chemical_formula_sum "Si O2"
_cell_formula_units_Z 52
_cell_length_a 7.566635
_cell_length_b 26.374123
_cell_length_c 14.958003
_cell_angle_alpha 90.000000
_cell_angle_beta 90.000000
_cell_angle_gamma 90.000000
_cell_volume 2985.069370
_symmetry_space_group_name_H-M "P N N M"
_symmetry_group_IT_number 58
_symmetry_cell_setting 'orthorhombic'
loop_
_space_group_symop_operation_xyz
x,y,z
-x,-y,z
1/2+x,1/2-y,1/2-z
1/2-x,1/2+y,1/2-z
-x,-y,-z
x,y,-z
1/2-x,1/2+y,1/2+z
1/2+x,1/2-y,1/2+z
loop_
_atom_site_type_symbol
_atom_site_label
_atom_site_fract_x
_atom_site_fract_y
_atom_site_fract_z
Si Si1 0.238399 0.130250 0.342283
Si Si2 0.226380 0.798434 0.323932
Si Si3 0.908770 0.794622 0.000000
Si Si4 0.914825 0.808505 0.192725
Si Si5 0.406373 0.893103 0.395018
Si Si6 0.552536 0.554043 0.103440
Si Si7 0.698214 0.790783 0.500000
Si Si8 0.569171 0.735418 0.000000
O O1 0.222788 0.154684 0.243479
O O2 0.402354 0.090517 0.354087
O O3 0.055238 0.100588 0.355227
O O4 0.280946 0.174675 0.412603
O O5 0.336856 0.747735 0.310359
O O6 0.361793 0.844029 0.336103
O O7 0.102446 0.798188 0.411652
O O8 0.105133 0.808009 0.238381
O O9 0.947835 0.826651 0.089876
O O10 0.697602 0.783688 0.000000
O O11 0.015327 0.740686 0.000000
O O12 0.423346 0.879054 0.500000
O O13 0.261582 0.937061 0.380708
O O14 0.500000 0.500000 0.147350
O O15 0.502788 0.552943 0.000000
O O16 0.861201 0.750180 0.500000
#
# Coordination Sequence:
#
# PCOD8235454 Si02
#       8
#     8   8   4   8   8   8   4   4
#     4  12  21  34  55  79 106 144 185 224 266 324
#     4  11  19  32  48  74 104 143 179 223 260 317
#     4  10  24  36  44  71 106 147 185 232 261 308
#     4  11  22  33  49  73 109 143 190 225 264 313
#     4  11  20  33  55  80 110 142 177 216 262 325
#     4  10  21  37  55  80 114 145 176 221 274 326
#     4  12  18  32  53  73 102 146 184 221 262 318
#     4  10  18  30  46  65  98 132 180 219 262 300
#
# _framework density 17.420031000000002
#
# number of rings (size 3 to 8) (size 9 to 14) (size 15 to 20)
#    0.000    1.077    5.385    3.692    0.000    0.615 
#    0.000    2.308    0.000    0.000    0.000    0.538 
#    0.000    1.231    0.000    0.000    0.000    0.000 
#
# Total GULP energy -644529.006597 kJ/mol
# GULP energy per Si atom -12394.788588 kJ/mol
# Density = 1.738038 g / cm^3
# Si number density = 17.420031 Si / 1000 Ang^3
#
#
#
# Elastic Constant Matrix: (Units=GPa)
#
#
# Indices 1 2 3 4 5 6 
#
# 1 76.2420 4.9757 22.4013 0.0000 0.0000 0.0000
# 2 4.9757 46.1096 20.3045 0.0000 0.0000 0.0000
# 3 22.4013 20.3045 120.3245 0.0000 0.0000 0.0000
# 4 0.0000 0.0000 0.0000 13.0880 0.0000 0.0000
# 5 0.0000 0.0000 0.0000 0.0000 25.9121 0.0000
# 6 0.0000 0.0000 0.0000 0.0000 0.0000 17.4355
#
#
#
# Elastic Compliance Matrix: (Units=1/GPa)
#
#
# Indices 1 2 3 4 5 6 
#
# 1 0.013882 -0.000389 -0.002519 0.000000 0.000000 0.000000
# 2 -0.000389 0.023439 -0.003883 0.000000 0.000000 0.000000
# 3 -0.002519 -0.003883 0.009435 0.000000 0.000000 0.000000
# 4 0.000000 0.000000 0.000000 0.076406 0.000000 0.000000
# 5 0.000000 0.000000 0.000000 0.000000 0.038592 0.000000
# 6 0.000000 0.000000 0.000000 0.000000 0.000000 0.057354
#
#
# Mechanical properties :
#
#
# Convention : Reuss Voigt Hill
#
# Bulk Modulus (GPa) = 30.14333 37.55987 33.85160
# Shear Modulus (GPa) = 20.51303 24.28675 22.39989
#
# Velocity S-wave (km/s) = 3.43527 3.73793 3.58979
# Velocity P-wave (km/s) = 5.75119 6.34331 6.05449
#
# Compressibility (1/GPa) = 0.03317484
#
# Stress axis : x y z
#
# Youngs Moduli (GPa) = 72.03796 42.66344 105.98807
#
# Poissons Ratio (x) = 0.01659 0.26696
# Poissons Ratio (y) = 0.02801 0.41154
# Poissons Ratio (z) = 0.18145 0.16566
#
# Static dielectric constant tensor:
#      x y z
#    x 3.611030 0.000000 0.000000 
#    y 0.000000 2.941480 0.000000 
#    z 0.000000 0.000000 3.394990 
# 
# 
# High freq. dielectric constant tensor:
#      x y z
#    x 1.698660 0.000000 0.000000 
#    y 0.000000 1.621260 0.000000 
#    z 0.000000 0.000000 1.652190 
# 
# From -- ./inp_files/20234.got.cif
#   From: 2010.06.25/outbox.cif.g09.slc.cpg/sg58_11_cif.got.tgz:20234.got - 2010.06.26 21:38:00.
