data_PCOD8235936
_publ_section_title
;
Structure prediction by ZEFSAII (Michael W. Deem and Ramdas Pophale) SiO2 
 PCOD8235936
Probable space group: P N N M
;
_chemical_formula_sum "Si O2"
_cell_formula_units_Z 64
_cell_length_a 22.015045
_cell_length_b 16.947737
_cell_length_c 9.293017
_cell_angle_alpha 90.000000
_cell_angle_beta 90.000000
_cell_angle_gamma 90.000000
_cell_volume 3467.272899
_symmetry_space_group_name_H-M "P N N M"
_symmetry_group_IT_number 58
_symmetry_cell_setting 'orthorhombic'
loop_
_space_group_symop_operation_xyz
x,y,z
-x,-y,z
1/2+x,1/2-y,1/2-z
1/2-x,1/2+y,1/2-z
-x,-y,-z
x,y,-z
1/2-x,1/2+y,1/2+z
1/2+x,1/2-y,1/2+z
loop_
_atom_site_type_symbol
_atom_site_label
_atom_site_fract_x
_atom_site_fract_y
_atom_site_fract_z
Si Si1 0.325955 0.083372 0.828690
Si Si2 0.689191 0.458687 0.671837
Si Si3 0.614029 0.052218 0.335823
Si Si4 0.971705 0.688186 0.828572
Si Si5 0.217943 0.321456 0.843039
Si Si6 0.377665 0.689168 0.663408
Si Si7 0.827024 0.131613 0.165957
Si Si8 0.107918 0.715560 0.168488
O O1 0.258307 0.058762 0.777757
O O2 0.342510 0.168341 0.761553
O O3 0.376031 0.022351 0.767167
O O4 0.331465 0.087052 0.000000
O O5 0.687468 0.453790 0.500000
O O6 0.641021 0.394570 0.736145
O O7 0.666705 0.543752 0.733524
O O8 0.603357 0.022854 0.500000
O O9 0.556355 0.103884 0.280199
O O10 0.672806 0.106132 0.325034
O O11 0.933037 0.762238 0.761765
O O12 0.040717 0.693713 0.776293
O O13 0.965053 0.693173 0.000000
O O14 0.183582 0.239415 0.828396
O O15 0.268082 0.323741 0.721773
O O16 0.249268 0.325995 0.000000
O O17 0.397277 0.673034 0.500000
O O18 0.883773 0.189969 0.194512
O O19 0.815487 0.117770 0.000000
O O20 0.116366 0.695228 0.000000
#
# Coordination Sequence:
#
# PCOD8235936 Si02
#       8
#     8   8   8   8   8   8   8   8
#     4  11  21  33  51  75 105 132 159 199 253 305
#     4   9  17  29  46  72 103 128 153 196 250 296
#     4   9  17  31  52  75  98 128 165 205 244 288
#     4   8  16  32  51  70  95 131 171 206 239 282
#     4   9  16  28  49  73  95 124 162 199 239 292
#     4   8  14  27  49  72  93 122 163 203 238 283
#     4  10  19  31  47  70 102 133 157 197 252 294
#     4  10  21  35  50  70  99 133 169 206 244 288
#
# _framework density 18.458311999999999
#
# number of rings (size 3 to 8) (size 9 to 14) (size 15 to 20)
#    0.000    2.750    1.250    2.625    0.000    2.000 
#    0.000    3.750    0.000    4.500    0.000    0.000 
#    0.000    2.000    0.000    0.000    0.000    0.000 
#
# Total GULP energy -793052.793811 kJ/mol
# GULP energy per Si atom -12391.449903 kJ/mol
# Density = 1.841630 g / cm^3
# Si number density = 18.458312 Si / 1000 Ang^3
#
#
#
# Elastic Constant Matrix: (Units=GPa)
#
#
# Indices 1 2 3 4 5 6 
#
# 1 45.4153 35.0193 10.0114 0.0000 0.0000 0.0000
# 2 35.0193 120.3343 30.3985 0.0000 0.0000 0.0000
# 3 10.0114 30.3985 26.3676 0.0000 0.0000 0.0000
# 4 0.0000 0.0000 0.0000 18.4925 0.0000 0.0000
# 5 0.0000 0.0000 0.0000 0.0000 16.6753 0.0000
# 6 0.0000 0.0000 0.0000 0.0000 0.0000 20.1515
#
#
#
# Elastic Compliance Matrix: (Units=1/GPa)
#
#
# Indices 1 2 3 4 5 6 
#
# 1 0.028448 -0.007831 -0.001773 0.000000 0.000000 0.000000
# 2 -0.007831 0.013881 -0.013029 0.000000 0.000000 0.000000
# 3 -0.001773 -0.013029 0.053620 0.000000 0.000000 0.000000
# 4 0.000000 0.000000 0.000000 0.054076 0.000000 0.000000
# 5 0.000000 0.000000 0.000000 0.000000 0.059969 0.000000
# 6 0.000000 0.000000 0.000000 0.000000 0.000000 0.049624
#
#
# Mechanical properties :
#
#
# Convention : Reuss Voigt Hill
#
# Bulk Modulus (GPa) = 19.73105 38.10842 28.91974
# Shear Modulus (GPa) = 15.53864 18.84305 17.19084
#
# Velocity S-wave (km/s) = 2.90457 3.19853 3.05509
# Velocity P-wave (km/s) = 4.68630 5.85929 5.30531
#
# Compressibility (1/GPa) = 0.05068154
#
# Stress axis : x y z
#
# Youngs Moduli (GPa) = 35.15144 72.04336 18.64988
#
# Poissons Ratio (x) = 0.56417 0.03307
# Poissons Ratio (y) = 0.27527 0.24299
# Poissons Ratio (z) = 0.06233 0.93867
#
# Static dielectric constant tensor:
#      x y z
#    x 3.384290 0.000000 0.000000 
#    y 0.000000 3.732110 0.000000 
#    z 0.000000 0.000000 3.000940 
# 
# 
# High freq. dielectric constant tensor:
#      x y z
#    x 1.699060 0.000000 0.000000 
#    y 0.000000 1.732090 0.000000 
#    z 0.000000 0.000000 1.665060 
# 
# From -- ./inp_files/6935.got.cif
#   From: 2010.06.25/outbox.cif.g09.slc.cpg/sg58_4_cif.got.tgz:6935.got - 2010.06.26 21:38:00.
