data_PCOD8235135
_publ_section_title
;
Structure prediction by ZEFSAII (Michael W. Deem and Ramdas Pophale) SiO2 
 PCOD8235135
Probable space group: P B C M
;
_chemical_formula_sum "Si O2"
_cell_formula_units_Z 48
_cell_length_a 8.461218
_cell_length_b 14.949339
_cell_length_c 18.612853
_cell_angle_alpha 90.000000
_cell_angle_beta 90.000000
_cell_angle_gamma 90.000000
_cell_volume 2354.332633
_symmetry_space_group_name_H-M "P B C M"
_symmetry_group_IT_number 57
_symmetry_cell_setting 'orthorhombic'
loop_
_space_group_symop_operation_xyz
x,y,z
-x,-y,1/2+z
x,1/2-y,-z
-x,1/2+y,1/2-z
-x,-y,-z
x,y,1/2-z
-x,1/2+y,z
x,1/2-y,1/2+z
loop_
_atom_site_type_symbol
_atom_site_label
_atom_site_fract_x
_atom_site_fract_y
_atom_site_fract_z
Si Si1 0.305579 0.109351 0.611337
Si Si2 0.134632 0.050454 0.750000
Si Si3 0.169564 0.750000 0.500000
Si Si4 0.825956 0.965782 0.522075
Si Si5 0.000943 0.851071 0.750000
Si Si6 0.325458 0.618880 0.897268
Si Si7 0.890339 0.708693 0.100526
Si Si8 0.165511 0.675144 0.750000
O O1 0.247253 0.060630 0.682384
O O2 0.276776 0.035329 0.550014
O O3 0.489936 0.127110 0.615576
O O4 0.211231 0.201209 0.597909
O O5 0.005422 0.128807 0.750000
O O6 0.055389 0.953238 0.750000
O O7 0.281410 0.672402 0.530150
O O8 0.066261 0.724483 0.430262
O O9 0.816685 0.864006 0.548132
O O10 0.743383 0.021055 0.585758
O O11 0.000000 0.000000 0.500000
O O12 0.148232 0.782606 0.750000
O O13 0.894709 0.831259 0.819636
O O14 0.253252 0.649449 0.822347
#
# Coordination Sequence:
#
# PCOD8235135 Si02
#       8
#     8   4   4   8   4   8   8   4
#     4  12  25  45  67 101 146 180 225 296 361 403
#     4  12  25  47  75  98 137 188 238 286 341 433
#     4  12  22  40  70  98 132 188 228 278 340 420
#     4  12  23  43  70 101 132 182 239 281 337 423
#     4  12  24  41  74 103 122 179 245 281 331 414
#     4  12  27  42  69 102 147 178 229 298 356 406
#     4  12  22  44  71  99 133 185 237 282 340 425
#     4  12  23  48  67  99 137 187 231 281 340 425
#
# _framework density 20.387944999999998
#
# number of rings (size 3 to 8) (size 9 to 14) (size 15 to 20)
#    0.000    0.000    6.667    4.000    2.333    0.000 
#    3.000    0.000    0.000    0.000    0.000    0.000 
#    0.000    0.000    0.000    0.000    0.000    0.000 
#
# Total GULP energy -595105.154546 kJ/mol
# GULP energy per Si atom -12398.024053 kJ/mol
# Density = 2.034154 g / cm^3
# Si number density = 20.387945 Si / 1000 Ang^3
#
#
#
# Elastic Constant Matrix: (Units=GPa)
#
#
# Indices 1 2 3 4 5 6 
#
# 1 109.2205 14.5940 37.9323 0.0000 0.0000 0.0000
# 2 14.5940 90.2905 14.5226 0.0000 0.0000 0.0000
# 3 37.9323 14.5226 121.3185 0.0000 0.0000 0.0000
# 4 0.0000 0.0000 0.0000 24.9567 0.0000 0.0000
# 5 0.0000 0.0000 0.0000 0.0000 53.1461 0.0000
# 6 0.0000 0.0000 0.0000 0.0000 0.0000 27.4155
#
#
#
# Elastic Compliance Matrix: (Units=1/GPa)
#
#
# Indices 1 2 3 4 5 6 
#
# 1 0.010393 -0.001180 -0.003108 0.000000 0.000000 0.000000
# 2 -0.001180 0.011427 -0.000999 0.000000 0.000000 0.000000
# 3 -0.003108 -0.000999 0.009334 0.000000 0.000000 0.000000
# 4 0.000000 0.000000 0.000000 0.040069 0.000000 0.000000
# 5 0.000000 0.000000 0.000000 0.000000 0.018816 0.000000
# 6 0.000000 0.000000 0.000000 0.000000 0.000000 0.036476
#
#
# Mechanical properties :
#
#
# Convention : Reuss Voigt Hill
#
# Bulk Modulus (GPa) = 48.59172 50.54748 49.56960
# Shear Modulus (GPa) = 34.73448 38.02238 36.37843
#
# Velocity S-wave (km/s) = 4.13204 4.32319 4.22869
# Velocity P-wave (km/s) = 6.83010 7.05454 6.94323
#
# Compressibility (1/GPa) = 0.02057964
#
# Stress axis : x y z
#
# Youngs Moduli (GPa) = 96.21901 87.51400 107.13289
#
# Poissons Ratio (x) = 0.10326 0.33300
# Poissons Ratio (y) = 0.11353 0.10702
# Poissons Ratio (z) = 0.29908 0.08742
#
# Static dielectric constant tensor:
#      x y z
#    x 3.576480 0.000000 0.000000 
#    y 0.000000 3.977060 0.000000 
#    z 0.000000 0.000000 3.845650 
# 
# 
# High freq. dielectric constant tensor:
#      x y z
#    x 1.780530 0.000000 0.000000 
#    y 0.000000 1.807210 0.000000 
#    z 0.000000 0.000000 1.827220 
# 
# From -- ./inp_files/21032.got.cif
#   From: 2010.03.12/outbox.cif.g09.slc.cpg/sg57_11_cif.got.tgz:21032.got - 2010.04.16 15:48:40.
