data_PCOD8235558
_publ_section_title
;
Structure prediction by ZEFSAII (Michael W. Deem and Ramdas Pophale) SiO2 
 PCOD8235558
Probable space group: P N N M
;
_chemical_formula_sum "Si O2"
_cell_formula_units_Z 56
_cell_length_a 17.571060
_cell_length_b 19.731188
_cell_length_c 8.789715
_cell_angle_alpha 90.000000
_cell_angle_beta 90.000000
_cell_angle_gamma 90.000000
_cell_volume 3047.375629
_symmetry_space_group_name_H-M "P N N M"
_symmetry_group_IT_number 58
_symmetry_cell_setting 'orthorhombic'
loop_
_space_group_symop_operation_xyz
x,y,z
-x,-y,z
1/2+x,1/2-y,1/2-z
1/2-x,1/2+y,1/2-z
-x,-y,-z
x,y,-z
1/2-x,1/2+y,1/2+z
1/2+x,1/2-y,1/2+z
loop_
_atom_site_type_symbol
_atom_site_label
_atom_site_fract_x
_atom_site_fract_y
_atom_site_fract_z
Si Si1 0.572543 0.310578 0.318839
Si Si2 0.968170 0.069632 0.822268
Si Si3 0.849711 0.554859 0.180543
Si Si4 0.624048 0.903859 0.320621
Si Si5 0.292814 0.615029 0.820147
Si Si6 0.695955 0.529586 0.677626
Si Si7 0.972554 0.662992 0.181294
O O1 0.576559 0.310287 0.500000
O O2 0.512114 0.365456 0.253780
O O3 0.656191 0.326497 0.254298
O O4 0.546341 0.237548 0.256248
O O5 0.878059 0.076173 0.791595
O O6 0.986657 0.068031 0.000000
O O7 0.000000 0.000000 0.748403
O O8 0.879309 0.481522 0.237352
O O9 0.767619 0.569766 0.254282
O O10 0.908097 0.611298 0.239602
O O11 0.839910 0.556206 0.000000
O O12 0.614790 0.905007 0.500000
O O13 0.704796 0.870480 0.274607
O O14 0.554158 0.860883 0.250762
O O15 0.318051 0.542186 0.757914
O O16 0.303520 0.614988 0.000000
O O17 0.707825 0.515835 0.500000
O O18 0.974842 0.662750 0.000000
#
# Coordination Sequence:
#
# PCOD8235558 Si02
#       7
#     8   8   8   8   8   8   8
#     4  10  19  33  52  71  97 134 174 208 246 304
#     4   9  16  29  49  71  94 126 169 211 239 282
#     4   9  17  31  52  77 103 127 162 214 259 298
#     4   8  15  29  51  76  97 124 167 211 246 290
#     4  10  19  32  51  76 103 129 162 210 261 300
#     4  10  18  31  52  76 100 129 168 208 252 301
#     4   9  17  31  52  75  97 131 174 209 247 299
#
# _framework density 18.376469
#
# number of rings (size 3 to 8) (size 9 to 14) (size 15 to 20)
#    0.000    2.714    1.429    2.143    0.000    1.714 
#    2.571    2.857    0.000   12.000    0.000    0.000 
#    0.000    0.000    0.000    0.000    0.000    0.000 
#
# Total GULP energy -694219.743714 kJ/mol
# GULP energy per Si atom -12396.781138 kJ/mol
# Density = 1.833464 g / cm^3
# Si number density = 18.376469 Si / 1000 Ang^3
#
#
#
# Elastic Constant Matrix: (Units=GPa)
#
#
# Indices 1 2 3 4 5 6 
#
# 1 166.7034 99.0297 26.4585 0.0000 0.0000 0.0000
# 2 99.0297 139.4507 19.8783 0.0000 0.0000 0.0000
# 3 26.4585 19.8783 27.0080 0.0000 0.0000 0.0000
# 4 0.0000 0.0000 0.0000 14.1481 0.0000 0.0000
# 5 0.0000 0.0000 0.0000 0.0000 27.3744 0.0000
# 6 0.0000 0.0000 0.0000 0.0000 0.0000 27.6828
#
#
#
# Elastic Compliance Matrix: (Units=1/GPa)
#
#
# Indices 1 2 3 4 5 6 
#
# 1 0.011102 -0.007076 -0.005668 0.000000 0.000000 0.000000
# 2 -0.007076 0.012521 -0.002284 0.000000 0.000000 0.000000
# 3 -0.005668 -0.002284 0.044260 0.000000 0.000000 0.000000
# 4 0.000000 0.000000 0.000000 0.070681 0.000000 0.000000
# 5 0.000000 0.000000 0.000000 0.000000 0.036530 0.000000
# 6 0.000000 0.000000 0.000000 0.000000 0.000000 0.036123
#
#
# Mechanical properties :
#
#
# Convention : Reuss Voigt Hill
#
# Bulk Modulus (GPa) = 26.43595 69.32168 47.87881
# Shear Modulus (GPa) = 19.69418 26.36078 23.02748
#
# Velocity S-wave (km/s) = 3.27724 3.79157 3.54375
# Velocity P-wave (km/s) = 5.36073 7.54804 6.54639
#
# Compressibility (1/GPa) = 0.03782728
#
# Stress axis : x y z
#
# Youngs Moduli (GPa) = 90.07711 79.86340 22.59385
#
# Poissons Ratio (x) = 0.56509 0.12806
# Poissons Ratio (y) = 0.63736 0.05161
# Poissons Ratio (z) = 0.51055 0.18242
#
# Static dielectric constant tensor:
#      x y z
#    x 3.673250 0.000000 0.000000 
#    y 0.000000 3.449140 0.000000 
#    z 0.000000 0.000000 2.975490 
# 
# 
# High freq. dielectric constant tensor:
#      x y z
#    x 1.729540 0.000000 0.000000 
#    y 0.000000 1.695940 0.000000 
#    z 0.000000 0.000000 1.669420 
# 
# From -- ./inp_files/8178.got.cif
#   From: 2010.06.25/outbox.cif.g09.slc.cpg/sg58_5_cif.got.tgz:8178.got - 2010.06.26 21:38:00.
