data_PCOD8235230
_publ_section_title
;
Structure prediction by ZEFSAII (Michael W. Deem and Ramdas Pophale) SiO2 
 PCOD8235230
Probable space group: P N N M
;
_chemical_formula_sum "Si O2"
_cell_formula_units_Z 40
_cell_length_a 10.470906
_cell_length_b 8.170736
_cell_length_c 25.444365
_cell_angle_alpha 90.000000
_cell_angle_beta 90.000000
_cell_angle_gamma 90.000000
_cell_volume 2176.892867
_symmetry_space_group_name_H-M "P N N M"
_symmetry_group_IT_number 58
_symmetry_cell_setting 'orthorhombic'
loop_
_space_group_symop_operation_xyz
x,y,z
-x,-y,z
1/2+x,1/2-y,1/2-z
1/2-x,1/2+y,1/2-z
-x,-y,-z
x,y,-z
1/2-x,1/2+y,1/2+z
1/2+x,1/2-y,1/2+z
loop_
_atom_site_type_symbol
_atom_site_label
_atom_site_fract_x
_atom_site_fract_y
_atom_site_fract_z
Si Si1 0.119523 0.094819 0.213921
Si Si2 0.153570 0.820899 0.059204
Si Si3 0.874247 0.835828 0.904252
Si Si4 0.651411 0.992486 0.623207
Si Si5 0.141112 0.446705 0.242811
O O1 0.077570 0.140765 0.155228
O O2 0.141795 0.253746 0.248098
O O3 0.253261 0.998917 0.214731
O O4 0.000000 0.000000 0.239765
O O5 0.207144 0.671287 0.095396
O O6 0.999801 0.822280 0.059856
O O7 0.205005 0.001688 0.077882
O O8 0.200869 0.789066 0.000000
O O9 0.795764 0.662077 0.904600
O O10 0.500000 0.000000 0.615983
O O11 0.683692 0.987830 0.685130
O O12 0.000000 0.500000 0.259542
#
# Coordination Sequence:
#
# PCOD8235230 Si02
#       5
#     8   8   8   8   8
#     4  11  20  33  53  72 101 145 171 218 264 306
#     4  10  17  26  45  66  97 133 166 204 260 308
#     4   9  17  28  42  64  96 127 164 204 252 302
#     4   8  17  29  41  62  95 130 161 207 249 301
#     4  10  21  33  50  74 102 141 180 210 260 314
#
# _framework density 18.374811999999999
#
# number of rings (size 3 to 8) (size 9 to 14) (size 15 to 20)
#    0.000    2.400    2.000    3.600    2.800    4.400 
#    0.000    0.000    0.000    0.000    0.000    0.000 
#    0.000    4.000    3.600    0.000    0.000    0.200 
#
# Total GULP energy -495534.785836 kJ/mol
# GULP energy per Si atom -12388.369646 kJ/mol
# Density = 1.833299 g / cm^3
# Si number density = 18.374812 Si / 1000 Ang^3
#
#
#
# Elastic Constant Matrix: (Units=GPa)
#
#
# Indices 1 2 3 4 5 6 
#
# 1 63.8354 21.1467 10.4214 0.0000 0.0000 0.0000
# 2 21.1467 147.4045 19.6613 0.0000 0.0000 0.0000
# 3 10.4214 19.6613 39.0389 0.0000 0.0000 0.0000
# 4 0.0000 0.0000 0.0000 29.0470 0.0000 0.0000
# 5 0.0000 0.0000 0.0000 0.0000 7.5512 0.0000
# 6 0.0000 0.0000 0.0000 0.0000 0.0000 17.2440
#
#
#
# Elastic Compliance Matrix: (Units=1/GPa)
#
#
# Indices 1 2 3 4 5 6 
#
# 1 0.016888 -0.001953 -0.003525 0.000000 0.000000 0.000000
# 2 -0.001953 0.007498 -0.003255 0.000000 0.000000 0.000000
# 3 -0.003525 -0.003255 0.028196 0.000000 0.000000 0.000000
# 4 0.000000 0.000000 0.000000 0.034427 0.000000 0.000000
# 5 0.000000 0.000000 0.000000 0.000000 0.132429 0.000000
# 6 0.000000 0.000000 0.000000 0.000000 0.000000 0.057991
#
#
# Mechanical properties :
#
#
# Convention : Reuss Voigt Hill
#
# Bulk Modulus (GPa) = 28.47642 39.19305 33.83474
# Shear Modulus (GPa) = 16.30791 24.03839 20.17315
#
# Velocity S-wave (km/s) = 2.98235 3.62086 3.31701
# Velocity P-wave (km/s) = 5.23358 6.23353 5.75532
#
# Compressibility (1/GPa) = 0.03511677
#
# Stress axis : x y z
#
# Youngs Moduli (GPa) = 59.21522 133.36259 35.46620
#
# Poissons Ratio (x) = 0.26040 0.12501
# Poissons Ratio (y) = 0.11562 0.11545
# Poissons Ratio (z) = 0.20872 0.43412
#
# Static dielectric constant tensor:
#      x y z
#    x 2.606390 0.000000 0.000000 
#    y 0.000000 4.286040 0.000000 
#    z 0.000000 0.000000 3.127750 
# 
# 
# High freq. dielectric constant tensor:
#      x y z
#    x 1.621370 0.000000 0.000000 
#    y 0.000000 1.751810 0.000000 
#    z 0.000000 0.000000 1.692860 
# 
# From -- ./inp_files/31290.got.cif
#   From: 2010.06.25/outbox.cif.g09.slc.cpg/sg58_16_cif.got.tgz:31290.got - 2010.06.26 21:38:00.
