data_PCOD8235820
_publ_section_title
;
Structure prediction by ZEFSAII (Michael W. Deem and Ramdas Pophale) SiO2 
 PCOD8235820
Probable space group: P N N M
;
_chemical_formula_sum "Si O2"
_cell_formula_units_Z 64
_cell_length_a 19.851282
_cell_length_b 22.629245
_cell_length_c 9.200967
_cell_angle_alpha 90.000000
_cell_angle_beta 90.000000
_cell_angle_gamma 90.000000
_cell_volume 4133.254016
_symmetry_space_group_name_H-M "P N N M"
_symmetry_group_IT_number 58
_symmetry_cell_setting 'orthorhombic'
loop_
_space_group_symop_operation_xyz
x,y,z
-x,-y,z
1/2+x,1/2-y,1/2-z
1/2-x,1/2+y,1/2-z
-x,-y,-z
x,y,-z
1/2-x,1/2+y,1/2+z
1/2+x,1/2-y,1/2+z
loop_
_atom_site_type_symbol
_atom_site_label
_atom_site_fract_x
_atom_site_fract_y
_atom_site_fract_z
Si Si1 0.567466 0.649179 0.168046
Si Si2 0.801564 0.071984 0.331397
Si Si3 0.178783 0.060208 0.332875
Si Si4 0.067316 0.135179 0.830174
Si Si5 0.843879 0.758392 0.832621
Si Si6 0.276660 0.836034 0.163436
Si Si7 0.760719 0.331936 0.165035
Si Si8 0.141459 0.759701 0.160467
O O1 0.627442 0.603621 0.198111
O O2 0.504454 0.624593 0.256540
O O3 0.588988 0.714645 0.223300
O O4 0.548338 0.654215 0.000000
O O5 0.782480 0.074163 0.500000
O O6 0.740880 0.103281 0.245571
O O7 0.806995 0.005170 0.272977
O O8 0.154430 0.057104 0.500000
O O9 0.119762 0.090114 0.241081
O O10 0.248868 0.097622 0.319321
O O11 0.087752 0.204186 0.805497
O O12 0.062976 0.120203 0.000000
O O13 0.839652 0.697726 0.740012
O O14 0.784309 0.801995 0.787516
O O15 0.834942 0.741057 0.000000
O O16 0.212189 0.793791 0.170169
O O17 0.298018 0.851593 0.000000
O O18 0.838333 0.309550 0.189713
O O19 0.738785 0.312465 0.000000
O O20 0.109313 0.767497 0.000000
#
# Coordination Sequence:
#
# PCOD8235820 Si02
#       8
#     8   8   8   8   8   8   8   8
#     4  10  19  29  41  57  79 110 144 174 204 239
#     4   9  18  30  43  60  83 112 144 175 204 236
#     4   9  17  30  45  60  82 112 144 174 203 240
#     4  10  20  31  42  58  81 110 142 176 210 242
#     4   9  16  26  41  59  78 100 129 167 210 250
#     4   9  16  26  42  61  80 103 131 166 208 249
#     4   8  14  25  42  61  79 102 131 165 207 248
#     4   8  14  25  40  58  78  99 127 165 207 246
#
# _framework density 15.484168
#
# number of rings (size 3 to 8) (size 9 to 14) (size 15 to 20)
#    0.000    3.000    0.000    2.250    0.000    6.000 
#    0.000    2.500    0.000    0.000    0.000    0.000 
#    0.000    1.000    0.000   11.500    0.000    3.750 
#
# Total GULP energy -793022.660928 kJ/mol
# GULP energy per Si atom -12390.979077 kJ/mol
# Density = 1.544893 g / cm^3
# Si number density = 15.484168 Si / 1000 Ang^3
#
#
#
# Elastic Constant Matrix: (Units=GPa)
#
#
# Indices 1 2 3 4 5 6 
#
# 1 18.0352 39.4920 21.2307 0.0000 0.0000 0.0000
# 2 39.4920 102.8920 48.2705 0.0000 0.0000 0.0000
# 3 21.2307 48.2705 80.7368 0.0000 0.0000 0.0000
# 4 0.0000 0.0000 0.0000 21.3509 0.0000 0.0000
# 5 0.0000 0.0000 0.0000 0.0000 20.3671 0.0000
# 6 0.0000 0.0000 0.0000 0.0000 0.0000 14.6395
#
#
#
# Elastic Compliance Matrix: (Units=1/GPa)
#
#
# Indices 1 2 3 4 5 6 
#
# 1 0.363427 -0.131556 -0.016914 0.000000 0.000000 0.000000
# 2 -0.131556 0.061129 -0.001953 0.000000 0.000000 0.000000
# 3 -0.016914 -0.001953 0.018001 0.000000 0.000000 0.000000
# 4 0.000000 0.000000 0.000000 0.046836 0.000000 0.000000
# 5 0.000000 0.000000 0.000000 0.000000 0.049099 0.000000
# 6 0.000000 0.000000 0.000000 0.000000 0.000000 0.068308
#
#
# Mechanical properties :
#
#
# Convention : Reuss Voigt Hill
#
# Bulk Modulus (GPa) = 7.05656 46.62783 26.84220
# Shear Modulus (GPa) = 5.23624 17.44957 11.34290
#
# Velocity S-wave (km/s) = 1.84093 3.36062 2.70950
# Velocity P-wave (km/s) = 3.01428 6.72584 5.21166
#
# Compressibility (1/GPa) = 0.14171201
#
# Stress axis : x y z
#
# Youngs Moduli (GPa) = 2.75158 16.35880 55.55117
#
# Poissons Ratio (x) = 2.15210 0.93957
# Poissons Ratio (y) = 0.36199 0.10851
# Poissons Ratio (z) = 0.04654 0.03196
#
# Static dielectric constant tensor:
#      x y z
#    x 2.733750 0.000000 0.000000 
#    y 0.000000 3.126290 0.000000 
#    z 0.000000 0.000000 3.076200 
# 
# 
# High freq. dielectric constant tensor:
#      x y z
#    x 1.547840 0.000000 0.000000 
#    y 0.000000 1.580280 0.000000 
#    z 0.000000 0.000000 1.606170 
# 
# From -- ./inp_files/9399.got.cif
#   From: 2010.06.25/outbox.cif.g09.slc.cpg/sg58_5_cif.got.tgz:9399.got - 2010.06.26 21:38:00.
