data_PCOD8235149
_publ_section_title
;
Structure prediction by ZEFSAII (Michael W. Deem and Ramdas Pophale) SiO2 
 PCOD8235149
Probable space group: P B C M
;
_chemical_formula_sum "Si O2"
_cell_formula_units_Z 40
_cell_length_a 9.372841
_cell_length_b 8.342833
_cell_length_c 21.713219
_cell_angle_alpha 90.000000
_cell_angle_beta 90.000000
_cell_angle_gamma 90.000000
_cell_volume 1697.887898
_symmetry_space_group_name_H-M "P B C M"
_symmetry_group_IT_number 57
_symmetry_cell_setting 'orthorhombic'
loop_
_space_group_symop_operation_xyz
x,y,z
-x,-y,1/2+z
x,1/2-y,-z
-x,1/2+y,1/2-z
-x,-y,-z
x,y,1/2-z
-x,1/2+y,z
x,1/2-y,1/2+z
loop_
_atom_site_type_symbol
_atom_site_label
_atom_site_fract_x
_atom_site_fract_y
_atom_site_fract_z
Si Si1 0.200727 0.478711 0.871003
Si Si2 0.661399 0.939782 0.999445
Si Si3 0.048902 0.793546 0.821534
Si Si4 0.300797 0.974546 0.868224
Si Si5 0.551866 0.706527 0.179406
O O1 0.246302 0.501356 0.941834
O O2 0.124436 0.636431 0.846907
O O3 0.341564 0.443222 0.830820
O O4 0.093462 0.328192 0.861096
O O5 0.659378 0.750000 0.000000
O O6 0.500000 0.000000 0.000000
O O7 0.739053 0.007677 0.060096
O O8 0.008422 0.774869 0.750000
O O9 0.156623 0.943502 0.830103
O O10 0.408476 0.824204 0.859762
O O11 0.376234 0.132153 0.843236
O O12 0.507687 0.718830 0.250000
#
# Coordination Sequence:
#
# PCOD8235149 Si02
#       5
#     8   8   8   8   8
#     4  12  27  47  76 105 149 198 246 308 377 441
#     4  12  26  50  76 109 149 193 255 311 370 447
#     4  12  27  49  73 109 150 195 246 310 379 452
#     4  12  25  45  72 105 149 194 248 312 373 436
#     4  12  23  42  71 107 141 192 250 304 370 443
#
# _framework density 23.558682999999998
#
# number of rings (size 3 to 8) (size 9 to 14) (size 15 to 20)
#    0.000    0.000    4.000    6.000    2.800    0.800 
#    0.000    0.000    0.000    0.000    0.000    0.000 
#    0.000    0.000    0.000    0.000    0.000    0.000 
#
# Total GULP energy -496252.167771 kJ/mol
# GULP energy per Si atom -12406.304194 kJ/mol
# Density = 2.350506 g / cm^3
# Si number density = 23.558683 Si / 1000 Ang^3
#
#
#
# Elastic Constant Matrix: (Units=GPa)
#
#
# Indices 1 2 3 4 5 6 
#
# 1 100.7764 -4.2572 40.9220 0.0000 0.0000 0.0000
# 2 -4.2572 49.8910 42.2169 0.0000 0.0000 0.0000
# 3 40.9220 42.2169 159.1378 0.0000 0.0000 0.0000
# 4 0.0000 0.0000 0.0000 40.7414 0.0000 0.0000
# 5 0.0000 0.0000 0.0000 0.0000 43.4595 0.0000
# 6 0.0000 0.0000 0.0000 0.0000 0.0000 40.3019
#
#
#
# Elastic Compliance Matrix: (Units=1/GPa)
#
#
# Indices 1 2 3 4 5 6 
#
# 1 0.011855 0.004631 -0.004277 0.000000 0.000000 0.000000
# 2 0.004631 0.027654 -0.008527 0.000000 0.000000 0.000000
# 3 -0.004277 -0.008527 0.009646 0.000000 0.000000 0.000000
# 4 0.000000 0.000000 0.000000 0.024545 0.000000 0.000000
# 5 0.000000 0.000000 0.000000 0.000000 0.023010 0.000000
# 6 0.000000 0.000000 0.000000 0.000000 0.000000 0.024813
#
#
# Mechanical properties :
#
#
# Convention : Reuss Voigt Hill
#
# Bulk Modulus (GPa) = 30.47961 51.95206 41.21583
# Shear Modulus (GPa) = 33.60074 40.29545 36.94809
#
# Velocity S-wave (km/s) = 3.78068 4.14022 3.96453
# Velocity P-wave (km/s) = 5.65896 6.70487 6.20400
#
# Compressibility (1/GPa) = 0.03280882
#
# Stress axis : x y z
#
# Youngs Moduli (GPa) = 84.34999 36.16067 103.67190
#
# Poissons Ratio (x) = -0.16745 0.44341
# Poissons Ratio (y) = -0.39061 0.88402
# Poissons Ratio (z) = 0.36077 0.30835
#
# Static dielectric constant tensor:
#      x y z
#    x 4.633410 0.000000 0.000000 
#    y 0.000000 4.394800 0.000000 
#    z 0.000000 0.000000 8.016610 
# 
# 
# High freq. dielectric constant tensor:
#      x y z
#    x 1.941270 0.000000 0.000000 
#    y 0.000000 1.949210 0.000000 
#    z 0.000000 0.000000 1.937090 
# 
# From -- ./inp_files/26498.got.cif
#   From: 2010.03.12/outbox.cif.g09.slc.cpg/sg57_14_cif.got.tgz:26498.got - 2010.04.16 15:48:40.
