data_PCOD8235832
_publ_section_title
;
Structure prediction by ZEFSAII (Michael W. Deem and Ramdas Pophale) SiO2 
 PCOD8235832
Probable space group: P N N M
;
_chemical_formula_sum "Si O2"
_cell_formula_units_Z 32
_cell_length_a 5.181932
_cell_length_b 17.326481
_cell_length_c 20.898818
_cell_angle_alpha 90.000000
_cell_angle_beta 90.000000
_cell_angle_gamma 90.000000
_cell_volume 1876.392983
_symmetry_space_group_name_H-M "P N N M"
_symmetry_group_IT_number 58
_symmetry_cell_setting 'orthorhombic'
loop_
_space_group_symop_operation_xyz
x,y,z
-x,-y,z
1/2+x,1/2-y,1/2-z
1/2-x,1/2+y,1/2-z
-x,-y,-z
x,y,-z
1/2-x,1/2+y,1/2+z
1/2+x,1/2-y,1/2+z
loop_
_atom_site_type_symbol
_atom_site_label
_atom_site_fract_x
_atom_site_fract_y
_atom_site_fract_z
Si Si1 0.253928 0.049583 0.926514
Si Si2 0.331763 0.664610 0.318527
Si Si3 0.536636 0.589009 0.797675
Si Si4 0.451913 0.175292 0.304520
O O1 0.257146 0.127071 0.884644
O O2 0.500000 0.000000 0.905798
O O3 0.273663 0.075960 0.000000
O O4 0.000000 0.000000 0.913834
O O5 0.508433 0.603562 0.278907
O O6 0.491478 0.741770 0.335579
O O7 0.086023 0.686939 0.272926
O O8 0.500000 0.500000 0.814424
O O9 0.311003 0.638398 0.833647
O O10 0.816563 0.616522 0.820342
#
# Coordination Sequence:
#
# PCOD8235832 Si02
#       4
#     8   8   8   8
#     4  10  23  36  50  73 100 138 179 204 233 290
#     4  10  20  31  50  66 102 127 164 205 251 290
#     4  10  19  29  44  69  95 124 157 191 248 302
#     4  10  20  30  44  71  94 128 161 200 251 303
#
# _framework density 17.053996999999999
#
# number of rings (size 3 to 8) (size 9 to 14) (size 15 to 20)
#    1.500    0.500    2.500    1.500    7.000    0.000 
#    0.000    0.000    0.000    0.000    0.000    0.000 
#    0.000    6.000    0.000    0.000    0.000    1.250 
#
# Total GULP energy -396548.913319 kJ/mol
# GULP energy per Si atom -12392.153541 kJ/mol
# Density = 1.701518 g / cm^3
# Si number density = 17.053997 Si / 1000 Ang^3
#
#
#
# Elastic Constant Matrix: (Units=GPa)
#
#
# Indices 1 2 3 4 5 6 
#
# 1 115.8522 38.8913 11.1123 0.0000 0.0000 0.0000
# 2 38.8913 121.6227 34.0413 0.0000 0.0000 0.0000
# 3 11.1123 34.0413 46.5661 0.0000 0.0000 0.0000
# 4 0.0000 0.0000 0.0000 26.4616 0.0000 0.0000
# 5 0.0000 0.0000 0.0000 0.0000 20.0065 0.0000
# 6 0.0000 0.0000 0.0000 0.0000 0.0000 30.4531
#
#
#
# Elastic Compliance Matrix: (Units=1/GPa)
#
#
# Indices 1 2 3 4 5 6 
#
# 1 0.009670 -0.003076 -0.000059 0.000000 0.000000 0.000000
# 2 -0.003076 0.011315 -0.007538 0.000000 0.000000 0.000000
# 3 -0.000059 -0.007538 0.026999 0.000000 0.000000 0.000000
# 4 0.000000 0.000000 0.000000 0.037791 0.000000 0.000000
# 5 0.000000 0.000000 0.000000 0.000000 0.049984 0.000000
# 6 0.000000 0.000000 0.000000 0.000000 0.000000 0.032837
#
#
# Mechanical properties :
#
#
# Convention : Reuss Voigt Hill
#
# Bulk Modulus (GPa) = 37.53870 50.23675 43.88773
# Shear Modulus (GPa) = 25.14815 28.71732 26.93274
#
# Velocity S-wave (km/s) = 3.84424 4.10799 3.97830
# Velocity P-wave (km/s) = 6.46249 7.21264 6.84785
#
# Compressibility (1/GPa) = 0.02663917
#
# Stress axis : x y z
#
# Youngs Moduli (GPa) = 103.41453 88.37478 37.03775
#
# Poissons Ratio (x) = 0.27180 0.00219
# Poissons Ratio (y) = 0.31806 0.27919
# Poissons Ratio (z) = 0.00613 0.66617
#
# Static dielectric constant tensor:
#      x y z
#    x 3.302110 0.000000 0.000000 
#    y 0.000000 3.023060 0.000000 
#    z 0.000000 0.000000 2.621640 
# 
# 
# High freq. dielectric constant tensor:
#      x y z
#    x 1.674980 0.000000 0.000000 
#    y 0.000000 1.663020 0.000000 
#    z 0.000000 0.000000 1.582010 
# 
# From -- ./inp_files/24077.got.cif
#   From: 2010.06.25/outbox.cif.g09.slc.cpg/sg58_13_cif.got.tgz:24077.got - 2010.06.26 21:38:00.
