data_PCOD8235688
_publ_section_title
;
Structure prediction by ZEFSAII (Michael W. Deem and Ramdas Pophale) SiO2 
 PCOD8235688
Probable space group: P N N M
;
_chemical_formula_sum "Si O2"
_cell_formula_units_Z 48
_cell_length_a 15.931924
_cell_length_b 11.388995
_cell_length_c 13.522454
_cell_angle_alpha 90.000000
_cell_angle_beta 90.000000
_cell_angle_gamma 90.000000
_cell_volume 2453.630384
_symmetry_space_group_name_H-M "P N N M"
_symmetry_group_IT_number 58
_symmetry_cell_setting 'orthorhombic'
loop_
_space_group_symop_operation_xyz
x,y,z
-x,-y,z
1/2+x,1/2-y,1/2-z
1/2-x,1/2+y,1/2-z
-x,-y,-z
x,y,-z
1/2-x,1/2+y,1/2+z
1/2+x,1/2-y,1/2+z
loop_
_atom_site_type_symbol
_atom_site_label
_atom_site_fract_x
_atom_site_fract_y
_atom_site_fract_z
Si Si1 0.128451 0.982286 0.321022
Si Si2 0.598577 0.524123 0.607328
Si Si3 0.955333 0.620779 0.753230
Si Si4 0.513487 0.320264 0.887524
Si Si5 0.906428 0.292243 0.109072
Si Si6 0.314028 0.978198 0.614263
O O1 0.138294 0.030407 0.207102
O O2 0.217587 0.949347 0.365650
O O3 0.067914 0.867090 0.326027
O O4 0.087276 0.083732 0.386667
O O5 0.500000 0.500000 0.611724
O O6 0.631843 0.474627 0.500000
O O7 0.626215 0.659941 0.613466
O O8 0.947244 0.699711 0.655150
O O9 0.867814 0.600671 0.809851
O O10 0.000000 0.500000 0.723360
O O11 0.012210 0.696615 0.825078
O O12 0.485776 0.297474 0.000000
O O13 0.832806 0.384394 0.137806
O O14 0.938104 0.324469 0.000000
O O15 0.335068 0.946745 0.500000
#
# Coordination Sequence:
#
# PCOD8235688 Si02
#       6
#     8   8   8   8   8   8
#     4  11  20  38  59  87 115 148 197 244 286 342
#     4  10  18  32  58  87 114 148 189 233 288 343
#     4  10  20  37  57  84 114 151 190 238 290 348
#     4  11  22  38  60  82 112 157 198 238 287 348
#     4   9  17  33  56  82 113 147 188 235 288 344
#     4  10  21  35  57  87 117 152 194 241 289 342
#
# _framework density 19.562849
#
# number of rings (size 3 to 8) (size 9 to 14) (size 15 to 20)
#    0.000    1.833    3.333    2.500    0.000    3.667 
#    0.000    3.333    0.000    1.000    0.000    0.000 
#    0.000    0.000    0.000    0.000    0.000    0.000 
#
# Total GULP energy -594833.141690 kJ/mol
# GULP energy per Si atom -12392.357119 kJ/mol
# Density = 1.951832 g / cm^3
# Si number density = 19.562849 Si / 1000 Ang^3
#
#
#
# Elastic Constant Matrix: (Units=GPa)
#
#
# Indices 1 2 3 4 5 6 
#
# 1 97.6020 29.7553 26.4443 0.0000 0.0000 0.0000
# 2 29.7553 64.5726 20.8839 0.0000 0.0000 0.0000
# 3 26.4443 20.8839 120.8552 0.0000 0.0000 0.0000
# 4 0.0000 0.0000 0.0000 31.0942 0.0000 0.0000
# 5 0.0000 0.0000 0.0000 0.0000 22.2992 0.0000
# 6 0.0000 0.0000 0.0000 0.0000 0.0000 13.8389
#
#
#
# Elastic Compliance Matrix: (Units=1/GPa)
#
#
# Indices 1 2 3 4 5 6 
#
# 1 0.012283 -0.005075 -0.001811 0.000000 0.000000 0.000000
# 2 -0.005075 0.018500 -0.002086 0.000000 0.000000 0.000000
# 3 -0.001811 -0.002086 0.009031 0.000000 0.000000 0.000000
# 4 0.000000 0.000000 0.000000 0.032160 0.000000 0.000000
# 5 0.000000 0.000000 0.000000 0.000000 0.044845 0.000000
# 6 0.000000 0.000000 0.000000 0.000000 0.000000 0.072260
#
#
# Mechanical properties :
#
#
# Convention : Reuss Voigt Hill
#
# Bulk Modulus (GPa) = 45.72366 48.57743 47.15054
# Shear Modulus (GPa) = 23.33035 27.17620 25.25328
#
# Velocity S-wave (km/s) = 3.45713 3.73121 3.59678
# Velocity P-wave (km/s) = 6.27368 6.59150 6.43456
#
# Compressibility (1/GPa) = 0.02187051
#
# Stress axis : x y z
#
# Youngs Moduli (GPa) = 81.41081 54.05524 110.72821
#
# Poissons Ratio (x) = 0.27431 0.20051
# Poissons Ratio (y) = 0.41313 0.23102
# Poissons Ratio (z) = 0.14742 0.11278
#
# Static dielectric constant tensor:
#      x y z
#    x 3.228950 0.000000 0.000000 
#    y 0.000000 3.592370 0.000000 
#    z 0.000000 0.000000 3.866970 
# 
# 
# High freq. dielectric constant tensor:
#      x y z
#    x 1.727300 0.000000 0.000000 
#    y 0.000000 1.748640 0.000000 
#    z 0.000000 0.000000 1.777280 
# 
# From -- ./inp_files/22108.got.cif
#   From: 2010.06.25/outbox.cif.g09.slc.cpg/sg58_12_cif.got.tgz:22108.got - 2010.06.26 21:38:00.
