data_PCOD8235353
_publ_section_title
;
Structure prediction by ZEFSAII (Michael W. Deem and Ramdas Pophale) SiO2 
 PCOD8235353
Probable space group: P N N M
;
_chemical_formula_sum "Si O2"
_cell_formula_units_Z 64
_cell_length_a 26.086316
_cell_length_b 18.313002
_cell_length_c 8.712792
_cell_angle_alpha 90.000000
_cell_angle_beta 90.000000
_cell_angle_gamma 90.000000
_cell_volume 4162.264165
_symmetry_space_group_name_H-M "P N N M"
_symmetry_group_IT_number 58
_symmetry_cell_setting 'orthorhombic'
loop_
_space_group_symop_operation_xyz
x,y,z
-x,-y,z
1/2+x,1/2-y,1/2-z
1/2-x,1/2+y,1/2-z
-x,-y,-z
x,y,-z
1/2-x,1/2+y,1/2+z
1/2+x,1/2-y,1/2+z
loop_
_atom_site_type_symbol
_atom_site_label
_atom_site_fract_x
_atom_site_fract_y
_atom_site_fract_z
Si Si1 0.551825 0.578824 0.679565
Si Si2 0.748173 0.581725 0.822131
Si Si3 0.244606 0.070547 0.826347
Si Si4 0.699348 0.209020 0.177107
Si Si5 0.857673 0.157095 0.674872
Si Si6 0.443996 0.574918 0.819657
Si Si7 0.356210 0.664786 0.322183
Si Si8 0.709246 0.784966 0.174151
O O1 0.540205 0.577084 0.500000
O O2 0.595257 0.638425 0.714972
O O3 0.500288 0.600892 0.768493
O O4 0.571627 0.499661 0.733595
O O5 0.752671 0.496351 0.786958
O O6 0.793267 0.625785 0.734864
O O7 0.692027 0.610584 0.773411
O O8 0.756992 0.595249 0.000000
O O9 0.192348 0.113165 0.787121
O O10 0.292282 0.127373 0.802244
O O11 0.243250 0.040665 0.000000
O O12 0.655291 0.252149 0.270281
O O13 0.752874 0.250354 0.202164
O O14 0.684106 0.208667 0.000000
O O15 0.872615 0.137871 0.500000
O O16 0.845490 0.244218 0.692356
O O17 0.403935 0.637291 0.776738
O O18 0.443463 0.560247 0.000000
O O19 0.371105 0.663828 0.500000
O O20 0.730541 0.769482 0.000000
#
# Coordination Sequence:
#
# PCOD8235353 Si02
#       8
#     8   8   8   8   8   8   8   8
#     4  11  21  32  45  63  87 114 144 181 222 255
#     4  10  19  29  42  61  87 117 146 178 214 251
#     4   9  17  28  43  63  86 113 143 175 211 253
#     4  10  18  28  43  62  84 111 144 178 211 252
#     4   9  17  30  45  60  82 115 150 180 214 256
#     4  11  21  33  47  63  84 112 147 182 215 254
#     4  10  19  32  47  63  86 114 144 178 218 259
#     4   8  16  30  44  59  84 114 142 176 216 254
#
# _framework density 15.376246999999999
#
# number of rings (size 3 to 8) (size 9 to 14) (size 15 to 20)
#    0.000    2.250    0.000    7.125    0.000    7.000 
#    0.000    0.000    0.000    0.000    0.000    0.000 
#    0.000    1.000    0.000   10.750    0.000    4.750 
#
# Total GULP energy -793423.581408 kJ/mol
# GULP energy per Si atom -12397.243459 kJ/mol
# Density = 1.534125 g / cm^3
# Si number density = 15.376247 Si / 1000 Ang^3
#
#
#
# Elastic Constant Matrix: (Units=GPa)
#
#
# Indices 1 2 3 4 5 6 
#
# 1 59.8942 36.4474 18.9320 0.0000 0.0000 0.0000
# 2 36.4474 86.0892 24.8903 0.0000 0.0000 0.0000
# 3 18.9320 24.8903 66.4586 0.0000 0.0000 0.0000
# 4 0.0000 0.0000 0.0000 24.9923 0.0000 0.0000
# 5 0.0000 0.0000 0.0000 0.0000 21.4841 0.0000
# 6 0.0000 0.0000 0.0000 0.0000 0.0000 24.9666
#
#
#
# Elastic Compliance Matrix: (Units=1/GPa)
#
#
# Indices 1 2 3 4 5 6 
#
# 1 0.023108 -0.008837 -0.003273 0.000000 0.000000 0.000000
# 2 -0.008837 0.016406 -0.003627 0.000000 0.000000 0.000000
# 3 -0.003273 -0.003627 0.017338 0.000000 0.000000 0.000000
# 4 0.000000 0.000000 0.000000 0.040012 0.000000 0.000000
# 5 0.000000 0.000000 0.000000 0.000000 0.046546 0.000000
# 6 0.000000 0.000000 0.000000 0.000000 0.000000 0.040054
#
#
# Mechanical properties :
#
#
# Convention : Reuss Voigt Hill
#
# Bulk Modulus (GPa) = 39.40481 41.44238 40.42359
# Shear Modulus (GPa) = 22.38165 23.10008 22.74087
#
# Velocity S-wave (km/s) = 3.81937 3.88019 3.84990
# Velocity P-wave (km/s) = 6.71810 6.86186 6.79036
#
# Compressibility (1/GPa) = 0.02537761
#
# Stress axis : x y z
#
# Youngs Moduli (GPa) = 43.27451 60.95416 57.67753
#
# Poissons Ratio (x) = 0.53865 0.18879
# Poissons Ratio (y) = 0.38241 0.20919
# Poissons Ratio (z) = 0.14165 0.22108
#
# Static dielectric constant tensor:
#      x y z
#    x 2.736220 0.000000 0.000000 
#    y 0.000000 3.008310 0.000000 
#    z 0.000000 0.000000 2.969360 
# 
# 
# High freq. dielectric constant tensor:
#      x y z
#    x 1.550730 0.000000 0.000000 
#    y 0.000000 1.578410 0.000000 
#    z 0.000000 0.000000 1.601600 
# 
# From -- ./inp_files/10146.got.cif
#   From: 2010.06.25/outbox.cif.g09.slc.cpg/sg58_6_cif.got.tgz:10146.got - 2010.06.26 21:38:00.
