data_PCOD8235747
_publ_section_title
;
Structure prediction by ZEFSAII (Michael W. Deem and Ramdas Pophale) SiO2 
 PCOD8235747
Probable space group: P N N M
;
_chemical_formula_sum "Si O2"
_cell_formula_units_Z 64
_cell_length_a 24.404115
_cell_length_b 14.715914
_cell_length_c 9.331083
_cell_angle_alpha 90.000000
_cell_angle_beta 90.000000
_cell_angle_gamma 90.000000
_cell_volume 3351.061178
_symmetry_space_group_name_H-M "P N N M"
_symmetry_group_IT_number 58
_symmetry_cell_setting 'orthorhombic'
loop_
_space_group_symop_operation_xyz
x,y,z
-x,-y,z
1/2+x,1/2-y,1/2-z
1/2-x,1/2+y,1/2-z
-x,-y,-z
x,y,-z
1/2-x,1/2+y,1/2+z
1/2+x,1/2-y,1/2+z
loop_
_atom_site_type_symbol
_atom_site_label
_atom_site_fract_x
_atom_site_fract_y
_atom_site_fract_z
Si Si1 0.052080 0.740108 0.338504
Si Si2 0.855437 0.127957 0.664035
Si Si3 0.264838 0.828740 0.669245
Si Si4 0.550897 0.940653 0.669028
Si Si5 0.172246 0.504182 0.170336
Si Si6 0.240696 0.125045 0.168142
Si Si7 0.027185 0.094993 0.666521
Si Si8 0.624267 0.458606 0.666627
O O1 0.040541 0.706485 0.500000
O O2 0.114562 0.774995 0.324498
O O3 0.042660 0.658943 0.230647
O O4 0.012597 0.822459 0.295950
O O5 0.857510 0.092565 0.500000
O O6 0.794195 0.137904 0.722417
O O7 0.886759 0.056575 0.763538
O O8 0.266727 0.824102 0.500000
O O9 0.309605 0.902753 0.722607
O O10 0.273301 0.726456 0.727388
O O11 0.548679 0.932070 0.500000
O O12 0.500000 0.000000 0.726629
O O13 0.608982 0.983897 0.717275
O O14 0.208788 0.581200 0.246342
O O15 0.180050 0.515159 0.000000
O O16 0.186617 0.067578 0.198453
O O17 0.256175 0.126854 0.000000
O O18 0.042587 0.093052 0.500000
O O19 0.082483 0.111329 0.758101
O O20 0.000000 0.000000 0.713416
O O21 0.610938 0.461282 0.500000
#
# Coordination Sequence:
#
# PCOD8235747 Si02
#       8
#     8   8   8   8   8   8   8   8
#     4  10  21  37  61  87 109 149 200 241 284 335
#     4  10  18  34  58  80 108 150 194 233 279 339
#     4   9  18  33  57  81 106 149 195 228 272 337
#     4  10  23  41  60  85 117 153 191 239 294 343
#     4  10  20  37  61  84 109 150 197 234 277 340
#     4  10  21  37  56  84 118 149 186 235 287 337
#     4  10  20  37  58  80 111 152 195 232 273 338
#     4  11  22  33  52  84 119 149 179 231 295 340
#
# _framework density 19.098427999999998
#
# number of rings (size 3 to 8) (size 9 to 14) (size 15 to 20)
#    0.000    2.000    2.500    1.125    0.000    4.500 
#    0.000    3.750    0.000    0.000    0.000    0.000 
#    0.000    0.000    0.000    0.000    0.000    0.000 
#
# Total GULP energy -793532.482258 kJ/mol
# GULP energy per Si atom -12398.945035 kJ/mol
# Density = 1.905496 g / cm^3
# Si number density = 19.098428 Si / 1000 Ang^3
#
#
#
# Elastic Constant Matrix: (Units=GPa)
#
#
# Indices 1 2 3 4 5 6 
#
# 1 129.4371 57.6322 47.1724 0.0000 0.0000 0.0000
# 2 57.6322 127.2306 32.9713 0.0000 0.0000 0.0000
# 3 47.1724 32.9713 44.3217 0.0000 0.0000 0.0000
# 4 0.0000 0.0000 0.0000 31.2611 0.0000 0.0000
# 5 0.0000 0.0000 0.0000 0.0000 23.2475 0.0000
# 6 0.0000 0.0000 0.0000 0.0000 0.0000 22.9244
#
#
#
# Elastic Compliance Matrix: (Units=1/GPa)
#
#
# Indices 1 2 3 4 5 6 
#
# 1 0.013462 -0.002954 -0.012130 0.000000 0.000000 0.000000
# 2 -0.002954 0.010385 -0.004581 0.000000 0.000000 0.000000
# 3 -0.012130 -0.004581 0.038880 0.000000 0.000000 0.000000
# 4 0.000000 0.000000 0.000000 0.031989 0.000000 0.000000
# 5 0.000000 0.000000 0.000000 0.000000 0.043015 0.000000
# 6 0.000000 0.000000 0.000000 0.000000 0.000000 0.043622
#
#
# Mechanical properties :
#
#
# Convention : Reuss Voigt Hill
#
# Bulk Modulus (GPa) = 42.74159 64.06015 53.40087
# Shear Modulus (GPa) = 21.88348 26.36750 24.12549
#
# Velocity S-wave (km/s) = 3.38868 3.71969 3.55803
# Velocity P-wave (km/s) = 6.14321 7.21547 6.70082
#
# Compressibility (1/GPa) = 0.02339642
#
# Stress axis : x y z
#
# Youngs Moduli (GPa) = 74.28370 96.29054 25.71996
#
# Poissons Ratio (x) = 0.28449 0.31198
# Poissons Ratio (y) = 0.21947 0.11783
# Poissons Ratio (z) = 0.90105 0.44112
#
# Static dielectric constant tensor:
#      x y z
#    x 3.724120 0.000000 0.000000 
#    y 0.000000 3.538830 0.000000 
#    z 0.000000 0.000000 3.264110 
# 
# 
# High freq. dielectric constant tensor:
#      x y z
#    x 1.752200 0.000000 0.000000 
#    y 0.000000 1.741630 0.000000 
#    z 0.000000 0.000000 1.720620 
# 
# From -- ./inp_files/9991.got.cif
#   From: 2010.06.25/outbox.cif.g09.slc.cpg/sg58_5_cif.got.tgz:9991.got - 2010.06.26 21:38:00.
