data_PCOD8235776
_publ_section_title
;
Structure prediction by ZEFSAII (Michael W. Deem and Ramdas Pophale) SiO2 
 PCOD8235776
Probable space group: P N N M
;
_chemical_formula_sum "Si O2"
_cell_formula_units_Z 40
_cell_length_a 11.807831
_cell_length_b 14.013124
_cell_length_c 13.009572
_cell_angle_alpha 90.000000
_cell_angle_beta 90.000000
_cell_angle_gamma 90.000000
_cell_volume 2152.623627
_symmetry_space_group_name_H-M "P N N M"
_symmetry_group_IT_number 58
_symmetry_cell_setting 'orthorhombic'
loop_
_space_group_symop_operation_xyz
x,y,z
-x,-y,z
1/2+x,1/2-y,1/2-z
1/2-x,1/2+y,1/2-z
-x,-y,-z
x,y,-z
1/2-x,1/2+y,1/2+z
1/2+x,1/2-y,1/2+z
loop_
_atom_site_type_symbol
_atom_site_label
_atom_site_fract_x
_atom_site_fract_y
_atom_site_fract_z
Si Si1 0.517313 0.149066 0.821712
Si Si2 0.412746 0.914499 0.613136
Si Si3 0.177564 0.517518 0.617024
Si Si4 0.820401 0.012755 0.304973
Si Si5 0.485436 0.636222 0.117173
O O1 0.551714 0.160367 0.701415
O O2 0.391089 0.107465 0.836096
O O3 0.527373 0.251281 0.872887
O O4 0.602661 0.078080 0.879417
O O5 0.418349 0.866205 0.500000
O O6 0.500000 0.000000 0.622258
O O7 0.288533 0.956582 0.630274
O O8 0.213385 0.538709 0.500000
O O9 0.289850 0.503246 0.685193
O O10 0.868104 0.914103 0.351134
O O11 0.913624 0.096537 0.311478
O O12 0.514565 0.610033 0.000000
#
# Coordination Sequence:
#
# PCOD8235776 Si02
#       5
#     8   8   8   8   8
#     4  10  19  36  56  86 110 141 188 227 267 333
#     4  10  18  35  59  82 112 144 175 225 278 319
#     4  10  19  36  57  80 110 145 181 228 277 323
#     4  10  21  38  55  82 110 147 189 226 269 331
#     4  11  22  37  58  81 111 147 184 229 274 325
#
# _framework density 18.581976999999998
#
# number of rings (size 3 to 8) (size 9 to 14) (size 15 to 20)
#    0.000    1.800    4.000    4.800    0.000    3.200 
#    0.000    6.000    0.000    0.000    0.000    0.000 
#    0.000    0.000    0.000    0.000    0.000    0.000 
#
# Total GULP energy -495967.401308 kJ/mol
# GULP energy per Si atom -12399.185033 kJ/mol
# Density = 1.853968 g / cm^3
# Si number density = 18.581977 Si / 1000 Ang^3
#
#
#
# Elastic Constant Matrix: (Units=GPa)
#
#
# Indices 1 2 3 4 5 6 
#
# 1 86.7260 25.6149 44.7960 0.0000 0.0000 0.0000
# 2 25.6149 105.8165 21.4432 0.0000 0.0000 0.0000
# 3 44.7960 21.4432 158.7725 0.0000 0.0000 0.0000
# 4 0.0000 0.0000 0.0000 23.8181 0.0000 0.0000
# 5 0.0000 0.0000 0.0000 0.0000 62.9200 0.0000
# 6 0.0000 0.0000 0.0000 0.0000 0.0000 11.6236
#
#
#
# Elastic Compliance Matrix: (Units=1/GPa)
#
#
# Indices 1 2 3 4 5 6 
#
# 1 0.014211 -0.002701 -0.003645 0.000000 0.000000 0.000000
# 2 -0.002701 0.010230 -0.000619 0.000000 0.000000 0.000000
# 3 -0.003645 -0.000619 0.007410 0.000000 0.000000 0.000000
# 4 0.000000 0.000000 0.000000 0.041985 0.000000 0.000000
# 5 0.000000 0.000000 0.000000 0.000000 0.015893 0.000000
# 6 0.000000 0.000000 0.000000 0.000000 0.000000 0.086032
#
#
# Mechanical properties :
#
#
# Convention : Reuss Voigt Hill
#
# Bulk Modulus (GPa) = 55.80349 59.44702 57.62525
# Shear Modulus (GPa) = 25.55383 36.96974 31.26178
#
# Velocity S-wave (km/s) = 3.71238 4.46527 4.10612
# Velocity P-wave (km/s) = 6.96218 7.65808 7.31840
#
# Compressibility (1/GPa) = 0.01792003
#
# Stress axis : x y z
#
# Youngs Moduli (GPa) = 70.36804 97.75377 134.94789
#
# Poissons Ratio (x) = 0.26408 0.49184
# Poissons Ratio (y) = 0.19010 0.08359
# Poissons Ratio (z) = 0.25647 0.06055
#
# Static dielectric constant tensor:
#      x y z
#    x 3.489560 0.000000 0.000000 
#    y 0.000000 3.142110 0.000000 
#    z 0.000000 0.000000 3.716390 
# 
# 
# High freq. dielectric constant tensor:
#      x y z
#    x 1.714940 0.000000 0.000000 
#    y 0.000000 1.698950 0.000000 
#    z 0.000000 0.000000 1.733740 
# 
# From -- ./inp_files/20998.got.cif
#   From: 2010.06.25/outbox.cif.g09.slc.cpg/sg58_11_cif.got.tgz:20998.got - 2010.06.26 21:38:00.
