data_PCOD8235166
_publ_section_title
;
Structure prediction by ZEFSAII (Michael W. Deem and Ramdas Pophale) SiO2 
 PCOD8235166
Probable space group: P B C M
;
_chemical_formula_sum "Si O2"
_cell_formula_units_Z 40
_cell_length_a 11.838811
_cell_length_b 8.534305
_cell_length_c 17.208043
_cell_angle_alpha 90.000000
_cell_angle_beta 90.000000
_cell_angle_gamma 90.000000
_cell_volume 1738.632244
_symmetry_space_group_name_H-M "P B C M"
_symmetry_group_IT_number 57
_symmetry_cell_setting 'orthorhombic'
loop_
_space_group_symop_operation_xyz
x,y,z
-x,-y,1/2+z
x,1/2-y,-z
-x,1/2+y,1/2-z
-x,-y,-z
x,y,1/2-z
-x,1/2+y,z
x,1/2-y,1/2+z
loop_
_atom_site_type_symbol
_atom_site_label
_atom_site_fract_x
_atom_site_fract_y
_atom_site_fract_z
Si Si1 0.812564 0.090235 0.039328
Si Si2 0.846854 0.588461 0.388414
Si Si3 0.948453 0.912711 0.160139
Si Si4 0.610293 0.691931 0.337748
Si Si5 0.428490 0.507473 0.422210
O O1 0.883473 0.053788 0.116603
O O2 0.681744 0.111993 0.062458
O O3 0.830517 0.946468 0.979617
O O4 0.856311 0.250000 0.000000
O O5 0.724880 0.593238 0.347922
O O6 0.917868 0.447144 0.348614
O O7 0.915107 0.748929 0.378091
O O8 0.912027 0.912922 0.250000
O O9 0.601633 0.753872 0.250000
O O10 0.503011 0.582317 0.354134
O O11 0.612591 0.835825 0.397298
O O12 0.500000 0.500000 0.500000
#
# Coordination Sequence:
#
# PCOD8235166 Si02
#       5
#     8   8   8   8   8
#     4  12  26  47  75 109 146 201 253 306 365 449
#     4  12  26  48  76 108 150 197 249 304 373 444
#     4  12  26  47  76 109 151 196 245 311 377 436
#     4  12  26  47  75 109 150 193 245 309 374 437
#     4  12  25  46  75 105 147 194 246 303 369 444
#
# _framework density 23.006588000000001
#
# number of rings (size 3 to 8) (size 9 to 14) (size 15 to 20)
#    0.000    0.000    4.000    6.600    0.000    0.800 
#    0.000    2.000    0.000    0.000    0.000    0.000 
#    0.000    0.000    0.000    0.000    0.000    0.000 
#
# Total GULP energy -496272.123163 kJ/mol
# GULP energy per Si atom -12406.803079 kJ/mol
# Density = 2.295422 g / cm^3
# Si number density = 23.006588 Si / 1000 Ang^3
#
#
#
# Elastic Constant Matrix: (Units=GPa)
#
#
# Indices 1 2 3 4 5 6 
#
# 1 125.5803 51.6300 58.2422 0.0000 0.0000 0.0000
# 2 51.6300 106.8032 43.1263 0.0000 0.0000 0.0000
# 3 58.2422 43.1263 145.1977 0.0000 0.0000 0.0000
# 4 0.0000 0.0000 0.0000 32.0365 0.0000 0.0000
# 5 0.0000 0.0000 0.0000 0.0000 25.2941 0.0000
# 6 0.0000 0.0000 0.0000 0.0000 0.0000 44.1434
#
#
#
# Elastic Compliance Matrix: (Units=1/GPa)
#
#
# Indices 1 2 3 4 5 6 
#
# 1 0.011151 -0.004073 -0.003263 0.000000 0.000000 0.000000
# 2 -0.004073 0.012127 -0.001968 0.000000 0.000000 0.000000
# 3 -0.003263 -0.001968 0.008781 0.000000 0.000000 0.000000
# 4 0.000000 0.000000 0.000000 0.031214 0.000000 0.000000
# 5 0.000000 0.000000 0.000000 0.000000 0.039535 0.000000
# 6 0.000000 0.000000 0.000000 0.000000 0.000000 0.022653
#
#
# Mechanical properties :
#
#
# Convention : Reuss Voigt Hill
#
# Bulk Modulus (GPa) = 74.34997 75.95314 75.15156
# Shear Modulus (GPa) = 33.65814 35.26698 34.46256
#
# Velocity S-wave (km/s) = 3.82904 3.91948 3.87453
# Velocity P-wave (km/s) = 7.20664 7.31905 7.26306
#
# Compressibility (1/GPa) = 0.01344990
#
# Stress axis : x y z
#
# Youngs Moduli (GPa) = 89.67866 82.46347 113.88654
#
# Poissons Ratio (x) = 0.33586 0.37163
# Poissons Ratio (y) = 0.36525 0.22414
# Poissons Ratio (z) = 0.29264 0.16230
#
# Static dielectric constant tensor:
#      x y z
#    x 4.494950 0.000000 0.000000 
#    y 0.000000 4.087980 0.000000 
#    z 0.000000 0.000000 4.122690 
# 
# 
# High freq. dielectric constant tensor:
#      x y z
#    x 1.925910 0.000000 0.000000 
#    y 0.000000 1.905380 0.000000 
#    z 0.000000 0.000000 1.913780 
# 
# From -- ./inp_files/21610.got.cif
#   From: 2010.03.12/outbox.cif.g09.slc.cpg/sg57_11_cif.got.tgz:21610.got - 2010.04.16 15:48:40.
