data_PCOD8235520
_publ_section_title
;
Structure prediction by ZEFSAII (Michael W. Deem and Ramdas Pophale) SiO2 
 PCOD8235520
Probable space group: P N N M
;
_chemical_formula_sum "Si O2"
_cell_formula_units_Z 36
_cell_length_a 8.641755
_cell_length_b 11.449092
_cell_length_c 19.905884
_cell_angle_alpha 90.000000
_cell_angle_beta 90.000000
_cell_angle_gamma 90.000000
_cell_volume 1969.493100
_symmetry_space_group_name_H-M "P N N M"
_symmetry_group_IT_number 58
_symmetry_cell_setting 'orthorhombic'
loop_
_space_group_symop_operation_xyz
x,y,z
-x,-y,z
1/2+x,1/2-y,1/2-z
1/2-x,1/2+y,1/2-z
-x,-y,-z
x,y,-z
1/2-x,1/2+y,1/2+z
1/2+x,1/2-y,1/2+z
loop_
_atom_site_type_symbol
_atom_site_label
_atom_site_fract_x
_atom_site_fract_y
_atom_site_fract_z
Si Si1 0.272936 0.921043 0.421984
Si Si2 0.209869 0.313138 0.698492
Si Si3 0.944345 0.125449 0.691758
Si Si4 0.000000 0.500000 0.737633
Si Si5 0.914368 0.354538 0.863405
O O1 0.245894 0.900423 0.500000
O O2 0.114243 0.883919 0.385336
O O3 0.417416 0.842106 0.396734
O O4 0.310026 0.056947 0.407025
O O5 0.295748 0.327434 0.768991
O O6 0.333196 0.273808 0.640738
O O7 0.086601 0.210269 0.701658
O O8 0.122471 0.437001 0.687213
O O9 0.000000 0.000000 0.719088
O O10 0.923156 0.403102 0.786595
#
# Coordination Sequence:
#
# PCOD8235520 Si02
#       5
#     8   8   8   4   8
#     4  10  20  37  56  84 118 148 188 232 284 342
#     4  12  20  35  54  80 124 145 188 231 284 342
#     4  12  22  35  55  84 120 151 184 232 286 340
#     4  10  18  30  53  78 115 144 180 226 276 342
#     4  10  18  35  52  83 116 151 185 226 284 342
#
# _framework density 18.278815000000002
#
# number of rings (size 3 to 8) (size 9 to 14) (size 15 to 20)
#    0.000    1.333    8.889    1.333    0.000    0.444 
#    0.000    0.000    0.000    0.000    0.000    8.556 
#    0.000    0.000    0.000    0.000    0.000    0.000 
#
# Total GULP energy -446051.768281 kJ/mol
# GULP energy per Si atom -12390.326897 kJ/mol
# Density = 1.823721 g / cm^3
# Si number density = 18.278815 Si / 1000 Ang^3
#
#
#
# Elastic Constant Matrix: (Units=GPa)
#
#
# Indices 1 2 3 4 5 6 
#
# 1 91.6308 42.0397 50.3563 0.0000 0.0000 0.0000
# 2 42.0397 61.2510 45.3528 0.0000 0.0000 0.0000
# 3 50.3563 45.3528 82.3990 0.0000 0.0000 0.0000
# 4 0.0000 0.0000 0.0000 12.5958 0.0000 0.0000
# 5 0.0000 0.0000 0.0000 0.0000 21.8046 0.0000
# 6 0.0000 0.0000 0.0000 0.0000 0.0000 56.7261
#
#
#
# Elastic Compliance Matrix: (Units=1/GPa)
#
#
# Indices 1 2 3 4 5 6 
#
# 1 0.018115 -0.007150 -0.007135 0.000000 0.000000 0.000000
# 2 -0.007150 0.030379 -0.012351 0.000000 0.000000 0.000000
# 3 -0.007135 -0.012351 0.023295 0.000000 0.000000 0.000000
# 4 0.000000 0.000000 0.000000 0.079391 0.000000 0.000000
# 5 0.000000 0.000000 0.000000 0.000000 0.045862 0.000000
# 6 0.000000 0.000000 0.000000 0.000000 0.000000 0.017629
#
#
# Mechanical properties :
#
#
# Convention : Reuss Voigt Hill
#
# Bulk Modulus (GPa) = 54.00745 56.75315 55.38030
# Shear Modulus (GPa) = 18.24052 24.72744 21.48398
#
# Velocity S-wave (km/s) = 3.16239 3.68202 3.43206
# Velocity P-wave (km/s) = 6.55324 7.01373 6.78739
#
# Compressibility (1/GPa) = 0.01851597
#
# Stress axis : x y z
#
# Youngs Moduli (GPa) = 55.20313 32.91742 42.92839
#
# Poissons Ratio (x) = 0.23536 0.30630
# Poissons Ratio (y) = 0.39471 0.53021
# Poissons Ratio (z) = 0.39388 0.40657
#
# Static dielectric constant tensor:
#      x y z
#    x 3.792930 0.000000 0.000000 
#    y 0.000000 3.546060 0.000000 
#    z 0.000000 0.000000 3.081640 
# 
# 
# High freq. dielectric constant tensor:
#      x y z
#    x 1.734210 0.000000 0.000000 
#    y 0.000000 1.685770 0.000000 
#    z 0.000000 0.000000 1.658890 
# 
# From -- ./inp_files/28661.got.cif
#   From: 2010.06.25/outbox.cif.g09.slc.cpg/sg58_15_cif.got.tgz:28661.got - 2010.06.26 21:38:00.
