data_PCOD8235229
_publ_section_title
;
Structure prediction by ZEFSAII (Michael W. Deem and Ramdas Pophale) SiO2 
 PCOD8235229
Probable space group: P N N M
;
_chemical_formula_sum "Si O2"
_cell_formula_units_Z 64
_cell_length_a 19.090093
_cell_length_b 20.974643
_cell_length_c 8.710896
_cell_angle_alpha 90.000000
_cell_angle_beta 90.000000
_cell_angle_gamma 90.000000
_cell_volume 3487.911448
_symmetry_space_group_name_H-M "P N N M"
_symmetry_group_IT_number 58
_symmetry_cell_setting 'orthorhombic'
loop_
_space_group_symop_operation_xyz
x,y,z
-x,-y,z
1/2+x,1/2-y,1/2-z
1/2-x,1/2+y,1/2-z
-x,-y,-z
x,y,-z
1/2-x,1/2+y,1/2+z
1/2+x,1/2-y,1/2+z
loop_
_atom_site_type_symbol
_atom_site_label
_atom_site_fract_x
_atom_site_fract_y
_atom_site_fract_z
Si Si1 0.208860 0.689963 0.329765
Si Si2 0.446439 0.314208 0.819811
Si Si3 0.794253 0.450986 0.680765
Si Si4 0.301247 0.443049 0.179765
Si Si5 0.957395 0.321692 0.669358
Si Si6 0.204076 0.815682 0.822267
Si Si7 0.556555 0.947013 0.323009
Si Si8 0.546469 0.559514 0.681093
O O1 0.238270 0.701474 0.500000
O O2 0.232280 0.619977 0.270841
O O3 0.125206 0.690913 0.331667
O O4 0.238731 0.747837 0.226193
O O5 0.489942 0.248332 0.787895
O O6 0.377806 0.313978 0.714331
O O7 0.487066 0.377943 0.765577
O O8 0.426467 0.318461 0.000000
O O9 0.783550 0.462619 0.500000
O O10 0.750656 0.500009 0.780476
O O11 0.876296 0.458852 0.717389
O O12 0.264216 0.376487 0.231145
O O13 0.373949 0.453289 0.268305
O O14 0.316168 0.441740 0.000000
O O15 0.982815 0.343025 0.500000
O O16 0.977512 0.377329 0.788305
O O17 0.218282 0.826640 0.000000
O O18 0.578857 0.950132 0.500000
O O19 0.500000 0.000000 0.280933
O O20 0.500000 0.500000 0.733611
O O21 0.543405 0.569923 0.500000
#
# Coordination Sequence:
#
# PCOD8235229 Si02
#       8
#     8   8   8   8   8   8   8   8
#     4   8  15  28  45  67  94 122 155 198 243 282
#     4   9  16  27  44  67  94 122 157 199 240 281
#     4  10  20  34  52  73  99 130 164 202 244 291
#     4  11  21  33  51  73 100 131 163 201 244 290
#     4   8  15  27  44  67  93 123 159 199 240 281
#     4  10  17  26  44  69  96 124 158 198 238 283
#     4  10  20  32  48  73 102 130 162 200 241 288
#     4  10  20  33  50  73 100 129 162 199 240 288
#
# _framework density 18.349088999999999
#
# number of rings (size 3 to 8) (size 9 to 14) (size 15 to 20)
#    0.000    2.500    0.000    6.750    0.000    7.500 
#    0.000    0.000    0.000    1.500    0.000    5.250 
#    0.000    0.000    0.000    0.000    0.000    0.000 
#
# Total GULP energy -793060.343308 kJ/mol
# GULP energy per Si atom -12391.567864 kJ/mol
# Density = 1.830733 g / cm^3
# Si number density = 18.349089 Si / 1000 Ang^3
#
#
#
# Elastic Constant Matrix: (Units=GPa)
#
#
# Indices 1 2 3 4 5 6 
#
# 1 25.7730 34.2591 10.5486 0.0000 0.0000 0.0000
# 2 34.2591 174.9653 44.0264 0.0000 0.0000 0.0000
# 3 10.5486 44.0264 63.0204 0.0000 0.0000 0.0000
# 4 0.0000 0.0000 0.0000 37.2656 0.0000 0.0000
# 5 0.0000 0.0000 0.0000 0.0000 16.8165 0.0000
# 6 0.0000 0.0000 0.0000 0.0000 0.0000 24.9773
#
#
#
# Elastic Compliance Matrix: (Units=1/GPa)
#
#
# Indices 1 2 3 4 5 6 
#
# 1 0.052650 -0.009817 -0.001954 0.000000 0.000000 0.000000
# 2 -0.009817 0.008765 -0.004480 0.000000 0.000000 0.000000
# 3 -0.001954 -0.004480 0.019325 0.000000 0.000000 0.000000
# 4 0.000000 0.000000 0.000000 0.026834 0.000000 0.000000
# 5 0.000000 0.000000 0.000000 0.000000 0.059465 0.000000
# 6 0.000000 0.000000 0.000000 0.000000 0.000000 0.040036
#
#
# Mechanical properties :
#
#
# Convention : Reuss Voigt Hill
#
# Bulk Modulus (GPa) = 20.73123 49.04744 34.88934
# Shear Modulus (GPa) = 19.55737 27.47353 23.51545
#
# Velocity S-wave (km/s) = 3.26828 3.87365 3.58377
# Velocity P-wave (km/s) = 5.05618 6.84070 6.01498
#
# Compressibility (1/GPa) = 0.04823641
#
# Stress axis : x y z
#
# Youngs Moduli (GPa) = 18.99333 114.08988 51.74709
#
# Poissons Ratio (x) = 1.12007 0.10113
# Poissons Ratio (y) = 0.18647 0.23183
# Poissons Ratio (z) = 0.03712 0.51112
#
# Static dielectric constant tensor:
#      x y z
#    x 2.727100 0.000000 0.000000 
#    y 0.000000 4.248860 0.000000 
#    z 0.000000 0.000000 3.386850 
# 
# 
# High freq. dielectric constant tensor:
#      x y z
#    x 1.631280 0.000000 0.000000 
#    y 0.000000 1.743800 0.000000 
#    z 0.000000 0.000000 1.719510 
# 
# From -- ./inp_files/9492.got.cif
#   From: 2010.06.25/outbox.cif.g09.slc.cpg/sg58_5_cif.got.tgz:9492.got - 2010.06.26 21:38:00.
