data_PCOD8235045
_publ_section_title
;
Structure prediction by ZEFSAII (Michael W. Deem and Ramdas Pophale) SiO2 
 PCOD8235045
Probable space group: P B C M
;
_chemical_formula_sum "Si O2"
_cell_formula_units_Z 40
_cell_length_a 14.594821
_cell_length_b 8.759619
_cell_length_c 16.625491
_cell_angle_alpha 90.000000
_cell_angle_beta 90.000000
_cell_angle_gamma 90.000000
_cell_volume 2125.487083
_symmetry_space_group_name_H-M "P B C M"
_symmetry_group_IT_number 57
_symmetry_cell_setting 'orthorhombic'
loop_
_space_group_symop_operation_xyz
x,y,z
-x,-y,1/2+z
x,1/2-y,-z
-x,1/2+y,1/2-z
-x,-y,-z
x,y,1/2-z
-x,1/2+y,z
x,1/2-y,1/2+z
loop_
_atom_site_type_symbol
_atom_site_label
_atom_site_fract_x
_atom_site_fract_y
_atom_site_fract_z
Si Si1 0.401011 0.569685 0.012927
Si Si2 0.262758 0.357334 0.925405
Si Si3 0.095872 0.033575 0.840052
Si Si4 0.297874 0.440142 0.155906
Si Si5 0.916417 0.609371 0.341119
O O1 0.371929 0.533366 0.104621
O O2 0.401818 0.750000 0.000000
O O3 0.500000 0.500000 0.000000
O O4 0.333738 0.488999 0.949203
O O5 0.306176 0.243342 0.858220
O O6 0.172056 0.442360 0.892405
O O7 0.235845 0.250000 0.000000
O O8 0.097948 0.968135 0.750000
O O9 0.197209 0.003014 0.875902
O O10 0.076342 0.211003 0.840702
O O11 0.009891 0.952080 0.883868
O O12 0.313506 0.473072 0.250000
O O13 0.905984 0.544790 0.250000
#
# Coordination Sequence:
#
# PCOD8235045 Si02
#       5
#     8   8   8   8   8
#     4  11  23  41  60  80 109 142 174 222 285 333
#     4   9  18  34  55  77 106 141 179 222 273 321
#     4   8  15  27  47  73 106 142 177 217 262 306
#     4   9  18  37  60  82 108 145 187 225 263 318
#     4   9  16  29  48  74 106 142 178 216 260 312
#
# _framework density 18.819216999999998
#
# number of rings (size 3 to 8) (size 9 to 14) (size 15 to 20)
#    0.000    2.800    0.000    3.600    0.000    1.600 
#    0.000   19.000    0.000    0.000    0.000    0.000 
#    0.000    0.000    0.000    0.000    0.000    0.000 
#
# Total GULP energy -495664.692049 kJ/mol
# GULP energy per Si atom -12391.617301 kJ/mol
# Density = 1.877638 g / cm^3
# Si number density = 18.819217 Si / 1000 Ang^3
#
#
#
# Elastic Constant Matrix: (Units=GPa)
#
#
# Indices 1 2 3 4 5 6 
#
# 1 167.2246 70.5588 68.4840 0.0000 0.0000 0.0000
# 2 70.5588 84.9054 39.2160 0.0000 0.0000 0.0000
# 3 68.4840 39.2160 80.0220 0.0000 0.0000 0.0000
# 4 0.0000 0.0000 0.0000 23.3429 0.0000 0.0000
# 5 0.0000 0.0000 0.0000 0.0000 29.3392 0.0000
# 6 0.0000 0.0000 0.0000 0.0000 0.0000 38.1256
#
#
#
# Elastic Compliance Matrix: (Units=1/GPa)
#
#
# Indices 1 2 3 4 5 6 
#
# 1 0.011393 -0.006417 -0.006605 0.000000 0.000000 0.000000
# 2 -0.006417 0.018838 -0.003740 0.000000 0.000000 0.000000
# 3 -0.006605 -0.003740 0.019982 0.000000 0.000000 0.000000
# 4 0.000000 0.000000 0.000000 0.042840 0.000000 0.000000
# 5 0.000000 0.000000 0.000000 0.000000 0.034084 0.000000
# 6 0.000000 0.000000 0.000000 0.000000 0.000000 0.026229
#
#
# Mechanical properties :
#
#
# Convention : Reuss Voigt Hill
#
# Bulk Modulus (GPa) = 59.92227 76.51884 68.22056
# Shear Modulus (GPa) = 25.98040 28.42108 27.20074
#
# Velocity S-wave (km/s) = 3.71957 3.89037 3.80593
# Velocity P-wave (km/s) = 7.09627 7.80565 7.45940
#
# Compressibility (1/GPa) = 0.01668829
#
# Stress axis : x y z
#
# Youngs Moduli (GPa) = 87.77695 53.08478 50.04387
#
# Poissons Ratio (x) = 0.34063 0.33055
# Poissons Ratio (y) = 0.56323 0.18718
# Poissons Ratio (z) = 0.57979 0.19855
#
# Static dielectric constant tensor:
#      x y z
#    x 3.668950 0.000000 0.000000 
#    y 0.000000 3.362160 0.000000 
#    z 0.000000 0.000000 3.529920 
# 
# 
# High freq. dielectric constant tensor:
#      x y z
#    x 1.737850 0.000000 0.000000 
#    y 0.000000 1.710590 0.000000 
#    z 0.000000 0.000000 1.715880 
# 
# From -- ./inp_files/18203.got.cif
#   From: 2010.03.12/outbox.cif.g09.slc.cpg/sg57_10_cif.got.tgz:18203.got - 2010.04.16 15:48:40.
