data_PCOD8235114
_publ_section_title
;
Structure prediction by ZEFSAII (Michael W. Deem and Ramdas Pophale) SiO2 
 PCOD8235114
Probable space group: P B C M
;
_chemical_formula_sum "Si O2"
_cell_formula_units_Z 32
_cell_length_a 9.538433
_cell_length_b 10.086805
_cell_length_c 14.175194
_cell_angle_alpha 90.000000
_cell_angle_beta 90.000000
_cell_angle_gamma 90.000000
_cell_volume 1363.828212
_symmetry_space_group_name_H-M "P B C M"
_symmetry_group_IT_number 57
_symmetry_cell_setting 'orthorhombic'
loop_
_space_group_symop_operation_xyz
x,y,z
-x,-y,1/2+z
x,1/2-y,-z
-x,1/2+y,1/2-z
-x,-y,-z
x,y,1/2-z
-x,1/2+y,z
x,1/2-y,1/2+z
loop_
_atom_site_type_symbol
_atom_site_label
_atom_site_fract_x
_atom_site_fract_y
_atom_site_fract_z
Si Si1 0.911462 0.076232 0.143225
Si Si2 0.409287 0.996717 0.354292
Si Si3 0.174468 0.390663 0.520731
Si Si4 0.635991 0.288325 0.605020
O O1 0.952658 0.031397 0.250000
O O2 0.785596 0.182315 0.153220
O O3 0.042435 0.140460 0.088484
O O4 0.865228 0.950837 0.080537
O O5 0.369905 0.048328 0.250000
O O6 0.280686 0.013366 0.425636
O O7 0.543012 0.078630 0.390065
O O8 0.441461 0.838655 0.347900
O O9 0.248831 0.250000 0.500000
O O10 0.670210 0.250000 0.500000
#
# Coordination Sequence:
#
# PCOD8235114 Si02
#       4
#     8   8   8   8
#     4  11  25  46  72 100 138 186 236 288 352 419
#     4  12  26  45  72 105 143 186 235 287 349 419
#     4  11  26  46  69 104 140 183 234 292 351 413
#     4  12  25  48  71 103 141 187 234 292 351 414
#
# _framework density 23.463363999999999
#
# number of rings (size 3 to 8) (size 9 to 14) (size 15 to 20)
#    0.000    0.500    2.500    5.250    7.000    2.000 
#    0.000    0.000    0.000    0.000    0.000    0.000 
#    0.000    0.000    0.000    0.000    0.000    0.000 
#
# Total GULP energy -396790.622339 kJ/mol
# GULP energy per Si atom -12399.706948 kJ/mol
# Density = 2.340996 g / cm^3
# Si number density = 23.463364 Si / 1000 Ang^3
#
#
#
# Elastic Constant Matrix: (Units=GPa)
#
#
# Indices 1 2 3 4 5 6 
#
# 1 103.0648 39.6140 16.3457 0.0000 0.0000 0.0000
# 2 39.6140 125.8964 17.0465 0.0000 0.0000 0.0000
# 3 16.3457 17.0465 166.1571 0.0000 0.0000 0.0000
# 4 0.0000 0.0000 0.0000 25.2543 0.0000 0.0000
# 5 0.0000 0.0000 0.0000 0.0000 -26.2187 0.0000
# 6 0.0000 0.0000 0.0000 0.0000 0.0000 29.1709
#
#
#
# Elastic Compliance Matrix: (Units=1/GPa)
#
#
# Indices 1 2 3 4 5 6 
#
# 1 0.011128 -0.003400 -0.000746 0.000000 0.000000 0.000000
# 2 -0.003400 0.009094 -0.000598 0.000000 0.000000 0.000000
# 3 -0.000746 -0.000598 0.006153 0.000000 0.000000 0.000000
# 4 0.000000 0.000000 0.000000 0.039597 0.000000 0.000000
# 5 0.000000 0.000000 0.000000 0.000000 -0.038141 0.000000
# 6 0.000000 0.000000 0.000000 0.000000 0.000000 0.034281
#
#
# Mechanical properties :
#
#
# Convention : Reuss Voigt Hill
#
# Bulk Modulus (GPa) = 59.22211 60.12563 59.67387
# Shear Modulus (GPa) = 64.74128 27.11545 45.92836
#
# Velocity S-wave (km/s) = 5.25855 3.40317 4.42911
# Velocity P-wave (km/s) = 7.88447 6.41273 7.18638
#
# Compressibility (1/GPa) = 0.01688558
#
# Stress axis : x y z
#
# Youngs Moduli (GPa) = 89.86401 109.96205 162.51785
#
# Poissons Ratio (x) = 0.37392 0.12121
# Poissons Ratio (y) = 0.30558 0.09726
# Poissons Ratio (z) = 0.06702 0.06581
#
# Static dielectric constant tensor:
#      x y z
#    x 4.088460 0.000000 0.000000 
#    y 0.000000 4.494900 0.000000 
#    z 0.000000 0.000000 4.452430 
# 
# 
# High freq. dielectric constant tensor:
#      x y z
#    x 1.917410 0.000000 0.000000 
#    y 0.000000 1.929660 0.000000 
#    z 0.000000 0.000000 1.949550 
# 
# From -- ./inp_files/15516.got.cif
#   From: 2010.03.12/outbox.cif.g09.slc.cpg/sg57_8_cif.got.tgz:15516.got - 2010.04.16 15:48:40.
