data_PCOD8235337
_publ_section_title
;
Structure prediction by ZEFSAII (Michael W. Deem and Ramdas Pophale) SiO2 
 PCOD8235337
Probable space group: P N N M
;
_chemical_formula_sum "Si O2"
_cell_formula_units_Z 64
_cell_length_a 26.122073
_cell_length_b 18.434885
_cell_length_c 8.926004
_cell_angle_alpha 90.000000
_cell_angle_beta 90.000000
_cell_angle_gamma 90.000000
_cell_volume 4298.383383
_symmetry_space_group_name_H-M "P N N M"
_symmetry_group_IT_number 58
_symmetry_cell_setting 'orthorhombic'
loop_
_space_group_symop_operation_xyz
x,y,z
-x,-y,z
1/2+x,1/2-y,1/2-z
1/2-x,1/2+y,1/2-z
-x,-y,-z
x,y,-z
1/2-x,1/2+y,1/2+z
1/2+x,1/2-y,1/2+z
loop_
_atom_site_type_symbol
_atom_site_label
_atom_site_fract_x
_atom_site_fract_y
_atom_site_fract_z
Si Si1 0.200902 0.196389 0.671565
Si Si2 0.287724 0.274625 0.831373
Si Si3 0.354249 0.148195 0.830174
Si Si4 0.350094 0.838001 0.173741
Si Si5 0.055551 0.573336 0.822700
Si Si6 0.450780 0.920714 0.176514
Si Si7 0.758578 0.579844 0.829190
Si Si8 0.747700 0.430144 0.326551
O O1 0.199518 0.172505 0.500000
O O2 0.251387 0.243220 0.703670
O O3 0.154287 0.251687 0.711507
O O4 0.202240 0.122562 0.767532
O O5 0.342747 0.234868 0.813039
O O6 0.288193 0.361808 0.813540
O O7 0.266947 0.254753 0.000000
O O8 0.399013 0.128644 0.715610
O O9 0.303126 0.103375 0.787766
O O10 0.371244 0.129574 0.000000
O O11 0.407888 0.860875 0.211216
O O12 0.311278 0.886840 0.268311
O O13 0.336881 0.852006 0.000000
O O14 0.067899 0.496840 0.744883
O O15 0.002636 0.605286 0.757429
O O16 0.050959 0.563222 0.000000
O O17 0.460429 0.930315 0.000000
O O18 0.741215 0.508602 0.744211
O O19 0.768579 0.558612 0.000000
O O20 0.739406 0.439737 0.500000
#
# Coordination Sequence:
#
# PCOD8235337 Si02
#       8
#     8   8   8   8   8   8   8   8
#     4   9  16  27  42  60  81 104 134 171 205 237
#     4   8  16  29  42  58  81 108 137 167 201 243
#     4   9  17  30  44  56  77 111 143 167 198 242
#     4   9  18  30  44  61  81 108 140 171 204 245
#     4  11  21  30  41  61  84 104 135 177 210 234
#     4  10  19  32  46  58  78 110 141 167 203 246
#     4  10  18  27  42  63  85 110 139 171 205 239
#     4  10  19  29  41  59  84 113 142 169 200 242
#
# _framework density 14.889317999999999
#
# number of rings (size 3 to 8) (size 9 to 14) (size 15 to 20)
#    0.000    2.500    0.000    4.875    0.000    7.500 
#    0.000    0.000    0.000    0.000    0.000    0.000 
#    0.000    1.000    0.000   11.500    0.000    4.500 
#
# Total GULP energy -793185.894222 kJ/mol
# GULP energy per Si atom -12393.529597 kJ/mol
# Density = 1.485543 g / cm^3
# Si number density = 14.889318 Si / 1000 Ang^3
#
#
#
# Elastic Constant Matrix: (Units=GPa)
#
#
# Indices 1 2 3 4 5 6 
#
# 1 70.4291 47.5052 38.1285 0.0000 0.0000 0.0000
# 2 47.5052 106.3654 48.7016 0.0000 0.0000 0.0000
# 3 38.1285 48.7016 84.6638 0.0000 0.0000 0.0000
# 4 0.0000 0.0000 0.0000 23.6250 0.0000 0.0000
# 5 0.0000 0.0000 0.0000 0.0000 18.4687 0.0000
# 6 0.0000 0.0000 0.0000 0.0000 0.0000 26.0751
#
#
#
# Elastic Compliance Matrix: (Units=1/GPa)
#
#
# Indices 1 2 3 4 5 6 
#
# 1 0.022266 -0.007267 -0.005847 0.000000 0.000000 0.000000
# 2 -0.007267 0.015135 -0.005433 0.000000 0.000000 0.000000
# 3 -0.005847 -0.005433 0.017570 0.000000 0.000000 0.000000
# 4 0.000000 0.000000 0.000000 0.042328 0.000000 0.000000
# 5 0.000000 0.000000 0.000000 0.000000 0.054146 0.000000
# 6 0.000000 0.000000 0.000000 0.000000 0.000000 0.038351
#
#
# Mechanical properties :
#
#
# Convention : Reuss Voigt Hill
#
# Bulk Modulus (GPa) = 55.94209 58.90322 57.42266
# Shear Modulus (GPa) = 21.47305 22.10862 21.79084
#
# Velocity S-wave (km/s) = 3.80172 3.85757 3.82975
# Velocity P-wave (km/s) = 7.54482 7.71283 7.62929
#
# Compressibility (1/GPa) = 0.01787563
#
# Stress axis : x y z
#
# Youngs Moduli (GPa) = 44.91148 66.07167 56.91459
#
# Poissons Ratio (x) = 0.48016 0.33279
# Poissons Ratio (y) = 0.32638 0.30924
# Poissons Ratio (z) = 0.26260 0.35899
#
# Static dielectric constant tensor:
#      x y z
#    x 2.700760 0.000000 0.000000 
#    y 0.000000 3.015790 0.000000 
#    z 0.000000 0.000000 2.991540 
# 
# 
# High freq. dielectric constant tensor:
#      x y z
#    x 1.529460 0.000000 0.000000 
#    y 0.000000 1.562690 0.000000 
#    z 0.000000 0.000000 1.585690 
# 
# From -- ./inp_files/10548.got.cif
#   From: 2010.06.25/outbox.cif.g09.slc.cpg/sg58_6_cif.got.tgz:10548.got - 2010.06.26 21:38:00.
