data_PCOD8235979
_publ_section_title
;
Structure prediction by ZEFSAII (Michael W. Deem and Ramdas Pophale) SiO2 
 PCOD8235979
Probable space group: P N N M
;
_chemical_formula_sum "Si O2"
_cell_formula_units_Z 64
_cell_length_a 14.490414
_cell_length_b 27.665211
_cell_length_c 9.015348
_cell_angle_alpha 90.000000
_cell_angle_beta 90.000000
_cell_angle_gamma 90.000000
_cell_volume 3614.075959
_symmetry_space_group_name_H-M "P N N M"
_symmetry_group_IT_number 58
_symmetry_cell_setting 'orthorhombic'
loop_
_space_group_symop_operation_xyz
x,y,z
-x,-y,z
1/2+x,1/2-y,1/2-z
1/2-x,1/2+y,1/2-z
-x,-y,-z
x,y,-z
1/2-x,1/2+y,1/2+z
1/2+x,1/2-y,1/2+z
loop_
_atom_site_type_symbol
_atom_site_label
_atom_site_fract_x
_atom_site_fract_y
_atom_site_fract_z
Si Si1 0.898819 0.941911 0.672626
Si Si2 0.396731 0.279314 0.328792
Si Si3 0.391984 0.446650 0.171624
Si Si4 0.280552 0.366832 0.327737
Si Si5 0.099853 0.671319 0.176839
Si Si6 0.605495 0.273657 0.328820
Si Si7 0.273649 0.635328 0.674575
Si Si8 0.088337 0.324680 0.672188
O O1 0.885659 0.928969 0.500000
O O2 0.831928 0.910207 0.772506
O O3 0.004456 0.932582 0.722260
O O4 0.872611 0.997308 0.703308
O O5 0.370776 0.276111 0.500000
O O6 0.332713 0.320367 0.253849
O O7 0.378998 0.225685 0.262737
O O8 0.502753 0.294126 0.303048
O O9 0.315548 0.416297 0.257593
O O10 0.381024 0.435003 0.000000
O O11 0.305732 0.368669 0.500000
O O12 0.171128 0.362571 0.301758
O O13 0.174918 0.634869 0.243977
O O14 0.998843 0.656143 0.235047
O O15 0.099265 0.668184 0.000000
O O16 0.618398 0.258274 0.500000
O O17 0.674859 0.315494 0.279860
O O18 0.624119 0.227502 0.226516
O O19 0.258647 0.631417 0.500000
O O20 0.061601 0.320766 0.500000
#
# Coordination Sequence:
#
# PCOD8235979 Si02
#       8
#     8   8   8   8   8   8   8   8
#     4   9  19  36  54  75 104 134 162 198 248 300
#     4   8  15  29  47  69  99 133 165 196 236 289
#     4   9  19  35  54  76 103 132 164 201 241 297
#     4  10  19  31  50  74 101 132 165 204 251 297
#     4  10  20  35  52  69  98 139 175 210 252 295
#     4   9  18  31  47  71 104 137 167 201 243 294
#     4  11  21  32  51  78 103 130 169 212 251 299
#     4  10  20  33  49  72 102 135 172 212 250 291
#
# _framework density 17.708538000000001
#
# number of rings (size 3 to 8) (size 9 to 14) (size 15 to 20)
#    0.000    2.500    0.000    4.125    0.000    5.000 
#    0.000    5.625    0.000    0.750    0.000    5.250 
#    0.000    0.000    0.000    0.000    0.000    0.000 
#
# Total GULP energy -793587.739837 kJ/mol
# GULP energy per Si atom -12399.808435 kJ/mol
# Density = 1.766823 g / cm^3
# Si number density = 17.708538 Si / 1000 Ang^3
#
#
#
# Elastic Constant Matrix: (Units=GPa)
#
#
# Indices 1 2 3 4 5 6 
#
# 1 110.4301 60.5641 55.6363 0.0000 0.0000 0.0000
# 2 60.5641 71.6706 44.9967 0.0000 0.0000 0.0000
# 3 55.6363 44.9967 74.8107 0.0000 0.0000 0.0000
# 4 0.0000 0.0000 0.0000 29.2063 0.0000 0.0000
# 5 0.0000 0.0000 0.0000 0.0000 29.1873 0.0000
# 6 0.0000 0.0000 0.0000 0.0000 0.0000 30.0588
#
#
#
# Elastic Compliance Matrix: (Units=1/GPa)
#
#
# Indices 1 2 3 4 5 6 
#
# 1 0.019015 -0.011553 -0.007193 0.000000 0.000000 0.000000
# 2 -0.011553 0.029437 -0.009114 0.000000 0.000000 0.000000
# 3 -0.007193 -0.009114 0.024198 0.000000 0.000000 0.000000
# 4 0.000000 0.000000 0.000000 0.034239 0.000000 0.000000
# 5 0.000000 0.000000 0.000000 0.000000 0.034262 0.000000
# 6 0.000000 0.000000 0.000000 0.000000 0.000000 0.033268
#
#
# Mechanical properties :
#
#
# Convention : Reuss Voigt Hill
#
# Bulk Modulus (GPa) = 59.06171 64.36730 61.71450
# Shear Modulus (GPa) = 21.20596 24.07143 22.63869
#
# Velocity S-wave (km/s) = 3.46424 3.69088 3.57936
# Velocity P-wave (km/s) = 7.03035 7.38854 7.21167
#
# Compressibility (1/GPa) = 0.01693144
#
# Stress axis : x y z
#
# Youngs Moduli (GPa) = 52.58909 33.97070 41.32517
#
# Poissons Ratio (x) = 0.39245 0.29725
# Poissons Ratio (y) = 0.60754 0.37664
# Poissons Ratio (z) = 0.37827 0.30961
#
# Static dielectric constant tensor:
#      x y z
#    x 3.292000 0.000000 0.000000 
#    y 0.000000 3.144490 0.000000 
#    z 0.000000 0.000000 3.131040 
# 
# 
# High freq. dielectric constant tensor:
#      x y z
#    x 1.688080 0.000000 0.000000 
#    y 0.000000 1.662260 0.000000 
#    z 0.000000 0.000000 1.677160 
# 
# From -- ./inp_files/6936.got.cif
#   From: 2010.06.25/outbox.cif.g09.slc.cpg/sg58_4_cif.got.tgz:6936.got - 2010.06.26 21:38:00.
