data_PCOD8235495
_publ_section_title
;
Structure prediction by ZEFSAII (Michael W. Deem and Ramdas Pophale) SiO2 
 PCOD8235495
Probable space group: P N N M
;
_chemical_formula_sum "Si O2"
_cell_formula_units_Z 48
_cell_length_a 31.237052
_cell_length_b 9.600286
_cell_length_c 8.668752
_cell_angle_alpha 90.000000
_cell_angle_beta 90.000000
_cell_angle_gamma 90.000000
_cell_volume 2599.625512
_symmetry_space_group_name_H-M "P N N M"
_symmetry_group_IT_number 58
_symmetry_cell_setting 'orthorhombic'
loop_
_space_group_symop_operation_xyz
x,y,z
-x,-y,z
1/2+x,1/2-y,1/2-z
1/2-x,1/2+y,1/2-z
-x,-y,-z
x,y,-z
1/2-x,1/2+y,1/2+z
1/2+x,1/2-y,1/2+z
loop_
_atom_site_type_symbol
_atom_site_label
_atom_site_fract_x
_atom_site_fract_y
_atom_site_fract_z
Si Si1 0.539480 0.406387 0.182037
Si Si2 0.282293 0.590415 0.676376
Si Si3 0.037848 0.398566 0.818609
Si Si4 0.624225 0.089876 0.179041
Si Si5 0.210837 0.409788 0.179030
Si Si6 0.876151 0.886507 0.822278
O O1 0.500000 0.500000 0.237820
O O2 0.531499 0.248026 0.232986
O O3 0.582189 0.471447 0.264284
O O4 0.545660 0.413855 0.000000
O O5 0.266868 0.574494 0.500000
O O6 0.252234 0.501194 0.785868
O O7 0.280211 0.751027 0.730436
O O8 0.331087 0.531997 0.695073
O O9 0.082800 0.470997 0.768733
O O10 0.000000 0.500000 0.765529
O O11 0.037197 0.371919 0.000000
O O12 0.669279 0.024778 0.236034
O O13 0.626011 0.253543 0.211967
O O14 0.618445 0.058357 0.000000
O O15 0.200203 0.413057 0.000000
O O16 0.882066 0.839058 0.000000
#
# Coordination Sequence:
#
# PCOD8235495 Si02
#       6
#     8   8   8   8   8   8
#     4  10  20  33  51  76 103 132 168 207 248 296
#     4   9  19  34  51  75 102 129 166 207 248 295
#     4  10  20  34  53  76 101 131 168 207 248 296
#     4  10  18  30  51  74  99 132 167 203 245 295
#     4  10  20  34  53  76 102 132 167 206 247 295
#     4   9  17  31  51  73  99 131 168 206 244 295
#
# _framework density 18.464199000000001
#
# number of rings (size 3 to 8) (size 9 to 14) (size 15 to 20)
#    0.000    2.333    0.000    6.500    0.000    6.667 
#    0.000    1.667    0.000    4.000    0.000    0.000 
#    0.000    0.000    0.000    0.000    0.000    0.000 
#
# Total GULP energy -594959.893086 kJ/mol
# GULP energy per Si atom -12394.997773 kJ/mol
# Density = 1.842217 g / cm^3
# Si number density = 18.464199 Si / 1000 Ang^3
#
#
#
# Elastic Constant Matrix: (Units=GPa)
#
#
# Indices 1 2 3 4 5 6 
#
# 1 169.8183 50.9491 38.0759 0.0000 0.0000 0.0000
# 2 50.9491 46.5944 18.9608 0.0000 0.0000 0.0000
# 3 38.0759 18.9608 58.5322 0.0000 0.0000 0.0000
# 4 0.0000 0.0000 0.0000 18.7911 0.0000 0.0000
# 5 0.0000 0.0000 0.0000 0.0000 30.5269 0.0000
# 6 0.0000 0.0000 0.0000 0.0000 0.0000 32.3962
#
#
#
# Elastic Compliance Matrix: (Units=1/GPa)
#
#
# Indices 1 2 3 4 5 6 
#
# 1 0.009243 -0.008823 -0.003155 0.000000 0.000000 0.000000
# 2 -0.008823 0.033143 -0.004997 0.000000 0.000000 0.000000
# 3 -0.003155 -0.004997 0.020755 0.000000 0.000000 0.000000
# 4 0.000000 0.000000 0.000000 0.053217 0.000000 0.000000
# 5 0.000000 0.000000 0.000000 0.000000 0.032758 0.000000
# 6 0.000000 0.000000 0.000000 0.000000 0.000000 0.030868
#
#
# Mechanical properties :
#
#
# Convention : Reuss Voigt Hill
#
# Bulk Modulus (GPa) = 34.25539 54.54628 44.40084
# Shear Modulus (GPa) = 22.35499 27.47344 24.91421
#
# Velocity S-wave (km/s) = 3.48332 3.86155 3.67730
# Velocity P-wave (km/s) = 5.89666 7.03476 6.49071
#
# Compressibility (1/GPa) = 0.02919248
#
# Stress axis : x y z
#
# Youngs Moduli (GPa) = 108.18851 30.17229 48.18047
#
# Poissons Ratio (x) = 0.26622 0.15199
# Poissons Ratio (y) = 0.95458 0.24074
# Poissons Ratio (z) = 0.34129 0.15076
#
# Static dielectric constant tensor:
#      x y z
#    x 4.050380 0.000000 0.000000 
#    y 0.000000 2.965110 0.000000 
#    z 0.000000 0.000000 3.373770 
# 
# 
# High freq. dielectric constant tensor:
#      x y z
#    x 1.742930 0.000000 0.000000 
#    y 0.000000 1.658710 0.000000 
#    z 0.000000 0.000000 1.726980 
# 
# From -- ./inp_files/10331.got.cif
#   From: 2010.06.25/outbox.cif.g09.slc.cpg/sg58_6_cif.got.tgz:10331.got - 2010.06.26 21:38:00.
