data_PCOD8235293
_publ_section_title
;
Structure prediction by ZEFSAII (Michael W. Deem and Ramdas Pophale) SiO2 
 PCOD8235293
Probable space group: P N N M
;
_chemical_formula_sum "Si O2"
_cell_formula_units_Z 56
_cell_length_a 14.399883
_cell_length_b 14.399877
_cell_length_c 17.269788
_cell_angle_alpha 90.000000
_cell_angle_beta 90.000000
_cell_angle_gamma 90.000000
_cell_volume 3581.003556
_symmetry_space_group_name_H-M "P N N M"
_symmetry_group_IT_number 58
_symmetry_cell_setting 'orthorhombic'
loop_
_space_group_symop_operation_xyz
x,y,z
-x,-y,z
1/2+x,1/2-y,1/2-z
1/2-x,1/2+y,1/2-z
-x,-y,-z
x,y,-z
1/2-x,1/2+y,1/2+z
1/2+x,1/2-y,1/2+z
loop_
_atom_site_type_symbol
_atom_site_label
_atom_site_fract_x
_atom_site_fract_y
_atom_site_fract_z
Si Si1 0.922433 0.577567 0.408822
Si Si2 0.300731 0.800731 0.588406
Si Si3 0.336473 0.306268 0.215128
Si Si4 0.767813 0.535061 0.292341
Si Si5 0.193732 0.163527 0.784872
Si Si6 0.464939 0.767813 0.792341
Si Si7 0.075161 0.424839 0.825632
O O1 0.909508 0.590492 0.500000
O O2 0.823371 0.545979 0.373147
O O3 0.954021 0.676628 0.373147
O O4 0.000000 0.500000 0.389521
O O5 0.279247 0.779247 0.500000
O O6 0.206515 0.835779 0.631341
O O7 0.335778 0.706515 0.631341
O O8 0.379868 0.879868 0.597388
O O9 0.302883 0.379619 0.279788
O O10 0.294029 0.205971 0.239256
O O11 0.446192 0.298907 0.208014
O O12 0.701093 0.446192 0.291986
O O13 0.843908 0.527689 0.224703
O O14 0.120381 0.197118 0.720212
O O15 0.472311 0.843908 0.724703
O O16 0.000000 0.500000 0.851893
#
# Coordination Sequence:
#
# PCOD8235293 Si02
#       7
#     8   8   8   8   8   8   8
#     4  10  19  30  50  79 107 130 160 211 265 305
#     4   8  17  30  43  71 100 121 151 193 253 293
#     4   9  18  30  50  70  96 135 159 210 243 280
#     4  10  17  32  47  73 101 126 170 202 242 298
#     4   9  18  30  50  70  96 135 159 210 243 280
#     4  10  17  32  47  73 101 126 170 202 242 298
#     4   9  16  28  50  70  90 125 159 216 239 264
#
# _framework density 15.638074
#
# number of rings (size 3 to 8) (size 9 to 14) (size 15 to 20)
#    0.857    1.857    2.857    3.429    0.000    2.000 
#    0.000    0.000    0.000    6.857    0.000   10.000 
#    0.000    0.000    0.000    0.000    0.000    0.000 
#
# Total GULP energy -693804.970026 kJ/mol
# GULP energy per Si atom -12389.374465 kJ/mol
# Density = 1.560248 g / cm^3
# Si number density = 15.638074 Si / 1000 Ang^3
#
#
#
# Elastic Constant Matrix: (Units=GPa)
#
#
# Indices 1 2 3 4 5 6 
#
# 1 80.4315 43.5308 34.1934 0.0000 0.0000 0.0000
# 2 43.5308 80.4319 34.1937 0.0000 0.0000 0.0000
# 3 34.1934 34.1937 87.9214 0.0000 0.0000 0.0000
# 4 0.0000 0.0000 0.0000 10.2302 0.0000 0.0000
# 5 0.0000 0.0000 0.0000 0.0000 10.2301 0.0000
# 6 0.0000 0.0000 0.0000 0.0000 0.0000 42.0586
#
#
#
# Elastic Compliance Matrix: (Units=1/GPa)
#
#
# Indices 1 2 3 4 5 6 
#
# 1 0.018685 -0.008415 -0.003994 0.000000 0.000000 0.000000
# 2 -0.008415 0.018685 -0.003994 0.000000 0.000000 0.000000
# 3 -0.003994 -0.003994 0.014481 0.000000 0.000000 0.000000
# 4 0.000000 0.000000 0.000000 0.097750 0.000000 0.000000
# 5 0.000000 0.000000 0.000000 0.000000 0.097750 0.000000
# 6 0.000000 0.000000 0.000000 0.000000 0.000000 0.023776
#
#
# Mechanical properties :
#
#
# Convention : Reuss Voigt Hill
#
# Bulk Modulus (GPa) = 52.50877 52.51342 52.51109
# Shear Modulus (GPa) = 16.11436 21.62823 18.87130
#
# Velocity S-wave (km/s) = 3.21356 3.72297 3.47760
# Velocity P-wave (km/s) = 6.88619 7.22039 7.05527
#
# Compressibility (1/GPa) = 0.01904444
#
# Stress axis : x y z
#
# Youngs Moduli (GPa) = 53.51856 53.51870 69.05762
#
# Poissons Ratio (x) = 0.45034 0.27584
# Poissons Ratio (y) = 0.45034 0.27584
# Poissons Ratio (z) = 0.21377 0.21377
#
# Static dielectric constant tensor:
#      x y z
#    x 2.862720 0.000000 0.000000 
#    y 0.000000 2.862710 0.000000 
#    z 0.000000 0.000000 2.708150 
# 
# 
# High freq. dielectric constant tensor:
#      x y z
#    x 1.593060 0.000000 0.000000 
#    y 0.000000 1.593060 0.000000 
#    z 0.000000 0.000000 1.572430 
# 
# From -- ./inp_files/27045.got.cif
#   From: 2010.06.25/outbox.cif.g09.slc.cpg/sg58_14_cif.got.tgz:27045.got - 2010.06.26 21:38:00.
