data_PCOD8235251
_publ_section_title
;
Structure prediction by ZEFSAII (Michael W. Deem and Ramdas Pophale) SiO2 
 PCOD8235251
Probable space group: P N N M
;
_chemical_formula_sum "Si O2"
_cell_formula_units_Z 48
_cell_length_a 16.340008
_cell_length_b 8.168001
_cell_length_c 18.334695
_cell_angle_alpha 90.000000
_cell_angle_beta 90.000000
_cell_angle_gamma 90.000000
_cell_volume 2447.043766
_symmetry_space_group_name_H-M "P N N M"
_symmetry_group_IT_number 58
_symmetry_cell_setting 'orthorhombic'
loop_
_space_group_symop_operation_xyz
x,y,z
-x,-y,z
1/2+x,1/2-y,1/2-z
1/2-x,1/2+y,1/2-z
-x,-y,-z
x,y,-z
1/2-x,1/2+y,1/2+z
1/2+x,1/2-y,1/2+z
loop_
_atom_site_type_symbol
_atom_site_label
_atom_site_fract_x
_atom_site_fract_y
_atom_site_fract_z
Si Si1 0.583598 0.076763 0.855426
Si Si2 0.649509 0.927095 0.278305
Si Si3 0.327340 0.231642 0.580263
Si Si4 0.210075 0.845296 0.677749
Si Si5 0.356997 0.603724 0.918002
Si Si6 0.251223 0.563830 0.584319
O O1 0.585779 0.269585 0.873377
O O2 0.500000 0.000000 0.886358
O O3 0.587504 0.042436 0.767308
O O4 0.659590 0.990435 0.894710
O O5 0.620814 0.873745 0.360197
O O6 0.660219 0.755406 0.237227
O O7 0.736283 0.019772 0.280660
O O8 0.367928 0.209786 0.500000
O O9 0.235257 0.167309 0.578330
O O10 0.319341 0.424342 0.600884
O O11 0.270632 0.727076 0.630713
O O12 0.143368 0.931494 0.624779
O O13 0.391706 0.580921 0.000000
O O14 0.252905 0.610640 0.500000
#
# Coordination Sequence:
#
# PCOD8235251 Si02
#       6
#     8   8   8   8   8   8
#     4  10  20  32  46  65  95 137 173 192 225 279
#     4  10  18  29  46  67  93 121 157 201 243 288
#     4   8  15  28  46  68  90 114 146 191 248 290
#     4  10  17  28  47  71  94 120 153 199 252 285
#     4   9  17  29  46  68  94 122 154 192 231 277
#     4   9  17  29  47  72  97 120 153 197 242 292
#
# _framework density 19.615504000000001
#
# number of rings (size 3 to 8) (size 9 to 14) (size 15 to 20)
#    0.000    2.667    0.000    6.000    0.000    2.000 
#    0.000    3.333    0.000    5.500    0.000    0.000 
#    0.000    4.000    0.000    0.167    0.000    0.000 
#
# Total GULP energy -594752.207614 kJ/mol
# GULP energy per Si atom -12390.670992 kJ/mol
# Density = 1.957086 g / cm^3
# Si number density = 19.615504 Si / 1000 Ang^3
#
#
#
# Elastic Constant Matrix: (Units=GPa)
#
#
# Indices 1 2 3 4 5 6 
#
# 1 17.7987 1.6190 7.8430 0.0000 0.0000 0.0000
# 2 1.6190 83.6523 49.6734 0.0000 0.0000 0.0000
# 3 7.8430 49.6734 127.2528 0.0000 0.0000 0.0000
# 4 0.0000 0.0000 0.0000 40.2785 0.0000 0.0000
# 5 0.0000 0.0000 0.0000 0.0000 7.6370 0.0000
# 6 0.0000 0.0000 0.0000 0.0000 0.0000 8.4843
#
#
#
# Elastic Compliance Matrix: (Units=1/GPa)
#
#
# Indices 1 2 3 4 5 6 
#
# 1 0.057861 0.001299 -0.004073 0.000000 0.000000 0.000000
# 2 0.001299 0.015590 -0.006166 0.000000 0.000000 0.000000
# 3 -0.004073 -0.006166 0.010516 0.000000 0.000000 0.000000
# 4 0.000000 0.000000 0.000000 0.024827 0.000000 0.000000
# 5 0.000000 0.000000 0.000000 0.000000 0.130942 0.000000
# 6 0.000000 0.000000 0.000000 0.000000 0.000000 0.117865
#
#
# Mechanical properties :
#
#
# Convention : Reuss Voigt Hill
#
# Bulk Modulus (GPa) = 15.13157 38.55273 26.84215
# Shear Modulus (GPa) = 12.57828 22.58450 17.58139
#
# Velocity S-wave (km/s) = 2.53502 3.39685 2.99708
# Velocity P-wave (km/s) = 4.03724 5.92298 5.06858
#
# Compressibility (1/GPa) = 0.06608701
#
# Stress axis : x y z
#
# Youngs Moduli (GPa) = 17.28291 64.14205 95.09099
#
# Poissons Ratio (x) = -0.08331 0.38732
# Poissons Ratio (y) = -0.02245 0.58631
# Poissons Ratio (z) = 0.07040 0.39549
#
# Static dielectric constant tensor:
#      x y z
#    x 2.805070 0.000000 0.000000 
#    y 0.000000 4.002450 0.000000 
#    z 0.000000 0.000000 4.146470 
# 
# 
# High freq. dielectric constant tensor:
#      x y z
#    x 1.674230 0.000000 0.000000 
#    y 0.000000 1.776220 0.000000 
#    z 0.000000 0.000000 1.783230 
# 
# From -- ./inp_files/27223.got.cif
#   From: 2010.06.25/outbox.cif.g09.slc.cpg/sg58_14_cif.got.tgz:27223.got - 2010.06.26 21:38:00.
