data_PCOD8235667
_publ_section_title
;
Structure prediction by ZEFSAII (Michael W. Deem and Ramdas Pophale) SiO2 
 PCOD8235667
Probable space group: P N N M
;
_chemical_formula_sum "Si O2"
_cell_formula_units_Z 64
_cell_length_a 14.522064
_cell_length_b 25.425864
_cell_length_c 8.494144
_cell_angle_alpha 90.000000
_cell_angle_beta 90.000000
_cell_angle_gamma 90.000000
_cell_volume 3136.343960
_symmetry_space_group_name_H-M "P N N M"
_symmetry_group_IT_number 58
_symmetry_cell_setting 'orthorhombic'
loop_
_space_group_symop_operation_xyz
x,y,z
-x,-y,z
1/2+x,1/2-y,1/2-z
1/2-x,1/2+y,1/2-z
-x,-y,-z
x,y,-z
1/2-x,1/2+y,1/2+z
1/2+x,1/2-y,1/2+z
loop_
_atom_site_type_symbol
_atom_site_label
_atom_site_fract_x
_atom_site_fract_y
_atom_site_fract_z
Si Si1 0.644565 0.230346 0.313830
Si Si2 0.954360 0.947068 0.687625
Si Si3 0.749795 0.428276 0.814919
Si Si4 0.695602 0.116859 0.683562
Si Si5 0.938789 0.248377 0.817064
Si Si6 0.212180 0.684256 0.683333
Si Si7 0.099754 0.862046 0.683367
Si Si8 0.397164 0.988151 0.311778
O O1 0.658570 0.227425 0.500000
O O2 0.664218 0.172535 0.240534
O O3 0.544438 0.249955 0.264174
O O4 0.715629 0.273332 0.246614
O O5 0.953793 0.948859 0.500000
O O6 0.851249 0.941127 0.756534
O O7 0.016213 0.898047 0.744636
O O8 0.000000 0.000000 0.755751
O O9 0.777517 0.369282 0.777201
O O10 0.826944 0.467663 0.745530
O O11 0.744672 0.436077 0.000000
O O12 0.673495 0.118791 0.500000
O O13 0.804276 0.107412 0.712957
O O14 0.637479 0.068251 0.755422
O O15 0.888884 0.292954 0.714948
O O16 0.898051 0.191228 0.782118
O O17 0.926900 0.261875 0.000000
O O18 0.227814 0.673203 0.500000
O O19 0.089146 0.847505 0.500000
O O20 0.396589 0.988486 0.500000
O O21 0.500000 0.000000 0.248071
#
# Coordination Sequence:
#
# PCOD8235667 Si02
#       8
#     8   8   8   8   8   8   8   8
#     4   9  19  34  54  79 108 142 182 223 269 325
#     4   9  17  30  53  85 115 143 180 232 284 325
#     4  10  20  34  53  83 114 141 183 235 279 321
#     4   9  16  30  52  76 103 139 181 218 257 317
#     4  11  22  35  55  82 109 139 181 234 277 319
#     4  11  22  39  58  80 111 150 186 219 276 345
#     4  10  18  32  55  79 109 146 180 217 271 338
#     4   9  18  30  50  79 107 138 180 227 267 309
#
# _framework density 20.405925
#
# number of rings (size 3 to 8) (size 9 to 14) (size 15 to 20)
#    0.000    2.250    1.250    2.250    1.750    3.000 
#    0.000    1.875    0.000    4.125    0.000    0.000 
#    0.000    0.000    0.000    0.000    0.000    0.000 
#
# Total GULP energy -793602.992500 kJ/mol
# GULP energy per Si atom -12400.046758 kJ/mol
# Density = 2.035948 g / cm^3
# Si number density = 20.405925 Si / 1000 Ang^3
#
#
#
# Elastic Constant Matrix: (Units=GPa)
#
#
# Indices 1 2 3 4 5 6 
#
# 1 123.8482 56.6986 11.9113 0.0000 0.0000 0.0000
# 2 56.6986 148.3956 1.3315 0.0000 0.0000 0.0000
# 3 11.9113 1.3315 8.3878 0.0000 0.0000 0.0000
# 4 0.0000 0.0000 0.0000 23.0774 0.0000 0.0000
# 5 0.0000 0.0000 0.0000 0.0000 13.5833 0.0000
# 6 0.0000 0.0000 0.0000 0.0000 0.0000 44.0322
#
#
#
# Elastic Compliance Matrix: (Units=1/GPa)
#
#
# Indices 1 2 3 4 5 6 
#
# 1 0.011539 -0.004268 -0.015709 0.000000 0.000000 0.000000
# 2 -0.004268 0.008327 0.004739 0.000000 0.000000 0.000000
# 3 -0.015709 0.004739 0.140776 0.000000 0.000000 0.000000
# 4 0.000000 0.000000 0.000000 0.043332 0.000000 0.000000
# 5 0.000000 0.000000 0.000000 0.000000 0.073620 0.000000
# 6 0.000000 0.000000 0.000000 0.000000 0.000000 0.022711
#
#
# Mechanical properties :
#
#
# Convention : Reuss Voigt Hill
#
# Bulk Modulus (GPa) = 7.68250 46.72383 27.20317
# Shear Modulus (GPa) = 13.36295 30.18458 21.77376
#
# Velocity S-wave (km/s) = 2.56179 3.85022 3.27009
# Velocity P-wave (km/s) = 3.53884 6.53548 5.25528
#
# Compressibility (1/GPa) = 0.13016593
#
# Stress axis : x y z
#
# Youngs Moduli (GPa) = 86.66192 120.09297 7.10350
#
# Poissons Ratio (x) = 0.51254 0.11159
# Poissons Ratio (y) = 0.36986 -0.03366
# Poissons Ratio (z) = 1.36136 -0.56910
#
# Static dielectric constant tensor:
#      x y z
#    x 3.971940 0.000000 0.000000 
#    y 0.000000 3.848460 0.000000 
#    z 0.000000 0.000000 3.051290 
# 
# 
# High freq. dielectric constant tensor:
#      x y z
#    x 1.813490 0.000000 0.000000 
#    y 0.000000 1.809850 0.000000 
#    z 0.000000 0.000000 1.733950 
# 
# From -- ./inp_files/6810.got.cif
#   From: 2010.06.25/outbox.cif.g09.slc.cpg/sg58_4_cif.got.tgz:6810.got - 2010.06.26 21:38:00.
