data_PCOD8235767
_publ_section_title
;
Structure prediction by ZEFSAII (Michael W. Deem and Ramdas Pophale) SiO2 
 PCOD8235767
Probable space group: P N N M
;
_chemical_formula_sum "Si O2"
_cell_formula_units_Z 48
_cell_length_a 11.512862
_cell_length_b 14.597311
_cell_length_c 13.468775
_cell_angle_alpha 90.000000
_cell_angle_beta 90.000000
_cell_angle_gamma 90.000000
_cell_volume 2263.519592
_symmetry_space_group_name_H-M "P N N M"
_symmetry_group_IT_number 58
_symmetry_cell_setting 'orthorhombic'
loop_
_space_group_symop_operation_xyz
x,y,z
-x,-y,z
1/2+x,1/2-y,1/2-z
1/2-x,1/2+y,1/2-z
-x,-y,-z
x,y,-z
1/2-x,1/2+y,1/2+z
1/2+x,1/2-y,1/2+z
loop_
_atom_site_type_symbol
_atom_site_label
_atom_site_fract_x
_atom_site_fract_y
_atom_site_fract_z
Si Si1 0.712484 0.640194 0.691091
Si Si2 0.057369 0.898802 0.000000
Si Si3 0.637519 0.992035 0.291750
Si Si4 0.167337 0.228795 0.000000
Si Si5 0.265916 0.679874 0.713749
Si Si6 0.989370 0.892126 0.293517
Si Si7 0.523891 0.605612 0.000000
Si Si8 0.790005 0.571650 0.000000
O O1 0.645212 0.616364 0.590753
O O2 0.808388 0.563433 0.713690
O O3 0.772399 0.738997 0.704259
O O4 0.615062 0.649147 0.774847
O O5 0.000000 0.000000 0.000000
O O6 0.954096 0.825467 0.000000
O O7 0.686711 0.009597 0.402661
O O8 0.500000 0.000000 0.292320
O O9 0.669209 0.891195 0.251786
O O10 0.246840 0.207774 0.097778
O O11 0.129849 0.336624 0.000000
O O12 0.393283 0.634456 0.714291
O O13 0.960708 0.852702 0.403317
O O14 0.000000 0.000000 0.290486
O O15 0.500000 0.500000 0.000000
O O16 0.662571 0.615730 0.000000
#
# Coordination Sequence:
#
# PCOD8235767 Si02
#       8
#     8   4   8   4   8   8   4   4
#     4  12  25  45  69 105 143 184 249 307 362 436
#     4  12  26  46  81 104 139 197 267 314 356 441
#     4  12  27  46  70 105 152 193 236 303 377 443
#     4  12  24  45  78 105 138 193 256 301 374 430
#     4  12  26  43  74 104 145 190 247 304 370 439
#     4  11  20  41  66  96 134 182 240 304 355 422
#     4  10  18  34  68  94 132 175 228 291 364 417
#     4  12  23  47  69 106 144 192 240 301 371 451
#
# _framework density 21.205912999999999
#
# number of rings (size 3 to 8) (size 9 to 14) (size 15 to 20)
#    0.000    0.333    6.667    2.750    4.667    1.333 
#    0.000    1.667    0.000    0.000    0.000    0.000 
#    0.000    0.000    0.000    0.000    0.000    0.000 
#
# Total GULP energy -594757.289260 kJ/mol
# GULP energy per Si atom -12390.776860 kJ/mol
# Density = 2.115765 g / cm^3
# Si number density = 21.205913 Si / 1000 Ang^3
#
#
#
# Elastic Constant Matrix: (Units=GPa)
#
#
# Indices 1 2 3 4 5 6 
#
# 1 82.6424 14.8195 26.8838 0.0000 0.0000 0.0000
# 2 14.8195 86.8381 60.4137 0.0000 0.0000 0.0000
# 3 26.8838 60.4137 155.5036 0.0000 0.0000 0.0000
# 4 0.0000 0.0000 0.0000 29.2682 0.0000 0.0000
# 5 0.0000 0.0000 0.0000 0.0000 37.6450 0.0000
# 6 0.0000 0.0000 0.0000 0.0000 0.0000 31.5365
#
#
#
# Elastic Compliance Matrix: (Units=1/GPa)
#
#
# Indices 1 2 3 4 5 6 
#
# 1 0.012871 -0.000889 -0.001880 0.000000 0.000000 0.000000
# 2 -0.000889 0.015842 -0.006001 0.000000 0.000000 0.000000
# 3 -0.001880 -0.006001 0.009087 0.000000 0.000000 0.000000
# 4 0.000000 0.000000 0.000000 0.034167 0.000000 0.000000
# 5 0.000000 0.000000 0.000000 0.000000 0.026564 0.000000
# 6 0.000000 0.000000 0.000000 0.000000 0.000000 0.031709
#
#
# Mechanical properties :
#
#
# Convention : Reuss Voigt Hill
#
# Bulk Modulus (GPa) = 49.35538 58.80201 54.07869
# Shear Modulus (GPa) = 32.35530 34.54776 33.45153
#
# Velocity S-wave (km/s) = 3.91035 4.04066 3.97604
# Velocity P-wave (km/s) = 6.61155 7.03978 6.82902
#
# Compressibility (1/GPa) = 0.02026121
#
# Stress axis : x y z
#
# Youngs Moduli (GPa) = 77.69264 63.12177 110.04482
#
# Poissons Ratio (x) = 0.05609 0.20688
# Poissons Ratio (y) = 0.06904 0.66040
# Poissons Ratio (z) = 0.14606 0.37881
#
# Static dielectric constant tensor:
#      x y z
#    x 3.700220 0.000000 0.000000 
#    y 0.000000 3.971270 0.000000 
#    z 0.000000 0.000000 4.768390 
# 
# 
# High freq. dielectric constant tensor:
#      x y z
#    x 1.827930 0.000000 0.000000 
#    y 0.000000 1.831540 0.000000 
#    z 0.000000 0.000000 1.848880 
# 
# From -- ./inp_files/21219.got.cif
#   From: 2010.06.25/outbox.cif.g09.slc.cpg/sg58_11_cif.got.tgz:21219.got - 2010.06.26 21:38:00.
