data_PCOD8235297
_publ_section_title
;
Structure prediction by ZEFSAII (Michael W. Deem and Ramdas Pophale) SiO2 
 PCOD8235297
Probable space group: P N N M
;
_chemical_formula_sum "Si O2"
_cell_formula_units_Z 64
_cell_length_a 10.094122
_cell_length_b 37.620725
_cell_length_c 9.325582
_cell_angle_alpha 90.000000
_cell_angle_beta 90.000000
_cell_angle_gamma 90.000000
_cell_volume 3541.372865
_symmetry_space_group_name_H-M "P N N M"
_symmetry_group_IT_number 58
_symmetry_cell_setting 'orthorhombic'
loop_
_space_group_symop_operation_xyz
x,y,z
-x,-y,z
1/2+x,1/2-y,1/2-z
1/2-x,1/2+y,1/2-z
-x,-y,-z
x,y,-z
1/2-x,1/2+y,1/2+z
1/2+x,1/2-y,1/2+z
loop_
_atom_site_type_symbol
_atom_site_label
_atom_site_fract_x
_atom_site_fract_y
_atom_site_fract_z
Si Si1 0.701455 0.114181 0.669878
Si Si2 0.430878 0.148212 0.330279
Si Si3 0.853730 0.274172 0.831005
Si Si4 0.521897 0.643883 0.169653
Si Si5 0.826341 0.466762 0.334018
Si Si6 0.372558 0.953762 0.166281
Si Si7 0.549055 0.278092 0.168893
Si Si8 0.709404 0.405781 0.169916
O O1 0.700261 0.108779 0.500000
O O2 0.577014 0.137489 0.722725
O O3 0.830307 0.135474 0.723079
O O4 0.702051 0.075395 0.739751
O O5 0.421229 0.149331 0.500000
O O6 0.392478 0.186922 0.271009
O O7 0.328739 0.118908 0.272699
O O8 0.699587 0.266529 0.796145
O O9 0.945221 0.246415 0.749951
O O10 0.880925 0.271249 0.000000
O O11 0.473970 0.681984 0.227819
O O12 0.425745 0.612540 0.223863
O O13 0.513946 0.645219 0.000000
O O14 0.804054 0.458192 0.500000
O O15 0.802752 0.508415 0.303661
O O16 0.721192 0.444429 0.241763
O O17 0.974392 0.455938 0.287190
O O18 0.360936 0.943557 0.000000
O O19 0.520687 0.275608 0.000000
O O20 0.713466 0.410731 0.000000
#
# Coordination Sequence:
#
# PCOD8235297 Si02
#       8
#     8   8   8   8   8   8   8   8
#     4  10  19  32  53  80 103 130 173 216 256 307
#     4   9  17  31  53  77 100 130 172 216 254 299
#     4  10  21  37  56  80 110 141 178 221 265 318
#     4   9  19  35  55  77 106 139 170 213 267 311
#     4   9  18  32  51  75 104 137 171 209 259 311
#     4   9  18  33  50  73 107 139 166 208 263 310
#     4  10  21  38  57  79 109 144 179 218 267 319
#     4  10  17  32  55  77  99 131 174 216 255 299
#
# _framework density 18.072088000000001
#
# number of rings (size 3 to 8) (size 9 to 14) (size 15 to 20)
#    0.000    2.500    2.500    0.750    1.750    1.000 
#    0.000    5.000    0.000    3.750    0.000    0.000 
#    0.000    0.000    0.000    0.000    0.000    0.000 
#
# Total GULP energy -793552.901582 kJ/mol
# GULP energy per Si atom -12399.264087 kJ/mol
# Density = 1.803096 g / cm^3
# Si number density = 18.072088 Si / 1000 Ang^3
#
#
#
# Elastic Constant Matrix: (Units=GPa)
#
#
# Indices 1 2 3 4 5 6 
#
# 1 123.9647 50.6119 33.3571 0.0000 0.0000 0.0000
# 2 50.6119 105.0631 37.4313 0.0000 0.0000 0.0000
# 3 33.3571 37.4313 36.5373 0.0000 0.0000 0.0000
# 4 0.0000 0.0000 0.0000 31.4178 0.0000 0.0000
# 5 0.0000 0.0000 0.0000 0.0000 18.6210 0.0000
# 6 0.0000 0.0000 0.0000 0.0000 0.0000 32.3747
#
#
#
# Elastic Compliance Matrix: (Units=1/GPa)
#
#
# Indices 1 2 3 4 5 6 
#
# 1 0.011178 -0.002754 -0.007384 0.000000 0.000000 0.000000
# 2 -0.002754 0.015668 -0.013536 0.000000 0.000000 0.000000
# 3 -0.007384 -0.013536 0.047978 0.000000 0.000000 0.000000
# 4 0.000000 0.000000 0.000000 0.031829 0.000000 0.000000
# 5 0.000000 0.000000 0.000000 0.000000 0.053703 0.000000
# 6 0.000000 0.000000 0.000000 0.000000 0.000000 0.030888
#
#
# Mechanical properties :
#
#
# Convention : Reuss Voigt Hill
#
# Bulk Modulus (GPa) = 36.39663 56.48509 46.44086
# Shear Modulus (GPa) = 20.18160 26.09367 23.13763
#
# Velocity S-wave (km/s) = 3.34537 3.80395 3.58201
# Velocity P-wave (km/s) = 5.92498 7.11454 6.54683
#
# Compressibility (1/GPa) = 0.02747507
#
# Stress axis : x y z
#
# Youngs Moduli (GPa) = 89.46053 63.82615 20.84299
#
# Poissons Ratio (x) = 0.17579 0.15390
# Poissons Ratio (y) = 0.24640 0.28214
# Poissons Ratio (z) = 0.66054 0.86398
#
# Static dielectric constant tensor:
#      x y z
#    x 3.419860 0.000000 0.000000 
#    y 0.000000 3.444480 0.000000 
#    z 0.000000 0.000000 2.966470 
# 
# 
# High freq. dielectric constant tensor:
#      x y z
#    x 1.698000 0.000000 0.000000 
#    y 0.000000 1.708960 0.000000 
#    z 0.000000 0.000000 1.665390 
# 
# From -- ./inp_files/13450.got.cif
#   From: 2010.06.25/outbox.cif.g09.slc.cpg/sg58_7_cif.got.tgz:13450.got - 2010.06.26 21:38:00.
