data_PCOD8235298
_publ_section_title
;
Structure prediction by ZEFSAII (Michael W. Deem and Ramdas Pophale) SiO2 
 PCOD8235298
Probable space group: P N N M
;
_chemical_formula_sum "Si O2"
_cell_formula_units_Z 52
_cell_length_a 16.503634
_cell_length_b 7.949928
_cell_length_c 20.049612
_cell_angle_alpha 90.000000
_cell_angle_beta 90.000000
_cell_angle_gamma 90.000000
_cell_volume 2630.563269
_symmetry_space_group_name_H-M "P N N M"
_symmetry_group_IT_number 58
_symmetry_cell_setting 'orthorhombic'
loop_
_space_group_symop_operation_xyz
x,y,z
-x,-y,z
1/2+x,1/2-y,1/2-z
1/2-x,1/2+y,1/2-z
-x,-y,-z
x,y,-z
1/2-x,1/2+y,1/2+z
1/2+x,1/2-y,1/2+z
loop_
_atom_site_type_symbol
_atom_site_label
_atom_site_fract_x
_atom_site_fract_y
_atom_site_fract_z
Si Si1 0.630833 0.348864 0.708605
Si Si2 0.886448 0.268644 0.926893
Si Si3 0.294459 0.833735 0.923699
Si Si4 0.360539 0.024572 0.302203
Si Si5 0.500000 0.500000 0.386069
Si Si6 0.176004 0.015480 0.656540
Si Si7 0.816484 0.354299 0.333991
O O1 0.575346 0.448832 0.658572
O O2 0.619978 0.430742 0.781494
O O3 0.722063 0.357045 0.682706
O O4 0.600471 0.156709 0.711358
O O5 0.802507 0.169739 0.912726
O O6 0.905205 0.395438 0.866263
O O7 0.879640 0.359182 0.000000
O O8 0.963707 0.145844 0.932449
O O9 0.333017 0.654194 0.901623
O O10 0.333791 0.987664 0.882328
O O11 0.317887 0.863859 0.000000
O O12 0.266689 0.009980 0.317477
O O13 0.369241 0.132069 0.234181
O O14 0.156372 0.824007 0.632190
#
# Coordination Sequence:
#
# PCOD8235298 Si02
#       7
#     8   8   8   8   4   8   8
#     4  10  19  32  50  76  99 134 181 225 257 302
#     4  10  21  36  49  71 107 147 182 217 258 307
#     4  10  19  33  52  79 111 137 169 216 271 324
#     4   9  18  33  55  72  97 133 181 228 269 305
#     4  12  21  32  50  70 105 150 186 218 249 302
#     4   9  18  31  53  78 103 129 171 224 276 309
#     4  10  17  32  55  78 101 133 176 224 268 312
#
# _framework density 19.767627999999998
#
# number of rings (size 3 to 8) (size 9 to 14) (size 15 to 20)
#    0.000    2.154    3.077    1.154    4.308    1.231 
#    0.000    4.615    0.000    0.000    0.000    0.538 
#    0.000    4.000    0.000    0.154    0.000    0.000 
#
# Total GULP energy -644423.861061 kJ/mol
# GULP energy per Si atom -12392.766559 kJ/mol
# Density = 1.972264 g / cm^3
# Si number density = 19.767628 Si / 1000 Ang^3
#
#
#
# Elastic Constant Matrix: (Units=GPa)
#
#
# Indices 1 2 3 4 5 6 
#
# 1 18.6865 7.9387 18.7487 0.0000 0.0000 0.0000
# 2 7.9387 147.6039 62.4078 0.0000 0.0000 0.0000
# 3 18.7487 62.4078 127.2568 0.0000 0.0000 0.0000
# 4 0.0000 0.0000 0.0000 20.3565 0.0000 0.0000
# 5 0.0000 0.0000 0.0000 0.0000 8.0528 0.0000
# 6 0.0000 0.0000 0.0000 0.0000 0.0000 13.7010
#
#
#
# Elastic Compliance Matrix: (Units=1/GPa)
#
#
# Indices 1 2 3 4 5 6 
#
# 1 0.062850 0.000675 -0.009591 0.000000 0.000000 0.000000
# 2 0.000675 0.008554 -0.004295 0.000000 0.000000 0.000000
# 3 -0.009591 -0.004295 0.011377 0.000000 0.000000 0.000000
# 4 0.000000 0.000000 0.000000 0.049124 0.000000 0.000000
# 5 0.000000 0.000000 0.000000 0.000000 0.124180 0.000000
# 6 0.000000 0.000000 0.000000 0.000000 0.000000 0.072987
#
#
# Mechanical properties :
#
#
# Convention : Reuss Voigt Hill
#
# Bulk Modulus (GPa) = 17.74279 52.41531 35.07905
# Shear Modulus (GPa) = 13.35892 22.05219 17.70556
#
# Velocity S-wave (km/s) = 2.60243 3.34364 2.99605
# Velocity P-wave (km/s) = 4.24563 6.44049 5.45460
#
# Compressibility (1/GPa) = 0.05636094
#
# Stress axis : x y z
#
# Youngs Moduli (GPa) = 15.91081 116.89952 87.89530
#
# Poissons Ratio (x) = -0.07886 0.84296
# Poissons Ratio (y) = -0.01073 0.37747
# Poissons Ratio (z) = 0.15259 0.50203
#
# Static dielectric constant tensor:
#      x y z
#    x 3.131180 0.000000 0.000000 
#    y 0.000000 3.930960 0.000000 
#    z 0.000000 0.000000 3.566240 
# 
# 
# High freq. dielectric constant tensor:
#      x y z
#    x 1.715060 0.000000 0.000000 
#    y 0.000000 1.779480 0.000000 
#    z 0.000000 0.000000 1.763680 
# 
# From -- ./inp_files/27263.got.cif
#   From: 2010.06.25/outbox.cif.g09.slc.cpg/sg58_14_cif.got.tgz:27263.got - 2010.06.26 21:38:00.
