data_PCOD8235115
_publ_section_title
;
Structure prediction by ZEFSAII (Michael W. Deem and Ramdas Pophale) SiO2 
 PCOD8235115
Probable space group: P B C M
;
_chemical_formula_sum "Si O2"
_cell_formula_units_Z 40
_cell_length_a 21.508983
_cell_length_b 9.334902
_cell_length_c 9.301537
_cell_angle_alpha 90.000000
_cell_angle_beta 90.000000
_cell_angle_gamma 90.000000
_cell_volume 1867.602116
_symmetry_space_group_name_H-M "P B C M"
_symmetry_group_IT_number 57
_symmetry_cell_setting 'orthorhombic'
loop_
_space_group_symop_operation_xyz
x,y,z
-x,-y,1/2+z
x,1/2-y,-z
-x,1/2+y,1/2-z
-x,-y,-z
x,y,1/2-z
-x,1/2+y,z
x,1/2-y,1/2+z
loop_
_atom_site_type_symbol
_atom_site_label
_atom_site_fract_x
_atom_site_fract_y
_atom_site_fract_z
Si Si1 0.380688 0.250000 0.000000
Si Si2 0.576150 0.178930 0.250000
Si Si3 0.336343 0.750000 0.500000
Si Si4 0.951094 0.099298 0.419215
Si Si5 0.277331 0.034638 0.410042
Si Si6 0.841665 0.613881 0.584281
Si Si7 0.537244 0.627581 0.750000
O O1 0.339001 0.371665 0.927131
O O2 0.425774 0.176527 0.888139
O O3 0.620430 0.170706 0.386493
O O4 0.533735 0.319803 0.250000
O O5 0.530416 0.043529 0.250000
O O6 0.292602 0.632360 0.573232
O O7 0.948599 0.250000 0.500000
O O8 0.968463 0.118758 0.250000
O O9 0.884118 0.025453 0.435877
O O10 0.000000 0.000000 0.500000
O O11 0.250165 0.058185 0.250000
O O12 0.226932 0.081691 0.526716
O O13 0.870893 0.750000 0.500000
O O14 0.836032 0.657278 0.750000
#
# Coordination Sequence:
#
# PCOD8235115 Si02
#       7
#     4   4   4   8   8   8   4
#     4  12  25  44  68  98 127 174 218 278 338 410
#     4  12  28  46  68  98 128 174 217 282 339 418
#     4  12  27  46  68  96 133 170 226 278 348 410
#     4  11  25  46  73 107 147 195 243 295 351 409
#     4  12  26  44  70  99 133 180 227 281 345 410
#     4  11  26  44  70 106 144 185 235 286 343 409
#     4  12  28  44  70  94 134 166 223 276 341 414
#
# _framework density 21.417836999999999
#
# number of rings (size 3 to 8) (size 9 to 14) (size 15 to 20)
#    0.000    0.400    5.000    2.400    7.000    6.400 
#    0.000    0.000    0.000    0.000    0.000    0.000 
#    0.000    0.000    0.000    0.000    0.000    0.000 
#
# Total GULP energy -496239.396775 kJ/mol
# GULP energy per Si atom -12405.984919 kJ/mol
# Density = 2.136909 g / cm^3
# Si number density = 21.417837 Si / 1000 Ang^3
#
#
#
# Elastic Constant Matrix: (Units=GPa)
#
#
# Indices 1 2 3 4 5 6 
#
# 1 68.3559 18.3785 40.9449 0.0000 0.0000 0.0000
# 2 18.3785 134.2754 51.8270 0.0000 0.0000 0.0000
# 3 40.9449 51.8270 166.0264 0.0000 0.0000 0.0000
# 4 0.0000 0.0000 0.0000 36.4053 0.0000 0.0000
# 5 0.0000 0.0000 0.0000 0.0000 33.3533 0.0000
# 6 0.0000 0.0000 0.0000 0.0000 0.0000 38.3811
#
#
#
# Elastic Compliance Matrix: (Units=1/GPa)
#
#
# Indices 1 2 3 4 5 6 
#
# 1 0.017243 -0.000817 -0.003997 0.000000 0.000000 0.000000
# 2 -0.000817 0.008506 -0.002454 0.000000 0.000000 0.000000
# 3 -0.003997 -0.002454 0.007775 0.000000 0.000000 0.000000
# 4 0.000000 0.000000 0.000000 0.027469 0.000000 0.000000
# 5 0.000000 0.000000 0.000000 0.000000 0.029982 0.000000
# 6 0.000000 0.000000 0.000000 0.000000 0.000000 0.026054
#
#
# Mechanical properties :
#
#
# Convention : Reuss Voigt Hill
#
# Bulk Modulus (GPa) = 52.66528 65.66207 59.16367
# Shear Modulus (GPa) = 36.25919 38.79509 37.52714
#
# Velocity S-wave (km/s) = 4.11900 4.26061 4.19040
# Velocity P-wave (km/s) = 6.87491 7.41134 7.14816
#
# Compressibility (1/GPa) = 0.01898784
#
# Stress axis : x y z
#
# Youngs Moduli (GPa) = 57.99294 117.55930 128.61808
#
# Poissons Ratio (x) = 0.09607 0.51414
# Poissons Ratio (y) = 0.04739 0.31560
# Poissons Ratio (z) = 0.23182 0.28847
#
# Static dielectric constant tensor:
#      x y z
#    x 3.782650 0.000000 0.000000 
#    y 0.000000 4.225850 0.000000 
#    z 0.000000 0.000000 4.101700 
# 
# 
# High freq. dielectric constant tensor:
#      x y z
#    x 1.837740 0.000000 0.000000 
#    y 0.000000 1.857660 0.000000 
#    z 0.000000 0.000000 1.860050 
# 
# From -- ./inp_files/9028.got.cif
#   From: 2010.03.12/outbox.cif.g09.slc.cpg/sg57_5_cif.got.tgz:9028.got - 2010.04.16 15:48:40.
