data_PCOD8235357
_publ_section_title
;
Structure prediction by ZEFSAII (Michael W. Deem and Ramdas Pophale) SiO2 
 PCOD8235357
Probable space group: P N N M
;
_chemical_formula_sum "Si O2"
_cell_formula_units_Z 56
_cell_length_a 18.007347
_cell_length_b 21.330355
_cell_length_c 8.945246
_cell_angle_alpha 90.000000
_cell_angle_beta 90.000000
_cell_angle_gamma 90.000000
_cell_volume 3435.896756
_symmetry_space_group_name_H-M "P N N M"
_symmetry_group_IT_number 58
_symmetry_cell_setting 'orthorhombic'
loop_
_space_group_symop_operation_xyz
x,y,z
-x,-y,z
1/2+x,1/2-y,1/2-z
1/2-x,1/2+y,1/2-z
-x,-y,-z
x,y,-z
1/2-x,1/2+y,1/2+z
1/2+x,1/2-y,1/2+z
loop_
_atom_site_type_symbol
_atom_site_label
_atom_site_fract_x
_atom_site_fract_y
_atom_site_fract_z
Si Si1 0.083315 0.997943 0.677605
Si Si2 0.346905 0.627422 0.176407
Si Si3 0.299468 0.187624 0.665471
Si Si4 0.919430 0.753912 0.176873
Si Si5 0.574480 0.751429 0.173152
Si Si6 0.293476 0.814151 0.166947
Si Si7 0.836286 0.125965 0.325289
O O1 0.080016 0.994611 0.500000
O O2 0.127552 0.059249 0.731505
O O3 0.124836 0.936405 0.739066
O O4 0.000000 0.000000 0.743384
O O5 0.258967 0.633635 0.214930
O O6 0.396211 0.678578 0.260461
O O7 0.360517 0.637439 0.000000
O O8 0.331821 0.173651 0.500000
O O9 0.366673 0.194105 0.782524
O O10 0.252181 0.250545 0.661595
O O11 0.868064 0.697744 0.238873
O O12 0.002756 0.739031 0.226001
O O13 0.913116 0.755005 0.000000
O O14 0.609044 0.683677 0.208908
O O15 0.553715 0.758574 0.000000
O O16 0.242865 0.867151 0.243898
O O17 0.314876 0.836170 0.000000
O O18 0.819562 0.121006 0.500000
#
# Coordination Sequence:
#
# PCOD8235357 Si02
#       7
#     8   8   8   8   8   8   8
#     4   9  16  27  45  68  93 123 157 186 211 248
#     4   9  17  30  46  64  90 123 155 185 218 258
#     4   8  15  27  42  61  85 113 146 183 221 260
#     4  11  20  29  44  66  91 116 146 186 228 269
#     4  10  18  28  44  65  89 116 146 182 225 269
#     4   9  17  30  46  63  87 117 148 183 225 270
#     4   9  17  29  46  67  91 121 156 187 215 256
#
# _framework density 16.298511000000001
#
# number of rings (size 3 to 8) (size 9 to 14) (size 15 to 20)
#    0.000    2.714    0.000    3.857    0.000    6.286 
#    0.000    0.714    0.000    1.714    0.000    1.000 
#    0.000    8.000    0.000    0.000    0.000    0.000 
#
# Total GULP energy -694273.085449 kJ/mol
# GULP energy per Si atom -12397.733669 kJ/mol
# Density = 1.626141 g / cm^3
# Si number density = 16.298511 Si / 1000 Ang^3
#
#
#
# Elastic Constant Matrix: (Units=GPa)
#
#
# Indices 1 2 3 4 5 6 
#
# 1 118.1788 63.7954 52.6136 0.0000 0.0000 0.0000
# 2 63.7954 83.1372 27.7471 0.0000 0.0000 0.0000
# 3 52.6136 27.7471 76.0070 0.0000 0.0000 0.0000
# 4 0.0000 0.0000 0.0000 15.5595 0.0000 0.0000
# 5 0.0000 0.0000 0.0000 0.0000 28.6561 0.0000
# 6 0.0000 0.0000 0.0000 0.0000 0.0000 27.6998
#
#
#
# Elastic Compliance Matrix: (Units=1/GPa)
#
#
# Indices 1 2 3 4 5 6 
#
# 1 0.018340 -0.011201 -0.008606 0.000000 0.000000 0.000000
# 2 -0.011201 0.020538 0.000256 0.000000 0.000000 0.000000
# 3 -0.008606 0.000256 0.019021 0.000000 0.000000 0.000000
# 4 0.000000 0.000000 0.000000 0.064269 0.000000 0.000000
# 5 0.000000 0.000000 0.000000 0.000000 0.034897 0.000000
# 6 0.000000 0.000000 0.000000 0.000000 0.000000 0.036101
#
#
# Mechanical properties :
#
#
# Convention : Reuss Voigt Hill
#
# Bulk Modulus (GPa) = 53.20267 62.84834 58.02550
# Shear Modulus (GPa) = 20.96153 23.26088 22.11121
#
# Velocity S-wave (km/s) = 3.59012 3.78190 3.68725
# Velocity P-wave (km/s) = 7.06391 7.59703 7.33531
#
# Compressibility (1/GPa) = 0.01879605
#
# Stress axis : x y z
#
# Youngs Moduli (GPa) = 54.52709 48.69098 52.57440
#
# Poissons Ratio (x) = 0.54536 0.45246
# Poissons Ratio (y) = 0.61073 -0.01345
# Poissons Ratio (z) = 0.46927 -0.01245
#
# Static dielectric constant tensor:
#      x y z
#    x 3.224160 0.000000 0.000000 
#    y 0.000000 3.006330 0.000000 
#    z 0.000000 0.000000 3.030780 
# 
# 
# High freq. dielectric constant tensor:
#      x y z
#    x 1.628950 0.000000 0.000000 
#    y 0.000000 1.588950 0.000000 
#    z 0.000000 0.000000 1.619480 
# 
# From -- ./inp_files/8157.got.cif
#   From: 2010.06.25/outbox.cif.g09.slc.cpg/sg58_5_cif.got.tgz:8157.got - 2010.06.26 21:38:00.
