data_PCOD8235972
_publ_section_title
;
Structure prediction by ZEFSAII (Michael W. Deem and Ramdas Pophale) SiO2 
 PCOD8235972
Probable space group: P N N M
;
_chemical_formula_sum "Si O2"
_cell_formula_units_Z 64
_cell_length_a 25.504657
_cell_length_b 14.537978
_cell_length_c 9.088756
_cell_angle_alpha 90.000000
_cell_angle_beta 90.000000
_cell_angle_gamma 90.000000
_cell_volume 3369.984776
_symmetry_space_group_name_H-M "P N N M"
_symmetry_group_IT_number 58
_symmetry_cell_setting 'orthorhombic'
loop_
_space_group_symop_operation_xyz
x,y,z
-x,-y,z
1/2+x,1/2-y,1/2-z
1/2-x,1/2+y,1/2-z
-x,-y,-z
x,y,-z
1/2-x,1/2+y,1/2+z
1/2+x,1/2-y,1/2+z
loop_
_atom_site_type_symbol
_atom_site_label
_atom_site_fract_x
_atom_site_fract_y
_atom_site_fract_z
Si Si1 0.291492 0.909866 0.325064
Si Si2 0.025414 0.225202 0.172231
Si Si3 0.189482 0.797429 0.329773
Si Si4 0.171431 0.120069 0.337635
Si Si5 0.227273 0.599522 0.329707
Si Si6 0.583589 0.661816 0.333394
Si Si7 0.584606 0.457532 0.665581
Si Si8 0.384664 0.812387 0.163855
O O1 0.295300 0.904632 0.500000
O O2 0.241070 0.851117 0.266113
O O3 0.345977 0.874292 0.259317
O O4 0.288018 0.014972 0.273351
O O5 0.044376 0.122122 0.211577
O O6 0.058166 0.303058 0.259573
O O7 0.963771 0.229117 0.218880
O O8 0.031883 0.245609 0.000000
O O9 0.187345 0.821354 0.500000
O O10 0.190320 0.687636 0.302895
O O11 0.135957 0.832030 0.260053
O O12 0.192701 0.091385 0.500000
O O13 0.216259 0.135911 0.218658
O O14 0.134036 0.040307 0.276129
O O15 0.138804 0.212068 0.348375
O O16 0.227407 0.569055 0.500000
O O17 0.599260 0.686006 0.500000
O O18 0.559358 0.558631 0.324233
O O19 0.605009 0.438160 0.500000
O O20 0.391430 0.854935 0.000000
#
# Coordination Sequence:
#
# PCOD8235972 Si02
#       8
#     8   8   8   8   8   8   8   8
#     4  11  22  38  59  84 111 144 184 229 280 332
#     4   9  18  33  53  77 108 146 186 229 275 324
#     4  10  23  39  55  78 114 151 182 221 276 335
#     4  10  19  31  49  76 108 141 180 223 266 318
#     4  11  22  37  55  78 109 147 186 225 277 334
#     4  10  20  33  52  78 108 145 188 228 271 326
#     4   9  17  30  50  76 108 146 184 224 271 326
#     4  10  20  34  54  80 108 141 182 225 269 322
#
# _framework density 18.991182999999999
#
# number of rings (size 3 to 8) (size 9 to 14) (size 15 to 20)
#    0.000    2.000    1.250    2.625    0.000    7.500 
#    0.000    0.000    0.000    4.500    0.000    5.250 
#    0.000    0.000    0.000    0.000    0.000    0.000 
#
# Total GULP energy -793216.693731 kJ/mol
# GULP energy per Si atom -12394.010840 kJ/mol
# Density = 1.894796 g / cm^3
# Si number density = 18.991183 Si / 1000 Ang^3
#
#
#
# Elastic Constant Matrix: (Units=GPa)
#
#
# Indices 1 2 3 4 5 6 
#
# 1 61.5062 21.4566 21.4298 0.0000 0.0000 0.0000
# 2 21.4566 54.6344 30.2393 0.0000 0.0000 0.0000
# 3 21.4298 30.2393 64.5142 0.0000 0.0000 0.0000
# 4 0.0000 0.0000 0.0000 26.7959 0.0000 0.0000
# 5 0.0000 0.0000 0.0000 0.0000 27.9334 0.0000
# 6 0.0000 0.0000 0.0000 0.0000 0.0000 18.9646
#
#
#
# Elastic Compliance Matrix: (Units=1/GPa)
#
#
# Indices 1 2 3 4 5 6 
#
# 1 0.019543 -0.005512 -0.003908 0.000000 0.000000 0.000000
# 2 -0.005512 0.026270 -0.010482 0.000000 0.000000 0.000000
# 3 -0.003908 -0.010482 0.021712 0.000000 0.000000 0.000000
# 4 0.000000 0.000000 0.000000 0.037319 0.000000 0.000000
# 5 0.000000 0.000000 0.000000 0.000000 0.035799 0.000000
# 6 0.000000 0.000000 0.000000 0.000000 0.000000 0.052730
#
#
# Mechanical properties :
#
#
# Convention : Reuss Voigt Hill
#
# Bulk Modulus (GPa) = 36.07501 36.32289 36.19895
# Shear Modulus (GPa) = 20.62546 21.90738 21.26642
#
# Velocity S-wave (km/s) = 3.29911 3.40009 3.34998
# Velocity P-wave (km/s) = 5.79216 5.88063 5.83656
#
# Compressibility (1/GPa) = 0.02772002
#
# Stress axis : x y z
#
# Youngs Moduli (GPa) = 51.16908 38.06602 46.05757
#
# Poissons Ratio (x) = 0.20983 0.17999
# Poissons Ratio (y) = 0.28205 0.48280
# Poissons Ratio (z) = 0.19997 0.39903
#
# Static dielectric constant tensor:
#      x y z
#    x 3.467690 0.000000 0.000000 
#    y 0.000000 3.307540 0.000000 
#    z 0.000000 0.000000 3.705270 
# 
# 
# High freq. dielectric constant tensor:
#      x y z
#    x 1.730180 0.000000 0.000000 
#    y 0.000000 1.714380 0.000000 
#    z 0.000000 0.000000 1.740140 
# 
# From -- ./inp_files/10114.got.cif
#   From: 2010.06.25/outbox.cif.g09.slc.cpg/sg58_6_cif.got.tgz:10114.got - 2010.06.26 21:38:00.
