data_PCOD8235086
_publ_section_title
;
Structure prediction by ZEFSAII (Michael W. Deem and Ramdas Pophale) SiO2 
 PCOD8235086
Probable space group: P B C M
;
_chemical_formula_sum "Si O2"
_cell_formula_units_Z 36
_cell_length_a 8.649809
_cell_length_b 14.534233
_cell_length_c 14.426453
_cell_angle_alpha 90.000000
_cell_angle_beta 90.000000
_cell_angle_gamma 90.000000
_cell_volume 1813.669715
_symmetry_space_group_name_H-M "P B C M"
_symmetry_group_IT_number 57
_symmetry_cell_setting 'orthorhombic'
loop_
_space_group_symop_operation_xyz
x,y,z
-x,-y,1/2+z
x,1/2-y,-z
-x,1/2+y,1/2-z
-x,-y,-z
x,y,1/2-z
-x,1/2+y,z
x,1/2-y,1/2+z
loop_
_atom_site_type_symbol
_atom_site_label
_atom_site_fract_x
_atom_site_fract_y
_atom_site_fract_z
Si Si1 0.839270 0.249643 0.250000
Si Si2 0.861715 0.631957 0.750000
Si Si3 0.328225 0.679680 0.920232
Si Si4 0.154283 0.010269 0.058292
Si Si5 0.011104 0.057061 0.250000
Si Si6 0.314676 0.160841 0.939243
O O1 0.723018 0.260629 0.333864
O O2 0.966269 0.329227 0.250000
O O3 0.919213 0.151410 0.250000
O O4 0.776571 0.665705 0.657450
O O5 0.879691 0.521799 0.750000
O O6 0.227676 0.589028 0.930477
O O7 0.506645 0.652344 0.913572
O O8 0.291271 0.750000 0.000000
O O9 0.119983 0.052399 0.159487
O O10 0.271859 0.073684 0.001738
O O11 0.000000 0.000000 0.000000
O O12 0.274412 0.250000 0.000000
#
# Coordination Sequence:
#
# PCOD8235086 Si02
#       6
#     4   4   8   8   4   8
#     4  12  23  43  67  92 131 170 224 272 329 402
#     4  12  23  44  67  97 133 171 221 277 336 396
#     4  11  24  42  65  94 132 176 219 273 336 403
#     4  12  22  42  66  98 134 174 227 277 332 398
#     4  12  24  39  68 101 130 175 227 275 337 388
#     4  11  25  43  66  97 135 175 220 273 336 398
#
# _framework density 19.849259
#
# number of rings (size 3 to 8) (size 9 to 14) (size 15 to 20)
#    0.000    0.444    4.444    4.000    0.000    1.778 
#    0.000    1.111    0.000    0.000    0.000    0.000 
#    0.000    0.000    0.000    0.000    0.000    0.000 
#
# Total GULP energy -446515.122941 kJ/mol
# GULP energy per Si atom -12403.197859 kJ/mol
# Density = 1.980408 g / cm^3
# Si number density = 19.849259 Si / 1000 Ang^3
#
#
#
# Elastic Constant Matrix: (Units=GPa)
#
#
# Indices 1 2 3 4 5 6 
#
# 1 116.6847 62.8966 88.1649 0.0000 0.0000 0.0000
# 2 62.8966 87.3951 19.4121 0.0000 0.0000 0.0000
# 3 88.1649 19.4121 157.5542 0.0000 0.0000 0.0000
# 4 0.0000 0.0000 0.0000 74.9941 0.0000 0.0000
# 5 0.0000 0.0000 0.0000 0.0000 40.1404 0.0000
# 6 0.0000 0.0000 0.0000 0.0000 0.0000 42.4270
#
#
#
# Elastic Compliance Matrix: (Units=1/GPa)
#
#
# Indices 1 2 3 4 5 6 
#
# 1 0.028171 -0.017245 -0.013640 0.000000 0.000000 0.000000
# 2 -0.017245 0.022320 0.006900 0.000000 0.000000 0.000000
# 3 -0.013640 0.006900 0.013129 0.000000 0.000000 0.000000
# 4 0.000000 0.000000 0.000000 0.013334 0.000000 0.000000
# 5 0.000000 0.000000 0.000000 0.000000 0.024913 0.000000
# 6 0.000000 0.000000 0.000000 0.000000 0.000000 0.023570
#
#
# Mechanical properties :
#
#
# Convention : Reuss Voigt Hill
#
# Bulk Modulus (GPa) = 63.88877 78.06457 70.97667
# Shear Modulus (GPa) = 27.99165 44.25631 36.12398
#
# Velocity S-wave (km/s) = 3.75935 4.72701 4.27068
# Velocity P-wave (km/s) = 7.14846 8.31907 7.75588
#
# Compressibility (1/GPa) = 0.01565220
#
# Stress axis : x y z
#
# Youngs Moduli (GPa) = 35.49696 44.80188 76.16498
#
# Poissons Ratio (x) = 0.77260 1.03886
# Poissons Ratio (y) = 0.61214 -0.52553
# Poissons Ratio (z) = 0.48416 -0.30913
#
# Static dielectric constant tensor:
#      x y z
#    x 3.720270 0.000000 0.000000 
#    y 0.000000 3.795100 0.000000 
#    z 0.000000 0.000000 3.901310 
# 
# 
# High freq. dielectric constant tensor:
#      x y z
#    x 1.780940 0.000000 0.000000 
#    y 0.000000 1.788950 0.000000 
#    z 0.000000 0.000000 1.799860 
# 
# From -- ./inp_files/15850.got.cif
#   From: 2010.03.12/outbox.cif.g09.slc.cpg/sg57_8_cif.got.tgz:15850.got - 2010.04.16 15:48:40.
