data_PCOD8235482
_publ_section_title
;
Structure prediction by ZEFSAII (Michael W. Deem and Ramdas Pophale) SiO2 
 PCOD8235482
Probable space group: P N N M
;
_chemical_formula_sum "Si O2"
_cell_formula_units_Z 64
_cell_length_a 19.015111
_cell_length_b 23.172481
_cell_length_c 8.789892
_cell_angle_alpha 90.000000
_cell_angle_beta 90.000000
_cell_angle_gamma 90.000000
_cell_volume 3873.066365
_symmetry_space_group_name_H-M "P N N M"
_symmetry_group_IT_number 58
_symmetry_cell_setting 'orthorhombic'
loop_
_space_group_symop_operation_xyz
x,y,z
-x,-y,z
1/2+x,1/2-y,1/2-z
1/2-x,1/2+y,1/2-z
-x,-y,-z
x,y,-z
1/2-x,1/2+y,1/2+z
1/2+x,1/2-y,1/2+z
loop_
_atom_site_type_symbol
_atom_site_label
_atom_site_fract_x
_atom_site_fract_y
_atom_site_fract_z
Si Si1 0.837630 0.758352 0.822612
Si Si2 0.245079 0.345129 0.320798
Si Si3 0.004944 0.251784 0.822792
Si Si4 0.869840 0.439477 0.319873
Si Si5 0.496691 0.885524 0.322216
Si Si6 0.846890 0.561735 0.821503
Si Si7 0.291411 0.171238 0.822772
Si Si8 0.631158 0.715854 0.820324
O O1 0.808873 0.704552 0.728962
O O2 0.917767 0.771251 0.776987
O O3 0.790929 0.815616 0.788554
O O4 0.832360 0.740583 0.000000
O O5 0.250901 0.346466 0.500000
O O6 0.217000 0.406236 0.261612
O O7 0.323007 0.335409 0.252431
O O8 0.997825 0.318635 0.776658
O O9 0.949897 0.212517 0.730631
O O10 0.990584 0.243228 0.000000
O O11 0.864482 0.448919 0.500000
O O12 0.846830 0.496431 0.233778
O O13 0.816759 0.389825 0.255876
O O14 0.949087 0.422255 0.277203
O O15 0.512280 0.895630 0.500000
O O16 0.419747 0.907562 0.277593
O O17 0.833620 0.564024 0.000000
O O18 0.337736 0.223710 0.755796
O O19 0.306908 0.168966 0.000000
O O20 0.637512 0.710739 0.000000
#
# Coordination Sequence:
#
# PCOD8235482 Si02
#       8
#     8   8   8   8   8   8   8   8
#     4   9  17  33  52  71  99 135 165 200 250 304
#     4  11  21  33  50  74  98 126 166 213 250 292
#     4  10  18  30  50  75 100 130 168 204 241 292
#     4  11  21  33  48  72  99 131 174 216 246 286
#     4  10  20  33  47  67  99 136 172 205 241 292
#     4  11  22  37  51  67  95 138 175 206 252 302
#     4   8  16  30  48  68  94 128 164 199 243 291
#     4  10  19  33  51  71  99 133 163 200 252 302
#
# _framework density 16.524374000000002
#
# number of rings (size 3 to 8) (size 9 to 14) (size 15 to 20)
#    0.000    2.000    2.500    3.375    0.000    3.000 
#    0.000    0.625    0.000    0.000    0.000    0.875 
#    0.000    7.000    0.000    0.000    0.000    0.000 
#
# Total GULP energy -793603.357974 kJ/mol
# GULP energy per Si atom -12400.052468 kJ/mol
# Density = 1.648676 g / cm^3
# Si number density = 16.524374 Si / 1000 Ang^3
#
#
#
# Elastic Constant Matrix: (Units=GPa)
#
#
# Indices 1 2 3 4 5 6 
#
# 1 92.7847 29.1586 31.7339 0.0000 0.0000 0.0000
# 2 29.1586 49.7387 19.5483 0.0000 0.0000 0.0000
# 3 31.7339 19.5483 63.7520 0.0000 0.0000 0.0000
# 4 0.0000 0.0000 0.0000 19.8320 0.0000 0.0000
# 5 0.0000 0.0000 0.0000 0.0000 26.0120 0.0000
# 6 0.0000 0.0000 0.0000 0.0000 0.0000 24.0009
#
#
#
# Elastic Compliance Matrix: (Units=1/GPa)
#
#
# Indices 1 2 3 4 5 6 
#
# 1 0.014628 -0.006497 -0.005289 0.000000 0.000000 0.000000
# 2 -0.006497 0.025745 -0.004660 0.000000 0.000000 0.000000
# 3 -0.005289 -0.004660 0.019748 0.000000 0.000000 0.000000
# 4 0.000000 0.000000 0.000000 0.050423 0.000000 0.000000
# 5 0.000000 0.000000 0.000000 0.000000 0.038444 0.000000
# 6 0.000000 0.000000 0.000000 0.000000 0.000000 0.041665
#
#
# Mechanical properties :
#
#
# Convention : Reuss Voigt Hill
#
# Bulk Modulus (GPa) = 36.72671 40.79523 38.76097
# Shear Modulus (GPa) = 21.49397 22.35796 21.92597
#
# Velocity S-wave (km/s) = 3.61050 3.68234 3.64660
# Velocity P-wave (km/s) = 6.29722 6.54378 6.42168
#
# Compressibility (1/GPa) = 0.02722814
#
# Stress axis : x y z
#
# Youngs Moduli (GPa) = 68.36006 38.84199 50.63866
#
# Poissons Ratio (x) = 0.25235 0.26785
# Poissons Ratio (y) = 0.44412 0.23600
# Poissons Ratio (z) = 0.36159 0.18102
#
# Static dielectric constant tensor:
#      x y z
#    x 3.262680 0.000000 0.000000 
#    y 0.000000 3.058270 0.000000 
#    z 0.000000 0.000000 3.016910 
# 
# 
# High freq. dielectric constant tensor:
#      x y z
#    x 1.634450 0.000000 0.000000 
#    y 0.000000 1.609730 0.000000 
#    z 0.000000 0.000000 1.634010 
# 
# From -- ./inp_files/8505.got.cif
#   From: 2010.06.25/outbox.cif.g09.slc.cpg/sg58_5_cif.got.tgz:8505.got - 2010.06.26 21:38:00.
