data_PCOD8235528
_publ_section_title
;
Structure prediction by ZEFSAII (Michael W. Deem and Ramdas Pophale) SiO2 
 PCOD8235528
Probable space group: P N N M
;
_chemical_formula_sum "Si O2"
_cell_formula_units_Z 64
_cell_length_a 17.519507
_cell_length_b 8.745109
_cell_length_c 23.914900
_cell_angle_alpha 90.000000
_cell_angle_beta 90.000000
_cell_angle_gamma 90.000000
_cell_volume 3664.001789
_symmetry_space_group_name_H-M "P N N M"
_symmetry_group_IT_number 58
_symmetry_cell_setting 'orthorhombic'
loop_
_space_group_symop_operation_xyz
x,y,z
-x,-y,z
1/2+x,1/2-y,1/2-z
1/2-x,1/2+y,1/2-z
-x,-y,-z
x,y,-z
1/2-x,1/2+y,1/2+z
1/2+x,1/2-y,1/2+z
loop_
_atom_site_type_symbol
_atom_site_label
_atom_site_fract_x
_atom_site_fract_y
_atom_site_fract_z
Si Si1 0.632167 0.147068 0.132747
Si Si2 0.466513 0.842748 0.242945
Si Si3 0.223902 0.831778 0.350336
Si Si4 0.341531 0.645700 0.290542
Si Si5 0.242165 0.656260 0.181343
Si Si6 0.871071 0.337283 0.564524
Si Si7 0.880948 0.175398 0.758530
Si Si8 0.024542 0.161810 0.436270
O O1 0.573782 0.122893 0.183796
O O2 0.716883 0.200906 0.150353
O O3 0.599575 0.282690 0.094954
O O4 0.640641 0.992318 0.098408
O O5 0.403957 0.778949 0.285374
O O6 0.534254 0.719205 0.238971
O O7 0.500000 0.000000 0.267083
O O8 0.288051 0.699496 0.341748
O O9 0.181031 0.794581 0.408128
O O10 0.166105 0.833032 0.298593
O O11 0.260840 0.001167 0.355457
O O12 0.290591 0.625140 0.236177
O O13 0.382314 0.480905 0.295362
O O14 0.156327 0.699967 0.199529
O O15 0.846973 0.359507 0.500000
O O16 0.959089 0.289143 0.568855
O O17 0.048312 0.133683 0.500000
O O18 0.000000 0.000000 0.409201
#
# Coordination Sequence:
#
# PCOD8235528 Si02
#       8
#     8   8   8   8   8   8   8   8
#     4  11  20  32  47  67  94 129 165 199 241 282
#     4  11  20  29  45  69  97 127 159 191 233 288
#     4  10  18  33  50  67  95 128 160 198 248 290
#     4   9  19  31  47  70  96 126 158 197 240 292
#     4   9  19  31  49  71  94 126 161 198 240 294
#     4  11  22  34  49  69  95 130 173 215 249 285
#     4  10  18  31  48  70  98 126 159 195 238 294
#     4  10  20  32  45  63  89 122 163 207 243 276
#
# _framework density 17.467241000000001
#
# number of rings (size 3 to 8) (size 9 to 14) (size 15 to 20)
#    0.000    1.875    0.000    5.625    0.000    7.000 
#    0.000    0.625    0.000    0.000    0.000    0.000 
#    0.000   13.500    0.000    0.000    0.000    0.125 
#
# Total GULP energy -793403.568468 kJ/mol
# GULP energy per Si atom -12396.930757 kJ/mol
# Density = 1.742748 g / cm^3
# Si number density = 17.467241 Si / 1000 Ang^3
#
#
#
# Elastic Constant Matrix: (Units=GPa)
#
#
# Indices 1 2 3 4 5 6 
#
# 1 50.9749 6.4891 25.8804 0.0000 0.0000 0.0000
# 2 6.4891 76.1469 14.4012 0.0000 0.0000 0.0000
# 3 25.8804 14.4012 52.3392 0.0000 0.0000 0.0000
# 4 0.0000 0.0000 0.0000 -49.2189 0.0000 0.0000
# 5 0.0000 0.0000 0.0000 0.0000 15.1831 0.0000
# 6 0.0000 0.0000 0.0000 0.0000 0.0000 16.9386
#
#
#
# Elastic Compliance Matrix: (Units=1/GPa)
#
#
# Indices 1 2 3 4 5 6 
#
# 1 0.026197 0.000229 -0.013017 0.000000 0.000000 0.000000
# 2 0.000229 0.013855 -0.003926 0.000000 0.000000 0.000000
# 3 -0.013017 -0.003926 0.026623 0.000000 0.000000 0.000000
# 4 0.000000 0.000000 0.000000 -0.020317 0.000000 0.000000
# 5 0.000000 0.000000 0.000000 0.000000 0.065863 0.000000
# 6 0.000000 0.000000 0.000000 0.000000 0.000000 0.059037
#
#
# Mechanical properties :
#
#
# Convention : Reuss Voigt Hill
#
# Bulk Modulus (GPa) = 30.07632 30.33361 30.20497
# Shear Modulus (GPa) = 23.17318 5.42659 14.29989
#
# Velocity S-wave (km/s) = 3.64629 1.76450 2.86434
# Velocity P-wave (km/s) = 5.91467 4.64274 5.31688
#
# Compressibility (1/GPa) = 0.03324874
#
# Stress axis : x y z
#
# Youngs Moduli (GPa) = 38.17222 72.17395 37.56181
#
# Poissons Ratio (x) = -0.01655 0.48894
# Poissons Ratio (y) = -0.00875 0.14746
# Poissons Ratio (z) = 0.49688 0.28334
#
# Static dielectric constant tensor:
#      x y z
#    x 3.244290 0.000000 0.000000 
#    y 0.000000 3.528250 0.000000 
#    z 0.000000 0.000000 2.992170 
# 
# 
# High freq. dielectric constant tensor:
#      x y z
#    x 1.659970 0.000000 0.000000 
#    y 0.000000 1.699840 0.000000 
#    z 0.000000 0.000000 1.627010 
# 
# From -- ./inp_files/31673.got.cif
#   From: 2010.06.25/outbox.cif.g09.slc.cpg/sg58_16_cif.got.tgz:31673.got - 2010.06.26 21:38:00.
