data_PCOD8235180
_publ_section_title
;
Structure prediction by ZEFSAII (Michael W. Deem and Ramdas Pophale) SiO2 
 PCOD8235180
Probable space group: P B C M
;
_chemical_formula_sum "Si O2"
_cell_formula_units_Z 64
_cell_length_a 24.458880
_cell_length_b 9.177360
_cell_length_c 15.145605
_cell_angle_alpha 90.000000
_cell_angle_beta 90.000000
_cell_angle_gamma 90.000000
_cell_volume 3399.702860
_symmetry_space_group_name_H-M "P B C M"
_symmetry_group_IT_number 57
_symmetry_cell_setting 'orthorhombic'
loop_
_space_group_symop_operation_xyz
x,y,z
-x,-y,1/2+z
x,1/2-y,-z
-x,1/2+y,1/2-z
-x,-y,-z
x,y,1/2-z
-x,1/2+y,z
x,1/2-y,1/2+z
loop_
_atom_site_type_symbol
_atom_site_label
_atom_site_fract_x
_atom_site_fract_y
_atom_site_fract_z
Si Si1 0.444730 0.920681 0.149666
Si Si2 0.757616 0.077656 0.999999
Si Si3 0.839644 0.079214 0.648830
Si Si4 0.555271 0.420686 0.850334
Si Si5 0.160357 0.920792 0.648830
Si Si6 0.636141 0.422926 0.499999
Si Si7 0.947941 0.586131 0.354858
Si Si8 0.947940 0.913863 0.354857
O O1 0.428619 0.960071 0.250000
O O2 0.455046 0.749997 0.137485
O O3 0.500001 0.999996 0.120489
O O4 0.395714 0.976234 0.087405
O O5 0.789279 0.027073 0.911778
O O6 0.752575 0.250000 0.000000
O O7 0.789278 0.027070 0.088221
O O8 0.696940 0.007772 0.999998
O O9 0.825059 0.040392 0.750000
O O10 0.851676 0.250003 0.637775
O O11 0.893068 0.995048 0.614903
O O12 0.571382 0.460075 0.750000
O O13 0.604287 0.476236 0.912595
O O14 0.174944 0.959611 0.750000
O O15 0.106934 0.004961 0.614905
O O16 0.640416 0.250000 0.500000
O O17 0.951469 0.588667 0.250000
O O18 0.947823 0.749997 0.392970
O O19 0.000001 0.499999 0.394044
O O20 0.951470 0.911326 0.250000
#
# Coordination Sequence:
#
# PCOD8235180 Si02
#       8
#     8   8   8   8   8   8   8   8
#     4   9  17  29  47  71  97 124 154 189 230 275
#     4   9  18  31  47  69  94 120 156 197 230 267
#     4   9  17  30  48  68  91 120 152 188 231 276
#     4   9  17  29  47  71  97 124 154 189 230 275
#     4   9  17  30  48  68  91 120 152 188 231 276
#     4   9  17  29  46  69  95 122 155 195 232 267
#     4   9  16  27  46  71  96 121 151 189 233 281
#     4   9  16  27  46  71  96 121 151 189 233 281
#
# _framework density 18.825174000000001
#
# number of rings (size 3 to 8) (size 9 to 14) (size 15 to 20)
#    0.000    3.000    0.000    1.125    0.000    4.000 
#    0.000    6.250    0.000    3.000    0.000    7.000 
#    0.000    0.000    0.000    0.000    0.000    0.000 
#
# Total GULP energy -793490.436333 kJ/mol
# GULP energy per Si atom -12398.288068 kJ/mol
# Density = 1.878233 g / cm^3
# Si number density = 18.825174 Si / 1000 Ang^3
#
#
#
# Elastic Constant Matrix: (Units=GPa)
#
#
# Indices 1 2 3 4 5 6 
#
# 1 203.0774 52.0546 87.5367 0.0000 0.0000 0.0000
# 2 52.0546 57.1490 26.1828 0.0000 0.0000 0.0000
# 3 87.5367 26.1828 102.0858 0.0000 0.0000 0.0000
# 4 0.0000 0.0000 0.0000 9.5831 0.0000 0.0000
# 5 0.0000 0.0000 0.0000 0.0000 0.9779 0.0000
# 6 0.0000 0.0000 0.0000 0.0000 0.0000 23.9574
#
#
#
# Elastic Compliance Matrix: (Units=1/GPa)
#
#
# Indices 1 2 3 4 5 6 
#
# 1 0.009038 -0.005305 -0.006390 0.000000 0.000000 0.000000
# 2 -0.005305 0.022942 -0.001335 0.000000 0.000000 0.000000
# 3 -0.006390 -0.001335 0.015617 0.000000 0.000000 0.000000
# 4 0.000000 0.000000 0.000000 0.104351 0.000000 0.000000
# 5 0.000000 0.000000 0.000000 0.000000 1.022596 0.000000
# 6 0.000000 0.000000 0.000000 0.000000 0.000000 0.041741
#
#
# Mechanical properties :
#
#
# Convention : Reuss Voigt Hill
#
# Bulk Modulus (GPa) = 46.42993 77.09562 61.76278
# Shear Modulus (GPa) = 4.00152 20.00621 12.00387
#
# Velocity S-wave (km/s) = 1.45953 3.26350 2.52791
# Velocity P-wave (km/s) = 5.24953 7.43256 6.43431
#
# Compressibility (1/GPa) = 0.02153783
#
# Stress axis : x y z
#
# Youngs Moduli (GPa) = 110.63997 43.58805 64.03297
#
# Poissons Ratio (x) = 0.23125 0.40914
# Poissons Ratio (y) = 0.58697 0.08548
# Poissons Ratio (z) = 0.70693 0.05819
#
# Static dielectric constant tensor:
#      x y z
#    x 3.689940 0.000000 0.000000 
#    y 0.000000 3.245070 0.000000 
#    z 0.000000 0.000000 3.437850 
# 
# 
# High freq. dielectric constant tensor:
#      x y z
#    x 1.728960 0.000000 0.000000 
#    y 0.000000 1.699050 0.000000 
#    z 0.000000 0.000000 1.730560 
# 
# From -- ./inp_files/19498.got.cif
#   From: 2010.03.12/outbox.cif.g09.slc.cpg/sg57_10_cif.got.tgz:19498.got - 2010.04.16 15:48:40.
