data_PCOD8235372
_publ_section_title
;
Structure prediction by ZEFSAII (Michael W. Deem and Ramdas Pophale) SiO2 
 PCOD8235372
Probable space group: P N N M
;
_chemical_formula_sum "Si O2"
_cell_formula_units_Z 64
_cell_length_a 10.334594
_cell_length_b 32.641616
_cell_length_c 9.003603
_cell_angle_alpha 90.000000
_cell_angle_beta 90.000000
_cell_angle_gamma 90.000000
_cell_volume 3037.256068
_symmetry_space_group_name_H-M "P N N M"
_symmetry_group_IT_number 58
_symmetry_cell_setting 'orthorhombic'
loop_
_space_group_symop_operation_xyz
x,y,z
-x,-y,z
1/2+x,1/2-y,1/2-z
1/2-x,1/2+y,1/2-z
-x,-y,-z
x,y,-z
1/2-x,1/2+y,1/2+z
1/2+x,1/2-y,1/2+z
loop_
_atom_site_type_symbol
_atom_site_label
_atom_site_fract_x
_atom_site_fract_y
_atom_site_fract_z
Si Si1 0.492261 0.546413 0.673955
Si Si2 0.091746 0.787199 0.674982
Si Si3 0.018644 0.876536 0.674075
Si Si4 0.755065 0.856495 0.170215
Si Si5 0.170226 0.234889 0.831724
Si Si6 0.612397 0.033975 0.166992
Si Si7 0.739660 0.471952 0.163566
Si Si8 0.952569 0.406491 0.164876
O O1 0.500000 0.500000 0.740792
O O2 0.513453 0.546796 0.500000
O O3 0.579899 0.582612 0.746997
O O4 0.346297 0.556793 0.727805
O O5 0.079193 0.780676 0.500000
O O6 0.098133 0.835585 0.716156
O O7 0.964544 0.765577 0.742900
O O8 0.226399 0.767797 0.734256
O O9 0.014940 0.884332 0.500000
O O10 0.873494 0.871537 0.731415
O O11 0.752635 0.807597 0.174403
O O12 0.620965 0.871502 0.243090
O O13 0.768088 0.872475 0.000000
O O14 0.133306 0.246369 0.000000
O O15 0.575905 0.077496 0.242031
O O16 0.500000 0.000000 0.164248
O O17 0.735193 0.015821 0.256651
O O18 0.659318 0.043245 0.000000
O O19 0.871380 0.447668 0.143422
O O20 0.677665 0.479346 0.000000
O O21 0.991748 0.389945 0.000000
#
# Coordination Sequence:
#
# PCOD8235372 Si02
#       8
#     8   8   8   8   8   8   8   8
#     4  11  23  36  52  74 101 134 178 229 274 324
#     4   9  19  36  59  87 120 152 191 238 288 347
#     4  10  19  33  54  79 104 137 176 224 281 334
#     4  10  18  29  50  77 106 138 175 223 273 327
#     4   9  19  35  56  86 119 152 192 235 286 344
#     4   9  17  28  44  66  93 127 164 203 254 312
#     4  10  19  31  48  69  96 128 166 216 267 319
#     4  10  18  28  45  71 101 131 169 214 261 315
#
# _framework density 21.071652
#
# number of rings (size 3 to 8) (size 9 to 14) (size 15 to 20)
#    0.000    2.250    1.250    2.250    0.000    5.000 
#    0.000    0.000    2.750    0.000    0.000    0.000 
#    0.000    0.000    0.000    0.000    0.000    0.000 
#
# Total GULP energy -793032.070292 kJ/mol
# GULP energy per Si atom -12391.126098 kJ/mol
# Density = 2.102369 g / cm^3
# Si number density = 21.071652 Si / 1000 Ang^3
#
#
#
# Elastic Constant Matrix: (Units=GPa)
#
#
# Indices 1 2 3 4 5 6 
#
# 1 29.6023 23.6991 14.8016 0.0000 0.0000 0.0000
# 2 23.6991 106.7317 34.1140 0.0000 0.0000 0.0000
# 3 14.8016 34.1140 87.1385 0.0000 0.0000 0.0000
# 4 0.0000 0.0000 0.0000 29.1972 0.0000 0.0000
# 5 0.0000 0.0000 0.0000 0.0000 17.6942 0.0000
# 6 0.0000 0.0000 0.0000 0.0000 0.0000 33.2025
#
#
#
# Elastic Compliance Matrix: (Units=1/GPa)
#
#
# Indices 1 2 3 4 5 6 
#
# 1 0.042274 -0.008106 -0.004007 0.000000 0.000000 0.000000
# 2 -0.008106 0.012264 -0.003424 0.000000 0.000000 0.000000
# 3 -0.004007 -0.003424 0.013497 0.000000 0.000000 0.000000
# 4 0.000000 0.000000 0.000000 0.034250 0.000000 0.000000
# 5 0.000000 0.000000 0.000000 0.000000 0.056516 0.000000
# 6 0.000000 0.000000 0.000000 0.000000 0.000000 0.030118
#
#
# Mechanical properties :
#
#
# Convention : Reuss Voigt Hill
#
# Bulk Modulus (GPa) = 27.05620 40.96687 34.01153
# Shear Modulus (GPa) = 21.52261 26.07598 23.79929
#
# Velocity S-wave (km/s) = 3.19940 3.52162 3.36437
# Velocity P-wave (km/s) = 5.14939 6.00163 5.59177
#
# Compressibility (1/GPa) = 0.03696011
#
# Stress axis : x y z
#
# Youngs Moduli (GPa) = 23.65505 81.54219 74.08912
#
# Poissons Ratio (x) = 0.66097 0.29691
# Poissons Ratio (y) = 0.19174 0.25370
# Poissons Ratio (z) = 0.09480 0.27922
#
# Static dielectric constant tensor:
#      x y z
#    x 3.523250 0.000000 0.000000 
#    y 0.000000 4.047870 0.000000 
#    z 0.000000 0.000000 3.945790 
# 
# 
# High freq. dielectric constant tensor:
#      x y z
#    x 1.794950 0.000000 0.000000 
#    y 0.000000 1.821880 0.000000 
#    z 0.000000 0.000000 1.831830 
# 
# From -- ./inp_files/4737.got.cif
#   From: 2010.06.25/outbox.cif.g09.slc.cpg/sg58_3_cif.got.tgz:4737.got - 2010.06.26 21:38:00.
