data_PCOD8235778
_publ_section_title
;
Structure prediction by ZEFSAII (Michael W. Deem and Ramdas Pophale) SiO2 
 PCOD8235778
Probable space group: P N N M
;
_chemical_formula_sum "Si O2"
_cell_formula_units_Z 64
_cell_length_a 18.759765
_cell_length_b 19.978830
_cell_length_c 8.993801
_cell_angle_alpha 90.000000
_cell_angle_beta 90.000000
_cell_angle_gamma 90.000000
_cell_volume 3370.860028
_symmetry_space_group_name_H-M "P N N M"
_symmetry_group_IT_number 58
_symmetry_cell_setting 'orthorhombic'
loop_
_space_group_symop_operation_xyz
x,y,z
-x,-y,z
1/2+x,1/2-y,1/2-z
1/2-x,1/2+y,1/2-z
-x,-y,-z
x,y,-z
1/2-x,1/2+y,1/2+z
1/2+x,1/2-y,1/2+z
loop_
_atom_site_type_symbol
_atom_site_label
_atom_site_fract_x
_atom_site_fract_y
_atom_site_fract_z
Si Si1 0.299382 0.088210 0.172294
Si Si2 0.039201 0.566913 0.328023
Si Si3 0.962261 0.204631 0.323653
Si Si4 0.188393 0.738595 0.323179
Si Si5 0.543689 0.182747 0.323697
Si Si6 0.714276 0.523784 0.176614
Si Si7 0.056049 0.946269 0.676624
Si Si8 0.201873 0.347492 0.176784
O O1 0.377115 0.056313 0.198118
O O2 0.298213 0.163719 0.235594
O O3 0.241047 0.046779 0.262083
O O4 0.278320 0.086861 0.000000
O O5 0.022487 0.583055 0.500000
O O6 0.000000 0.500000 0.273663
O O7 0.013533 0.628864 0.230529
O O8 0.969991 0.212122 0.500000
O O9 0.887383 0.234382 0.265881
O O10 0.967633 0.127619 0.272218
O O11 0.025863 0.244874 0.244719
O O12 0.186960 0.739070 0.500000
O O13 0.250655 0.786323 0.260850
O O14 0.541682 0.187695 0.500000
O O15 0.621517 0.160813 0.264968
O O16 0.634762 0.537017 0.237703
O O17 0.765736 0.582812 0.236373
O O18 0.714895 0.521233 0.000000
O O19 0.057733 0.949472 0.500000
O O20 0.000000 0.000000 0.741837
O O21 0.204489 0.346873 0.000000
#
# Coordination Sequence:
#
# PCOD8235778 Si02
#       8
#     8   8   8   8   8   8   8   8
#     4  10  20  33  52  78 106 138 178 219 261 314
#     4  10  20  35  54  76 106 145 187 223 262 323
#     4  10  18  35  60  78 103 146 188 222 267 330
#     4   9  16  32  56  74  95 140 191 216 246 319
#     4  11  22  33  51  81 113 137 175 231 279 322
#     4  10  19  34  56  79 108 143 180 219 267 325
#     4   9  18  33  58  88 110 137 183 234 276 322
#     4   9  18  33  53  77 102 140 183 215 257 324
#
# _framework density 18.986253000000001
#
# number of rings (size 3 to 8) (size 9 to 14) (size 15 to 20)
#    0.000    2.250    2.500    1.125    0.000    1.750 
#    0.000    1.250    0.000    3.750    0.000    0.000 
#    0.000    0.000    0.000    0.000    0.000    0.000 
#
# Total GULP energy -793686.390663 kJ/mol
# GULP energy per Si atom -12401.349854 kJ/mol
# Density = 1.894304 g / cm^3
# Si number density = 18.986253 Si / 1000 Ang^3
#
#
#
# Elastic Constant Matrix: (Units=GPa)
#
#
# Indices 1 2 3 4 5 6 
#
# 1 114.5635 63.9074 25.7142 0.0000 0.0000 0.0000
# 2 63.9074 160.3807 26.8724 0.0000 0.0000 0.0000
# 3 25.7142 26.8724 28.1160 0.0000 0.0000 0.0000
# 4 0.0000 0.0000 0.0000 25.4883 0.0000 0.0000
# 5 0.0000 0.0000 0.0000 0.0000 16.0227 0.0000
# 6 0.0000 0.0000 0.0000 0.0000 0.0000 43.6078
#
#
#
# Elastic Compliance Matrix: (Units=1/GPa)
#
#
# Indices 1 2 3 4 5 6 
#
# 1 0.012569 -0.003670 -0.007987 0.000000 0.000000 0.000000
# 2 -0.003670 0.008496 -0.004763 0.000000 0.000000 0.000000
# 3 -0.007987 -0.004763 0.047425 0.000000 0.000000 0.000000
# 4 0.000000 0.000000 0.000000 0.039234 0.000000 0.000000
# 5 0.000000 0.000000 0.000000 0.000000 0.062412 0.000000
# 6 0.000000 0.000000 0.000000 0.000000 0.000000 0.022932
#
#
# Mechanical properties :
#
#
# Convention : Reuss Voigt Hill
#
# Bulk Modulus (GPa) = 28.05245 59.56091 43.80668
# Shear Modulus (GPa) = 21.02692 29.46151 25.24422
#
# Velocity S-wave (km/s) = 3.33149 3.94347 3.65033
# Velocity P-wave (km/s) = 5.44111 7.22311 6.39449
#
# Compressibility (1/GPa) = 0.03564751
#
# Stress axis : x y z
#
# Youngs Moduli (GPa) = 79.56177 117.70657 21.08604
#
# Poissons Ratio (x) = 0.43199 0.16842
# Poissons Ratio (y) = 0.29199 0.10044
# Poissons Ratio (z) = 0.63549 0.56069
#
# Static dielectric constant tensor:
#      x y z
#    x 3.622230 0.000000 0.000000 
#    y 0.000000 3.691620 0.000000 
#    z 0.000000 0.000000 2.971590 
# 
# 
# High freq. dielectric constant tensor:
#      x y z
#    x 1.743390 0.000000 0.000000 
#    y 0.000000 1.752580 0.000000 
#    z 0.000000 0.000000 1.688640 
# 
# From -- ./inp_files/8290.got.cif
#   From: 2010.06.25/outbox.cif.g09.slc.cpg/sg58_5_cif.got.tgz:8290.got - 2010.06.26 21:38:00.
