data_PCOD8235361
_publ_section_title
;
Structure prediction by ZEFSAII (Michael W. Deem and Ramdas Pophale) SiO2 
 PCOD8235361
Probable space group: P N N M
;
_chemical_formula_sum "Si O2"
_cell_formula_units_Z 40
_cell_length_a 14.996003
_cell_length_b 19.091383
_cell_length_c 8.881178
_cell_angle_alpha 90.000000
_cell_angle_beta 90.000000
_cell_angle_gamma 90.000000
_cell_volume 2542.631853
_symmetry_space_group_name_H-M "P N N M"
_symmetry_group_IT_number 58
_symmetry_cell_setting 'orthorhombic'
loop_
_space_group_symop_operation_xyz
x,y,z
-x,-y,z
1/2+x,1/2-y,1/2-z
1/2-x,1/2+y,1/2-z
-x,-y,-z
x,y,-z
1/2-x,1/2+y,1/2+z
1/2+x,1/2-y,1/2+z
loop_
_atom_site_type_symbol
_atom_site_label
_atom_site_fract_x
_atom_site_fract_y
_atom_site_fract_z
Si Si1 0.983447 0.222138 0.669489
Si Si2 0.899743 0.986918 0.823865
Si Si3 0.153095 0.170228 0.822863
Si Si4 0.812347 0.253805 0.178477
Si Si5 0.337521 0.382249 0.168440
O O1 0.999650 0.250559 0.500000
O O2 0.911556 0.271534 0.756665
O O3 0.940921 0.143848 0.664420
O O4 0.075919 0.220631 0.759072
O O5 0.833183 0.041398 0.742962
O O6 0.868072 0.909620 0.781454
O O7 0.893500 0.001688 0.000000
O O8 0.000000 0.000000 0.766653
O O9 0.245576 0.188543 0.743307
O O10 0.160671 0.182407 0.000000
O O11 0.782243 0.175810 0.235114
O O12 0.813345 0.256431 0.000000
O O13 0.297402 0.385917 0.000000
#
# Coordination Sequence:
#
# PCOD8235361 Si02
#       5
#     8   8   8   8   8
#     4   9  18  31  46  67  94 124 158 197 237 277
#     4  10  18  28  44  68  97 128 156 187 237 291
#     4  11  20  30  48  73 100 129 162 196 236 288
#     4  10  19  32  47  65  94 128 164 199 236 283
#     4   9  18  30  45  63  92 124 155 193 233 278
#
# _framework density 15.731731
#
# number of rings (size 3 to 8) (size 9 to 14) (size 15 to 20)
#    1.200    1.000    2.000    3.000    0.000    2.000 
#    0.000    0.000    0.000    0.000    0.000    1.400 
#    0.000   11.200    0.000    0.000    0.000    0.000 
#
# Total GULP energy -495674.460347 kJ/mol
# GULP energy per Si atom -12391.861509 kJ/mol
# Density = 1.569593 g / cm^3
# Si number density = 15.731731 Si / 1000 Ang^3
#
#
#
# Elastic Constant Matrix: (Units=GPa)
#
#
# Indices 1 2 3 4 5 6 
#
# 1 13.1543 11.3540 9.3578 0.0000 0.0000 0.0000
# 2 11.3540 52.4997 31.3345 0.0000 0.0000 0.0000
# 3 9.3578 31.3345 100.0319 0.0000 0.0000 0.0000
# 4 0.0000 0.0000 0.0000 25.8459 0.0000 0.0000
# 5 0.0000 0.0000 0.0000 0.0000 27.1105 0.0000
# 6 0.0000 0.0000 0.0000 0.0000 0.0000 25.8387
#
#
#
# Elastic Compliance Matrix: (Units=1/GPa)
#
#
# Indices 1 2 3 4 5 6 
#
# 1 0.094190 -0.018586 -0.002989 0.000000 0.000000 0.000000
# 2 -0.018586 0.027095 -0.006749 0.000000 0.000000 0.000000
# 3 -0.002989 -0.006749 0.012390 0.000000 0.000000 0.000000
# 4 0.000000 0.000000 0.000000 0.038691 0.000000 0.000000
# 5 0.000000 0.000000 0.000000 0.000000 0.036886 0.000000
# 6 0.000000 0.000000 0.000000 0.000000 0.000000 0.038702
#
#
# Mechanical properties :
#
#
# Convention : Reuss Voigt Hill
#
# Bulk Modulus (GPa) = 12.98241 29.97536 21.47889
# Shear Modulus (GPa) = 15.13878 23.33500 19.23689
#
# Velocity S-wave (km/s) = 3.10547 3.85555 3.50066
# Velocity P-wave (km/s) = 4.59662 6.23825 5.47927
#
# Compressibility (1/GPa) = 0.07702731
#
# Stress axis : x y z
#
# Youngs Moduli (GPa) = 10.61689 36.90680 80.70714
#
# Poissons Ratio (x) = 0.68595 0.24125
# Poissons Ratio (y) = 0.19733 0.54468
# Poissons Ratio (z) = 0.03174 0.24908
#
# Static dielectric constant tensor:
#      x y z
#    x 2.714100 0.000000 0.000000 
#    y 0.000000 2.739160 0.000000 
#    z 0.000000 0.000000 3.034590 
# 
# 
# High freq. dielectric constant tensor:
#      x y z
#    x 1.570250 0.000000 0.000000 
#    y 0.000000 1.573050 0.000000 
#    z 0.000000 0.000000 1.622400 
# 
# From -- ./inp_files/5549.got.cif
#   From: 2010.06.25/outbox.cif.g09.slc.cpg/sg58_3_cif.got.tgz:5549.got - 2010.06.26 21:38:00.
