data_PCOD8235827
_publ_section_title
;
Structure prediction by ZEFSAII (Michael W. Deem and Ramdas Pophale) SiO2 
 PCOD8235827
Probable space group: P N N M
;
_chemical_formula_sum "Si O2"
_cell_formula_units_Z 64
_cell_length_a 17.900781
_cell_length_b 21.549425
_cell_length_c 9.005340
_cell_angle_alpha 90.000000
_cell_angle_beta 90.000000
_cell_angle_gamma 90.000000
_cell_volume 3473.823752
_symmetry_space_group_name_H-M "P N N M"
_symmetry_group_IT_number 58
_symmetry_cell_setting 'orthorhombic'
loop_
_space_group_symop_operation_xyz
x,y,z
-x,-y,z
1/2+x,1/2-y,1/2-z
1/2-x,1/2+y,1/2-z
-x,-y,-z
x,y,-z
1/2-x,1/2+y,1/2+z
1/2+x,1/2-y,1/2+z
loop_
_atom_site_type_symbol
_atom_site_label
_atom_site_fract_x
_atom_site_fract_y
_atom_site_fract_z
Si Si1 0.865549 0.656937 0.170691
Si Si2 0.072484 0.848067 0.328566
Si Si3 0.279803 0.383434 0.325020
Si Si4 0.927275 0.772790 0.671164
Si Si5 0.772523 0.480760 0.675656
Si Si6 0.027642 0.065469 0.159301
Si Si7 0.162247 0.103224 0.674504
Si Si8 0.081381 0.478254 0.828726
O O1 0.791110 0.654394 0.267769
O O2 0.914180 0.714931 0.223183
O O3 0.915049 0.595652 0.194026
O O4 0.842589 0.665489 0.000000
O O5 0.093644 0.852053 0.500000
O O6 0.149235 0.845865 0.237915
O O7 0.013195 0.792818 0.297005
O O8 0.030220 0.909355 0.278777
O O9 0.283304 0.378306 0.500000
O O10 0.272817 0.456215 0.277473
O O11 0.917953 0.753680 0.500000
O O12 0.866382 0.826775 0.709496
O O13 0.769470 0.470405 0.500000
O O14 0.741694 0.418433 0.757651
O O15 0.858033 0.487504 0.726572
O O16 0.106737 0.057662 0.239115
O O17 0.032943 0.103057 0.000000
O O18 0.000000 0.000000 0.109464
O O19 0.161591 0.090689 0.500000
O O20 0.000000 0.500000 0.775947
O O21 0.096422 0.496298 0.000000
#
# Coordination Sequence:
#
# PCOD8235827 Si02
#       8
#     8   8   8   8   8   8   8   8
#     4  10  20  35  58  82 102 134 177 217 262 317
#     4  10  20  33  50  73 101 135 177 218 256 307
#     4  10  20  34  53  77 106 138 172 216 268 316
#     4   9  20  37  53  73 105 143 178 216 264 313
#     4  10  20  33  52  80 110 139 173 216 266 316
#     4  10  19  29  43  67 100 135 169 207 253 301
#     4  10  20  33  50  72 101 139 176 210 253 305
#     4   9  19  37  59  82 107 134 169 216 269 324
#
# _framework density 18.423501999999999
#
# number of rings (size 3 to 8) (size 9 to 14) (size 15 to 20)
#    0.000    2.250    0.000    3.750    0.000    9.250 
#    0.000    1.250    0.000    4.500    0.000    0.000 
#    0.000    0.000    0.000    0.000    0.000    0.000 
#
# Total GULP energy -793119.753132 kJ/mol
# GULP energy per Si atom -12392.496143 kJ/mol
# Density = 1.838157 g / cm^3
# Si number density = 18.423502 Si / 1000 Ang^3
#
#
#
# Elastic Constant Matrix: (Units=GPa)
#
#
# Indices 1 2 3 4 5 6 
#
# 1 118.4652 47.1495 50.1403 0.0000 0.0000 0.0000
# 2 47.1495 65.2037 37.8443 0.0000 0.0000 0.0000
# 3 50.1403 37.8443 88.9919 0.0000 0.0000 0.0000
# 4 0.0000 0.0000 0.0000 28.0593 0.0000 0.0000
# 5 0.0000 0.0000 0.0000 0.0000 45.5241 0.0000
# 6 0.0000 0.0000 0.0000 0.0000 0.0000 21.6300
#
#
#
# Elastic Compliance Matrix: (Units=1/GPa)
#
#
# Indices 1 2 3 4 5 6 
#
# 1 0.013049 -0.006863 -0.004434 0.000000 0.000000 0.000000
# 2 -0.006863 0.023971 -0.006327 0.000000 0.000000 0.000000
# 3 -0.004434 -0.006327 0.016426 0.000000 0.000000 0.000000
# 4 0.000000 0.000000 0.000000 0.035639 0.000000 0.000000
# 5 0.000000 0.000000 0.000000 0.000000 0.021966 0.000000
# 6 0.000000 0.000000 0.000000 0.000000 0.000000 0.046232
#
#
# Mechanical properties :
#
#
# Convention : Reuss Voigt Hill
#
# Bulk Modulus (GPa) = 54.94890 60.32544 57.63717
# Shear Modulus (GPa) = 25.17649 28.21113 26.69381
#
# Velocity S-wave (km/s) = 3.70069 3.91737 3.81057
# Velocity P-wave (km/s) = 6.93904 7.29904 7.12131
#
# Compressibility (1/GPa) = 0.01819873
#
# Stress axis : x y z
#
# Youngs Moduli (GPa) = 76.63244 41.71639 60.87935
#
# Poissons Ratio (x) = 0.28628 0.26994
# Poissons Ratio (y) = 0.52590 0.38521
# Poissons Ratio (z) = 0.33978 0.26396
#
# Static dielectric constant tensor:
#      x y z
#    x 3.279440 0.000000 0.000000 
#    y 0.000000 3.138310 0.000000 
#    z 0.000000 0.000000 3.448000 
# 
# 
# High freq. dielectric constant tensor:
#      x y z
#    x 1.711210 0.000000 0.000000 
#    y 0.000000 1.687330 0.000000 
#    z 0.000000 0.000000 1.732340 
# 
# From -- ./inp_files/8280.got.cif
#   From: 2010.06.25/outbox.cif.g09.slc.cpg/sg58_5_cif.got.tgz:8280.got - 2010.06.26 21:38:00.
