data_PCOD8235837
_publ_section_title
;
Structure prediction by ZEFSAII (Michael W. Deem and Ramdas Pophale) SiO2 
 PCOD8235837
Probable space group: P N N M
;
_chemical_formula_sum "Si O2"
_cell_formula_units_Z 64
_cell_length_a 18.477588
_cell_length_b 21.460460
_cell_length_c 9.143619
_cell_angle_alpha 90.000000
_cell_angle_beta 90.000000
_cell_angle_gamma 90.000000
_cell_volume 3625.788168
_symmetry_space_group_name_H-M "P N N M"
_symmetry_group_IT_number 58
_symmetry_cell_setting 'orthorhombic'
loop_
_space_group_symop_operation_xyz
x,y,z
-x,-y,z
1/2+x,1/2-y,1/2-z
1/2-x,1/2+y,1/2-z
-x,-y,-z
x,y,-z
1/2-x,1/2+y,1/2+z
1/2+x,1/2-y,1/2+z
loop_
_atom_site_type_symbol
_atom_site_label
_atom_site_fract_x
_atom_site_fract_y
_atom_site_fract_z
Si Si1 0.334063 0.120998 0.168640
Si Si2 0.371837 0.238947 0.663809
Si Si3 0.965633 0.691274 0.161418
Si Si4 0.171189 0.097268 0.832918
Si Si5 0.581082 0.520910 0.330411
Si Si6 0.031811 0.566284 0.827428
Si Si7 0.920130 0.804762 0.670384
Si Si8 0.420732 0.352885 0.171508
O O1 0.326679 0.187702 0.247405
O O2 0.256796 0.087622 0.183804
O O3 0.393177 0.076454 0.242922
O O4 0.355684 0.131849 0.000000
O O5 0.339903 0.246520 0.500000
O O6 0.453848 0.217216 0.655911
O O7 0.367469 0.304230 0.749093
O O8 0.917966 0.733808 0.269028
O O9 0.972463 0.619408 0.215407
O O10 0.930339 0.694267 0.000000
O O11 0.144534 0.155993 0.739961
O O12 0.134019 0.033952 0.777820
O O13 0.148464 0.110300 0.000000
O O14 0.500000 0.500000 0.298830
O O15 0.592434 0.538411 0.500000
O O16 0.600109 0.579702 0.231207
O O17 0.000000 0.500000 0.779845
O O18 0.048447 0.569853 0.000000
O O19 0.906402 0.800404 0.500000
O O20 0.995801 0.838033 0.709116
O O21 0.406018 0.349472 0.000000
#
# Coordination Sequence:
#
# PCOD8235837 Si02
#       8
#     8   8   8   8   8   8   8   8
#     4  10  20  34  53  78 106 133 169 219 270 316
#     4   9  17  31  52  74  97 129 167 205 250 308
#     4   8  15  28  48  73  99 126 158 202 251 300
#     4  10  21  35  51  72 102 141 179 215 261 318
#     4  10  19  32  51  73 101 143 188 219 253 309
#     4   9  18  34  57  82 105 134 175 216 258 318
#     4  10  19  29  46  73 102 131 167 213 258 301
#     4  10  19  30  48  76 106 131 167 219 264 298
#
# _framework density 17.651335
#
# number of rings (size 3 to 8) (size 9 to 14) (size 15 to 20)
#    0.000    2.500    1.250    2.250    0.000    6.000 
#    0.000    0.000    2.750    0.000    0.000    0.000 
#    0.000    0.000    0.000    0.000    0.000    0.000 
#
# Total GULP energy -793596.131487 kJ/mol
# GULP energy per Si atom -12399.939554 kJ/mol
# Density = 1.761116 g / cm^3
# Si number density = 17.651335 Si / 1000 Ang^3
#
#
#
# Elastic Constant Matrix: (Units=GPa)
#
#
# Indices 1 2 3 4 5 6 
#
# 1 59.7816 46.0027 39.2351 0.0000 0.0000 0.0000
# 2 46.0027 151.4914 63.4063 0.0000 0.0000 0.0000
# 3 39.2351 63.4063 95.4613 0.0000 0.0000 0.0000
# 4 0.0000 0.0000 0.0000 28.1090 0.0000 0.0000
# 5 0.0000 0.0000 0.0000 0.0000 19.4332 0.0000
# 6 0.0000 0.0000 0.0000 0.0000 0.0000 23.0958
#
#
#
# Elastic Compliance Matrix: (Units=1/GPa)
#
#
# Indices 1 2 3 4 5 6 
#
# 1 0.024988 -0.004556 -0.007244 0.000000 0.000000 0.000000
# 2 -0.004556 0.009973 -0.004752 0.000000 0.000000 0.000000
# 3 -0.007244 -0.004752 0.016609 0.000000 0.000000 0.000000
# 4 0.000000 0.000000 0.000000 0.035576 0.000000 0.000000
# 5 0.000000 0.000000 0.000000 0.000000 0.051458 0.000000
# 6 0.000000 0.000000 0.000000 0.000000 0.000000 0.043298
#
#
# Mechanical properties :
#
#
# Convention : Reuss Voigt Hill
#
# Bulk Modulus (GPa) = 54.15223 67.11361 60.63292
# Shear Modulus (GPa) = 22.60794 24.66696 23.63745
#
# Velocity S-wave (km/s) = 3.58272 3.74231 3.66338
# Velocity P-wave (km/s) = 6.91809 7.53509 7.23317
#
# Compressibility (1/GPa) = 0.01846646
#
# Stress axis : x y z
#
# Youngs Moduli (GPa) = 40.01966 100.26652 60.20819
#
# Poissons Ratio (x) = 0.45681 0.43615
# Poissons Ratio (y) = 0.18233 0.28610
# Poissons Ratio (z) = 0.28990 0.47646
#
# Static dielectric constant tensor:
#      x y z
#    x 2.902360 0.000000 0.000000 
#    y 0.000000 3.478990 0.000000 
#    z 0.000000 0.000000 3.354160 
# 
# 
# High freq. dielectric constant tensor:
#      x y z
#    x 1.641530 0.000000 0.000000 
#    y 0.000000 1.687120 0.000000 
#    z 0.000000 0.000000 1.689400 
# 
# From -- ./inp_files/8286.got.cif
#   From: 2010.06.25/outbox.cif.g09.slc.cpg/sg58_5_cif.got.tgz:8286.got - 2010.06.26 21:38:00.
