data_PCOD8235103
_publ_section_title
;
Structure prediction by ZEFSAII (Michael W. Deem and Ramdas Pophale) SiO2 
 PCOD8235103
Probable space group: P B C M
;
_chemical_formula_sum "Si O2"
_cell_formula_units_Z 64
_cell_length_a 11.680951
_cell_length_b 14.347873
_cell_length_c 17.937066
_cell_angle_alpha 90.000000
_cell_angle_beta 90.000000
_cell_angle_gamma 90.000000
_cell_volume 3006.194889
_symmetry_space_group_name_H-M "P B C M"
_symmetry_group_IT_number 57
_symmetry_cell_setting 'orthorhombic'
loop_
_space_group_symop_operation_xyz
x,y,z
-x,-y,1/2+z
x,1/2-y,-z
-x,1/2+y,1/2-z
-x,-y,-z
x,y,1/2-z
-x,1/2+y,z
x,1/2-y,1/2+z
loop_
_atom_site_type_symbol
_atom_site_label
_atom_site_fract_x
_atom_site_fract_y
_atom_site_fract_z
Si Si1 0.726179 0.533514 0.944420
Si Si2 0.719682 0.322480 0.565119
Si Si3 0.345261 0.420895 0.602764
Si Si4 0.509943 0.278483 0.835623
Si Si5 0.896730 0.521517 0.334485
Si Si6 0.027065 0.678290 0.095425
Si Si7 0.029201 0.119901 0.568269
Si Si8 0.473556 0.063134 0.836392
O O1 0.728749 0.425692 0.968882
O O2 0.851871 0.567100 0.922370
O O3 0.651396 0.549736 0.870945
O O4 0.676281 0.590026 0.014553
O O5 0.690789 0.250000 0.500000
O O6 0.620914 0.322400 0.626257
O O7 0.839366 0.296621 0.604818
O O8 0.394486 0.321488 0.629209
O O9 0.229046 0.443318 0.645402
O O10 0.436710 0.501195 0.618788
O O11 0.514440 0.308075 0.750000
O O12 0.512269 0.168732 0.846598
O O13 0.898777 0.485352 0.250000
O O14 0.983353 0.609098 0.340730
O O15 0.931717 0.435879 0.387125
O O16 0.957878 0.775245 0.099952
O O17 0.007545 0.624310 0.017627
O O18 0.469576 0.033605 0.750000
#
# Coordination Sequence:
#
# PCOD8235103 Si02
#       8
#     8   8   8   8   8   8   8   8
#     4  12  25  43  74 102 134 183 231 283 339 410
#     4  12  24  42  71 102 133 176 231 281 337 404
#     4  12  25  45  70  97 139 177 230 277 340 406
#     4  11  27  45  66  97 140 180 222 281 343 406
#     4  12  26  44  71 102 139 184 223 277 348 417
#     4  11  24  45  72  99 139 177 227 285 340 400
#     4  11  24  46  71 101 138 179 225 288 338 400
#     4  11  26  46  67 100 140 181 226 283 344 401
#
# _framework density 21.289370999999999
#
# number of rings (size 3 to 8) (size 9 to 14) (size 15 to 20)
#    0.000    0.500    5.000    3.375    5.250    1.500 
#    0.000    0.000    0.000    0.000    0.000    0.000 
#    0.000    0.000    0.000    0.000    0.000    0.000 
#
# Total GULP energy -794032.453424 kJ/mol
# GULP energy per Si atom -12406.757085 kJ/mol
# Density = 2.124092 g / cm^3
# Si number density = 21.289371 Si / 1000 Ang^3
#
#
#
# Elastic Constant Matrix: (Units=GPa)
#
#
# Indices 1 2 3 4 5 6 
#
# 1 113.4060 3.2639 31.2233 0.0000 0.0000 0.0000
# 2 3.2639 60.4909 14.5360 0.0000 0.0000 0.0000
# 3 31.2233 14.5360 62.8235 0.0000 0.0000 0.0000
# 4 0.0000 0.0000 0.0000 26.9582 0.0000 0.0000
# 5 0.0000 0.0000 0.0000 0.0000 11.7725 0.0000
# 6 0.0000 0.0000 0.0000 0.0000 0.0000 33.0565
#
#
#
# Elastic Compliance Matrix: (Units=1/GPa)
#
#
# Indices 1 2 3 4 5 6 
#
# 1 0.010244 0.000710 -0.005256 0.000000 0.000000 0.000000
# 2 0.000710 0.017554 -0.004415 0.000000 0.000000 0.000000
# 3 -0.005256 -0.004415 0.019551 0.000000 0.000000 0.000000
# 4 0.000000 0.000000 0.000000 0.037094 0.000000 0.000000
# 5 0.000000 0.000000 0.000000 0.000000 0.084944 0.000000
# 6 0.000000 0.000000 0.000000 0.000000 0.000000 0.030251
#
#
# Mechanical properties :
#
#
# Convention : Reuss Voigt Hill
#
# Bulk Modulus (GPa) = 33.97984 37.19631 35.58807
# Shear Modulus (GPa) = 21.99068 26.87059 24.43064
#
# Velocity S-wave (km/s) = 3.21743 3.55654 3.39123
# Velocity P-wave (km/s) = 5.45876 5.86302 5.66450
#
# Compressibility (1/GPa) = 0.02942922
#
# Stress axis : x y z
#
# Youngs Moduli (GPa) = 97.61351 56.96733 51.14778
#
# Poissons Ratio (x) = -0.04046 0.26882
# Poissons Ratio (y) = -0.06933 0.22580
# Poissons Ratio (z) = 0.51304 0.25149
#
# Static dielectric constant tensor:
#      x y z
#    x 4.004090 0.000000 0.000000 
#    y 0.000000 4.061050 0.000000 
#    z 0.000000 0.000000 3.790390 
# 
# 
# High freq. dielectric constant tensor:
#      x y z
#    x 1.846360 0.000000 0.000000 
#    y 0.000000 1.852080 0.000000 
#    z 0.000000 0.000000 1.825410 
# 
# From -- ./inp_files/22078.got.cif
#   From: 2010.03.12/outbox.cif.g09.slc.cpg/sg57_12_cif.got.tgz:22078.got - 2010.04.16 15:48:40.
