data_PCOD8235670
_publ_section_title
;
Structure prediction by ZEFSAII (Michael W. Deem and Ramdas Pophale) SiO2 
 PCOD8235670
Probable space group: P N N M
;
_chemical_formula_sum "Si O2"
_cell_formula_units_Z 56
_cell_length_a 16.066622
_cell_length_b 19.892543
_cell_length_c 9.069557
_cell_angle_alpha 90.000000
_cell_angle_beta 90.000000
_cell_angle_gamma 90.000000
_cell_volume 2898.684553
_symmetry_space_group_name_H-M "P N N M"
_symmetry_group_IT_number 58
_symmetry_cell_setting 'orthorhombic'
loop_
_space_group_symop_operation_xyz
x,y,z
-x,-y,z
1/2+x,1/2-y,1/2-z
1/2-x,1/2+y,1/2-z
-x,-y,-z
x,y,-z
1/2-x,1/2+y,1/2+z
1/2+x,1/2-y,1/2+z
loop_
_atom_site_type_symbol
_atom_site_label
_atom_site_fract_x
_atom_site_fract_y
_atom_site_fract_z
Si Si1 0.810655 0.772053 0.676406
Si Si2 0.730196 0.895034 0.825383
Si Si3 0.702714 0.122934 0.168470
Si Si4 0.021532 0.163227 0.661811
Si Si5 0.405431 0.999650 0.175149
Si Si6 0.105630 0.905277 0.167482
Si Si7 0.624946 0.467873 0.835830
O O1 0.798997 0.778127 0.500000
O O2 0.742074 0.822164 0.748294
O O3 0.801387 0.696957 0.741183
O O4 0.904422 0.790849 0.724925
O O5 0.800785 0.945873 0.771500
O O6 0.641978 0.930635 0.782267
O O7 0.737802 0.885518 0.000000
O O8 0.642553 0.066298 0.241226
O O9 0.796417 0.099725 0.183776
O O10 0.675548 0.131947 0.000000
O O11 0.993272 0.189008 0.500000
O O12 0.055772 0.088365 0.650631
O O13 0.941645 0.161351 0.770228
O O14 0.500000 0.000000 0.237185
O O15 0.405306 0.993070 0.000000
O O16 0.078890 0.968416 0.265559
O O17 0.077434 0.915646 0.000000
O O18 0.659780 0.484482 0.000000
#
# Coordination Sequence:
#
# PCOD8235670 Si02
#       7
#     8   8   8   8   8   8   8
#     4   9  19  37  57  74 104 150 186 217 268 335
#     4  10  18  32  55  84 110 134 177 229 275 321
#     4   9  18  35  55  76 106 145 183 217 269 331
#     4   9  19  33  48  73 104 138 178 215 257 318
#     4   9  17  32  56  84 109 137 179 232 277 321
#     4  11  20  31  51  79 107 137 174 218 268 319
#     4  10  19  32  52  76 106 141 173 209 259 321
#
# _framework density 19.319106000000001
#
# number of rings (size 3 to 8) (size 9 to 14) (size 15 to 20)
#    0.000    2.429    1.429    2.571    0.000    4.571 
#    2.571    1.429    0.000    1.714    0.000    0.000 
#    0.000    0.000    0.000    0.000    0.000    0.000 
#
# Total GULP energy -693905.062727 kJ/mol
# GULP energy per Si atom -12391.161834 kJ/mol
# Density = 1.927514 g / cm^3
# Si number density = 19.319106 Si / 1000 Ang^3
#
#
#
# Elastic Constant Matrix: (Units=GPa)
#
#
# Indices 1 2 3 4 5 6 
#
# 1 78.8641 31.1056 21.7981 0.0000 0.0000 0.0000
# 2 31.1056 109.8683 25.2467 0.0000 0.0000 0.0000
# 3 21.7981 25.2467 60.7615 0.0000 0.0000 0.0000
# 4 0.0000 0.0000 0.0000 16.9910 0.0000 0.0000
# 5 0.0000 0.0000 0.0000 0.0000 20.8242 0.0000
# 6 0.0000 0.0000 0.0000 0.0000 0.0000 9.7626
#
#
#
# Elastic Compliance Matrix: (Units=1/GPa)
#
#
# Indices 1 2 3 4 5 6 
#
# 1 0.015117 -0.003354 -0.004030 0.000000 0.000000 0.000000
# 2 -0.003354 0.010807 -0.003287 0.000000 0.000000 0.000000
# 3 -0.004030 -0.003287 0.019269 0.000000 0.000000 0.000000
# 4 0.000000 0.000000 0.000000 0.058855 0.000000 0.000000
# 5 0.000000 0.000000 0.000000 0.000000 0.048021 0.000000
# 6 0.000000 0.000000 0.000000 0.000000 0.000000 0.102431
#
#
# Mechanical properties :
#
#
# Convention : Reuss Voigt Hill
#
# Bulk Modulus (GPa) = 41.92583 45.08829 43.50706
# Shear Modulus (GPa) = 17.61861 20.93846 19.27853
#
# Velocity S-wave (km/s) = 3.02317 3.29572 3.16238
# Velocity P-wave (km/s) = 5.82537 6.15400 5.99194
#
# Compressibility (1/GPa) = 0.02385165
#
# Stress axis : x y z
#
# Youngs Moduli (GPa) = 66.15231 92.53545 51.89639
#
# Poissons Ratio (x) = 0.31035 0.20912
# Poissons Ratio (y) = 0.22186 0.17059
# Poissons Ratio (z) = 0.26656 0.30417
#
# Static dielectric constant tensor:
#      x y z
#    x 3.570270 0.000000 0.000000 
#    y 0.000000 3.669050 0.000000 
#    z 0.000000 0.000000 3.407950 
# 
# 
# High freq. dielectric constant tensor:
#      x y z
#    x 1.747280 0.000000 0.000000 
#    y 0.000000 1.745290 0.000000 
#    z 0.000000 0.000000 1.722280 
# 
# From -- ./inp_files/6481.got.cif
#   From: 2010.06.25/outbox.cif.g09.slc.cpg/sg58_4_cif.got.tgz:6481.got - 2010.06.26 21:38:00.
