data_PCOD8235600
_publ_section_title
;
Structure prediction by ZEFSAII (Michael W. Deem and Ramdas Pophale) SiO2 
 PCOD8235600
Probable space group: P N N M
;
_chemical_formula_sum "Si O2"
_cell_formula_units_Z 64
_cell_length_a 10.072542
_cell_length_b 12.190210
_cell_length_c 26.811765
_cell_angle_alpha 90.000000
_cell_angle_beta 90.000000
_cell_angle_gamma 90.000000
_cell_volume 3292.120161
_symmetry_space_group_name_H-M "P N N M"
_symmetry_group_IT_number 58
_symmetry_cell_setting 'orthorhombic'
loop_
_space_group_symop_operation_xyz
x,y,z
-x,-y,z
1/2+x,1/2-y,1/2-z
1/2-x,1/2+y,1/2-z
-x,-y,-z
x,y,-z
1/2-x,1/2+y,1/2+z
1/2+x,1/2-y,1/2+z
loop_
_atom_site_type_symbol
_atom_site_label
_atom_site_fract_x
_atom_site_fract_y
_atom_site_fract_z
Si Si1 0.837154 0.082515 0.815926
Si Si2 0.637348 0.271055 0.841231
Si Si3 0.105558 0.135732 0.145075
Si Si4 0.774250 0.848659 0.557069
Si Si5 0.780490 0.102353 0.444812
Si Si6 0.846246 0.993311 0.708052
Si Si7 0.519282 0.223633 0.555551
Si Si8 0.839410 0.204234 0.347056
O O1 0.714765 0.163339 0.823514
O O2 0.979977 0.145604 0.816223
O O3 0.845765 0.990849 0.859796
O O4 0.815854 0.010720 0.766112
O O5 0.644515 0.281402 0.901406
O O6 0.703979 0.375509 0.812685
O O7 0.482473 0.257275 0.825969
O O8 0.057013 0.176147 0.091338
O O9 0.229891 0.204786 0.165346
O O10 0.808987 0.812503 0.500000
O O11 0.620769 0.828707 0.569462
O O12 0.809680 0.975444 0.565163
O O13 0.831640 0.134831 0.500000
O O14 0.623316 0.124082 0.439708
O O15 0.857981 0.179374 0.405948
O O16 0.780499 0.094128 0.678250
O O17 0.000000 0.000000 0.695158
O O18 0.518511 0.273311 0.500000
#
# Coordination Sequence:
#
# PCOD8235600 Si02
#       8
#     8   8   8   8   8   8   8   8
#     4  11  23  40  64  80 114 152 198 245 291 340
#     4  11  23  39  58  88 123 154 191 242 295 356
#     4  10  21  40  61  85 112 155 197 240 286 341
#     4  10  18  31  55  89 124 156 194 240 295 350
#     4   9  17  31  53  84 122 158 190 235 293 354
#     4  10  21  39  60  83 114 151 189 237 297 347
#     4   9  17  32  56  87 119 155 199 245 290 338
#     4  10  22  36  60  84 117 150 191 234 291 354
#
# _framework density 19.440359999999998
#
# number of rings (size 3 to 8) (size 9 to 14) (size 15 to 20)
#    0.000    2.000    3.750    0.375    1.750    2.500 
#    0.000    3.750    2.750    0.000    0.000    4.375 
#    0.000    0.000    0.000    0.000    0.000    0.000 
#
# Total GULP energy -793290.658698 kJ/mol
# GULP energy per Si atom -12395.166542 kJ/mol
# Density = 1.939611 g / cm^3
# Si number density = 19.440360 Si / 1000 Ang^3
#
#
#
# Elastic Constant Matrix: (Units=GPa)
#
#
# Indices 1 2 3 4 5 6 
#
# 1 83.3666 39.7024 16.7153 0.0000 0.0000 0.0000
# 2 39.7024 93.7146 30.7039 0.0000 0.0000 0.0000
# 3 16.7153 30.7039 84.5767 0.0000 0.0000 0.0000
# 4 0.0000 0.0000 0.0000 27.1663 0.0000 0.0000
# 5 0.0000 0.0000 0.0000 0.0000 21.9536 0.0000
# 6 0.0000 0.0000 0.0000 0.0000 0.0000 29.5465
#
#
#
# Elastic Compliance Matrix: (Units=1/GPa)
#
#
# Indices 1 2 3 4 5 6 
#
# 1 0.015069 -0.006138 -0.000750 0.000000 0.000000 0.000000
# 2 -0.006138 0.014612 -0.004091 0.000000 0.000000 0.000000
# 3 -0.000750 -0.004091 0.013457 0.000000 0.000000 0.000000
# 4 0.000000 0.000000 0.000000 0.036810 0.000000 0.000000
# 5 0.000000 0.000000 0.000000 0.000000 0.045551 0.000000
# 6 0.000000 0.000000 0.000000 0.000000 0.000000 0.033845
#
#
# Mechanical properties :
#
#
# Convention : Reuss Voigt Hill
#
# Bulk Modulus (GPa) = 47.21708 48.43347 47.82528
# Shear Modulus (GPa) = 26.54467 27.36904 26.95685
#
# Velocity S-wave (km/s) = 3.69920 3.75620 3.72781
# Velocity P-wave (km/s) = 6.52582 6.61665 6.57139
#
# Compressibility (1/GPa) = 0.02117877
#
# Stress axis : x y z
#
# Youngs Moduli (GPa) = 66.36216 68.43854 74.31058
#
# Poissons Ratio (x) = 0.42010 0.05571
# Poissons Ratio (y) = 0.40735 0.30403
# Poissons Ratio (z) = 0.04975 0.28000
#
# Static dielectric constant tensor:
#      x y z
#    x 3.452780 0.000000 0.000000 
#    y 0.000000 3.458080 0.000000 
#    z 0.000000 0.000000 3.661620 
# 
# 
# High freq. dielectric constant tensor:
#      x y z
#    x 1.746670 0.000000 0.000000 
#    y 0.000000 1.738980 0.000000 
#    z 0.000000 0.000000 1.760030 
# 
# From -- ./inp_files/34759.got.cif
#   From: 2010.06.25/outbox.cif.g09.slc.cpg/sg58_18_cif.got.tgz:34759.got - 2010.06.26 21:38:00.
