data_PCOD8235444
_publ_section_title
;
Structure prediction by ZEFSAII (Michael W. Deem and Ramdas Pophale) SiO2 
 PCOD8235444
Probable space group: P N N M
;
_chemical_formula_sum "Si O2"
_cell_formula_units_Z 64
_cell_length_a 24.598728
_cell_length_b 15.213389
_cell_length_c 9.203420
_cell_angle_alpha 90.000000
_cell_angle_beta 90.000000
_cell_angle_gamma 90.000000
_cell_volume 3444.196032
_symmetry_space_group_name_H-M "P N N M"
_symmetry_group_IT_number 58
_symmetry_cell_setting 'orthorhombic'
loop_
_space_group_symop_operation_xyz
x,y,z
-x,-y,z
1/2+x,1/2-y,1/2-z
1/2-x,1/2+y,1/2-z
-x,-y,-z
x,y,-z
1/2-x,1/2+y,1/2+z
1/2+x,1/2-y,1/2+z
loop_
_atom_site_type_symbol
_atom_site_label
_atom_site_fract_x
_atom_site_fract_y
_atom_site_fract_z
Si Si1 0.310176 0.808708 0.828741
Si Si2 0.080342 0.059967 0.168476
Si Si3 0.187064 0.111870 0.330649
Si Si4 0.963172 0.126773 0.831238
Si Si5 0.116784 0.544054 0.333098
Si Si6 0.572558 0.140785 0.834366
Si Si7 0.279450 0.977437 0.672770
Si Si8 0.458201 0.201335 0.172715
O O1 0.289531 0.709850 0.795724
O O2 0.372171 0.817678 0.768272
O O3 0.273338 0.880543 0.744502
O O4 0.307852 0.831707 0.000000
O O5 0.129421 0.100945 0.255909
O O6 0.024954 0.107546 0.217218
O O7 0.074965 0.956471 0.201328
O O8 0.091290 0.076040 0.000000
O O9 0.176223 0.103279 0.500000
O O10 0.228656 0.037307 0.277370
O O11 0.939266 0.205903 0.736599
O O12 0.961164 0.151487 0.000000
O O13 0.136870 0.552527 0.500000
O O14 0.073964 0.464481 0.319494
O O15 0.167640 0.527696 0.229419
O O16 0.086374 0.630680 0.277230
O O17 0.517428 0.176328 0.759331
O O18 0.569861 0.170933 0.000000
O O19 0.282491 0.967749 0.500000
O O20 0.460275 0.204725 0.000000
#
# Coordination Sequence:
#
# PCOD8235444 Si02
#       8
#     8   8   8   8   8   8   8   8
#     4   9  18  35  57  78 102 136 175 215 265 320
#     4   9  19  36  56  76 103 140 175 210 258 317
#     4  10  21  37  58  82 105 133 178 229 268 307
#     4   9  19  35  51  74 110 142 169 207 259 317
#     4   9  18  33  51  72 103 141 177 215 260 314
#     4   8  14  27  50  75  98 127 169 215 252 297
#     4  10  21  37  54  77 108 138 173 225 272 308
#     4  10  18  29  50  79 105 137 178 214 257 311
#
# _framework density 18.581985
#
# number of rings (size 3 to 8) (size 9 to 14) (size 15 to 20)
#    0.000    2.750    0.000    3.000    0.000    5.500 
#    2.250    5.000    0.000    3.750    0.000    0.000 
#    0.000    0.000    0.000    0.000    0.000    0.000 
#
# Total GULP energy -793423.229225 kJ/mol
# GULP energy per Si atom -12397.237957 kJ/mol
# Density = 1.853969 g / cm^3
# Si number density = 18.581985 Si / 1000 Ang^3
#
#
#
# Elastic Constant Matrix: (Units=GPa)
#
#
# Indices 1 2 3 4 5 6 
#
# 1 49.4371 37.6532 24.5670 0.0000 0.0000 0.0000
# 2 37.6532 120.2391 36.2187 0.0000 0.0000 0.0000
# 3 24.5670 36.2187 38.5032 0.0000 0.0000 0.0000
# 4 0.0000 0.0000 0.0000 33.1363 0.0000 0.0000
# 5 0.0000 0.0000 0.0000 0.0000 18.2709 0.0000
# 6 0.0000 0.0000 0.0000 0.0000 0.0000 26.1924
#
#
#
# Elastic Compliance Matrix: (Units=1/GPa)
#
#
# Indices 1 2 3 4 5 6 
#
# 1 0.031941 -0.005391 -0.015309 0.000000 0.000000 0.000000
# 2 -0.005391 0.012515 -0.008333 0.000000 0.000000 0.000000
# 3 -0.015309 -0.008333 0.043578 0.000000 0.000000 0.000000
# 4 0.000000 0.000000 0.000000 0.030178 0.000000 0.000000
# 5 0.000000 0.000000 0.000000 0.000000 0.054732 0.000000
# 6 0.000000 0.000000 0.000000 0.000000 0.000000 0.038179
#
#
# Mechanical properties :
#
#
# Convention : Reuss Voigt Hill
#
# Bulk Modulus (GPa) = 33.36789 45.00633 39.18711
# Shear Modulus (GPa) = 17.90969 22.83595 20.37282
#
# Velocity S-wave (km/s) = 3.10791 3.50941 3.31475
# Velocity P-wave (km/s) = 5.55652 6.37921 5.98202
#
# Compressibility (1/GPa) = 0.02996893
#
# Stress axis : x y z
#
# Youngs Moduli (GPa) = 31.30737 79.90429 22.94739
#
# Poissons Ratio (x) = 0.43077 0.35130
# Poissons Ratio (y) = 0.16878 0.19121
# Poissons Ratio (z) = 0.47928 0.66581
#
# Static dielectric constant tensor:
#      x y z
#    x 3.309010 0.000000 0.000000 
#    y 0.000000 3.587110 0.000000 
#    z 0.000000 0.000000 3.142850 
# 
# 
# High freq. dielectric constant tensor:
#      x y z
#    x 1.704380 0.000000 0.000000 
#    y 0.000000 1.733460 0.000000 
#    z 0.000000 0.000000 1.698520 
# 
# From -- ./inp_files/9932.got.cif
#   From: 2010.06.25/outbox.cif.g09.slc.cpg/sg58_5_cif.got.tgz:9932.got - 2010.06.26 21:38:00.
