data_PCOD8235201
_publ_section_title
;
Structure prediction by ZEFSAII (Michael W. Deem and Ramdas Pophale) SiO2 
 PCOD8235201
Probable space group: P N N M
;
_chemical_formula_sum "Si O2"
_cell_formula_units_Z 56
_cell_length_a 29.593368
_cell_length_b 14.878673
_cell_length_c 8.929256
_cell_angle_alpha 90.000000
_cell_angle_beta 90.000000
_cell_angle_gamma 90.000000
_cell_volume 3931.641115
_symmetry_space_group_name_H-M "P N N M"
_symmetry_group_IT_number 58
_symmetry_cell_setting 'orthorhombic'
loop_
_space_group_symop_operation_xyz
x,y,z
-x,-y,z
1/2+x,1/2-y,1/2-z
1/2-x,1/2+y,1/2-z
-x,-y,-z
x,y,-z
1/2-x,1/2+y,1/2+z
1/2+x,1/2-y,1/2+z
loop_
_atom_site_type_symbol
_atom_site_label
_atom_site_fract_x
_atom_site_fract_y
_atom_site_fract_z
Si Si1 0.508688 0.105492 0.668906
Si Si2 0.803631 0.628517 0.677183
Si Si3 0.579893 0.864524 0.826118
Si Si4 0.164920 0.692725 0.168043
Si Si5 0.403750 0.928028 0.172823
Si Si6 0.269531 0.042485 0.668788
Si Si7 0.252920 0.713556 0.321837
O O1 0.506971 0.141098 0.500000
O O2 0.469807 0.156606 0.761834
O O3 0.558020 0.126270 0.736095
O O4 0.500000 0.000000 0.679018
O O5 0.796432 0.633537 0.500000
O O6 0.855287 0.609572 0.721054
O O7 0.771529 0.550668 0.742424
O O8 0.790923 0.721854 0.754599
O O9 0.616144 0.799892 0.745536
O O10 0.594040 0.966491 0.792711
O O11 0.580240 0.841620 0.000000
O O12 0.180527 0.587827 0.162277
O O13 0.203131 0.746350 0.263961
O O14 0.162238 0.732889 0.000000
O O15 0.413624 0.909947 0.000000
O O16 0.251153 0.026019 0.500000
O O17 0.237084 0.112814 0.758153
O O18 0.254455 0.713844 0.500000
#
# Coordination Sequence:
#
# PCOD8235201 Si02
#       7
#     8   8   8   8   8   8   8
#     4   9  17  25  34  50  73  99 130 168 201 232
#     4  11  19  29  45  62  82 111 142 174 213 250
#     4  10  16  25  40  55  73 102 134 165 204 243
#     4   9  17  28  41  56  77 100 132 170 203 239
#     4   9  17  26  36  52  74 101 134 167 199 240
#     4   9  18  30  43  59  80 105 137 174 207 246
#     4  10  19  30  42  60  82 106 139 174 209 248
#
# _framework density 14.243416
#
# number of rings (size 3 to 8) (size 9 to 14) (size 15 to 20)
#    0.857    1.571    1.429    3.000    0.000    3.429 
#    0.000    0.000    0.000    0.000    0.000    0.000 
#    0.000    0.000    0.000    1.286    0.000   23.857 
#
# Total GULP energy -694006.544848 kJ/mol
# GULP energy per Si atom -12392.974015 kJ/mol
# Density = 1.421100 g / cm^3
# Si number density = 14.243416 Si / 1000 Ang^3
#
#
#
# Elastic Constant Matrix: (Units=GPa)
#
#
# Indices 1 2 3 4 5 6 
#
# 1 71.8369 20.1770 43.3763 0.0000 0.0000 0.0000
# 2 20.1770 12.2119 14.2672 0.0000 0.0000 0.0000
# 3 43.3763 14.2672 106.6857 0.0000 0.0000 0.0000
# 4 0.0000 0.0000 0.0000 18.5534 0.0000 0.0000
# 5 0.0000 0.0000 0.0000 0.0000 27.2926 0.0000
# 6 0.0000 0.0000 0.0000 0.0000 0.0000 16.6417
#
#
#
# Elastic Compliance Matrix: (Units=1/GPa)
#
#
# Indices 1 2 3 4 5 6 
#
# 1 0.029289 -0.040864 -0.006443 0.000000 0.000000 0.000000
# 2 -0.040864 0.154066 -0.003989 0.000000 0.000000 0.000000
# 3 -0.006443 -0.003989 0.012526 0.000000 0.000000 0.000000
# 4 0.000000 0.000000 0.000000 0.053899 0.000000 0.000000
# 5 0.000000 0.000000 0.000000 0.000000 0.036640 0.000000
# 6 0.000000 0.000000 0.000000 0.000000 0.000000 0.060090
#
#
# Mechanical properties :
#
#
# Convention : Reuss Voigt Hill
#
# Bulk Modulus (GPa) = 10.71949 38.48616 24.60283
# Shear Modulus (GPa) = 10.41237 20.02514 15.21875
#
# Velocity S-wave (km/s) = 2.70669 3.75363 3.27230
# Velocity P-wave (km/s) = 4.16059 6.77239 5.62031
#
# Compressibility (1/GPa) = 0.09328800
#
# Stress axis : x y z
#
# Youngs Moduli (GPa) = 34.14283 6.49074 79.83079
#
# Poissons Ratio (x) = 0.26524 0.51438
# Poissons Ratio (y) = 1.39523 0.31842
# Poissons Ratio (z) = 0.22000 0.02589
#
# Static dielectric constant tensor:
#      x y z
#    x 2.740310 0.000000 0.000000 
#    y 0.000000 2.312440 0.000000 
#    z 0.000000 0.000000 2.886550 
# 
# 
# High freq. dielectric constant tensor:
#      x y z
#    x 1.531440 0.000000 0.000000 
#    y 0.000000 1.478470 0.000000 
#    z 0.000000 0.000000 1.565320 
# 
# From -- ./inp_files/11103.got.cif
#   From: 2010.06.25/outbox.cif.g09.slc.cpg/sg58_6_cif.got.tgz:11103.got - 2010.06.26 21:38:00.
