data_PCOD8235947
_publ_section_title
;
Structure prediction by ZEFSAII (Michael W. Deem and Ramdas Pophale) SiO2 
 PCOD8235947
Probable space group: P N N M
;
_chemical_formula_sum "Si O2"
_cell_formula_units_Z 64
_cell_length_a 20.633584
_cell_length_b 19.510579
_cell_length_c 9.121689
_cell_angle_alpha 90.000000
_cell_angle_beta 90.000000
_cell_angle_gamma 90.000000
_cell_volume 3672.147263
_symmetry_space_group_name_H-M "P N N M"
_symmetry_group_IT_number 58
_symmetry_cell_setting 'orthorhombic'
loop_
_space_group_symop_operation_xyz
x,y,z
-x,-y,z
1/2+x,1/2-y,1/2-z
1/2-x,1/2+y,1/2-z
-x,-y,-z
x,y,-z
1/2-x,1/2+y,1/2+z
1/2+x,1/2-y,1/2+z
loop_
_atom_site_type_symbol
_atom_site_label
_atom_site_fract_x
_atom_site_fract_y
_atom_site_fract_z
Si Si1 0.871365 0.566562 0.830240
Si Si2 0.313538 0.707460 0.173492
Si Si3 0.076412 0.286612 0.833127
Si Si4 0.687436 0.714186 0.328323
Si Si5 0.231635 0.079482 0.167683
Si Si6 0.760989 0.072688 0.830258
Si Si7 0.068599 0.698501 0.171418
Si Si8 0.882574 0.430917 0.671652
O O1 0.916194 0.632439 0.804463
O O2 0.800608 0.585045 0.770915
O O3 0.902786 0.503251 0.742908
O O4 0.866088 0.546365 0.000000
O O5 0.379595 0.741618 0.227214
O O6 0.251769 0.749482 0.237027
O O7 0.309500 0.629544 0.229827
O O8 0.314726 0.707013 0.000000
O O9 0.001610 0.268089 0.800905
O O10 0.095577 0.268857 0.000000
O O11 0.688159 0.726599 0.500000
O O12 0.687862 0.632907 0.292009
O O13 0.622159 0.748327 0.264794
O O14 0.307458 0.084271 0.207090
O O15 0.207120 0.001680 0.198286
O O16 0.219420 0.100519 0.000000
O O17 0.737970 0.077341 0.000000
O O18 0.073582 0.627734 0.258527
O O19 0.079114 0.682771 0.000000
O O20 0.895943 0.435205 0.500000
#
# Coordination Sequence:
#
# PCOD8235947 Si02
#       8
#     8   8   8   8   8   8   8   8
#     4  10  19  31  48  72 102 138 174 207 248 304
#     4  11  20  32  55  79 102 133 172 216 255 301
#     4  10  22  36  51  74 106 141 174 212 260 309
#     4   9  17  31  54  79 100 129 170 216 258 299
#     4   9  18  31  50  75 105 131 160 207 259 308
#     4   9  17  32  52  77 103 129 164 212 263 302
#     4  10  20  36  54  74 104 140 176 214 258 311
#     4  10  20  33  50  74 104 139 174 213 254 300
#
# _framework density 17.428494000000001
#
# number of rings (size 3 to 8) (size 9 to 14) (size 15 to 20)
#    0.000    2.250    2.500    1.875    0.000    3.500 
#    0.000    3.125    0.000    0.750    0.000    5.250 
#    0.000    0.000    0.000    0.000    0.000    0.000 
#
# Total GULP energy -793595.205769 kJ/mol
# GULP energy per Si atom -12399.925090 kJ/mol
# Density = 1.738883 g / cm^3
# Si number density = 17.428494 Si / 1000 Ang^3
#
#
#
# Elastic Constant Matrix: (Units=GPa)
#
#
# Indices 1 2 3 4 5 6 
#
# 1 87.2120 52.8089 36.6212 0.0000 0.0000 0.0000
# 2 52.8089 110.6246 42.9228 0.0000 0.0000 0.0000
# 3 36.6212 42.9228 70.3970 0.0000 0.0000 0.0000
# 4 0.0000 0.0000 0.0000 26.4495 0.0000 0.0000
# 5 0.0000 0.0000 0.0000 0.0000 22.1414 0.0000
# 6 0.0000 0.0000 0.0000 0.0000 0.0000 23.3209
#
#
#
# Elastic Compliance Matrix: (Units=1/GPa)
#
#
# Indices 1 2 3 4 5 6 
#
# 1 0.017495 -0.006314 -0.005251 0.000000 0.000000 0.000000
# 2 -0.006314 0.014120 -0.005324 0.000000 0.000000 0.000000
# 3 -0.005251 -0.005324 0.020183 0.000000 0.000000 0.000000
# 4 0.000000 0.000000 0.000000 0.037808 0.000000 0.000000
# 5 0.000000 0.000000 0.000000 0.000000 0.045164 0.000000
# 6 0.000000 0.000000 0.000000 0.000000 0.000000 0.042880
#
#
# Mechanical properties :
#
#
# Convention : Reuss Voigt Hill
#
# Bulk Modulus (GPa) = 55.49877 59.21548 57.35713
# Shear Modulus (GPa) = 22.99543 23.44109 23.21826
#
# Velocity S-wave (km/s) = 3.63632 3.67138 3.65389
# Velocity P-wave (km/s) = 7.03870 7.21263 7.12620
#
# Compressibility (1/GPa) = 0.01801842
#
# Stress axis : x y z
#
# Youngs Moduli (GPa) = 57.16074 70.82367 49.54597
#
# Poissons Ratio (x) = 0.44718 0.26017
# Poissons Ratio (y) = 0.36091 0.26381
# Poissons Ratio (z) = 0.30016 0.37710
#
# Static dielectric constant tensor:
#      x y z
#    x 3.092840 0.000000 0.000000 
#    y 0.000000 3.348950 0.000000 
#    z 0.000000 0.000000 3.150890 
# 
# 
# High freq. dielectric constant tensor:
#      x y z
#    x 1.644760 0.000000 0.000000 
#    y 0.000000 1.677770 0.000000 
#    z 0.000000 0.000000 1.667020 
# 
# From -- ./inp_files/8248.got.cif
#   From: 2010.06.25/outbox.cif.g09.slc.cpg/sg58_5_cif.got.tgz:8248.got - 2010.06.26 21:38:00.
