data_PCOD8235465
_publ_section_title
;
Structure prediction by ZEFSAII (Michael W. Deem and Ramdas Pophale) SiO2 
 PCOD8235465
Probable space group: P N N M
;
_chemical_formula_sum "Si O2"
_cell_formula_units_Z 64
_cell_length_a 14.386909
_cell_length_b 29.948547
_cell_length_c 8.811461
_cell_angle_alpha 90.000000
_cell_angle_beta 90.000000
_cell_angle_gamma 90.000000
_cell_volume 3796.567946
_symmetry_space_group_name_H-M "P N N M"
_symmetry_group_IT_number 58
_symmetry_cell_setting 'orthorhombic'
loop_
_space_group_symop_operation_xyz
x,y,z
-x,-y,z
1/2+x,1/2-y,1/2-z
1/2-x,1/2+y,1/2-z
-x,-y,-z
x,y,-z
1/2-x,1/2+y,1/2+z
1/2+x,1/2-y,1/2+z
loop_
_atom_site_type_symbol
_atom_site_label
_atom_site_fract_x
_atom_site_fract_y
_atom_site_fract_z
Si Si1 0.023380 0.815100 0.170426
Si Si2 0.399401 0.455233 0.320225
Si Si3 0.478895 0.225694 0.822941
Si Si4 0.900396 0.953069 0.679451
Si Si5 0.658497 0.368032 0.327997
Si Si6 0.294612 0.367662 0.676312
Si Si7 0.658260 0.195523 0.321315
Si Si8 0.230981 0.717577 0.680806
O O1 0.948975 0.854372 0.176646
O O2 0.994409 0.776684 0.286866
O O3 0.120927 0.835350 0.220444
O O4 0.026900 0.794950 0.000000
O O5 0.418877 0.456575 0.500000
O O6 0.495357 0.443608 0.236387
O O7 0.360837 0.502449 0.260181
O O8 0.321779 0.418240 0.279714
O O9 0.553508 0.193860 0.742345
O O10 0.374976 0.216820 0.759804
O O11 0.484122 0.216573 0.000000
O O12 0.900121 0.959595 0.500000
O O13 0.832198 0.912339 0.725639
O O14 0.689365 0.379157 0.500000
O O15 0.720739 0.327830 0.259992
O O16 0.270250 0.364220 0.500000
O O17 0.206498 0.350719 0.771295
O O18 0.653507 0.197769 0.500000
O O19 0.714752 0.238690 0.256191
O O20 0.235294 0.719245 0.500000
#
# Coordination Sequence:
#
# PCOD8235465 Si02
#       8
#     8   8   8   8   8   8   8   8
#     4  10  18  30  49  72 100 133 169 208 246 291
#     4  10  19  34  52  70  98 137 172 199 246 305
#     4  11  21  34  49  72 101 133 171 214 251 288
#     4  11  21  31  46  75 106 129 164 210 254 294
#     4  10  18  34  52  68  96 138 176 203 243 301
#     4  10  20  33  50  75 100 131 172 210 245 294
#     4  11  21  35  51  72 100 135 171 206 251 300
#     4   9  19  33  50  70  96 131 173 208 241 291
#
# _framework density 16.857332
#
# number of rings (size 3 to 8) (size 9 to 14) (size 15 to 20)
#    0.000    1.750    3.750    3.000    0.000    1.500 
#    0.000    1.250    0.000    0.000    0.000    0.875 
#    0.000    7.000    0.000    0.000    0.000    0.000 
#
# Total GULP energy -793560.729161 kJ/mol
# GULP energy per Si atom -12399.386393 kJ/mol
# Density = 1.681896 g / cm^3
# Si number density = 16.857332 Si / 1000 Ang^3
#
#
#
# Elastic Constant Matrix: (Units=GPa)
#
#
# Indices 1 2 3 4 5 6 
#
# 1 66.3755 23.1811 17.6806 0.0000 0.0000 0.0000
# 2 23.1811 94.2123 24.5156 0.0000 0.0000 0.0000
# 3 17.6806 24.5156 56.4296 0.0000 0.0000 0.0000
# 4 0.0000 0.0000 0.0000 25.5938 0.0000 0.0000
# 5 0.0000 0.0000 0.0000 0.0000 20.9562 0.0000
# 6 0.0000 0.0000 0.0000 0.0000 0.0000 24.8166
#
#
#
# Elastic Compliance Matrix: (Units=1/GPa)
#
#
# Indices 1 2 3 4 5 6 
#
# 1 0.017253 -0.003200 -0.004015 0.000000 0.000000 0.000000
# 2 -0.003200 0.012561 -0.004454 0.000000 0.000000 0.000000
# 3 -0.004015 -0.004454 0.020914 0.000000 0.000000 0.000000
# 4 0.000000 0.000000 0.000000 0.039072 0.000000 0.000000
# 5 0.000000 0.000000 0.000000 0.000000 0.047719 0.000000
# 6 0.000000 0.000000 0.000000 0.000000 0.000000 0.040296
#
#
# Mechanical properties :
#
#
# Convention : Reuss Voigt Hill
#
# Bulk Modulus (GPa) = 36.51178 38.64133 37.57656
# Shear Modulus (GPa) = 23.77737 24.38265 24.08001
#
# Velocity S-wave (km/s) = 3.75974 3.80730 3.78360
# Velocity P-wave (km/s) = 6.36819 6.50382 6.43636
#
# Compressibility (1/GPa) = 0.02738842
#
# Stress axis : x y z
#
# Youngs Moduli (GPa) = 57.96074 79.61254 47.81381
#
# Poissons Ratio (x) = 0.25478 0.19199
# Poissons Ratio (y) = 0.18549 0.21298
# Poissons Ratio (z) = 0.23274 0.35462
#
# Static dielectric constant tensor:
#      x y z
#    x 3.067590 0.000000 0.000000 
#    y 0.000000 3.216450 0.000000 
#    z 0.000000 0.000000 3.052470 
# 
# 
# High freq. dielectric constant tensor:
#      x y z
#    x 1.622500 0.000000 0.000000 
#    y 0.000000 1.642080 0.000000 
#    z 0.000000 0.000000 1.643760 
# 
# From -- ./inp_files/7189.got.cif
#   From: 2010.06.25/outbox.cif.g09.slc.cpg/sg58_4_cif.got.tgz:7189.got - 2010.06.26 21:38:00.
