data_PCOD8235530
_publ_section_title
;
Structure prediction by ZEFSAII (Michael W. Deem and Ramdas Pophale) SiO2 
 PCOD8235530
Probable space group: P N N M
;
_chemical_formula_sum "Si O2"
_cell_formula_units_Z 64
_cell_length_a 29.930716
_cell_length_b 14.368653
_cell_length_c 8.935621
_cell_angle_alpha 90.000000
_cell_angle_beta 90.000000
_cell_angle_gamma 90.000000
_cell_volume 3842.889555
_symmetry_space_group_name_H-M "P N N M"
_symmetry_group_IT_number 58
_symmetry_cell_setting 'orthorhombic'
loop_
_space_group_symop_operation_xyz
x,y,z
-x,-y,z
1/2+x,1/2-y,1/2-z
1/2-x,1/2+y,1/2-z
-x,-y,-z
x,y,-z
1/2-x,1/2+y,1/2+z
1/2+x,1/2-y,1/2+z
loop_
_atom_site_type_symbol
_atom_site_label
_atom_site_fract_x
_atom_site_fract_y
_atom_site_fract_z
Si Si1 0.213256 0.777063 0.823217
Si Si2 0.545824 0.098289 0.323181
Si Si3 0.698966 0.331095 0.176706
Si Si4 0.822524 0.525660 0.333548
Si Si5 0.363483 0.170147 0.168802
Si Si6 0.779016 0.013895 0.171271
Si Si7 0.636997 0.192034 0.326935
Si Si8 0.044206 0.600307 0.676506
O O1 0.256320 0.720841 0.759572
O O2 0.166374 0.730645 0.779477
O O3 0.212826 0.882789 0.762141
O O4 0.217380 0.779005 0.000000
O O5 0.540291 0.083943 0.500000
O O6 0.585548 0.170387 0.286151
O O7 0.500592 0.140904 0.252530
O O8 0.556296 0.999037 0.249001
O O9 0.694774 0.436760 0.234132
O O10 0.654426 0.279178 0.232043
O O11 0.699799 0.332248 0.000000
O O12 0.828077 0.569966 0.500000
O O13 0.854513 0.438806 0.311936
O O14 0.772748 0.488506 0.312291
O O15 0.833168 0.602186 0.210066
O O16 0.416379 0.176061 0.206501
O O17 0.353095 0.203362 0.000000
O O18 0.795225 0.008116 0.000000
O O19 0.642958 0.215822 0.500000
O O20 0.037122 0.585420 0.500000
#
# Coordination Sequence:
#
# PCOD8235530 Si02
#       8
#     8   8   8   8   8   8   8   8
#     4  10  21  34  50  72 100 133 170 207 247 294
#     4  10  20  32  47  71 101 131 166 206 247 297
#     4  11  22  35  51  74 100 131 172 210 247 296
#     4  10  18  31  49  70 102 136 168 209 246 286
#     4  10  20  32  49  73 100 134 171 205 246 294
#     4  10  20  36  51  69 100 135 169 210 250 287
#     4  11  22  33  49  73 100 136 173 206 249 298
#     4  10  19  31  49  72  99 133 167 202 250 299
#
# _framework density 16.654133999999999
#
# number of rings (size 3 to 8) (size 9 to 14) (size 15 to 20)
#    0.000    1.750    3.750    2.250    0.000    4.500 
#    0.000    0.000    0.000    0.000    0.000    0.875 
#    0.000    7.000    0.000    0.000    0.000    0.000 
#
# Total GULP energy -793513.462335 kJ/mol
# GULP energy per Si atom -12398.647849 kJ/mol
# Density = 1.661623 g / cm^3
# Si number density = 16.654134 Si / 1000 Ang^3
#
#
#
# Elastic Constant Matrix: (Units=GPa)
#
#
# Indices 1 2 3 4 5 6 
#
# 1 89.1008 36.8083 32.4817 0.0000 0.0000 0.0000
# 2 36.8083 59.2241 26.6775 0.0000 0.0000 0.0000
# 3 32.4817 26.6775 58.3994 0.0000 0.0000 0.0000
# 4 0.0000 0.0000 0.0000 26.7733 0.0000 0.0000
# 5 0.0000 0.0000 0.0000 0.0000 26.7591 0.0000
# 6 0.0000 0.0000 0.0000 0.0000 0.0000 22.5124
#
#
#
# Elastic Compliance Matrix: (Units=1/GPa)
#
#
# Indices 1 2 3 4 5 6 
#
# 1 0.016455 -0.007686 -0.005641 0.000000 0.000000 0.000000
# 2 -0.007686 0.024849 -0.007077 0.000000 0.000000 0.000000
# 3 -0.005641 -0.007077 0.023494 0.000000 0.000000 0.000000
# 4 0.000000 0.000000 0.000000 0.037351 0.000000 0.000000
# 5 0.000000 0.000000 0.000000 0.000000 0.037370 0.000000
# 6 0.000000 0.000000 0.000000 0.000000 0.000000 0.044420
#
#
# Mechanical properties :
#
#
# Convention : Reuss Voigt Hill
#
# Bulk Modulus (GPa) = 41.68272 44.29550 42.98911
# Shear Modulus (GPa) = 21.48289 22.59275 22.03782
#
# Velocity S-wave (km/s) = 3.59547 3.68718 3.64162
# Velocity P-wave (km/s) = 6.50533 6.69194 6.59930
#
# Compressibility (1/GPa) = 0.02399076
#
# Stress axis : x y z
#
# Youngs Moduli (GPa) = 60.77259 40.24230 42.56437
#
# Poissons Ratio (x) = 0.30929 0.24012
# Poissons Ratio (y) = 0.46708 0.30122
# Poissons Ratio (z) = 0.34283 0.28478
#
# Static dielectric constant tensor:
#      x y z
#    x 3.243770 0.000000 0.000000 
#    y 0.000000 2.920580 0.000000 
#    z 0.000000 0.000000 3.145280 
# 
# 
# High freq. dielectric constant tensor:
#      x y z
#    x 1.636400 0.000000 0.000000 
#    y 0.000000 1.611170 0.000000 
#    z 0.000000 0.000000 1.646010 
# 
# From -- ./inp_files/11149.got.cif
#   From: 2010.06.25/outbox.cif.g09.slc.cpg/sg58_6_cif.got.tgz:11149.got - 2010.06.26 21:38:00.
