data_PCOD8235138
_publ_section_title
;
Structure prediction by ZEFSAII (Michael W. Deem and Ramdas Pophale) SiO2 
 PCOD8235138
Probable space group: P B C M
;
_chemical_formula_sum "Si O2"
_cell_formula_units_Z 48
_cell_length_a 6.844815
_cell_length_b 14.404540
_cell_length_c 21.237193
_cell_angle_alpha 90.000000
_cell_angle_beta 90.000000
_cell_angle_gamma 90.000000
_cell_volume 2093.911019
_symmetry_space_group_name_H-M "P B C M"
_symmetry_group_IT_number 57
_symmetry_cell_setting 'orthorhombic'
loop_
_space_group_symop_operation_xyz
x,y,z
-x,-y,1/2+z
x,1/2-y,-z
-x,1/2+y,1/2-z
-x,-y,-z
x,y,1/2-z
-x,1/2+y,z
x,1/2-y,1/2+z
loop_
_atom_site_type_symbol
_atom_site_label
_atom_site_fract_x
_atom_site_fract_y
_atom_site_fract_z
Si Si1 0.659556 0.381860 0.363275
Si Si2 0.558472 0.701332 0.112636
Si Si3 0.665939 0.024109 0.363721
Si Si4 0.080749 0.662490 0.750000
Si Si5 0.831130 0.750000 0.500000
Si Si6 0.240826 0.182153 0.250000
Si Si7 0.988271 0.570337 0.944542
Si Si8 0.924598 0.462477 0.750000
O O1 0.551621 0.298404 0.399151
O O2 0.507856 0.458752 0.337158
O O3 0.779171 0.331857 0.309107
O O4 0.810467 0.438226 0.406564
O O5 0.420417 0.612637 0.099205
O O6 0.637669 0.695936 0.185264
O O7 0.715835 0.698767 0.056607
O O8 0.798612 0.068953 0.309590
O O9 0.796801 0.956365 0.405518
O O10 0.941213 0.749725 0.750000
O O11 0.943229 0.573026 0.750000
O O12 0.970622 0.675013 0.531945
O O13 0.142848 0.079922 0.250000
O O14 0.000000 0.500000 0.000000
#
# Coordination Sequence:
#
# PCOD8235138 Si02
#       8
#     8   8   8   4   4   4   8   4
#     4  12  25  48  73 110 141 196 240 305 374 429
#     4  12  27  46  77 106 152 194 249 310 369 452
#     4  12  26  49  73 111 146 190 252 303 375 441
#     4  12  22  42  76 100 145 183 242 295 362 444
#     4  12  28  50  74 114 148 196 254 304 372 446
#     4  12  26  48  74 114 150 198 246 308 378 438
#     4  12  29  47  75 104 147 195 245 309 367 447
#     4  12  24  44  76 108 143 193 242 307 370 438
#
# _framework density 22.923611000000001
#
# number of rings (size 3 to 8) (size 9 to 14) (size 15 to 20)
#    0.000    0.000    3.333    6.500    7.000    1.333 
#    0.000    0.000    0.000    0.000    0.000    0.000 
#    0.000    0.000    0.000    0.000    0.000    0.000 
#
# Total GULP energy -595304.159509 kJ/mol
# GULP energy per Si atom -12402.169990 kJ/mol
# Density = 2.287144 g / cm^3
# Si number density = 22.923611 Si / 1000 Ang^3
#
#
#
# Elastic Constant Matrix: (Units=GPa)
#
#
# Indices 1 2 3 4 5 6 
#
# 1 107.3127 24.6667 33.2645 0.0000 0.0000 0.0000
# 2 24.6667 90.0005 5.2205 0.0000 0.0000 0.0000
# 3 33.2645 5.2205 111.2491 0.0000 0.0000 0.0000
# 4 0.0000 0.0000 0.0000 30.8475 0.0000 0.0000
# 5 0.0000 0.0000 0.0000 0.0000 10.9210 0.0000
# 6 0.0000 0.0000 0.0000 0.0000 0.0000 55.9943
#
#
#
# Elastic Compliance Matrix: (Units=1/GPa)
#
#
# Indices 1 2 3 4 5 6 
#
# 1 0.010939 -0.002816 -0.003139 0.000000 0.000000 0.000000
# 2 -0.002816 0.011866 0.000285 0.000000 0.000000 0.000000
# 3 -0.003139 0.000285 0.009914 0.000000 0.000000 0.000000
# 4 0.000000 0.000000 0.000000 0.032418 0.000000 0.000000
# 5 0.000000 0.000000 0.000000 0.000000 0.091566 0.000000
# 6 0.000000 0.000000 0.000000 0.000000 0.000000 0.017859
#
#
# Mechanical properties :
#
#
# Convention : Reuss Voigt Hill
#
# Bulk Modulus (GPa) = 46.77249 48.31840 47.54544
# Shear Modulus (GPa) = 25.90306 35.91328 30.90817
#
# Velocity S-wave (km/s) = 3.36515 3.96239 3.67592
# Velocity P-wave (km/s) = 5.96213 6.48520 6.22915
#
# Compressibility (1/GPa) = 0.02138009
#
# Stress axis : x y z
#
# Youngs Moduli (GPa) = 91.41822 84.27234 100.86813
#
# Poissons Ratio (x) = 0.23731 0.31659
# Poissons Ratio (y) = 0.25743 -0.02876
# Poissons Ratio (z) = 0.28693 -0.02403
#
# Static dielectric constant tensor:
#      x y z
#    x 4.631900 0.000000 0.000000 
#    y 0.000000 4.144240 0.000000 
#    z 0.000000 0.000000 4.169150 
# 
# 
# High freq. dielectric constant tensor:
#      x y z
#    x 1.918560 0.000000 0.000000 
#    y 0.000000 1.922090 0.000000 
#    z 0.000000 0.000000 1.904560 
# 
# From -- ./inp_files/28010.got.cif
#   From: 2010.03.12/outbox.cif.g09.slc.cpg/sg57_15_cif.got.tgz:28010.got - 2010.04.16 15:48:40.
