data_PCOD8235385
_publ_section_title
;
Structure prediction by ZEFSAII (Michael W. Deem and Ramdas Pophale) SiO2 
 PCOD8235385
Probable space group: P N N M
;
_chemical_formula_sum "Si O2"
_cell_formula_units_Z 64
_cell_length_a 20.896117
_cell_length_b 19.722970
_cell_length_c 9.199099
_cell_angle_alpha 90.000000
_cell_angle_beta 90.000000
_cell_angle_gamma 90.000000
_cell_volume 3791.256764
_symmetry_space_group_name_H-M "P N N M"
_symmetry_group_IT_number 58
_symmetry_cell_setting 'orthorhombic'
loop_
_space_group_symop_operation_xyz
x,y,z
-x,-y,z
1/2+x,1/2-y,1/2-z
1/2-x,1/2+y,1/2-z
-x,-y,-z
x,y,-z
1/2-x,1/2+y,1/2+z
1/2+x,1/2-y,1/2+z
loop_
_atom_site_type_symbol
_atom_site_label
_atom_site_fract_x
_atom_site_fract_y
_atom_site_fract_z
Si Si1 0.571633 0.217891 0.169202
Si Si2 0.691062 0.715047 0.829856
Si Si3 0.229135 0.062195 0.170182
Si Si4 0.816354 0.791492 0.829235
Si Si5 0.873364 0.430875 0.330814
Si Si6 0.364923 0.921402 0.167437
Si Si7 0.930418 0.295309 0.326397
Si Si8 0.766017 0.069390 0.329746
O O1 0.619293 0.265891 0.255301
O O2 0.586022 0.138729 0.198495
O O3 0.499657 0.230356 0.228533
O O4 0.578535 0.235509 0.000000
O O5 0.754307 0.752009 0.764567
O O6 0.625613 0.746442 0.765002
O O7 0.690292 0.635013 0.796303
O O8 0.692325 0.730399 0.000000
O O9 0.187883 0.128586 0.206246
O O10 0.300982 0.074513 0.228924
O O11 0.201711 0.996105 0.253669
O O12 0.228578 0.045547 0.000000
O O13 0.821810 0.778016 0.000000
O O14 0.870114 0.415418 0.500000
O O15 0.900200 0.506581 0.298295
O O16 0.917235 0.371404 0.263341
O O17 0.303803 0.913004 0.269149
O O18 0.341281 0.921392 0.000000
O O19 0.932428 0.295496 0.500000
O O20 0.760361 0.055507 0.500000
#
# Coordination Sequence:
#
# PCOD8235385 Si02
#       8
#     8   8   8   8   8   8   8   8
#     4  10  20  30  45  72 102 127 155 202 247 276
#     4   9  16  28  48  72  93 122 163 198 233 280
#     4   9  17  30  50  73  94 121 158 200 240 281
#     4  10  18  32  53  71  93 128 164 196 235 291
#     4   8  13  24  43  65  92 122 155 190 222 270
#     4   9  17  28  42  67 100 130 159 189 230 283
#     4   9  16  28  46  69  96 125 162 203 238 275
#     4  10  18  28  47  73  97 122 154 198 244 283
#
# _framework density 16.880946000000002
#
# number of rings (size 3 to 8) (size 9 to 14) (size 15 to 20)
#    0.000    2.750    2.500    1.125    0.000    1.000 
#    0.000    2.500    0.000    6.000    0.000    9.625 
#    0.000    0.000    0.000    0.000    0.000    0.000 
#
# Total GULP energy -793158.085194 kJ/mol
# GULP energy per Si atom -12393.095081 kJ/mol
# Density = 1.684252 g / cm^3
# Si number density = 16.880946 Si / 1000 Ang^3
#
#
#
# Elastic Constant Matrix: (Units=GPa)
#
#
# Indices 1 2 3 4 5 6 
#
# 1 113.4328 70.2003 27.7399 0.0000 0.0000 0.0000
# 2 70.2003 124.1039 41.7450 0.0000 0.0000 0.0000
# 3 27.7399 41.7450 37.9810 0.0000 0.0000 0.0000
# 4 0.0000 0.0000 0.0000 23.2578 0.0000 0.0000
# 5 0.0000 0.0000 0.0000 0.0000 17.8787 0.0000
# 6 0.0000 0.0000 0.0000 0.0000 0.0000 23.2949
#
#
#
# Elastic Compliance Matrix: (Units=1/GPa)
#
#
# Indices 1 2 3 4 5 6 
#
# 1 0.013696 -0.006953 -0.002361 0.000000 0.000000 0.000000
# 2 -0.006953 0.016314 -0.012853 0.000000 0.000000 0.000000
# 3 -0.002361 -0.012853 0.042180 0.000000 0.000000 0.000000
# 4 0.000000 0.000000 0.000000 0.042996 0.000000 0.000000
# 5 0.000000 0.000000 0.000000 0.000000 0.055932 0.000000
# 6 0.000000 0.000000 0.000000 0.000000 0.000000 0.042928
#
#
# Mechanical properties :
#
#
# Convention : Reuss Voigt Hill
#
# Bulk Modulus (GPa) = 35.89816 61.65425 48.77621
# Shear Modulus (GPa) = 18.68002 21.94178 20.31090
#
# Velocity S-wave (km/s) = 3.33013 3.60918 3.47246
# Velocity P-wave (km/s) = 6.00816 7.34646 6.71076
#
# Compressibility (1/GPa) = 0.02785658
#
# Stress axis : x y z
#
# Youngs Moduli (GPa) = 73.01214 61.29640 23.70817
#
# Poissons Ratio (x) = 0.42621 0.05597
# Poissons Ratio (y) = 0.50768 0.30471
# Poissons Ratio (z) = 0.17238 0.78781
#
# Static dielectric constant tensor:
#      x y z
#    x 3.088180 0.000000 0.000000 
#    y 0.000000 3.416450 0.000000 
#    z 0.000000 0.000000 2.816810 
# 
# 
# High freq. dielectric constant tensor:
#      x y z
#    x 1.624650 0.000000 0.000000 
#    y 0.000000 1.663280 0.000000 
#    z 0.000000 0.000000 1.610270 
# 
# From -- ./inp_files/9431.got.cif
#   From: 2010.06.25/outbox.cif.g09.slc.cpg/sg58_5_cif.got.tgz:9431.got - 2010.06.26 21:38:00.
