data_PCOD8235082
_publ_section_title
;
Structure prediction by ZEFSAII (Michael W. Deem and Ramdas Pophale) SiO2 
 PCOD8235082
Probable space group: P B C M
;
_chemical_formula_sum "Si O2"
_cell_formula_units_Z 24
_cell_length_a 9.357350
_cell_length_b 10.989129
_cell_length_c 9.875748
_cell_angle_alpha 90.000000
_cell_angle_beta 90.000000
_cell_angle_gamma 90.000000
_cell_volume 1015.514538
_symmetry_space_group_name_H-M "P B C M"
_symmetry_group_IT_number 57
_symmetry_cell_setting 'orthorhombic'
loop_
_space_group_symop_operation_xyz
x,y,z
-x,-y,1/2+z
x,1/2-y,-z
-x,1/2+y,1/2-z
-x,-y,-z
x,y,1/2-z
-x,1/2+y,z
x,1/2-y,1/2+z
loop_
_atom_site_type_symbol
_atom_site_label
_atom_site_fract_x
_atom_site_fract_y
_atom_site_fract_z
Si Si1 0.882285 0.829086 0.250000
Si Si2 0.087953 0.439938 0.750000
Si Si3 0.587677 0.153950 0.399778
Si Si4 0.283169 0.413818 0.002635
O O1 0.971906 0.701021 0.250000
O O2 0.788106 0.821343 0.388183
O O3 0.968513 0.955443 0.250000
O O4 0.177881 0.460309 0.614076
O O5 0.662043 0.250000 0.500000
O O6 0.601320 0.207830 0.250000
O O7 0.420885 0.144554 0.434406
O O8 0.670208 0.028054 0.407212
#
# Coordination Sequence:
#
# PCOD8235082 Si02
#       4
#     4   4   8   8
#     4  12  26  47  70  98 136 187 237 288 341 404
#     4  12  26  45  72  98 136 187 237 286 341 406
#     4  11  24  41  71 105 138 177 223 284 348 413
#     4  11  25  44  67 100 141 178 229 280 349 414
#
# _framework density 23.633338999999999
#
# number of rings (size 3 to 8) (size 9 to 14) (size 15 to 20)
#    0.000    0.667    3.333    4.000    4.667    2.667 
#    0.000    0.000    0.000    0.000    0.000    0.000 
#    0.000    0.000    0.000    0.000    0.000    0.000 
#
# Total GULP energy -297597.078354 kJ/mol
# GULP energy per Si atom -12399.878265 kJ/mol
# Density = 2.357955 g / cm^3
# Si number density = 23.633339 Si / 1000 Ang^3
#
#
#
# Elastic Constant Matrix: (Units=GPa)
#
#
# Indices 1 2 3 4 5 6 
#
# 1 54.7273 30.8177 23.6060 0.0000 0.0000 0.0000
# 2 30.8177 127.4734 30.9098 0.0000 0.0000 0.0000
# 3 23.6060 30.9098 193.9284 0.0000 0.0000 0.0000
# 4 0.0000 0.0000 0.0000 40.9187 0.0000 0.0000
# 5 0.0000 0.0000 0.0000 0.0000 183.0857 0.0000
# 6 0.0000 0.0000 0.0000 0.0000 0.0000 18.4325
#
#
#
# Elastic Compliance Matrix: (Units=1/GPa)
#
#
# Indices 1 2 3 4 5 6 
#
# 1 0.021796 -0.004812 -0.001886 0.000000 0.000000 0.000000
# 2 -0.004812 0.009222 -0.000884 0.000000 0.000000 0.000000
# 3 -0.001886 -0.000884 0.005527 0.000000 0.000000 0.000000
# 4 0.000000 0.000000 0.000000 0.024439 0.000000 0.000000
# 5 0.000000 0.000000 0.000000 0.000000 0.005462 0.000000
# 6 0.000000 0.000000 0.000000 0.000000 0.000000 0.054252
#
#
# Mechanical properties :
#
#
# Convention : Reuss Voigt Hill
#
# Bulk Modulus (GPa) = 46.77122 60.75514 53.76318
# Shear Modulus (GPa) = 34.96771 67.87376 51.42073
#
# Velocity S-wave (km/s) = 3.85072 5.36487 4.66958
# Velocity P-wave (km/s) = 6.29317 8.00868 7.20219
#
# Compressibility (1/GPa) = 0.02138067
#
# Stress axis : x y z
#
# Youngs Moduli (GPa) = 45.88078 108.43048 180.92787
#
# Poissons Ratio (x) = 0.52176 0.34125
# Poissons Ratio (y) = 0.22077 0.15998
# Poissons Ratio (z) = 0.08654 0.09588
#
# Static dielectric constant tensor:
#      x y z
#    x 3.950960 0.000000 0.000000 
#    y 0.000000 4.477860 0.000000 
#    z 0.000000 0.000000 4.560130 
# 
# 
# High freq. dielectric constant tensor:
#      x y z
#    x 1.906730 0.000000 0.000000 
#    y 0.000000 1.956430 0.000000 
#    z 0.000000 0.000000 1.963340 
# 
# From -- ./inp_files/11172.got.cif
#   From: 2010.03.12/outbox.cif.g09.slc.cpg/sg57_6_cif.got.tgz:11172.got - 2010.04.16 15:48:40.
