data_PCOD8235203
_publ_section_title
;
Structure prediction by ZEFSAII (Michael W. Deem and Ramdas Pophale) SiO2 
 PCOD8235203
Probable space group: P N N M
;
_chemical_formula_sum "Si O2"
_cell_formula_units_Z 64
_cell_length_a 23.499239
_cell_length_b 19.171029
_cell_length_c 9.385075
_cell_angle_alpha 90.000000
_cell_angle_beta 90.000000
_cell_angle_gamma 90.000000
_cell_volume 4228.019387
_symmetry_space_group_name_H-M "P N N M"
_symmetry_group_IT_number 58
_symmetry_cell_setting 'orthorhombic'
loop_
_space_group_symop_operation_xyz
x,y,z
-x,-y,z
1/2+x,1/2-y,1/2-z
1/2-x,1/2+y,1/2-z
-x,-y,-z
x,y,-z
1/2-x,1/2+y,1/2+z
1/2+x,1/2-y,1/2+z
loop_
_atom_site_type_symbol
_atom_site_label
_atom_site_fract_x
_atom_site_fract_y
_atom_site_fract_z
Si Si1 0.566559 0.144049 0.330799
Si Si2 0.727949 0.636637 0.665481
Si Si3 0.663830 0.769579 0.669191
Si Si4 0.061569 0.641212 0.169519
Si Si5 0.251544 0.996483 0.668467
Si Si6 0.841076 0.723262 0.665610
Si Si7 0.229270 0.148483 0.668405
Si Si8 0.118768 0.501087 0.168889
O O1 0.572052 0.151425 0.500000
O O2 0.502167 0.154659 0.275731
O O3 0.604659 0.203429 0.259110
O O4 0.586931 0.068194 0.277831
O O5 0.722164 0.617914 0.500000
O O6 0.678118 0.690209 0.714885
O O7 0.719206 0.566773 0.755782
O O8 0.789100 0.670952 0.697509
O O9 0.666665 0.774062 0.500000
O O10 0.601874 0.795119 0.723078
O O11 0.711715 0.821640 0.733179
O O12 0.085818 0.568259 0.231532
O O13 0.061147 0.636590 0.000000
O O14 0.248651 0.984434 0.500000
O O15 0.220273 0.068352 0.715876
O O16 0.316469 0.000033 0.723396
O O17 0.857770 0.720671 0.500000
O O18 0.823195 0.801777 0.713464
O O19 0.235850 0.151833 0.500000
O O20 0.118313 0.505097 0.000000
#
# Coordination Sequence:
#
# PCOD8235203 Si02
#       8
#     8   8   8   8   8   8   8   8
#     4  10  18  26  40  64  87 108 138 173 207 237
#     4   9  17  27  41  60  83 108 136 167 204 246
#     4   8  13  24  40  59  80 106 139 172 199 232
#     4   9  15  24  40  61  84 110 142 174 199 232
#     4  10  16  25  44  65  84 107 135 169 206 242
#     4   9  17  29  42  57  81 113 142 167 197 241
#     4   8  14  25  42  61  79 105 142 172 197 238
#     4   9  15  23  36  60  89 110 132 166 200 231
#
# _framework density 15.137112
#
# number of rings (size 3 to 8) (size 9 to 14) (size 15 to 20)
#    0.000    3.000    2.500    1.875    0.000    1.500 
#    0.000    0.625    0.000    3.750    0.000    0.875 
#    0.000    7.000    0.000    0.000    0.000    0.000 
#
# Total GULP energy -793156.696754 kJ/mol
# GULP energy per Si atom -12393.073387 kJ/mol
# Density = 1.510266 g / cm^3
# Si number density = 15.137112 Si / 1000 Ang^3
#
#
#
# Elastic Constant Matrix: (Units=GPa)
#
#
# Indices 1 2 3 4 5 6 
#
# 1 96.8150 74.0749 20.9901 0.0000 0.0000 0.0000
# 2 74.0749 142.3574 32.5523 0.0000 0.0000 0.0000
# 3 20.9901 32.5523 21.3507 0.0000 0.0000 0.0000
# 4 0.0000 0.0000 0.0000 20.7109 0.0000 0.0000
# 5 0.0000 0.0000 0.0000 0.0000 13.8367 0.0000
# 6 0.0000 0.0000 0.0000 0.0000 0.0000 25.7448
#
#
#
# Elastic Compliance Matrix: (Units=1/GPa)
#
#
# Indices 1 2 3 4 5 6 
#
# 1 0.017516 -0.007948 -0.005103 0.000000 0.000000 0.000000
# 2 -0.007948 0.014390 -0.014127 0.000000 0.000000 0.000000
# 3 -0.005103 -0.014127 0.073392 0.000000 0.000000 0.000000
# 4 0.000000 0.000000 0.000000 0.048284 0.000000 0.000000
# 5 0.000000 0.000000 0.000000 0.000000 0.072272 0.000000
# 6 0.000000 0.000000 0.000000 0.000000 0.000000 0.038843
#
#
# Mechanical properties :
#
#
# Convention : Reuss Voigt Hill
#
# Bulk Modulus (GPa) = 19.62951 57.30641 38.46796
# Shear Modulus (GPa) = 14.87946 20.91886 17.89916
#
# Velocity S-wave (km/s) = 3.13865 3.72150 3.44243
# Velocity P-wave (km/s) = 5.11183 7.51043 6.42407
#
# Compressibility (1/GPa) = 0.05094371
#
# Stress axis : x y z
#
# Youngs Moduli (GPa) = 57.09010 69.49092 13.62539
#
# Poissons Ratio (x) = 0.55228 0.06953
# Poissons Ratio (y) = 0.45373 0.19248
# Poissons Ratio (z) = 0.29134 0.98169
#
# Static dielectric constant tensor:
#      x y z
#    x 2.929150 0.000000 0.000000 
#    y 0.000000 3.127750 0.000000 
#    z 0.000000 0.000000 2.450180 
# 
# 
# High freq. dielectric constant tensor:
#      x y z
#    x 1.559580 0.000000 0.000000 
#    y 0.000000 1.581780 0.000000 
#    z 0.000000 0.000000 1.531580 
# 
# From -- ./inp_files/8514.got.cif
#   From: 2010.06.25/outbox.cif.g09.slc.cpg/sg58_5_cif.got.tgz:8514.got - 2010.06.26 21:38:00.
