data_PCOD8235729
_publ_section_title
;
Structure prediction by ZEFSAII (Michael W. Deem and Ramdas Pophale) SiO2 
 PCOD8235729
Probable space group: P N N M
;
_chemical_formula_sum "Si O2"
_cell_formula_units_Z 40
_cell_length_a 16.568927
_cell_length_b 6.404712
_cell_length_c 15.858556
_cell_angle_alpha 90.000000
_cell_angle_beta 90.000000
_cell_angle_gamma 90.000000
_cell_volume 1682.897364
_symmetry_space_group_name_H-M "P N N M"
_symmetry_group_IT_number 58
_symmetry_cell_setting 'orthorhombic'
loop_
_space_group_symop_operation_xyz
x,y,z
-x,-y,z
1/2+x,1/2-y,1/2-z
1/2-x,1/2+y,1/2-z
-x,-y,-z
x,y,-z
1/2-x,1/2+y,1/2+z
1/2+x,1/2-y,1/2+z
loop_
_atom_site_type_symbol
_atom_site_label
_atom_site_fract_x
_atom_site_fract_y
_atom_site_fract_z
Si Si1 0.278973 0.601788 0.648661
Si Si2 0.146243 0.872964 0.404939
Si Si3 0.857448 0.720497 0.688140
Si Si4 0.028644 0.759342 0.265874
Si Si5 0.575750 0.650042 0.409627
O O1 0.241361 0.811870 0.607412
O O2 0.201288 0.459698 0.662140
O O3 0.322484 0.641616 0.736390
O O4 0.342782 0.487744 0.589231
O O5 0.118924 0.822331 0.500000
O O6 0.092492 0.733280 0.341218
O O7 0.133345 0.119455 0.389690
O O8 0.945801 0.624774 0.716416
O O9 0.069271 0.702942 0.174081
O O10 0.000000 0.000000 0.263584
O O11 0.500000 0.500000 0.409473
O O12 0.576576 0.775102 0.500000
#
# Coordination Sequence:
#
# PCOD8235729 Si02
#       5
#     8   8   8   8   8
#     4  12  21  40  62  95 121 162 207 255 307 361
#     4  11  24  41  63  93 128 161 203 258 307 364
#     4  11  22  38  67  88 123 166 207 249 307 370
#     4   9  18  39  58  88 121 163 205 246 310 364
#     4  10  18  33  61  89 119 160 204 246 303 369
#
# _framework density 23.768532
#
# number of rings (size 3 to 8) (size 9 to 14) (size 15 to 20)
#    0.000    1.400    8.000    0.600    0.000    6.000 
#    0.000    1.000    0.000    1.200    0.000    7.000 
#    0.000    0.000    0.000    0.000    0.000    0.000 
#
# Total GULP energy -495852.005272 kJ/mol
# GULP energy per Si atom -12396.300132 kJ/mol
# Density = 2.371443 g / cm^3
# Si number density = 23.768532 Si / 1000 Ang^3
#
#
#
# Elastic Constant Matrix: (Units=GPa)
#
#
# Indices 1 2 3 4 5 6 
#
# 1 171.4405 34.9503 61.4731 0.0000 0.0000 0.0000
# 2 34.9503 23.1243 13.3304 0.0000 0.0000 0.0000
# 3 61.4731 13.3304 204.4664 0.0000 0.0000 0.0000
# 4 0.0000 0.0000 0.0000 28.6935 0.0000 0.0000
# 5 0.0000 0.0000 0.0000 0.0000 38.2911 0.0000
# 6 0.0000 0.0000 0.0000 0.0000 0.0000 43.2748
#
#
#
# Elastic Compliance Matrix: (Units=1/GPa)
#
#
# Indices 1 2 3 4 5 6 
#
# 1 0.009096 -0.012647 -0.001910 0.000000 0.000000 0.000000
# 2 -0.012647 0.062517 -0.000274 0.000000 0.000000 0.000000
# 3 -0.001910 -0.000274 0.005483 0.000000 0.000000 0.000000
# 4 0.000000 0.000000 0.000000 0.034851 0.000000 0.000000
# 5 0.000000 0.000000 0.000000 0.000000 0.026116 0.000000
# 6 0.000000 0.000000 0.000000 0.000000 0.000000 0.023108
#
#
# Mechanical properties :
#
#
# Convention : Reuss Voigt Hill
#
# Bulk Modulus (GPa) = 21.08169 68.72653 44.90411
# Shear Modulus (GPa) = 24.19632 41.33704 32.76668
#
# Velocity S-wave (km/s) = 3.19407 4.17484 3.71694
# Velocity P-wave (km/s) = 4.74253 7.22611 6.11180
#
# Compressibility (1/GPa) = 0.04743452
#
# Stress axis : x y z
#
# Youngs Moduli (GPa) = 109.93773 15.99577 182.38426
#
# Poissons Ratio (x) = 0.20229 0.34840
# Poissons Ratio (y) = 1.39035 0.04990
# Poissons Ratio (z) = 0.21001 0.00438
#
# Static dielectric constant tensor:
#      x y z
#    x 4.777510 0.000000 0.000000 
#    y 0.000000 4.086560 0.000000 
#    z 0.000000 0.000000 4.651070 
# 
# 
# High freq. dielectric constant tensor:
#      x y z
#    x 1.964270 0.000000 0.000000 
#    y 0.000000 1.922630 0.000000 
#    z 0.000000 0.000000 1.939070 
# 
# From -- ./inp_files/21898.got.cif
#   From: 2010.06.25/outbox.cif.g09.slc.cpg/sg58_11_cif.got.tgz:21898.got - 2010.06.26 21:38:00.
