data_PCOD8235611
_publ_section_title
;
Structure prediction by ZEFSAII (Michael W. Deem and Ramdas Pophale) SiO2 
 PCOD8235611
Probable space group: P N N M
;
_chemical_formula_sum "Si O2"
_cell_formula_units_Z 64
_cell_length_a 23.310888
_cell_length_b 19.124795
_cell_length_c 8.848500
_cell_angle_alpha 90.000000
_cell_angle_beta 90.000000
_cell_angle_gamma 90.000000
_cell_volume 3944.802471
_symmetry_space_group_name_H-M "P N N M"
_symmetry_group_IT_number 58
_symmetry_cell_setting 'orthorhombic'
loop_
_space_group_symop_operation_xyz
x,y,z
-x,-y,z
1/2+x,1/2-y,1/2-z
1/2-x,1/2+y,1/2-z
-x,-y,-z
x,y,-z
1/2-x,1/2+y,1/2+z
1/2+x,1/2-y,1/2+z
loop_
_atom_site_type_symbol
_atom_site_label
_atom_site_fract_x
_atom_site_fract_y
_atom_site_fract_z
Si Si1 0.835860 0.761165 0.823962
Si Si2 0.767594 0.649833 0.674491
Si Si3 0.228217 0.649511 0.322121
Si Si4 0.933520 0.863191 0.826049
Si Si5 0.761788 0.997804 0.175273
Si Si6 0.065356 0.864995 0.824795
Si Si7 0.384813 0.500699 0.177923
Si Si8 0.160754 0.778089 0.320787
O O1 0.824819 0.689387 0.732129
O O2 0.788675 0.817646 0.770015
O O3 0.897910 0.793167 0.784719
O O4 0.829516 0.743555 0.000000
O O5 0.755987 0.667960 0.500000
O O6 0.776944 0.566742 0.697310
O O7 0.712470 0.671442 0.771998
O O8 0.225084 0.650116 0.500000
O O9 0.225569 0.569375 0.263374
O O10 0.175867 0.698748 0.264822
O O11 0.999468 0.845045 0.797073
O O12 0.913782 0.926597 0.722185
O O13 0.921914 0.884497 0.000000
O O14 0.820094 0.004773 0.266649
O O15 0.778433 0.986781 0.000000
O O16 0.077855 0.938414 0.746635
O O17 0.102012 0.801585 0.756225
O O18 0.080513 0.872784 0.000000
O O19 0.385693 0.492507 0.000000
O O20 0.153887 0.783399 0.500000
#
# Coordination Sequence:
#
# PCOD8235611 Si02
#       8
#     8   8   8   8   8   8   8   8
#     4   9  17  32  51  68  92 126 161 200 242 287
#     4  10  19  29  48  73  98 126 157 198 242 288
#     4   8  15  29  50  69  90 123 159 193 236 287
#     4  10  21  37  53  67  91 133 174 201 239 290
#     4  10  18  32  51  70  96 131 165 193 233 292
#     4  11  22  35  51  69  93 131 172 204 237 289
#     4  12  23  32  46  71 101 130 164 203 241 280
#     4  10  19  32  49  70  96 126 160 202 245 285
#
# _framework density 16.223879
#
# number of rings (size 3 to 8) (size 9 to 14) (size 15 to 20)
#    0.000    2.000    2.500    3.375    0.000    3.500 
#    0.000    0.625    0.000    0.000    0.000    0.875 
#    0.000    7.000    0.000    0.000    0.000    0.000 
#
# Total GULP energy -793431.763014 kJ/mol
# GULP energy per Si atom -12397.371297 kJ/mol
# Density = 1.618695 g / cm^3
# Si number density = 16.223879 Si / 1000 Ang^3
#
#
#
# Elastic Constant Matrix: (Units=GPa)
#
#
# Indices 1 2 3 4 5 6 
#
# 1 82.7604 56.3345 38.8239 0.0000 0.0000 0.0000
# 2 56.3345 121.3176 42.9008 0.0000 0.0000 0.0000
# 3 38.8239 42.9008 80.4955 0.0000 0.0000 0.0000
# 4 0.0000 0.0000 0.0000 21.4416 0.0000 0.0000
# 5 0.0000 0.0000 0.0000 0.0000 16.0103 0.0000
# 6 0.0000 0.0000 0.0000 0.0000 0.0000 23.7337
#
#
#
# Elastic Compliance Matrix: (Units=1/GPa)
#
#
# Indices 1 2 3 4 5 6 
#
# 1 0.019557 -0.007080 -0.005659 0.000000 0.000000 0.000000
# 2 -0.007080 0.012720 -0.003365 0.000000 0.000000 0.000000
# 3 -0.005659 -0.003365 0.016946 0.000000 0.000000 0.000000
# 4 0.000000 0.000000 0.000000 0.046638 0.000000 0.000000
# 5 0.000000 0.000000 0.000000 0.000000 0.062460 0.000000
# 6 0.000000 0.000000 0.000000 0.000000 0.000000 0.042134
#
#
# Mechanical properties :
#
#
# Convention : Reuss Voigt Hill
#
# Bulk Modulus (GPa) = 58.77049 62.29910 60.53479
# Shear Modulus (GPa) = 20.97880 22.00475 21.49178
#
# Velocity S-wave (km/s) = 3.59985 3.68682 3.64359
# Velocity P-wave (km/s) = 7.31996 7.52373 7.42255
#
# Compressibility (1/GPa) = 0.01701534
#
# Stress axis : x y z
#
# Youngs Moduli (GPa) = 51.13148 78.61391 59.01202
#
# Poissons Ratio (x) = 0.55661 0.33396
# Poissons Ratio (y) = 0.36203 0.19855
# Poissons Ratio (z) = 0.28936 0.26450
#
# Static dielectric constant tensor:
#      x y z
#    x 2.974540 0.000000 0.000000 
#    y 0.000000 3.450860 0.000000 
#    z 0.000000 0.000000 3.070700 
# 
# 
# High freq. dielectric constant tensor:
#      x y z
#    x 1.595390 0.000000 0.000000 
#    y 0.000000 1.622980 0.000000 
#    z 0.000000 0.000000 1.623090 
# 
# From -- ./inp_files/8487.got.cif
#   From: 2010.06.25/outbox.cif.g09.slc.cpg/sg58_5_cif.got.tgz:8487.got - 2010.06.26 21:38:00.
