data_PCOD8235970
_publ_section_title
;
Structure prediction by ZEFSAII (Michael W. Deem and Ramdas Pophale) SiO2 
 PCOD8235970
Probable space group: P N N M
;
_chemical_formula_sum "Si O2"
_cell_formula_units_Z 48
_cell_length_a 17.732403
_cell_length_b 5.100139
_cell_length_c 28.447551
_cell_angle_alpha 90.000000
_cell_angle_beta 90.000000
_cell_angle_gamma 90.000000
_cell_volume 2572.731655
_symmetry_space_group_name_H-M "P N N M"
_symmetry_group_IT_number 58
_symmetry_cell_setting 'orthorhombic'
loop_
_space_group_symop_operation_xyz
x,y,z
-x,-y,z
1/2+x,1/2-y,1/2-z
1/2-x,1/2+y,1/2-z
-x,-y,-z
x,y,-z
1/2-x,1/2+y,1/2+z
1/2+x,1/2-y,1/2+z
loop_
_atom_site_type_symbol
_atom_site_label
_atom_site_fract_x
_atom_site_fract_y
_atom_site_fract_z
Si Si1 0.137840 0.948240 0.833787
Si Si2 0.773718 0.552340 0.945064
Si Si3 0.586961 0.482056 0.767653
Si Si4 0.083639 0.446279 0.883960
Si Si5 0.586790 0.982094 0.171795
Si Si6 0.280820 0.950118 0.105131
O O1 0.085553 0.165102 0.858723
O O2 0.138938 0.983355 0.777892
O O3 0.105848 0.662096 0.845342
O O4 0.223411 0.980245 0.851322
O O5 0.860478 0.542418 0.928296
O O6 0.725214 0.331781 0.918955
O O7 0.736331 0.831223 0.933935
O O8 0.772462 0.499450 0.000000
O O9 0.500000 0.500000 0.751760
O O10 0.606197 0.202253 0.789862
O O11 0.606386 0.701788 0.805970
O O12 0.000000 0.500000 0.903430
O O13 0.635089 0.018369 0.124698
O O14 0.500000 0.000000 0.156093
#
# Coordination Sequence:
#
# PCOD8235970 Si02
#       6
#     8   8   8   8   8   8
#     4  10  20  32  50  76 107 143 176 206 242 287
#     4  10  21  37  57  78 100 131 168 209 261 313
#     4  10  19  31  49  75 106 139 175 208 241 288
#     4  10  19  32  51  76 107 140 172 206 245 290
#     4  10  21  35  53  76 102 136 172 210 257 302
#     4  10  21  37  55  76 103 134 168 211 261 306
#
# _framework density 18.657209999999999
#
# number of rings (size 3 to 8) (size 9 to 14) (size 15 to 20)
#    0.000    2.000    0.000    4.000    0.000    3.000 
#    0.000    0.000    0.000    9.000    0.000    0.000 
#    0.000    0.000    0.000    0.000    0.000    0.000 
#
# Total GULP energy -595483.361763 kJ/mol
# GULP energy per Si atom -12405.903370 kJ/mol
# Density = 1.861475 g / cm^3
# Si number density = 18.657210 Si / 1000 Ang^3
#
#
#
# Elastic Constant Matrix: (Units=GPa)
#
#
# Indices 1 2 3 4 5 6 
#
# 1 78.5279 13.8810 46.1111 0.0000 0.0000 0.0000
# 2 13.8810 71.4444 -1.8209 0.0000 0.0000 0.0000
# 3 46.1111 -1.8209 80.0765 0.0000 0.0000 0.0000
# 4 0.0000 0.0000 0.0000 14.8474 0.0000 0.0000
# 5 0.0000 0.0000 0.0000 0.0000 13.9886 0.0000
# 6 0.0000 0.0000 0.0000 0.0000 0.0000 19.6621
#
#
#
# Elastic Compliance Matrix: (Units=1/GPa)
#
#
# Indices 1 2 3 4 5 6 
#
# 1 0.020469 -0.004280 -0.011884 0.000000 0.000000 0.000000
# 2 -0.004280 0.014900 0.002803 0.000000 0.000000 0.000000
# 3 -0.011884 0.002803 0.019395 0.000000 0.000000 0.000000
# 4 0.000000 0.000000 0.000000 0.067352 0.000000 0.000000
# 5 0.000000 0.000000 0.000000 0.000000 0.071487 0.000000
# 6 0.000000 0.000000 0.000000 0.000000 0.000000 0.050859
#
#
# Mechanical properties :
#
#
# Convention : Reuss Voigt Hill
#
# Bulk Modulus (GPa) = 35.65992 38.48791 37.07392
# Shear Modulus (GPa) = 17.82331 21.15812 19.49071
#
# Velocity S-wave (km/s) = 3.09415 3.37121 3.23565
# Velocity P-wave (km/s) = 5.64976 5.98558 5.82009
#
# Compressibility (1/GPa) = 0.02804268
#
# Stress axis : x y z
#
# Youngs Moduli (GPa) = 48.85381 67.11454 51.55914
#
# Poissons Ratio (x) = 0.28724 0.61274
# Poissons Ratio (y) = 0.20909 -0.14454
# Poissons Ratio (z) = 0.58059 -0.18814
#
# Static dielectric constant tensor:
#      x y z
#    x 3.365210 0.000000 0.000000 
#    y 0.000000 3.685230 0.000000 
#    z 0.000000 0.000000 3.086650 
# 
# 
# High freq. dielectric constant tensor:
#      x y z
#    x 1.712560 0.000000 0.000000 
#    y 0.000000 1.748770 0.000000 
#    z 0.000000 0.000000 1.701900 
# 
# From -- ./inp_files/18593.got.cif
#   From: 2010.06.25/outbox.cif.g09.slc.cpg/sg58_10_cif.got.tgz:18593.got - 2010.06.26 21:38:00.
