data_PCOD8235070
_publ_section_title
;
Structure prediction by ZEFSAII (Michael W. Deem and Ramdas Pophale) SiO2 
 PCOD8235070
Probable space group: P B C M
;
_chemical_formula_sum "Si O2"
_cell_formula_units_Z 60
_cell_length_a 9.316623
_cell_length_b 10.823137
_cell_length_c 27.520446
_cell_angle_alpha 90.000000
_cell_angle_beta 90.000000
_cell_angle_gamma 90.000000
_cell_volume 2775.026570
_symmetry_space_group_name_H-M "P B C M"
_symmetry_group_IT_number 57
_symmetry_cell_setting 'orthorhombic'
loop_
_space_group_symop_operation_xyz
x,y,z
-x,-y,1/2+z
x,1/2-y,-z
-x,1/2+y,1/2-z
-x,-y,-z
x,y,1/2-z
-x,1/2+y,z
x,1/2-y,1/2+z
loop_
_atom_site_type_symbol
_atom_site_label
_atom_site_fract_x
_atom_site_fract_y
_atom_site_fract_z
Si Si1 0.117301 0.413179 0.305029
Si Si2 0.373725 0.510642 0.039420
Si Si3 0.190042 0.886523 0.041464
Si Si4 0.360658 0.723851 0.108521
Si Si5 0.926088 0.182213 0.160684
Si Si6 0.935014 0.750000 0.000000
Si Si7 0.155158 0.124265 0.411036
Si Si8 0.654590 0.673100 0.879195
O O1 0.168879 0.393544 0.250000
O O2 0.053628 0.553626 0.309065
O O3 0.258699 0.406962 0.339391
O O4 0.999793 0.304630 0.315828
O O5 0.419250 0.594937 0.086066
O O6 0.332687 0.382125 0.066032
O O7 0.500000 0.500000 0.000000
O O8 0.234734 0.559057 0.010861
O O9 0.303530 0.785689 0.058880
O O10 0.031249 0.834360 0.035267
O O11 0.185138 0.979020 0.087511
O O12 0.241225 0.708830 0.150433
O O13 0.487612 0.803899 0.133560
O O14 0.997180 0.154399 0.108732
O O15 0.834023 0.665052 0.032795
O O16 0.273730 0.191467 0.378694
#
# Coordination Sequence:
#
# PCOD8235070 Si02
#       8
#     8   8   8   8   8   4   8   8
#     4  11  25  49  76 105 133 169 227 298 366 429
#     4  12  22  37  61  91 138 185 228 269 324 395
#     4  12  22  36  58  89 133 176 232 273 317 390
#     4  12  23  42  63  97 134 183 223 274 334 409
#     4  11  23  45  75 102 137 176 225 286 362 419
#     4  12  22  36  54  88 132 176 226 274 314 390
#     4  11  24  37  60  92 130 177 225 274 330 397
#     4  11  26  42  66  94 132 179 226 281 345 408
#
# _framework density 21.621414999999999
#
# number of rings (size 3 to 8) (size 9 to 14) (size 15 to 20)
#    0.000    0.533    5.333    3.200    1.867    1.067 
#    0.000    1.333    0.000    0.000    0.000    0.000 
#    0.000    0.000    0.000    0.000    0.000    0.000 
#
# Total GULP energy -743669.364510 kJ/mol
# GULP energy per Si atom -12394.489408 kJ/mol
# Density = 2.157220 g / cm^3
# Si number density = 21.621415 Si / 1000 Ang^3
#
#
#
# Elastic Constant Matrix: (Units=GPa)
#
#
# Indices 1 2 3 4 5 6 
#
# 1 86.7521 27.4806 27.6678 0.0000 0.0000 0.0000
# 2 27.4806 106.4898 27.3089 0.0000 0.0000 0.0000
# 3 27.6678 27.3089 95.0837 0.0000 0.0000 0.0000
# 4 0.0000 0.0000 0.0000 22.5398 0.0000 0.0000
# 5 0.0000 0.0000 0.0000 0.0000 22.8886 0.0000
# 6 0.0000 0.0000 0.0000 0.0000 0.0000 27.5114
#
#
#
# Elastic Compliance Matrix: (Units=1/GPa)
#
#
# Indices 1 2 3 4 5 6 
#
# 1 0.013363 -0.002646 -0.003128 0.000000 0.000000 0.000000
# 2 -0.002646 0.010661 -0.002292 0.000000 0.000000 0.000000
# 3 -0.003128 -0.002292 0.012086 0.000000 0.000000 0.000000
# 4 0.000000 0.000000 0.000000 0.044366 0.000000 0.000000
# 5 0.000000 0.000000 0.000000 0.000000 0.043690 0.000000
# 6 0.000000 0.000000 0.000000 0.000000 0.000000 0.036349
#
#
# Mechanical properties :
#
#
# Convention : Reuss Voigt Hill
#
# Bulk Modulus (GPa) = 50.05826 50.36002 50.20914
# Shear Modulus (GPa) = 27.27673 28.31252 27.79463
#
# Velocity S-wave (km/s) = 3.55570 3.62258 3.58930
# Velocity P-wave (km/s) = 6.32928 6.39060 6.36001
#
# Compressibility (1/GPa) = 0.01997672
#
# Stress axis : x y z
#
# Youngs Moduli (GPa) = 74.83300 93.79800 82.74275
#
# Poissons Ratio (x) = 0.24821 0.25886
# Poissons Ratio (y) = 0.19802 0.18965
# Poissons Ratio (z) = 0.23411 0.21498
#
# Static dielectric constant tensor:
#      x y z
#    x 3.724770 0.000000 0.000000 
#    y 0.000000 4.413900 0.000000 
#    z 0.000000 0.000000 3.537040 
# 
# 
# High freq. dielectric constant tensor:
#      x y z
#    x 1.841520 0.000000 0.000000 
#    y 0.000000 1.873660 0.000000 
#    z 0.000000 0.000000 1.808220 
# 
# From -- ./inp_files/28410.got.cif
#   From: 2010.03.12/outbox.cif.g09.slc.cpg/sg57_15_cif.got.tgz:28410.got - 2010.04.16 15:48:40.
