data_PCOD8235888
_publ_section_title
;
Structure prediction by ZEFSAII (Michael W. Deem and Ramdas Pophale) SiO2 
 PCOD8235888
Probable space group: P N N M
;
_chemical_formula_sum "Si O2"
_cell_formula_units_Z 32
_cell_length_a 20.164298
_cell_length_b 5.173714
_cell_length_c 17.513531
_cell_angle_alpha 90.000000
_cell_angle_beta 90.000000
_cell_angle_gamma 90.000000
_cell_volume 1827.087052
_symmetry_space_group_name_H-M "P N N M"
_symmetry_group_IT_number 58
_symmetry_cell_setting 'orthorhombic'
loop_
_space_group_symop_operation_xyz
x,y,z
-x,-y,z
1/2+x,1/2-y,1/2-z
1/2-x,1/2+y,1/2-z
-x,-y,-z
x,y,-z
1/2-x,1/2+y,1/2+z
1/2+x,1/2-y,1/2+z
loop_
_atom_site_type_symbol
_atom_site_label
_atom_site_fract_x
_atom_site_fract_y
_atom_site_fract_z
Si Si1 0.804061 0.906241 0.325438
Si Si2 0.457859 0.247450 0.588536
Si Si3 0.325423 0.365227 0.328579
Si Si4 0.290028 0.081788 0.089059
O O1 0.842425 0.966889 0.246895
O O2 0.814663 0.138967 0.384719
O O3 0.725240 0.868211 0.305208
O O4 0.830973 0.643867 0.365806
O O5 0.500000 0.500000 0.607307
O O6 0.437922 0.233838 0.500000
O O7 0.391541 0.243989 0.637880
O O8 0.500000 0.000000 0.613349
O O9 0.288598 0.544854 0.391966
O O10 0.302709 0.051080 0.000000
#
# Coordination Sequence:
#
# PCOD8235888 Si02
#       4
#     8   8   8   8
#     4  10  20  31  50  75  98 137 168 214 270 311
#     4  10  23  36  50  74 105 146 184 207 239 303
#     4  10  20  35  51  73 105 138 173 219 262 305
#     4  10  19  30  47  74 102 131 162 201 263 318
#
# _framework density 17.514216999999999
#
# number of rings (size 3 to 8) (size 9 to 14) (size 15 to 20)
#    1.500    0.500    2.500    1.500    3.500    0.000 
#    0.000    0.000    0.000    0.000    0.000    0.000 
#    0.000   20.000    0.000    0.000    0.000    0.000 
#
# Total GULP energy -396581.733995 kJ/mol
# GULP energy per Si atom -12393.179187 kJ/mol
# Density = 1.747435 g / cm^3
# Si number density = 17.514217 Si / 1000 Ang^3
#
#
#
# Elastic Constant Matrix: (Units=GPa)
#
#
# Indices 1 2 3 4 5 6 
#
# 1 43.8831 3.1012 9.8192 0.0000 0.0000 0.0000
# 2 3.1012 107.0655 21.6958 0.0000 0.0000 0.0000
# 3 9.8192 21.6958 85.9667 0.0000 0.0000 0.0000
# 4 0.0000 0.0000 0.0000 43.6391 0.0000 0.0000
# 5 0.0000 0.0000 0.0000 0.0000 28.3866 0.0000
# 6 0.0000 0.0000 0.0000 0.0000 0.0000 12.9692
#
#
#
# Elastic Compliance Matrix: (Units=1/GPa)
#
#
# Indices 1 2 3 4 5 6 
#
# 1 0.023388 -0.000143 -0.002635 0.000000 0.000000 0.000000
# 2 -0.000143 0.009844 -0.002468 0.000000 0.000000 0.000000
# 3 -0.002635 -0.002468 0.012556 0.000000 0.000000 0.000000
# 4 0.000000 0.000000 0.000000 0.022915 0.000000 0.000000
# 5 0.000000 0.000000 0.000000 0.000000 0.035228 0.000000
# 6 0.000000 0.000000 0.000000 0.000000 0.000000 0.077105
#
#
# Mechanical properties :
#
#
# Convention : Reuss Voigt Hill
#
# Bulk Modulus (GPa) = 28.33271 34.01641 31.17456
# Shear Modulus (GPa) = 24.59479 30.48561 27.54020
#
# Velocity S-wave (km/s) = 3.75143 4.17660 3.96971
# Velocity P-wave (km/s) = 5.91409 6.53628 6.23295
#
# Compressibility (1/GPa) = 0.03529489
#
# Stress axis : x y z
#
# Youngs Moduli (GPa) = 42.75769 101.58101 79.64143
#
# Poissons Ratio (x) = 0.01457 0.20987
# Poissons Ratio (y) = 0.00613 0.19656
# Poissons Ratio (z) = 0.11267 0.25071
#
# Static dielectric constant tensor:
#      x y z
#    x 2.663980 0.000000 0.000000 
#    y 0.000000 3.364470 0.000000 
#    z 0.000000 0.000000 3.123110 
# 
# 
# High freq. dielectric constant tensor:
#      x y z
#    x 1.606570 0.000000 0.000000 
#    y 0.000000 1.694310 0.000000 
#    z 0.000000 0.000000 1.681350 
# 
# From -- ./inp_files/18310.got.cif
#   From: 2010.06.25/outbox.cif.g09.slc.cpg/sg58_10_cif.got.tgz:18310.got - 2010.06.26 21:38:00.
