data_PCOD8235343
_publ_section_title
;
Structure prediction by ZEFSAII (Michael W. Deem and Ramdas Pophale) SiO2 
 PCOD8235343
Probable space group: P N N M
;
_chemical_formula_sum "Si O2"
_cell_formula_units_Z 64
_cell_length_a 17.936353
_cell_length_b 14.939740
_cell_length_c 13.141041
_cell_angle_alpha 90.000000
_cell_angle_beta 90.000000
_cell_angle_gamma 90.000000
_cell_volume 3521.331829
_symmetry_space_group_name_H-M "P N N M"
_symmetry_group_IT_number 58
_symmetry_cell_setting 'orthorhombic'
loop_
_space_group_symop_operation_xyz
x,y,z
-x,-y,z
1/2+x,1/2-y,1/2-z
1/2-x,1/2+y,1/2-z
-x,-y,-z
x,y,-z
1/2-x,1/2+y,1/2+z
1/2+x,1/2-y,1/2+z
loop_
_atom_site_type_symbol
_atom_site_label
_atom_site_fract_x
_atom_site_fract_y
_atom_site_fract_z
Si Si1 0.576364 0.048776 0.616323
Si Si2 0.801347 0.778097 0.619551
Si Si3 0.931463 0.723747 0.754641
Si Si4 0.063924 0.778676 0.879930
Si Si5 0.201356 0.882718 0.118955
Si Si6 0.166043 0.614400 0.818921
Si Si7 0.545107 0.078935 0.112576
Si Si8 0.309038 0.029279 0.885377
O O1 0.570899 0.077330 0.500000
O O2 0.595503 0.140053 0.676213
O O3 0.500000 0.000000 0.651100
O O4 0.644863 0.981979 0.636198
O O5 0.827201 0.771340 0.500000
O O6 0.869041 0.785921 0.700842
O O7 0.757418 0.691719 0.661935
O O8 0.746192 0.862281 0.632661
O O9 0.973253 0.674156 0.661825
O O10 0.986705 0.787606 0.818219
O O11 0.116684 0.861703 0.844342
O O12 0.103164 0.685116 0.851373
O O13 0.046495 0.780140 0.000000
O O14 0.229511 0.982933 0.144701
O O15 0.201586 0.865452 0.000000
O O16 0.172197 0.607015 0.695277
O O17 0.500000 0.000000 0.170019
O O18 0.632279 0.053176 0.116330
O O19 0.512751 0.087676 0.000000
O O20 0.306148 0.070399 0.000000
#
# Coordination Sequence:
#
# PCOD8235343 Si02
#       8
#     8   8   8   8   8   8   8   8
#     4  11  20  30  48  77 111 139 169 212 263 321
#     4  10  20  33  50  73 102 140 181 214 251 313
#     4  12  19  30  48  75 105 136 168 215 261 311
#     4  10  20  32  50  76 106 138 173 217 265 316
#     4   8  15  31  51  70  96 132 174 213 250 303
#     4  11  19  33  52  76 107 140 173 211 262 313
#     4  10  18  27  42  70 104 132 158 194 247 311
#     4  10  18  31  50  73 100 132 172 213 256 311
#
# _framework density 18.174942000000001
#
# number of rings (size 3 to 8) (size 9 to 14) (size 15 to 20)
#    0.000    1.750    3.750    3.750    0.000    0.000 
#    0.000    1.875    0.000    0.750    0.000    8.750 
#    0.000    0.000    0.000    0.000    0.000    0.000 
#
# Total GULP energy -792863.671137 kJ/mol
# GULP energy per Si atom -12388.494862 kJ/mol
# Density = 1.813358 g / cm^3
# Si number density = 18.174942 Si / 1000 Ang^3
#
#
#
# Elastic Constant Matrix: (Units=GPa)
#
#
# Indices 1 2 3 4 5 6 
#
# 1 102.0086 25.8247 37.6057 0.0000 0.0000 0.0000
# 2 25.8247 23.9788 13.4494 0.0000 0.0000 0.0000
# 3 37.6057 13.4494 105.4122 0.0000 0.0000 0.0000
# 4 0.0000 0.0000 0.0000 -10.0180 0.0000 0.0000
# 5 0.0000 0.0000 0.0000 0.0000 40.0929 0.0000
# 6 0.0000 0.0000 0.0000 0.0000 0.0000 30.8586
#
#
#
# Elastic Compliance Matrix: (Units=1/GPa)
#
#
# Indices 1 2 3 4 5 6 
#
# 1 0.014549 -0.013741 -0.003437 0.000000 0.000000 0.000000
# 2 -0.013741 0.057896 -0.002485 0.000000 0.000000 0.000000
# 3 -0.003437 -0.002485 0.011030 0.000000 0.000000 0.000000
# 4 0.000000 0.000000 0.000000 -0.099820 0.000000 0.000000
# 5 0.000000 0.000000 0.000000 0.000000 0.024942 0.000000
# 6 0.000000 0.000000 0.000000 0.000000 0.000000 0.032406
#
#
# Mechanical properties :
#
#
# Convention : Reuss Voigt Hill
#
# Bulk Modulus (GPa) = 22.65067 42.79548 32.72308
# Shear Modulus (GPa) = 52.60710 22.48803 37.54756
#
# Velocity S-wave (km/s) = 5.38588 3.52136 4.55015
# Velocity P-wave (km/s) = 7.15308 6.33489 6.75638
#
# Compressibility (1/GPa) = 0.04414880
#
# Stress axis : x y z
#
# Youngs Moduli (GPa) = 68.73375 17.27237 90.66359
#
# Poissons Ratio (x) = 0.23734 0.31162
# Poissons Ratio (y) = 0.94447 0.22528
# Poissons Ratio (z) = 0.23625 0.04292
#
# Static dielectric constant tensor:
#      x y z
#    x 3.460910 0.000000 0.000000 
#    y 0.000000 3.043840 0.000000 
#    z 0.000000 0.000000 3.548470 
# 
# 
# High freq. dielectric constant tensor:
#      x y z
#    x 1.689850 0.000000 0.000000 
#    y 0.000000 1.655370 0.000000 
#    z 0.000000 0.000000 1.712060 
# 
# From -- ./inp_files/23045.got.cif
#   From: 2010.06.25/outbox.cif.g09.slc.cpg/sg58_12_cif.got.tgz:23045.got - 2010.06.26 21:38:00.
