data_PCOD8235836
_publ_section_title
;
Structure prediction by ZEFSAII (Michael W. Deem and Ramdas Pophale) SiO2 
 PCOD8235836
Probable space group: P N N M
;
_chemical_formula_sum "Si O2"
_cell_formula_units_Z 64
_cell_length_a 19.887343
_cell_length_b 20.077130
_cell_length_c 9.141649
_cell_angle_alpha 90.000000
_cell_angle_beta 90.000000
_cell_angle_gamma 90.000000
_cell_volume 3650.084659
_symmetry_space_group_name_H-M "P N N M"
_symmetry_group_IT_number 58
_symmetry_cell_setting 'orthorhombic'
loop_
_space_group_symop_operation_xyz
x,y,z
-x,-y,z
1/2+x,1/2-y,1/2-z
1/2-x,1/2+y,1/2-z
-x,-y,-z
x,y,-z
1/2-x,1/2+y,1/2+z
1/2+x,1/2-y,1/2+z
loop_
_atom_site_type_symbol
_atom_site_label
_atom_site_fract_x
_atom_site_fract_y
_atom_site_fract_z
Si Si1 0.978806 0.296151 0.162276
Si Si2 0.556552 0.448911 0.329115
Si Si3 0.506726 0.668856 0.829311
Si Si4 0.320431 0.222820 0.661658
Si Si5 0.805004 0.425246 0.826947
Si Si6 0.196745 0.984236 0.827225
Si Si7 0.161916 0.851196 0.671806
Si Si8 0.543250 0.939546 0.325876
O O1 0.010704 0.242566 0.271573
O O2 0.899395 0.288163 0.152534
O O3 0.992571 0.370526 0.223817
O O4 0.009935 0.286168 0.000000
O O5 0.500000 0.500000 0.274905
O O6 0.549406 0.434231 0.500000
O O7 0.546348 0.380306 0.244266
O O8 0.628176 0.478454 0.286082
O O9 0.582865 0.648346 0.787954
O O10 0.494571 0.667823 0.000000
O O11 0.293710 0.242639 0.500000
O O12 0.288033 0.152209 0.711124
O O13 0.303569 0.282266 0.774341
O O14 0.756774 0.472294 0.735448
O O15 0.879909 0.443772 0.772110
O O16 0.796344 0.437795 0.000000
O O17 0.197839 0.911844 0.753427
O O18 0.204596 0.975099 0.000000
O O19 0.174006 0.857864 0.500000
O O20 0.543298 0.941383 0.500000
O O21 0.500000 0.000000 0.258412
#
# Coordination Sequence:
#
# PCOD8235836 Si02
#       8
#     8   8   8   8   8   8   8   8
#     4   8  14  26  47  73  99 128 161 199 240 290
#     4  10  20  34  50  69  96 133 174 212 248 295
#     4  10  19  29  46  72 101 129 162 209 255 294
#     4   8  15  29  49  71  96 127 162 200 246 296
#     4   9  18  33  53  77 104 132 164 207 255 301
#     4  11  22  34  51  73 100 135 172 210 254 305
#     4  10  19  30  48  75 101 127 164 210 253 294
#     4   8  14  28  54  83 104 127 165 206 246 295
#
# _framework density 17.533840000000001
#
# number of rings (size 3 to 8) (size 9 to 14) (size 15 to 20)
#    0.000    2.750    1.250    2.625    0.000    2.750 
#    0.000    1.875    2.750    1.500    0.000    0.000 
#    0.000    0.000    0.000    0.000    0.000    0.000 
#
# Total GULP energy -793405.007597 kJ/mol
# GULP energy per Si atom -12396.953244 kJ/mol
# Density = 1.749393 g / cm^3
# Si number density = 17.533840 Si / 1000 Ang^3
#
#
#
# Elastic Constant Matrix: (Units=GPa)
#
#
# Indices 1 2 3 4 5 6 
#
# 1 58.1178 51.7502 28.2763 0.0000 0.0000 0.0000
# 2 51.7502 165.3591 58.7556 0.0000 0.0000 0.0000
# 3 28.2763 58.7556 61.4891 0.0000 0.0000 0.0000
# 4 0.0000 0.0000 0.0000 25.9949 0.0000 0.0000
# 5 0.0000 0.0000 0.0000 0.0000 18.8701 0.0000
# 6 0.0000 0.0000 0.0000 0.0000 0.0000 26.2805
#
#
#
# Elastic Compliance Matrix: (Units=1/GPa)
#
#
# Indices 1 2 3 4 5 6 
#
# 1 0.025307 -0.005731 -0.006162 0.000000 0.000000 0.000000
# 2 -0.005731 0.010454 -0.007354 0.000000 0.000000 0.000000
# 3 -0.006162 -0.007354 0.026124 0.000000 0.000000 0.000000
# 4 0.000000 0.000000 0.000000 0.038469 0.000000 0.000000
# 5 0.000000 0.000000 0.000000 0.000000 0.052994 0.000000
# 6 0.000000 0.000000 0.000000 0.000000 0.000000 0.038051
#
#
# Mechanical properties :
#
#
# Convention : Reuss Voigt Hill
#
# Bulk Modulus (GPa) = 42.74983 62.50336 52.62660
# Shear Modulus (GPa) = 21.03593 23.97469 22.50531
#
# Velocity S-wave (km/s) = 3.46747 3.70177 3.58653
# Velocity P-wave (km/s) = 6.36124 7.34816 6.87244
#
# Compressibility (1/GPa) = 0.02339191
#
# Stress axis : x y z
#
# Youngs Moduli (GPa) = 39.51457 95.65848 38.27959
#
# Poissons Ratio (x) = 0.54818 0.23587
# Poissons Ratio (y) = 0.22644 0.28150
# Poissons Ratio (z) = 0.24348 0.70346
#
# Static dielectric constant tensor:
#      x y z
#    x 2.953910 0.000000 0.000000 
#    y 0.000000 3.633680 0.000000 
#    z 0.000000 0.000000 3.125540 
# 
# 
# High freq. dielectric constant tensor:
#      x y z
#    x 1.633600 0.000000 0.000000 
#    y 0.000000 1.693750 0.000000 
#    z 0.000000 0.000000 1.666100 
# 
# From -- ./inp_files/8308.got.cif
#   From: 2010.06.25/outbox.cif.g09.slc.cpg/sg58_5_cif.got.tgz:8308.got - 2010.06.26 21:38:00.
