data_PCOD8235096
_publ_section_title
;
Structure prediction by ZEFSAII (Michael W. Deem and Ramdas Pophale) SiO2 
 PCOD8235096
Probable space group: P B C M
;
_chemical_formula_sum "Si O2"
_cell_formula_units_Z 48
_cell_length_a 4.913113
_cell_length_b 25.861820
_cell_length_c 16.963827
_cell_angle_alpha 90.000000
_cell_angle_beta 90.000000
_cell_angle_gamma 90.000000
_cell_volume 2155.458533
_symmetry_space_group_name_H-M "P B C M"
_symmetry_group_IT_number 57
_symmetry_cell_setting 'orthorhombic'
loop_
_space_group_symop_operation_xyz
x,y,z
-x,-y,1/2+z
x,1/2-y,-z
-x,1/2+y,1/2-z
-x,-y,-z
x,y,1/2-z
-x,1/2+y,z
x,1/2-y,1/2+z
loop_
_atom_site_type_symbol
_atom_site_label
_atom_site_fract_x
_atom_site_fract_y
_atom_site_fract_z
Si Si1 0.207240 0.648592 0.403283
Si Si2 0.675613 0.130198 0.582917
Si Si3 0.875804 0.462348 0.840654
Si Si4 0.177707 0.321520 0.341593
Si Si5 0.387748 0.988066 0.413808
Si Si6 0.290438 0.204596 0.341491
O O1 0.275004 0.648593 0.494729
O O2 0.250403 0.592444 0.365581
O O3 0.398157 0.689863 0.358769
O O4 0.897085 0.666195 0.391974
O O5 0.365734 0.141171 0.606491
O O6 0.867640 0.162664 0.641461
O O7 0.730015 0.069464 0.592347
O O8 0.967708 0.462670 0.750000
O O9 0.636088 0.504158 0.852925
O O10 0.138054 0.473881 0.894382
O O11 0.242751 0.329073 0.250000
O O12 0.233727 0.262972 0.368252
O O13 0.500000 0.000000 0.500000
O O14 0.222695 0.197048 0.250000
#
# Coordination Sequence:
#
# PCOD8235096 Si02
#       6
#     8   8   8   8   8   8
#     4  12  25  42  70 102 137 174 222 278 342 412
#     4  12  26  43  71  98 133 180 223 281 341 400
#     4  12  26  44  71 104 135 178 231 281 333 411
#     4  11  26  46  68  98 135 178 230 279 332 405
#     4  12  26  46  69  96 141 183 222 279 349 400
#     4  11  24  44  68  97 139 180 218 279 342 396
#
# _framework density 22.269047
#
# number of rings (size 3 to 8) (size 9 to 14) (size 15 to 20)
#    0.000    0.333    1.667    7.000    2.333   10.667 
#    0.000    0.000    0.000    0.000    0.000    0.000 
#    0.000    0.000    0.000    0.000    0.000    0.000 
#
# Total GULP energy -595725.859626 kJ/mol
# GULP energy per Si atom -12410.955409 kJ/mol
# Density = 2.221836 g / cm^3
# Si number density = 22.269047 Si / 1000 Ang^3
#
#
#
# Elastic Constant Matrix: (Units=GPa)
#
#
# Indices 1 2 3 4 5 6 
#
# 1 103.7676 27.5351 20.7130 0.0000 0.0000 0.0000
# 2 27.5351 116.3042 44.1298 0.0000 0.0000 0.0000
# 3 20.7130 44.1298 106.8094 0.0000 0.0000 0.0000
# 4 0.0000 0.0000 0.0000 32.0886 0.0000 0.0000
# 5 0.0000 0.0000 0.0000 0.0000 39.9513 0.0000
# 6 0.0000 0.0000 0.0000 0.0000 0.0000 46.7306
#
#
#
# Elastic Compliance Matrix: (Units=1/GPa)
#
#
# Indices 1 2 3 4 5 6 
#
# 1 0.010408 -0.002014 -0.001186 0.000000 0.000000 0.000000
# 2 -0.002014 0.010586 -0.003983 0.000000 0.000000 0.000000
# 3 -0.001186 -0.003983 0.011238 0.000000 0.000000 0.000000
# 4 0.000000 0.000000 0.000000 0.031164 0.000000 0.000000
# 5 0.000000 0.000000 0.000000 0.000000 0.025031 0.000000
# 6 0.000000 0.000000 0.000000 0.000000 0.000000 0.021399
#
#
# Mechanical properties :
#
#
# Convention : Reuss Voigt Hill
#
# Bulk Modulus (GPa) = 55.97369 56.84854 56.41112
# Shear Modulus (GPa) = 38.41759 39.38765 38.90262
#
# Velocity S-wave (km/s) = 4.15801 4.21017 4.18417
# Velocity P-wave (km/s) = 6.94563 7.01552 6.98066
#
# Compressibility (1/GPa) = 0.01786554
#
# Stress axis : x y z
#
# Youngs Moduli (GPa) = 96.07866 94.46099 88.98153
#
# Poissons Ratio (x) = 0.19025 0.10556
# Poissons Ratio (y) = 0.19350 0.35444
# Poissons Ratio (z) = 0.11398 0.37627
#
# Static dielectric constant tensor:
#      x y z
#    x 4.033370 0.000000 0.000000 
#    y 0.000000 4.081770 0.000000 
#    z 0.000000 0.000000 3.967470 
# 
# 
# High freq. dielectric constant tensor:
#      x y z
#    x 1.890550 0.000000 0.000000 
#    y 0.000000 1.885050 0.000000 
#    z 0.000000 0.000000 1.883910 
# 
# From -- ./inp_files/15125.got.cif
#   From: 2010.03.12/outbox.cif.g09.slc.cpg/sg57_8_cif.got.tgz:15125.got - 2010.04.16 15:48:40.
