data_PCOD8235381
_publ_section_title
;
Structure prediction by ZEFSAII (Michael W. Deem and Ramdas Pophale) SiO2 
 PCOD8235381
Probable space group: P N N M
;
_chemical_formula_sum "Si O2"
_cell_formula_units_Z 56
_cell_length_a 9.013071
_cell_length_b 17.067454
_cell_length_c 21.711828
_cell_angle_alpha 90.000000
_cell_angle_beta 90.000000
_cell_angle_gamma 90.000000
_cell_volume 3339.934294
_symmetry_space_group_name_H-M "P N N M"
_symmetry_group_IT_number 58
_symmetry_cell_setting 'orthorhombic'
loop_
_space_group_symop_operation_xyz
x,y,z
-x,-y,z
1/2+x,1/2-y,1/2-z
1/2-x,1/2+y,1/2-z
-x,-y,-z
x,y,-z
1/2-x,1/2+y,1/2+z
1/2+x,1/2-y,1/2+z
loop_
_atom_site_type_symbol
_atom_site_label
_atom_site_fract_x
_atom_site_fract_y
_atom_site_fract_z
Si Si1 0.636214 0.145740 0.199003
Si Si2 0.657195 0.459964 0.150462
Si Si3 0.300909 0.161821 0.185961
Si Si4 0.822696 0.995400 0.215441
Si Si5 0.358214 0.949837 0.571388
Si Si6 0.718690 0.798724 0.327377
Si Si7 0.382468 0.807914 0.658852
O O1 0.471676 0.142140 0.169927
O O2 0.709759 0.214968 0.159769
O O3 0.635808 0.161166 0.271930
O O4 0.735050 0.068569 0.186146
O O5 0.500000 0.500000 0.156401
O O6 0.739323 0.484283 0.214445
O O7 0.724028 0.492814 0.087486
O O8 0.670491 0.365434 0.145169
O O9 0.213024 0.081355 0.175326
O O10 0.294782 0.191153 0.255119
O O11 0.218698 0.230407 0.146729
O O12 0.000000 0.000000 0.213988
O O13 0.361845 0.927527 0.500000
O O14 0.328660 0.872390 0.610666
O O15 0.500000 0.000000 0.592347
O O16 0.555672 0.795838 0.357349
#
# Coordination Sequence:
#
# PCOD8235381 Si02
#       7
#     8   8   8   8   8   8   8
#     4  10  18  28  47  70  99 126 164 198 242 306
#     4  10  20  31  49  67  97 132 169 205 252 287
#     4   9  19  27  45  69  93 128 162 194 242 302
#     4  10  18  29  45  70 101 133 162 191 240 304
#     4  11  22  35  52  71  93 133 182 215 246 287
#     4   9  18  29  43  68  93 129 160 196 247 301
#     4  10  18  32  47  65  99 128 163 209 250 288
#
# _framework density 16.766795999999999
#
# number of rings (size 3 to 8) (size 9 to 14) (size 15 to 20)
#    0.000    2.143    2.857    1.286    2.000    3.714 
#    0.000    0.000    0.000    0.000    0.000    0.000 
#    0.000    8.571    0.000    0.000    0.000    0.286 
#
# Total GULP energy -693805.320894 kJ/mol
# GULP energy per Si atom -12389.380730 kJ/mol
# Density = 1.672863 g / cm^3
# Si number density = 16.766796 Si / 1000 Ang^3
#
#
#
# Elastic Constant Matrix: (Units=GPa)
#
#
# Indices 1 2 3 4 5 6 
#
# 1 84.9317 53.8063 13.4130 0.0000 0.0000 0.0000
# 2 53.8063 140.1404 25.9307 0.0000 0.0000 0.0000
# 3 13.4130 25.9307 29.6031 0.0000 0.0000 0.0000
# 4 0.0000 0.0000 0.0000 14.0372 0.0000 0.0000
# 5 0.0000 0.0000 0.0000 0.0000 14.9743 0.0000
# 6 0.0000 0.0000 0.0000 0.0000 0.0000 38.6887
#
#
#
# Elastic Compliance Matrix: (Units=1/GPa)
#
#
# Indices 1 2 3 4 5 6 
#
# 1 0.015676 -0.005615 -0.002185 0.000000 0.000000 0.000000
# 2 -0.005615 0.010527 -0.006677 0.000000 0.000000 0.000000
# 3 -0.002185 -0.006677 0.040619 0.000000 0.000000 0.000000
# 4 0.000000 0.000000 0.000000 0.071239 0.000000 0.000000
# 5 0.000000 0.000000 0.000000 0.000000 0.066781 0.000000
# 6 0.000000 0.000000 0.000000 0.000000 0.000000 0.025847
#
#
# Mechanical properties :
#
#
# Convention : Reuss Voigt Hill
#
# Bulk Modulus (GPa) = 26.40667 48.99724 37.70196
# Shear Modulus (GPa) = 18.36444 24.30839 21.33641
#
# Velocity S-wave (km/s) = 3.31310 3.81175 3.57114
# Velocity P-wave (km/s) = 5.51535 6.97558 6.28800
#
# Compressibility (1/GPa) = 0.03786922
#
# Stress axis : x y z
#
# Youngs Moduli (GPa) = 63.79119 94.99512 24.61909
#
# Poissons Ratio (x) = 0.53335 0.05379
# Poissons Ratio (y) = 0.35816 0.16438
# Poissons Ratio (z) = 0.13937 0.63429
#
# Static dielectric constant tensor:
#      x y z
#    x 3.195590 0.000000 0.000000 
#    y 0.000000 3.302070 0.000000 
#    z 0.000000 0.000000 2.573570 
# 
# 
# High freq. dielectric constant tensor:
#      x y z
#    x 1.658170 0.000000 0.000000 
#    y 0.000000 1.661410 0.000000 
#    z 0.000000 0.000000 1.566630 
# 
# From -- ./inp_files/28986.got.cif
#   From: 2010.06.25/outbox.cif.g09.slc.cpg/sg58_15_cif.got.tgz:28986.got - 2010.06.26 21:38:00.
