data_PCOD8235880
_publ_section_title
;
Structure prediction by ZEFSAII (Michael W. Deem and Ramdas Pophale) SiO2 
 PCOD8235880
Probable space group: P N N M
;
_chemical_formula_sum "Si O2"
_cell_formula_units_Z 56
_cell_length_a 18.005969
_cell_length_b 20.796875
_cell_length_c 8.794764
_cell_angle_alpha 90.000000
_cell_angle_beta 90.000000
_cell_angle_gamma 90.000000
_cell_volume 3293.356688
_symmetry_space_group_name_H-M "P N N M"
_symmetry_group_IT_number 58
_symmetry_cell_setting 'orthorhombic'
loop_
_space_group_symop_operation_xyz
x,y,z
-x,-y,z
1/2+x,1/2-y,1/2-z
1/2-x,1/2+y,1/2-z
-x,-y,-z
x,y,-z
1/2-x,1/2+y,1/2+z
1/2+x,1/2-y,1/2+z
loop_
_atom_site_type_symbol
_atom_site_label
_atom_site_fract_x
_atom_site_fract_y
_atom_site_fract_z
Si Si1 0.414218 0.501658 0.177652
Si Si2 0.713156 0.814897 0.330062
Si Si3 0.916376 0.245669 0.321467
Si Si4 0.655826 0.376620 0.674532
Si Si5 0.300948 0.817392 0.831791
Si Si6 0.653397 0.622134 0.679371
Si Si7 0.570716 0.243455 0.327219
O O1 0.500000 0.500000 0.224721
O O2 0.382106 0.570634 0.220109
O O3 0.370661 0.448342 0.272260
O O4 0.403360 0.488366 0.000000
O O5 0.699908 0.842150 0.500000
O O6 0.634409 0.801383 0.251028
O O7 0.759901 0.866122 0.231724
O O8 0.758140 0.749424 0.338421
O O9 0.903651 0.245889 0.500000
O O10 0.898105 0.174781 0.259991
O O11 0.000944 0.262324 0.283183
O O12 0.657915 0.399429 0.500000
O O13 0.607854 0.312581 0.694158
O O14 0.240408 0.869660 0.774628
O O15 0.370437 0.812340 0.717804
O O16 0.330653 0.835130 0.000000
O O17 0.643341 0.632026 0.500000
O O18 0.545487 0.232155 0.500000
#
# Coordination Sequence:
#
# PCOD8235880 Si02
#       7
#     8   8   8   8   8   8   8
#     4  11  23  35  48  69  97 130 166 200 234 275
#     4   9  17  31  49  68  93 123 157 196 238 284
#     4  11  20  30  47  71  99 127 157 195 239 285
#     4  10  20  33  49  69  95 128 164 199 237 282
#     4   8  16  30  47  67  91 120 153 192 238 283
#     4  10  20  34  50  68  94 127 162 199 238 282
#     4  10  19  30  47  71  97 125 157 194 237 283
#
# _framework density 17.003927999999998
#
# number of rings (size 3 to 8) (size 9 to 14) (size 15 to 20)
#    0.000    2.143    0.000    5.143    0.000    9.143 
#    0.000    0.000    0.000    0.000    0.000    1.000 
#    0.000    8.000    0.000    0.000    0.000    0.000 
#
# Total GULP energy -694434.599735 kJ/mol
# GULP energy per Si atom -12400.617852 kJ/mol
# Density = 1.696523 g / cm^3
# Si number density = 17.003928 Si / 1000 Ang^3
#
#
#
# Elastic Constant Matrix: (Units=GPa)
#
#
# Indices 1 2 3 4 5 6 
#
# 1 95.0128 34.9477 43.8758 0.0000 0.0000 0.0000
# 2 34.9477 47.1973 18.8079 0.0000 0.0000 0.0000
# 3 43.8758 18.8079 82.8206 0.0000 0.0000 0.0000
# 4 0.0000 0.0000 0.0000 23.4434 0.0000 0.0000
# 5 0.0000 0.0000 0.0000 0.0000 30.6799 0.0000
# 6 0.0000 0.0000 0.0000 0.0000 0.0000 24.5130
#
#
#
# Elastic Compliance Matrix: (Units=1/GPa)
#
#
# Indices 1 2 3 4 5 6 
#
# 1 0.017474 -0.010170 -0.006948 0.000000 0.000000 0.000000
# 2 -0.010170 0.029215 -0.001247 0.000000 0.000000 0.000000
# 3 -0.006948 -0.001247 0.016038 0.000000 0.000000 0.000000
# 4 0.000000 0.000000 0.000000 0.042656 0.000000 0.000000
# 5 0.000000 0.000000 0.000000 0.000000 0.032595 0.000000
# 6 0.000000 0.000000 0.000000 0.000000 0.000000 0.040795
#
#
# Mechanical properties :
#
#
# Convention : Reuss Voigt Hill
#
# Bulk Modulus (GPa) = 38.46426 46.69927 42.58177
# Shear Modulus (GPa) = 22.30475 24.22054 23.26265
#
# Velocity S-wave (km/s) = 3.62573 3.77823 3.70276
# Velocity P-wave (km/s) = 6.34017 6.82325 6.58614
#
# Compressibility (1/GPa) = 0.02599816
#
# Stress axis : x y z
#
# Youngs Moduli (GPa) = 57.22765 34.22894 62.35176
#
# Poissons Ratio (x) = 0.34812 0.43320
# Poissons Ratio (y) = 0.58202 0.07773
# Poissons Ratio (z) = 0.39760 0.04267
#
# Static dielectric constant tensor:
#      x y z
#    x 3.303040 0.000000 0.000000 
#    y 0.000000 2.924040 0.000000 
#    z 0.000000 0.000000 3.323380 
# 
# 
# High freq. dielectric constant tensor:
#      x y z
#    x 1.657030 0.000000 0.000000 
#    y 0.000000 1.612930 0.000000 
#    z 0.000000 0.000000 1.672900 
# 
# From -- ./inp_files/8143.got.cif
#   From: 2010.06.25/outbox.cif.g09.slc.cpg/sg58_5_cif.got.tgz:8143.got - 2010.06.26 21:38:00.
