data_PCOD8235505
_publ_section_title
;
Structure prediction by ZEFSAII (Michael W. Deem and Ramdas Pophale) SiO2 
 PCOD8235505
Probable space group: P N N M
;
_chemical_formula_sum "Si O2"
_cell_formula_units_Z 64
_cell_length_a 20.716272
_cell_length_b 19.778737
_cell_length_c 8.665552
_cell_angle_alpha 90.000000
_cell_angle_beta 90.000000
_cell_angle_gamma 90.000000
_cell_volume 3550.637969
_symmetry_space_group_name_H-M "P N N M"
_symmetry_group_IT_number 58
_symmetry_cell_setting 'orthorhombic'
loop_
_space_group_symop_operation_xyz
x,y,z
-x,-y,z
1/2+x,1/2-y,1/2-z
1/2-x,1/2+y,1/2-z
-x,-y,-z
x,y,-z
1/2-x,1/2+y,1/2+z
1/2+x,1/2-y,1/2+z
loop_
_atom_site_type_symbol
_atom_site_label
_atom_site_fract_x
_atom_site_fract_y
_atom_site_fract_z
Si Si1 0.425318 0.696319 0.181402
Si Si2 0.736967 0.073560 0.819450
Si Si3 0.806533 0.717135 0.681224
Si Si4 0.768610 0.437080 0.181497
Si Si5 0.124070 0.929107 0.681124
Si Si6 0.069620 0.787960 0.679490
Si Si7 0.628343 0.433233 0.680834
Si Si8 0.181985 0.705698 0.181653
O O1 0.371066 0.747694 0.247261
O O2 0.495136 0.728664 0.216790
O O3 0.420578 0.625541 0.270736
O O4 0.417280 0.682138 0.000000
O O5 0.691073 0.137207 0.779958
O O6 0.801346 0.082460 0.720717
O O7 0.703107 0.003251 0.769058
O O8 0.754594 0.071631 0.000000
O O9 0.805556 0.729251 0.500000
O O10 0.741932 0.751313 0.752884
O O11 0.695143 0.422294 0.228698
O O12 0.811502 0.372702 0.230437
O O13 0.771283 0.450123 0.000000
O O14 0.115561 0.941377 0.500000
O O15 0.085038 0.863585 0.739078
O O16 0.097217 0.994846 0.770912
O O17 0.085296 0.783744 0.500000
O O18 0.113484 0.732274 0.761016
O O19 0.642132 0.431944 0.500000
O O20 0.184086 0.713613 0.000000
#
# Coordination Sequence:
#
# PCOD8235505 Si02
#       8
#     8   8   8   8   8   8   8   8
#     4  10  20  38  55  72 104 142 178 210 258 317
#     4  10  18  30  51  79 103 129 167 214 259 298
#     4   9  17  32  55  77  99 135 173 209 256 309
#     4  10  19  33  53  77 104 139 171 205 260 313
#     4  10  19  32  48  72 104 139 171 204 254 308
#     4  10  22  35  53  78 104 137 175 220 258 299
#     4  11  21  32  49  76 104 137 176 216 253 294
#     4  10  19  34  56  77 102 138 172 209 259 312
#
# _framework density 18.024929
#
# number of rings (size 3 to 8) (size 9 to 14) (size 15 to 20)
#    0.000    2.000    2.500    3.750    0.000    2.500 
#    0.000    3.750    0.000    0.750    0.000    5.250 
#    0.000    0.000    0.000    0.000    0.000    0.000 
#
# Total GULP energy -793524.201884 kJ/mol
# GULP energy per Si atom -12398.815654 kJ/mol
# Density = 1.798390 g / cm^3
# Si number density = 18.024929 Si / 1000 Ang^3
#
#
#
# Elastic Constant Matrix: (Units=GPa)
#
#
# Indices 1 2 3 4 5 6 
#
# 1 84.9334 60.5747 9.9707 0.0000 0.0000 0.0000
# 2 60.5747 130.8000 31.3558 0.0000 0.0000 0.0000
# 3 9.9707 31.3558 26.7954 0.0000 0.0000 0.0000
# 4 0.0000 0.0000 0.0000 22.0069 0.0000 0.0000
# 5 0.0000 0.0000 0.0000 0.0000 18.0702 0.0000
# 6 0.0000 0.0000 0.0000 0.0000 0.0000 26.0596
#
#
#
# Elastic Compliance Matrix: (Units=1/GPa)
#
#
# Indices 1 2 3 4 5 6 
#
# 1 0.017919 -0.009312 0.004230 0.000000 0.000000 0.000000
# 2 -0.009312 0.015466 -0.014633 0.000000 0.000000 0.000000
# 3 0.004230 -0.014633 0.052869 0.000000 0.000000 0.000000
# 4 0.000000 0.000000 0.000000 0.045440 0.000000 0.000000
# 5 0.000000 0.000000 0.000000 0.000000 0.055340 0.000000
# 6 0.000000 0.000000 0.000000 0.000000 0.000000 0.038374
#
#
# Mechanical properties :
#
#
# Convention : Reuss Voigt Hill
#
# Bulk Modulus (GPa) = 21.35715 49.59236 35.47476
# Shear Modulus (GPa) = 17.82875 22.60251 20.21563
#
# Velocity S-wave (km/s) = 3.14843 3.54497 3.35257
# Velocity P-wave (km/s) = 5.00912 6.65798 5.89152
#
# Compressibility (1/GPa) = 0.04682273
#
# Stress axis : x y z
#
# Youngs Moduli (GPa) = 55.80659 64.65923 18.91465
#
# Poissons Ratio (x) = 0.60213 -0.08000
# Poissons Ratio (y) = 0.51969 0.27677
# Poissons Ratio (z) = -0.23603 0.94614
#
# Static dielectric constant tensor:
#      x y z
#    x 3.129380 0.000000 0.000000 
#    y 0.000000 3.691700 0.000000 
#    z 0.000000 0.000000 3.183840 
# 
# 
# High freq. dielectric constant tensor:
#      x y z
#    x 1.665160 0.000000 0.000000 
#    y 0.000000 1.707670 0.000000 
#    z 0.000000 0.000000 1.688590 
# 
# From -- ./inp_files/8367.got.cif
#   From: 2010.06.25/outbox.cif.g09.slc.cpg/sg58_5_cif.got.tgz:8367.got - 2010.06.26 21:38:00.
