data_PCOD8235382
_publ_section_title
;
Structure prediction by ZEFSAII (Michael W. Deem and Ramdas Pophale) SiO2 
 PCOD8235382
Probable space group: P N N M
;
_chemical_formula_sum "Si O2"
_cell_formula_units_Z 40
_cell_length_a 18.142992
_cell_length_b 13.761785
_cell_length_c 9.068904
_cell_angle_alpha 90.000000
_cell_angle_beta 90.000000
_cell_angle_gamma 90.000000
_cell_volume 2264.323544
_symmetry_space_group_name_H-M "P N N M"
_symmetry_group_IT_number 58
_symmetry_cell_setting 'orthorhombic'
loop_
_space_group_symop_operation_xyz
x,y,z
-x,-y,z
1/2+x,1/2-y,1/2-z
1/2-x,1/2+y,1/2-z
-x,-y,-z
x,y,-z
1/2-x,1/2+y,1/2+z
1/2+x,1/2-y,1/2+z
loop_
_atom_site_type_symbol
_atom_site_label
_atom_site_fract_x
_atom_site_fract_y
_atom_site_fract_z
Si Si1 0.469341 0.099932 0.174685
Si Si2 0.473296 0.698397 0.824305
Si Si3 0.126608 0.878477 0.674524
Si Si4 0.329857 0.588380 0.175619
Si Si5 0.311583 0.175183 0.826807
O O1 0.518751 0.190334 0.232180
O O2 0.384307 0.115052 0.219200
O O3 0.500000 0.000000 0.245705
O O4 0.475582 0.095666 0.000000
O O5 0.543405 0.636801 0.764957
O O6 0.398038 0.652302 0.763249
O O7 0.473744 0.696070 0.000000
O O8 0.121715 0.883813 0.500000
O O9 0.178112 0.787823 0.720287
O O10 0.160372 0.978537 0.736548
O O11 0.255302 0.631787 0.236923
O O12 0.326980 0.590531 0.000000
O O13 0.295930 0.165876 0.000000
#
# Coordination Sequence:
#
# PCOD8235382 Si02
#       5
#     8   8   8   8   8
#     4   8  14  26  44  64  86 114 149 185 216 250
#     4   8  14  25  43  65  84 109 150 188 213 249
#     4   8  15  29  46  63  87 119 149 179 219 263
#     4  10  18  28  47  71  90 111 147 191 223 253
#     4   9  18  31  45  64  93 122 144 174 223 274
#
# _framework density 17.665320000000001
#
# number of rings (size 3 to 8) (size 9 to 14) (size 15 to 20)
#    0.000    3.400    0.000    3.000    0.000    4.000 
#    0.000    3.000    0.000    7.800    0.000    0.000 
#    0.000    0.000    0.000    0.000    0.000    0.000 
#
# Total GULP energy -495713.796857 kJ/mol
# GULP energy per Si atom -12392.844921 kJ/mol
# Density = 1.762511 g / cm^3
# Si number density = 17.665320 Si / 1000 Ang^3
#
#
#
# Elastic Constant Matrix: (Units=GPa)
#
#
# Indices 1 2 3 4 5 6 
#
# 1 141.3588 109.6713 20.6209 0.0000 0.0000 0.0000
# 2 109.6713 180.6582 20.1789 0.0000 0.0000 0.0000
# 3 20.6209 20.1789 10.9775 0.0000 0.0000 0.0000
# 4 0.0000 0.0000 0.0000 13.9035 0.0000 0.0000
# 5 0.0000 0.0000 0.0000 0.0000 27.0213 0.0000
# 6 0.0000 0.0000 0.0000 0.0000 0.0000 29.4814
#
#
#
# Elastic Compliance Matrix: (Units=1/GPa)
#
#
# Indices 1 2 3 4 5 6 
#
# 1 0.014982 -0.007489 -0.014376 0.000000 0.000000 0.000000
# 2 -0.007489 0.010709 -0.005618 0.000000 0.000000 0.000000
# 3 -0.014376 -0.005618 0.128428 0.000000 0.000000 0.000000
# 4 0.000000 0.000000 0.000000 0.071924 0.000000 0.000000
# 5 0.000000 0.000000 0.000000 0.000000 0.037008 0.000000
# 6 0.000000 0.000000 0.000000 0.000000 0.000000 0.033920
#
#
# Mechanical properties :
#
#
# Convention : Reuss Voigt Hill
#
# Bulk Modulus (GPa) = 10.08547 70.43742 40.26145
# Shear Modulus (GPa) = 12.98746 26.24947 19.61846
#
# Velocity S-wave (km/s) = 2.71439 3.85896 3.33613
# Velocity P-wave (km/s) = 3.94277 7.73403 6.13843
#
# Compressibility (1/GPa) = 0.09915255
#
# Stress axis : x y z
#
# Youngs Moduli (GPa) = 66.74850 93.37836 7.78649
#
# Poissons Ratio (x) = 0.69931 0.11194
# Poissons Ratio (y) = 0.49988 0.04374
# Poissons Ratio (z) = 0.95959 0.52457
#
# Static dielectric constant tensor:
#      x y z
#    x 3.331320 0.000000 0.000000 
#    y 0.000000 3.947960 0.000000 
#    z 0.000000 0.000000 2.605910 
# 
# 
# High freq. dielectric constant tensor:
#      x y z
#    x 1.685710 0.000000 0.000000 
#    y 0.000000 1.700050 0.000000 
#    z 0.000000 0.000000 1.612910 
# 
# From -- ./inp_files/5364.got.cif
#   From: 2010.06.25/outbox.cif.g09.slc.cpg/sg58_3_cif.got.tgz:5364.got - 2010.06.26 21:38:00.
