data_PCOD8235657
_publ_section_title
;
Structure prediction by ZEFSAII (Michael W. Deem and Ramdas Pophale) SiO2 
 PCOD8235657
Probable space group: P N N M
;
_chemical_formula_sum "Si O2"
_cell_formula_units_Z 56
_cell_length_a 15.147375
_cell_length_b 11.668607
_cell_length_c 15.139773
_cell_angle_alpha 90.000000
_cell_angle_beta 90.000000
_cell_angle_gamma 90.000000
_cell_volume 2675.936195
_symmetry_space_group_name_H-M "P N N M"
_symmetry_group_IT_number 58
_symmetry_cell_setting 'orthorhombic'
loop_
_space_group_symop_operation_xyz
x,y,z
-x,-y,z
1/2+x,1/2-y,1/2-z
1/2-x,1/2+y,1/2-z
-x,-y,-z
x,y,-z
1/2-x,1/2+y,1/2+z
1/2+x,1/2-y,1/2+z
loop_
_atom_site_type_symbol
_atom_site_label
_atom_site_fract_x
_atom_site_fract_y
_atom_site_fract_z
Si Si1 0.407076 0.617398 0.366051
Si Si2 0.750229 0.114450 0.219917
Si Si3 0.614910 0.310761 0.180657
Si Si4 0.681649 0.526470 0.098725
Si Si5 0.564276 0.732544 0.099293
Si Si6 0.904783 0.142046 0.903774
Si Si7 0.281510 0.104456 0.899997
O O1 0.404671 0.601772 0.260466
O O2 0.494977 0.691348 0.390085
O O3 0.413174 0.494160 0.410324
O O4 0.313392 0.671509 0.397752
O O5 0.677288 0.211473 0.216184
O O6 0.756669 0.070474 0.321048
O O7 0.839527 0.171902 0.177754
O O8 0.720960 0.008295 0.159587
O O9 0.658569 0.391077 0.105824
O O10 0.525720 0.247654 0.151476
O O11 0.591245 0.599194 0.103614
O O12 0.724350 0.545022 0.000000
O O13 0.644412 0.809500 0.138631
O O14 0.546293 0.772523 0.000000
O O15 0.869603 0.186368 0.000000
O O16 0.303962 0.068065 0.000000
#
# Coordination Sequence:
#
# PCOD8235657 Si02
#       7
#     8   8   8   8   8   8   8
#     4  10  18  32  54  88 116 151 194 249 308 364
#     4  11  23  39  61  93 126 164 212 258 316 374
#     4  12  23  37  62  90 126 166 209 256 308 379
#     4  11  23  41  64  91 128 167 211 265 317 370
#     4  10  23  39  61  92 125 164 210 256 315 379
#     4  10  19  34  59  89 119 150 196 258 311 359
#     4  10  20  39  63  89 124 162 205 262 317 374
#
# _framework density 20.927254999999999
#
# number of rings (size 3 to 8) (size 9 to 14) (size 15 to 20)
#    0.000    1.429    2.857    5.571    2.000    4.000 
#    0.000    2.857    0.000    0.000    0.000    2.000 
#    0.000    0.429    0.000    0.000    0.000    0.000 
#
# Total GULP energy -693826.337616 kJ/mol
# GULP energy per Si atom -12389.756029 kJ/mol
# Density = 2.087962 g / cm^3
# Si number density = 20.927255 Si / 1000 Ang^3
#
#
#
# Elastic Constant Matrix: (Units=GPa)
#
#
# Indices 1 2 3 4 5 6 
#
# 1 135.7441 48.5148 44.8437 0.0000 0.0000 0.0000
# 2 48.5148 64.2658 34.2880 0.0000 0.0000 0.0000
# 3 44.8437 34.2880 142.8796 0.0000 0.0000 0.0000
# 4 0.0000 0.0000 0.0000 19.3578 0.0000 0.0000
# 5 0.0000 0.0000 0.0000 0.0000 24.3420 0.0000
# 6 0.0000 0.0000 0.0000 0.0000 0.0000 28.4191
#
#
#
# Elastic Compliance Matrix: (Units=1/GPa)
#
#
# Indices 1 2 3 4 5 6 
#
# 1 0.010391 -0.007001 -0.001581 0.000000 0.000000 0.000000
# 2 -0.007001 0.022562 -0.003217 0.000000 0.000000 0.000000
# 3 -0.001581 -0.003217 0.008267 0.000000 0.000000 0.000000
# 4 0.000000 0.000000 0.000000 0.051659 0.000000 0.000000
# 5 0.000000 0.000000 0.000000 0.000000 0.041081 0.000000
# 6 0.000000 0.000000 0.000000 0.000000 0.000000 0.035188
#
#
# Mechanical properties :
#
#
# Convention : Reuss Voigt Hill
#
# Bulk Modulus (GPa) = 56.74766 66.46473 61.60620
# Shear Modulus (GPa) = 25.17368 28.77332 26.97350
#
# Velocity S-wave (km/s) = 3.47207 3.71201 3.59404
# Velocity P-wave (km/s) = 6.57641 7.08526 6.83557
#
# Compressibility (1/GPa) = 0.01762187
#
# Stress axis : x y z
#
# Youngs Moduli (GPa) = 96.23465 44.32278 120.95924
#
# Poissons Ratio (x) = 0.31029 0.19128
# Poissons Ratio (y) = 0.67372 0.38914
# Poissons Ratio (z) = 0.15218 0.14259
#
# Static dielectric constant tensor:
#      x y z
#    x 4.137150 0.000000 0.000000 
#    y 0.000000 3.389920 0.000000 
#    z 0.000000 0.000000 4.033530 
# 
# 
# High freq. dielectric constant tensor:
#      x y z
#    x 1.813160 0.000000 0.000000 
#    y 0.000000 1.770570 0.000000 
#    z 0.000000 0.000000 1.839720 
# 
# From -- ./inp_files/22214.got.cif
#   From: 2010.06.25/outbox.cif.g09.slc.cpg/sg58_12_cif.got.tgz:22214.got - 2010.06.26 21:38:00.
