data_PCOD8235633
_publ_section_title
;
Structure prediction by ZEFSAII (Michael W. Deem and Ramdas Pophale) SiO2 
 PCOD8235633
Probable space group: P N N M
;
_chemical_formula_sum "Si O2"
_cell_formula_units_Z 64
_cell_length_a 12.877053
_cell_length_b 28.009587
_cell_length_c 9.027228
_cell_angle_alpha 90.000000
_cell_angle_beta 90.000000
_cell_angle_gamma 90.000000
_cell_volume 3255.949047
_symmetry_space_group_name_H-M "P N N M"
_symmetry_group_IT_number 58
_symmetry_cell_setting 'orthorhombic'
loop_
_space_group_symop_operation_xyz
x,y,z
-x,-y,z
1/2+x,1/2-y,1/2-z
1/2-x,1/2+y,1/2-z
-x,-y,-z
x,y,-z
1/2-x,1/2+y,1/2+z
1/2+x,1/2-y,1/2+z
loop_
_atom_site_type_symbol
_atom_site_label
_atom_site_fract_x
_atom_site_fract_y
_atom_site_fract_z
Si Si1 0.873111 0.868815 0.828007
Si Si2 0.765336 0.700941 0.824246
Si Si3 0.980507 0.655384 0.823732
Si Si4 0.423925 0.361731 0.823767
Si Si5 0.682222 0.802381 0.827096
Si Si6 0.227408 0.049596 0.330552
Si Si7 0.412328 0.467022 0.830324
Si Si8 0.458546 0.050650 0.324074
O O1 0.765638 0.842858 0.793844
O O2 0.858805 0.921684 0.762063
O O3 0.968685 0.842311 0.746266
O O4 0.899122 0.870716 0.000000
O O5 0.672680 0.668198 0.763289
O O6 0.736960 0.753951 0.768520
O O7 0.875491 0.680800 0.763448
O O8 0.771545 0.699462 0.000000
O O9 0.077014 0.684893 0.758417
O O10 0.980148 0.598953 0.774549
O O11 0.989067 0.658248 0.000000
O O12 0.404700 0.414901 0.758661
O O13 0.430861 0.358230 0.000000
O O14 0.654701 0.797946 0.000000
O O15 0.221647 0.067409 0.500000
O O16 0.341627 0.056815 0.264001
O O17 0.198798 0.993487 0.318938
O O18 0.500000 0.500000 0.753047
O O19 0.445899 0.458751 0.000000
O O20 0.458648 0.046253 0.500000
O O21 0.500000 0.000000 0.257532
#
# Coordination Sequence:
#
# PCOD8235633 Si02
#       8
#     8   8   8   8   8   8   8   8
#     4  11  22  35  54  79 111 146 183 229 276 320
#     4   9  21  38  58  83 110 142 182 231 281 326
#     4  10  20  37  61  88 113 141 185 233 276 329
#     4  10  20  36  57  80 109 145 185 224 272 332
#     4  10  22  40  57  77 110 148 182 226 281 328
#     4  10  18  32  53  79 110 143 183 221 268 330
#     4   9  16  27  48  78 107 134 169 219 265 307
#     4   9  18  30  51  85 115 138 173 227 280 326
#
# _framework density 19.656328999999999
#
# number of rings (size 3 to 8) (size 9 to 14) (size 15 to 20)
#    0.000    2.250    2.500    0.375    3.500    0.500 
#    0.000    2.500    0.000    1.500    0.000    0.000 
#    0.000    0.000    0.000    0.000    0.000    0.000 
#
# Total GULP energy -793226.327708 kJ/mol
# GULP energy per Si atom -12394.161370 kJ/mol
# Density = 1.961159 g / cm^3
# Si number density = 19.656329 Si / 1000 Ang^3
#
#
#
# Elastic Constant Matrix: (Units=GPa)
#
#
# Indices 1 2 3 4 5 6 
#
# 1 135.3548 44.9003 36.2015 0.0000 0.0000 0.0000
# 2 44.9003 108.2482 22.8728 0.0000 0.0000 0.0000
# 3 36.2015 22.8728 31.2671 0.0000 0.0000 0.0000
# 4 0.0000 0.0000 0.0000 14.5279 0.0000 0.0000
# 5 0.0000 0.0000 0.0000 0.0000 23.6059 0.0000
# 6 0.0000 0.0000 0.0000 0.0000 0.0000 32.9748
#
#
#
# Elastic Compliance Matrix: (Units=1/GPa)
#
#
# Indices 1 2 3 4 5 6 
#
# 1 0.011144 -0.002243 -0.011262 0.000000 0.000000 0.000000
# 2 -0.002243 0.011378 -0.005727 0.000000 0.000000 0.000000
# 3 -0.011262 -0.005727 0.049211 0.000000 0.000000 0.000000
# 4 0.000000 0.000000 0.000000 0.068833 0.000000 0.000000
# 5 0.000000 0.000000 0.000000 0.000000 0.042362 0.000000
# 6 0.000000 0.000000 0.000000 0.000000 0.000000 0.030326
#
#
# Mechanical properties :
#
#
# Convention : Reuss Voigt Hill
#
# Bulk Modulus (GPa) = 30.05694 53.64658 41.85176
# Shear Modulus (GPa) = 19.02523 25.61477 22.32000
#
# Velocity S-wave (km/s) = 3.11447 3.61381 3.37339
# Velocity P-wave (km/s) = 5.31580 6.69061 6.04243
#
# Compressibility (1/GPa) = 0.03327018
#
# Stress axis : x y z
#
# Youngs Moduli (GPa) = 89.73348 87.88589 20.32054
#
# Poissons Ratio (x) = 0.19711 0.22885
# Poissons Ratio (y) = 0.20125 0.11637
# Poissons Ratio (z) = 1.01059 0.50331
#
# Static dielectric constant tensor:
#      x y z
#    x 3.720440 0.000000 0.000000 
#    y 0.000000 3.818380 0.000000 
#    z 0.000000 0.000000 3.058820 
# 
# 
# High freq. dielectric constant tensor:
#      x y z
#    x 1.777220 0.000000 0.000000 
#    y 0.000000 1.775580 0.000000 
#    z 0.000000 0.000000 1.708130 
# 
# From -- ./inp_files/4827.got.cif
#   From: 2010.06.25/outbox.cif.g09.slc.cpg/sg58_3_cif.got.tgz:4827.got - 2010.06.26 21:38:00.
