data_PCOD8235940
_publ_section_title
;
Structure prediction by ZEFSAII (Michael W. Deem and Ramdas Pophale) SiO2 
 PCOD8235940
Probable space group: P N N M
;
_chemical_formula_sum "Si O2"
_cell_formula_units_Z 64
_cell_length_a 28.492555
_cell_length_b 14.285752
_cell_length_c 8.816530
_cell_angle_alpha 90.000000
_cell_angle_beta 90.000000
_cell_angle_gamma 90.000000
_cell_volume 3588.658987
_symmetry_space_group_name_H-M "P N N M"
_symmetry_group_IT_number 58
_symmetry_cell_setting 'orthorhombic'
loop_
_space_group_symop_operation_xyz
x,y,z
-x,-y,z
1/2+x,1/2-y,1/2-z
1/2-x,1/2+y,1/2-z
-x,-y,-z
x,y,-z
1/2-x,1/2+y,1/2+z
1/2+x,1/2-y,1/2+z
loop_
_atom_site_type_symbol
_atom_site_label
_atom_site_fract_x
_atom_site_fract_y
_atom_site_fract_z
Si Si1 0.448362 0.499999 0.821245
Si Si2 0.801409 0.500000 0.321389
Si Si3 0.371770 0.356133 0.179530
Si Si4 0.196388 0.999999 0.819580
Si Si5 0.121933 0.643545 0.679589
Si Si6 0.871770 0.856133 0.320471
Si Si7 0.621933 0.143545 0.179589
Si Si8 0.054134 0.500000 0.178610
O O1 0.500000 0.500000 0.744155
O O2 0.419833 0.407691 0.770704
O O3 0.419834 0.592311 0.770715
O O4 0.454295 0.499993 0.000000
O O5 0.796504 0.500000 0.500000
O O6 0.749297 0.499999 0.252130
O O7 0.830158 0.408057 0.268946
O O8 0.830158 0.591943 0.268946
O O9 0.328054 0.406053 0.259370
O O10 0.375015 0.249931 0.236752
O O11 0.363938 0.363053 0.000000
O O12 0.171944 0.093945 0.759375
O O13 0.195133 0.999998 0.000000
O O14 0.114959 0.637725 0.500000
O O15 0.077387 0.593760 0.754796
O O16 0.863935 0.863053 0.500000
O O17 0.875014 0.749931 0.263248
O O18 0.577388 0.093760 0.254796
O O19 0.614959 0.137726 0.000000
O O20 0.000000 0.500000 0.226799
O O21 0.060872 0.499999 0.000000
#
# Coordination Sequence:
#
# PCOD8235940 Si02
#       8
#     8   8   8   8   8   8   8   8
#     4   8  14  26  44  67  94 119 147 190 240 284
#     4   8  16  31  48  69  96 125 161 206 248 286
#     4   9  18  32  50  72  96 123 161 207 246 283
#     4  10  19  31  48  69  98 133 161 192 246 308
#     4   9  18  34  54  72  94 127 168 210 244 281
#     4   9  18  32  50  72  96 123 161 207 246 283
#     4   9  18  34  54  72  94 127 168 210 244 281
#     4  10  21  35  50  73 106 135 159 196 244 292
#
# _framework density 17.833960000000001
#
# number of rings (size 3 to 8) (size 9 to 14) (size 15 to 20)
#    0.000    3.000    0.000    2.250    0.000    4.000 
#    0.000    7.500    0.000    6.000    0.000    0.000 
#    0.000    0.000    0.000    0.000    0.000    0.000 
#
# Total GULP energy -793438.381451 kJ/mol
# GULP energy per Si atom -12397.474710 kJ/mol
# Density = 1.779337 g / cm^3
# Si number density = 17.833960 Si / 1000 Ang^3
#
#
#
# Elastic Constant Matrix: (Units=GPa)
#
#
# Indices 1 2 3 4 5 6 
#
# 1 186.2581 97.4785 35.9508 0.0000 0.0000 0.0000
# 2 97.4785 194.4478 33.0495 0.0000 0.0000 0.0000
# 3 35.9508 33.0495 36.1495 0.0000 0.0000 0.0000
# 4 0.0000 0.0000 0.0000 19.0192 0.0000 0.0000
# 5 0.0000 0.0000 0.0000 0.0000 24.7310 0.0000
# 6 0.0000 0.0000 0.0000 0.0000 0.0000 -34.0660
#
#
#
# Elastic Compliance Matrix: (Units=1/GPa)
#
#
# Indices 1 2 3 4 5 6 
#
# 1 0.007994 -0.003145 -0.005075 0.000000 0.000000 0.000000
# 2 -0.003145 0.007326 -0.003570 0.000000 0.000000 0.000000
# 3 -0.005075 -0.003570 0.035974 0.000000 0.000000 0.000000
# 4 0.000000 0.000000 0.000000 0.052578 0.000000 0.000000
# 5 0.000000 0.000000 0.000000 0.000000 0.040435 0.000000
# 6 0.000000 0.000000 0.000000 0.000000 0.000000 -0.029355
#
#
# Mechanical properties :
#
#
# Convention : Reuss Voigt Hill
#
# Bulk Modulus (GPa) = 36.08282 83.31255 59.69768
# Shear Modulus (GPa) = 33.83584 18.62862 26.23223
#
# Velocity S-wave (km/s) = 4.36049 3.23547 3.83941
# Velocity P-wave (km/s) = 6.75488 7.79582 7.29394
#
# Compressibility (1/GPa) = 0.02771402
#
# Stress axis : x y z
#
# Youngs Moduli (GPa) = 125.08641 136.49556 27.79779
#
# Poissons Ratio (x) = 0.42929 0.14108
# Poissons Ratio (y) = 0.39341 0.09924
# Poissons Ratio (z) = 0.63483 0.48731
#
# Static dielectric constant tensor:
#      x y z
#    x 3.581700 0.000000 0.000000 
#    y 0.000000 3.467150 0.000000 
#    z 0.000000 0.000000 3.001570 
# 
# 
# High freq. dielectric constant tensor:
#      x y z
#    x 1.695200 0.000000 0.000000 
#    y 0.000000 1.695240 0.000000 
#    z 0.000000 0.000000 1.662580 
# 
# From -- ./inp_files/7185.got.cif
#   From: 2010.06.25/outbox.cif.g09.slc.cpg/sg58_4_cif.got.tgz:7185.got - 2010.06.26 21:38:00.
