data_PCOD8235968
_publ_section_title
;
Structure prediction by ZEFSAII (Michael W. Deem and Ramdas Pophale) SiO2 
 PCOD8235968
Probable space group: P N N M
;
_chemical_formula_sum "Si O2"
_cell_formula_units_Z 40
_cell_length_a 25.019282
_cell_length_b 9.311669
_cell_length_c 9.703056
_cell_angle_alpha 90.000000
_cell_angle_beta 90.000000
_cell_angle_gamma 90.000000
_cell_volume 2260.533304
_symmetry_space_group_name_H-M "P N N M"
_symmetry_group_IT_number 58
_symmetry_cell_setting 'orthorhombic'
loop_
_space_group_symop_operation_xyz
x,y,z
-x,-y,z
1/2+x,1/2-y,1/2-z
1/2-x,1/2+y,1/2-z
-x,-y,-z
x,y,-z
1/2-x,1/2+y,1/2+z
1/2+x,1/2-y,1/2+z
loop_
_atom_site_type_symbol
_atom_site_label
_atom_site_fract_x
_atom_site_fract_y
_atom_site_fract_z
Si Si1 0.323615 0.834577 0.500000
Si Si2 0.875435 0.348172 0.293160
Si Si3 0.836525 0.332028 0.000000
Si Si4 0.783597 0.330055 0.500000
Si Si5 0.770976 0.654348 0.500000
Si Si6 0.637154 0.179273 0.206645
Si Si7 0.569239 0.352337 0.000000
Si Si8 0.055762 0.816712 0.500000
O O1 0.262936 0.784622 0.500000
O O2 0.356057 0.779422 0.366741
O O3 0.317464 0.004807 0.500000
O O4 0.819675 0.305605 0.364867
O O5 0.885318 0.518164 0.311869
O O6 0.924275 0.264471 0.363011
O O7 0.872675 0.300870 0.133880
O O8 0.784324 0.235798 0.000000
O O9 0.757064 0.486544 0.500000
O O10 0.805083 0.694997 0.364851
O O11 0.595386 0.287793 0.138031
O O12 0.578664 0.522335 0.000000
O O13 0.507534 0.312421 0.000000
#
# Coordination Sequence:
#
# PCOD8235968 Si02
#       8
#     4   8   4   4   4   8   4   4
#     4  10  19  31  49  75 106 135 164 200 240 285
#     4   9  19  34  51  74 102 132 167 202 239 290
#     4  10  19  31  49  75 106 135 164 200 240 285
#     4   9  17  29  46  71 104 140 172 197 230 281
#     4   9  17  29  46  71 104 140 172 197 230 281
#     4   9  19  34  51  74 102 132 167 202 239 290
#     4  10  21  37  56  75  93 120 163 210 254 299
#     4  10  21  37  56  75  93 120 163 210 254 299
#
# _framework density 17.694941
#
# number of rings (size 3 to 8) (size 9 to 14) (size 15 to 20)
#    0.000    2.600    0.000    3.000    0.000    6.400 
#    0.000    1.000    0.000    6.000    0.000    0.000 
#    0.000    0.000    0.000    0.000    0.000    0.000 
#
# Total GULP energy -496051.635417 kJ/mol
# GULP energy per Si atom -12401.290885 kJ/mol
# Density = 1.765467 g / cm^3
# Si number density = 17.694941 Si / 1000 Ang^3
#
#
#
# Elastic Constant Matrix: (Units=GPa)
#
#
# Indices 1 2 3 4 5 6 
#
# 1 32.3909 3.6865 11.8086 0.0000 0.0000 0.0000
# 2 3.6865 24.5676 12.9932 0.0000 0.0000 0.0000
# 3 11.8086 12.9932 135.6740 0.0000 0.0000 0.0000
# 4 0.0000 0.0000 0.0000 15.0607 0.0000 0.0000
# 5 0.0000 0.0000 0.0000 0.0000 8.7690 0.0000
# 6 0.0000 0.0000 0.0000 0.0000 0.0000 32.2300
#
#
#
# Elastic Compliance Matrix: (Units=1/GPa)
#
#
# Indices 1 2 3 4 5 6 
#
# 1 0.032172 -0.003525 -0.002463 0.000000 0.000000 0.000000
# 2 -0.003525 0.043262 -0.003836 0.000000 0.000000 0.000000
# 3 -0.002463 -0.003836 0.007952 0.000000 0.000000 0.000000
# 4 0.000000 0.000000 0.000000 0.066398 0.000000 0.000000
# 5 0.000000 0.000000 0.000000 0.000000 0.114038 0.000000
# 6 0.000000 0.000000 0.000000 0.000000 0.000000 0.031027
#
#
# Mechanical properties :
#
#
# Convention : Reuss Voigt Hill
#
# Bulk Modulus (GPa) = 15.68921 27.73434 21.71177
# Shear Modulus (GPa) = 14.89235 22.15489 18.52362
#
# Velocity S-wave (km/s) = 2.90421 3.54227 3.23899
# Velocity P-wave (km/s) = 4.48683 5.69542 5.12686
#
# Compressibility (1/GPa) = 0.06373809
#
# Stress axis : x y z
#
# Youngs Moduli (GPa) = 31.08306 23.11507 125.74936
#
# Poissons Ratio (x) = 0.08148 0.30966
# Poissons Ratio (y) = 0.10957 0.48241
# Poissons Ratio (z) = 0.07654 0.08868
#
# Static dielectric constant tensor:
#      x y z
#    x 2.939240 0.000000 0.000000 
#    y 0.000000 3.276570 0.000000 
#    z 0.000000 0.000000 3.750290 
# 
# 
# High freq. dielectric constant tensor:
#      x y z
#    x 1.660120 0.000000 0.000000 
#    y 0.000000 1.683900 0.000000 
#    z 0.000000 0.000000 1.695020 
# 
# From -- ./inp_files/2695.got.cif
#   From: 2010.06.25/outbox.cif.g09.slc.cpg/sg58_2_cif.got.tgz:2695.got - 2010.06.26 21:38:00.
