data_PCOD8235425
_publ_section_title
;
Structure prediction by ZEFSAII (Michael W. Deem and Ramdas Pophale) SiO2 
 PCOD8235425
Probable space group: P N N M
;
_chemical_formula_sum "Si O2"
_cell_formula_units_Z 64
_cell_length_a 19.704735
_cell_length_b 19.166814
_cell_length_c 9.489152
_cell_angle_alpha 90.000000
_cell_angle_beta 90.000000
_cell_angle_gamma 90.000000
_cell_volume 3583.834371
_symmetry_space_group_name_H-M "P N N M"
_symmetry_group_IT_number 58
_symmetry_cell_setting 'orthorhombic'
loop_
_space_group_symop_operation_xyz
x,y,z
-x,-y,z
1/2+x,1/2-y,1/2-z
1/2-x,1/2+y,1/2-z
-x,-y,-z
x,y,-z
1/2-x,1/2+y,1/2+z
1/2+x,1/2-y,1/2+z
loop_
_atom_site_type_symbol
_atom_site_label
_atom_site_fract_x
_atom_site_fract_y
_atom_site_fract_z
Si Si1 0.353882 0.755147 0.163040
Si Si2 0.849221 0.458478 0.166464
Si Si3 0.010786 0.765398 0.663805
Si Si4 0.894019 0.966989 0.159602
Si Si5 0.213220 0.113321 0.666414
Si Si6 0.473118 0.132456 0.337023
Si Si7 0.535416 0.606258 0.659969
Si Si8 0.870392 0.611128 0.163190
O O1 0.430310 0.729495 0.191583
O O2 0.303955 0.692713 0.213205
O O3 0.337565 0.824799 0.251111
O O4 0.342644 0.773560 0.000000
O O5 0.788617 0.407718 0.217399
O O6 0.921070 0.426895 0.215625
O O7 0.840405 0.537945 0.222809
O O8 0.849246 0.464293 0.000000
O O9 0.028448 0.761380 0.500000
O O10 0.041939 0.698828 0.740714
O O11 0.048098 0.831942 0.730325
O O12 0.837046 0.942275 0.265990
O O13 0.963386 0.927851 0.193897
O O14 0.905203 0.049645 0.180969
O O15 0.870830 0.951200 0.000000
O O16 0.204200 0.106645 0.500000
O O17 0.460276 0.152534 0.500000
O O18 0.548993 0.105376 0.313788
O O19 0.536309 0.635097 0.500000
O O20 0.852677 0.623740 0.000000
#
# Coordination Sequence:
#
# PCOD8235425 Si02
#       8
#     8   8   8   8   8   8   8   8
#     4   9  18  31  47  71  99 128 159 194 241 298
#     4   9  18  33  53  75  99 129 167 207 249 301
#     4  10  18  29  47  74 103 128 162 205 246 295
#     4   9  18  31  48  71  98 128 166 209 246 286
#     4  10  19  33  51  71 100 136 168 198 243 303
#     4   9  17  31  52  75  98 127 164 209 258 298
#     4   9  17  30  48  71  99 130 165 206 249 289
#     4   9  17  31  54  78  95 120 165 214 249 283
#
# _framework density 17.857969000000001
#
# number of rings (size 3 to 8) (size 9 to 14) (size 15 to 20)
#    0.000    2.750    1.250    1.500    0.000    3.000 
#    0.000    4.375    0.000    7.500    0.000    0.000 
#    0.000    0.000    0.000    0.000    0.000    0.000 
#
# Total GULP energy -793467.409776 kJ/mol
# GULP energy per Si atom -12397.928278 kJ/mol
# Density = 1.781732 g / cm^3
# Si number density = 17.857969 Si / 1000 Ang^3
#
#
#
# Elastic Constant Matrix: (Units=GPa)
#
#
# Indices 1 2 3 4 5 6 
#
# 1 60.5583 46.3897 23.4292 0.0000 0.0000 0.0000
# 2 46.3897 149.9971 55.7958 0.0000 0.0000 0.0000
# 3 23.4292 55.7958 59.9519 0.0000 0.0000 0.0000
# 4 0.0000 0.0000 0.0000 29.2386 0.0000 0.0000
# 5 0.0000 0.0000 0.0000 0.0000 15.2970 0.0000
# 6 0.0000 0.0000 0.0000 0.0000 0.0000 24.7234
#
#
#
# Elastic Compliance Matrix: (Units=1/GPa)
#
#
# Indices 1 2 3 4 5 6 
#
# 1 0.022105 -0.005541 -0.003481 0.000000 0.000000 0.000000
# 2 -0.005541 0.011586 -0.008617 0.000000 0.000000 0.000000
# 3 -0.003481 -0.008617 0.026060 0.000000 0.000000 0.000000
# 4 0.000000 0.000000 0.000000 0.034201 0.000000 0.000000
# 5 0.000000 0.000000 0.000000 0.000000 0.065372 0.000000
# 6 0.000000 0.000000 0.000000 0.000000 0.000000 0.040448
#
#
# Mechanical properties :
#
#
# Convention : Reuss Voigt Hill
#
# Bulk Modulus (GPa) = 40.86418 57.97073 49.41746
# Shear Modulus (GPa) = 20.55841 23.51131 22.03486
#
# Velocity S-wave (km/s) = 3.39664 3.63240 3.51650
# Velocity P-wave (km/s) = 6.18995 7.07990 6.64983
#
# Compressibility (1/GPa) = 0.02447131
#
# Stress axis : x y z
#
# Youngs Moduli (GPa) = 45.23910 86.31079 38.37235
#
# Poissons Ratio (x) = 0.47828 0.13359
# Poissons Ratio (y) = 0.25069 0.33067
# Poissons Ratio (z) = 0.15749 0.74376
#
# Static dielectric constant tensor:
#      x y z
#    x 3.198190 0.000000 0.000000 
#    y 0.000000 3.514110 0.000000 
#    z 0.000000 0.000000 3.151740 
# 
# 
# High freq. dielectric constant tensor:
#      x y z
#    x 1.661350 0.000000 0.000000 
#    y 0.000000 1.700950 0.000000 
#    z 0.000000 0.000000 1.674780 
# 
# From -- ./inp_files/9232.got.cif
#   From: 2010.06.25/outbox.cif.g09.slc.cpg/sg58_5_cif.got.tgz:9232.got - 2010.06.26 21:38:00.
