data_PCOD8235390
_publ_section_title
;
Structure prediction by ZEFSAII (Michael W. Deem and Ramdas Pophale) SiO2 
 PCOD8235390
Probable space group: P N N M
;
_chemical_formula_sum "Si O2"
_cell_formula_units_Z 48
_cell_length_a 5.085633
_cell_length_b 25.535390
_cell_length_c 23.780355
_cell_angle_alpha 90.000000
_cell_angle_beta 90.000000
_cell_angle_gamma 90.000000
_cell_volume 3088.203034
_symmetry_space_group_name_H-M "P N N M"
_symmetry_group_IT_number 58
_symmetry_cell_setting 'orthorhombic'
loop_
_space_group_symop_operation_xyz
x,y,z
-x,-y,z
1/2+x,1/2-y,1/2-z
1/2-x,1/2+y,1/2-z
-x,-y,-z
x,y,-z
1/2-x,1/2+y,1/2+z
1/2+x,1/2-y,1/2+z
loop_
_atom_site_type_symbol
_atom_site_label
_atom_site_fract_x
_atom_site_fract_y
_atom_site_fract_z
Si Si1 0.221725 0.864177 0.232553
Si Si2 0.765503 0.314708 0.771221
Si Si3 0.700286 0.109497 0.063333
Si Si4 0.795517 0.822362 0.937136
Si Si5 0.755437 0.534504 0.336113
Si Si6 0.002506 0.225509 0.168560
O O1 0.505331 0.856150 0.259411
O O2 0.192097 0.923573 0.212490
O O3 0.998800 0.849405 0.279323
O O4 0.179662 0.826189 0.178083
O O5 0.728227 0.274966 0.717579
O O6 0.833543 0.278962 0.825363
O O7 0.490986 0.155175 0.077691
O O8 0.661111 0.061581 0.105562
O O9 0.995364 0.130933 0.068367
O O10 0.646432 0.089035 0.000000
O O11 0.865599 0.776357 0.892920
O O12 0.801681 0.798106 0.000000
O O13 0.500000 0.500000 0.346499
O O14 0.000000 0.500000 0.315384
#
# Coordination Sequence:
#
# PCOD8235390 Si02
#       6
#     8   8   8   8   8   8
#     4  10  19  32  43  65  89 108 140 195 221 271
#     4  10  18  28  48  71  84 110 139 190 229 258
#     4  10  20  35  46  60  82 117 157 199 236 259
#     4  10  20  31  49  66  91 122 146 186 236 273
#     4  12  23  33  47  63  82 120 155 194 242 271
#     4  10  18  29  50  68  90 107 151 180 229 271
#
# _framework density 15.543021
#
# number of rings (size 3 to 8) (size 9 to 14) (size 15 to 20)
#    1.000    0.667    3.333    3.000    0.000    0.667 
#    0.000    0.000    0.000    0.000    0.000    0.000 
#    0.000    0.000    0.000    0.000    0.000   16.667 
#
# Total GULP energy -594978.274971 kJ/mol
# GULP energy per Si atom -12395.380729 kJ/mol
# Density = 1.550764 g / cm^3
# Si number density = 15.543021 Si / 1000 Ang^3
#
#
#
# Elastic Constant Matrix: (Units=GPa)
#
#
# Indices 1 2 3 4 5 6 
#
# 1 82.8026 20.0701 15.0737 0.0000 0.0000 0.0000
# 2 20.0701 67.8320 40.2176 0.0000 0.0000 0.0000
# 3 15.0737 40.2176 47.2503 0.0000 0.0000 0.0000
# 4 0.0000 0.0000 0.0000 0.7187 0.0000 0.0000
# 5 0.0000 0.0000 0.0000 0.0000 4.3056 0.0000
# 6 0.0000 0.0000 0.0000 0.0000 0.0000 26.2270
#
#
#
# Elastic Compliance Matrix: (Units=1/GPa)
#
#
# Indices 1 2 3 4 5 6 
#
# 1 0.013083 -0.002819 -0.001774 0.000000 0.000000 0.000000
# 2 -0.002819 0.030369 -0.024949 0.000000 0.000000 0.000000
# 3 -0.001774 -0.024949 0.042966 0.000000 0.000000 0.000000
# 4 0.000000 0.000000 0.000000 1.391415 0.000000 0.000000
# 5 0.000000 0.000000 0.000000 0.000000 0.232255 0.000000
# 6 0.000000 0.000000 0.000000 0.000000 0.000000 0.038129
#
#
# Mechanical properties :
#
#
# Convention : Reuss Voigt Hill
#
# Bulk Modulus (GPa) = 36.58668 38.73418 37.66043
# Shear Modulus (GPa) = 2.75268 14.41850 8.58559
#
# Velocity S-wave (km/s) = 1.33224 3.04904 2.35282
# Velocity P-wave (km/s) = 5.09476 6.11312 5.62702
#
# Compressibility (1/GPa) = 0.02733235
#
# Stress axis : x y z
#
# Youngs Moduli (GPa) = 76.43378 32.92841 23.27427
#
# Poissons Ratio (x) = 0.09283 0.04130
# Poissons Ratio (y) = 0.21547 0.58068
# Poissons Ratio (z) = 0.13562 0.82155
#
# Static dielectric constant tensor:
#      x y z
#    x 3.153450 0.000000 0.000000 
#    y 0.000000 2.673420 0.000000 
#    z 0.000000 0.000000 2.772690 
# 
# 
# High freq. dielectric constant tensor:
#      x y z
#    x 1.620700 0.000000 0.000000 
#    y 0.000000 1.559910 0.000000 
#    z 0.000000 0.000000 1.556640 
# 
# From -- ./inp_files/24336.got.cif
#   From: 2010.06.25/outbox.cif.g09.slc.cpg/sg58_13_cif.got.tgz:24336.got - 2010.06.26 21:38:00.
