data_PCOD8235630
_publ_section_title
;
Structure prediction by ZEFSAII (Michael W. Deem and Ramdas Pophale) SiO2 
 PCOD8235630
Probable space group: P N N M
;
_chemical_formula_sum "Si O2"
_cell_formula_units_Z 56
_cell_length_a 22.052028
_cell_length_b 14.655338
_cell_length_c 9.390588
_cell_angle_alpha 90.000000
_cell_angle_beta 90.000000
_cell_angle_gamma 90.000000
_cell_volume 3034.849515
_symmetry_space_group_name_H-M "P N N M"
_symmetry_group_IT_number 58
_symmetry_cell_setting 'orthorhombic'
loop_
_space_group_symop_operation_xyz
x,y,z
-x,-y,z
1/2+x,1/2-y,1/2-z
1/2-x,1/2+y,1/2-z
-x,-y,-z
x,y,-z
1/2-x,1/2+y,1/2+z
1/2+x,1/2-y,1/2+z
loop_
_atom_site_type_symbol
_atom_site_label
_atom_site_fract_x
_atom_site_fract_y
_atom_site_fract_z
Si Si1 0.986859 0.778662 0.169961
Si Si2 0.768858 0.189718 0.835775
Si Si3 0.455951 0.921818 0.330740
Si Si4 0.103747 0.880594 0.832399
Si Si5 0.883481 0.913953 0.167363
Si Si6 0.738361 0.394166 0.162201
Si Si7 0.181754 0.434199 0.167439
O O1 0.978280 0.676171 0.227671
O O2 0.931416 0.840545 0.225903
O O3 0.049571 0.819406 0.232581
O O4 0.987670 0.781910 0.000000
O O5 0.831352 0.150310 0.769861
O O6 0.772083 0.298265 0.819493
O O7 0.712849 0.150213 0.747034
O O8 0.760551 0.160295 0.000000
O O9 0.459391 0.922123 0.500000
O O10 0.387544 0.941039 0.279868
O O11 0.500000 0.000000 0.267719
O O12 0.091388 0.985823 0.794121
O O13 0.105557 0.864543 0.000000
O O14 0.819588 0.896643 0.238998
O O15 0.873270 0.903773 0.000000
O O16 0.785695 0.471651 0.209433
O O17 0.717352 0.409596 0.000000
O O18 0.184767 0.414040 0.000000
#
# Coordination Sequence:
#
# PCOD8235630 Si02
#       7
#     8   8   8   8   8   8   8
#     4   9  17  28  47  74 100 127 164 213 256 291
#     4  10  20  34  52  76 103 138 175 207 250 307
#     4   9  18  30  47  72 102 133 165 205 256 305
#     4   9  17  29  48  73 100 128 165 211 253 296
#     4  10  18  32  53  77 101 129 170 211 253 301
#     4  10  21  33  50  75 106 137 167 205 254 305
#     4  10  20  35  53  77 106 134 167 212 258 300
#
# _framework density 18.452314999999999
#
# number of rings (size 3 to 8) (size 9 to 14) (size 15 to 20)
#    0.000    2.429    1.429    1.286    2.000    3.429 
#    0.000    0.000    0.000    3.000    0.000    0.000 
#    0.000    0.000    0.000    0.000    0.000    0.000 
#
# Total GULP energy -694433.184586 kJ/mol
# GULP energy per Si atom -12400.592582 kJ/mol
# Density = 1.841032 g / cm^3
# Si number density = 18.452315 Si / 1000 Ang^3
#
#
#
# Elastic Constant Matrix: (Units=GPa)
#
#
# Indices 1 2 3 4 5 6 
#
# 1 150.4887 66.7781 21.9495 0.0000 0.0000 0.0000
# 2 66.7781 127.0349 18.4557 0.0000 0.0000 0.0000
# 3 21.9495 18.4557 19.1712 0.0000 0.0000 0.0000
# 4 0.0000 0.0000 0.0000 16.1452 0.0000 0.0000
# 5 0.0000 0.0000 0.0000 0.0000 22.1925 0.0000
# 6 0.0000 0.0000 0.0000 0.0000 0.0000 35.1957
#
#
#
# Elastic Compliance Matrix: (Units=1/GPa)
#
#
# Indices 1 2 3 4 5 6 
#
# 1 0.009408 -0.003930 -0.006988 0.000000 0.000000 0.000000
# 2 -0.003930 0.010794 -0.005891 0.000000 0.000000 0.000000
# 3 -0.006988 -0.005891 0.065834 0.000000 0.000000 0.000000
# 4 0.000000 0.000000 0.000000 0.061938 0.000000 0.000000
# 5 0.000000 0.000000 0.000000 0.000000 0.045060 0.000000
# 6 0.000000 0.000000 0.000000 0.000000 0.000000 0.028413
#
#
# Mechanical properties :
#
#
# Convention : Reuss Voigt Hill
#
# Bulk Modulus (GPa) = 19.07784 56.78457 37.93121
# Shear Modulus (GPa) = 18.34610 27.34080 22.84345
#
# Velocity S-wave (km/s) = 3.15658 3.85346 3.52230
# Velocity P-wave (km/s) = 4.86280 7.11614 6.09451
#
# Compressibility (1/GPa) = 0.05241683
#
# Stress axis : x y z
#
# Youngs Moduli (GPa) = 106.28849 92.64592 15.18983
#
# Poissons Ratio (x) = 0.36414 0.10615
# Poissons Ratio (y) = 0.41776 0.08948
# Poissons Ratio (z) = 0.74275 0.54577
#
# Static dielectric constant tensor:
#      x y z
#    x 3.588270 0.000000 0.000000 
#    y 0.000000 3.657000 0.000000 
#    z 0.000000 0.000000 2.910600 
# 
# 
# High freq. dielectric constant tensor:
#      x y z
#    x 1.727490 0.000000 0.000000 
#    y 0.000000 1.733240 0.000000 
#    z 0.000000 0.000000 1.655790 
# 
# From -- ./inp_files/6453.got.cif
#   From: 2010.06.25/outbox.cif.g09.slc.cpg/sg58_4_cif.got.tgz:6453.got - 2010.06.26 21:38:00.
