data_PCOD8235036
_publ_section_title
;
Structure prediction by ZEFSAII (Michael W. Deem and Ramdas Pophale) SiO2 
 PCOD8235036
Probable space group: P B C M
;
_chemical_formula_sum "Si O2"
_cell_formula_units_Z 40
_cell_length_a 7.375840
_cell_length_b 9.693444
_cell_length_c 25.881425
_cell_angle_alpha 90.000000
_cell_angle_beta 90.000000
_cell_angle_gamma 90.000000
_cell_volume 1850.451800
_symmetry_space_group_name_H-M "P B C M"
_symmetry_group_IT_number 57
_symmetry_cell_setting 'orthorhombic'
loop_
_space_group_symop_operation_xyz
x,y,z
-x,-y,1/2+z
x,1/2-y,-z
-x,1/2+y,1/2-z
-x,-y,-z
x,y,1/2-z
-x,1/2+y,z
x,1/2-y,1/2+z
loop_
_atom_site_type_symbol
_atom_site_label
_atom_site_fract_x
_atom_site_fract_y
_atom_site_fract_z
Si Si1 0.673553 0.349381 0.809652
Si Si2 0.598960 0.855748 0.145087
Si Si3 0.973804 0.987170 0.059993
Si Si4 0.406918 0.383774 0.465194
Si Si5 0.992539 0.745826 0.125788
O O1 0.699453 0.385219 0.750000
O O2 0.603833 0.484436 0.839106
O O3 0.527312 0.228018 0.815655
O O4 0.869593 0.299529 0.829943
O O5 0.496296 0.838186 0.088288
O O6 0.801450 0.791791 0.150128
O O7 0.044990 0.124290 0.085805
O O8 0.761981 0.954083 0.064466
O O9 0.080794 0.865635 0.089676
O O10 0.000000 0.000000 0.000000
O O11 0.362645 0.250000 0.500000
O O12 0.500000 0.500000 0.500000
#
# Coordination Sequence:
#
# PCOD8235036 Si02
#       5
#     8   8   8   8   8
#     4  12  27  47  74 102 133 189 242 298 360 408
#     4  11  26  48  69 105 145 177 243 293 350 432
#     4  11  23  41  67 100 139 186 227 273 349 423
#     4  11  23  39  65 103 139 185 225 279 354 419
#     4  11  24  47  67 103 144 184 230 294 346 422
#
# _framework density 21.616340999999998
#
# number of rings (size 3 to 8) (size 9 to 14) (size 15 to 20)
#    0.000    0.800    4.000    4.800    5.600    1.600 
#    0.000    0.000    0.000    0.000    0.000    0.000 
#    0.000    0.000    0.000    0.000    0.000    0.000 
#
# Total GULP energy -495670.682327 kJ/mol
# GULP energy per Si atom -12391.767058 kJ/mol
# Density = 2.156714 g / cm^3
# Si number density = 21.616341 Si / 1000 Ang^3
#
#
#
# Elastic Constant Matrix: (Units=GPa)
#
#
# Indices 1 2 3 4 5 6 
#
# 1 75.5926 27.9189 22.5566 0.0000 0.0000 0.0000
# 2 27.9189 137.8165 35.4227 0.0000 0.0000 0.0000
# 3 22.5566 35.4227 142.7270 0.0000 0.0000 0.0000
# 4 0.0000 0.0000 0.0000 37.5754 0.0000 0.0000
# 5 0.0000 0.0000 0.0000 0.0000 35.9772 0.0000
# 6 0.0000 0.0000 0.0000 0.0000 0.0000 34.2218
#
#
#
# Elastic Compliance Matrix: (Units=1/GPa)
#
#
# Indices 1 2 3 4 5 6 
#
# 1 0.014670 -0.002538 -0.001689 0.000000 0.000000 0.000000
# 2 -0.002538 0.008189 -0.001631 0.000000 0.000000 0.000000
# 3 -0.001689 -0.001631 0.007678 0.000000 0.000000 0.000000
# 4 0.000000 0.000000 0.000000 0.026613 0.000000 0.000000
# 5 0.000000 0.000000 0.000000 0.000000 0.027795 0.000000
# 6 0.000000 0.000000 0.000000 0.000000 0.000000 0.029221
#
#
# Mechanical properties :
#
#
# Convention : Reuss Voigt Hill
#
# Bulk Modulus (GPa) = 53.12964 58.65917 55.89440
# Shear Modulus (GPa) = 37.83383 39.57075 38.70229
#
# Velocity S-wave (km/s) = 4.18813 4.28319 4.23592
# Velocity P-wave (km/s) = 6.92958 7.18723 7.05958
#
# Compressibility (1/GPa) = 0.01882189
#
# Stress axis : x y z
#
# Youngs Moduli (GPa) = 68.16640 122.10812 130.23981
#
# Poissons Ratio (x) = 0.30989 0.21992
# Poissons Ratio (y) = 0.17300 0.21248
# Poissons Ratio (z) = 0.11511 0.19921
#
# Static dielectric constant tensor:
#      x y z
#    x 3.136510 0.000000 0.000000 
#    y 0.000000 3.859490 0.000000 
#    z 0.000000 0.000000 3.624530 
# 
# 
# High freq. dielectric constant tensor:
#      x y z
#    x 1.837120 0.000000 0.000000 
#    y 0.000000 1.867910 0.000000 
#    z 0.000000 0.000000 1.859660 
# 
# From -- ./inp_files/26521.got.cif
#   From: 2010.03.12/outbox.cif.g09.slc.cpg/sg57_14_cif.got.tgz:26521.got - 2010.04.16 15:48:40.
