data_PCOD8235841
_publ_section_title
;
Structure prediction by ZEFSAII (Michael W. Deem and Ramdas Pophale) SiO2 
 PCOD8235841
Probable space group: P N N M
;
_chemical_formula_sum "Si O2"
_cell_formula_units_Z 56
_cell_length_a 16.839939
_cell_length_b 19.973094
_cell_length_c 9.204342
_cell_angle_alpha 90.000000
_cell_angle_beta 90.000000
_cell_angle_gamma 90.000000
_cell_volume 3095.840711
_symmetry_space_group_name_H-M "P N N M"
_symmetry_group_IT_number 58
_symmetry_cell_setting 'orthorhombic'
loop_
_space_group_symop_operation_xyz
x,y,z
-x,-y,z
1/2+x,1/2-y,1/2-z
1/2-x,1/2+y,1/2-z
-x,-y,-z
x,y,-z
1/2-x,1/2+y,1/2+z
1/2+x,1/2-y,1/2+z
loop_
_atom_site_type_symbol
_atom_site_label
_atom_site_fract_x
_atom_site_fract_y
_atom_site_fract_z
Si Si1 0.677799 0.110926 0.827467
Si Si2 0.160070 0.646508 0.671157
Si Si3 0.255243 0.750432 0.834175
Si Si4 0.484843 0.833638 0.826988
Si Si5 0.572079 0.304870 0.834231
Si Si6 0.572871 0.452424 0.172254
Si Si7 0.735553 0.478478 0.326670
O O1 0.730332 0.174289 0.775939
O O2 0.587146 0.119512 0.768817
O O3 0.716340 0.043012 0.768452
O O4 0.675456 0.109976 0.000000
O O5 0.166174 0.653470 0.500000
O O6 0.187365 0.716641 0.738328
O O7 0.068679 0.634437 0.719759
O O8 0.213754 0.585347 0.726938
O O9 0.334413 0.706859 0.817669
O O10 0.226243 0.751495 0.000000
O O11 0.475249 0.757713 0.762075
O O12 0.476897 0.828211 0.000000
O O13 0.552763 0.377785 0.765939
O O14 0.545641 0.308589 0.000000
O O15 0.500000 0.500000 0.213400
O O16 0.650253 0.480213 0.252347
O O17 0.589504 0.451295 0.000000
O O18 0.725343 0.479080 0.500000
#
# Coordination Sequence:
#
# PCOD8235841 Si02
#       7
#     8   8   8   8   8   8   8
#     4   8  16  31  50  71  97 133 171 200 237 297
#     4  10  19  29  48  78 104 126 157 205 258 294
#     4   9  16  30  52  68  87 129 173 203 235 289
#     4   8  15  28  47  71  96 126 166 206 238 278
#     4   8  14  28  48  67  89 121 162 202 237 278
#     4  10  20  33  51  74  97 129 172 207 242 293
#     4  10  20  33  49  74 106 133 159 199 256 307
#
# _framework density 18.088785999999999
#
# number of rings (size 3 to 8) (size 9 to 14) (size 15 to 20)
#    0.000    3.000    1.429    1.714    0.000    2.000 
#    0.000    5.000    0.000    5.143    0.000    2.000 
#    0.000    0.000    0.000    0.000    0.000    0.000 
#
# Total GULP energy -694002.348747 kJ/mol
# GULP energy per Si atom -12392.899085 kJ/mol
# Density = 1.804761 g / cm^3
# Si number density = 18.088786 Si / 1000 Ang^3
#
#
#
# Elastic Constant Matrix: (Units=GPa)
#
#
# Indices 1 2 3 4 5 6 
#
# 1 134.8832 71.1730 29.5080 0.0000 0.0000 0.0000
# 2 71.1730 110.2885 21.1804 0.0000 0.0000 0.0000
# 3 29.5080 21.1804 17.0580 0.0000 0.0000 0.0000
# 4 0.0000 0.0000 0.0000 18.2487 0.0000 0.0000
# 5 0.0000 0.0000 0.0000 0.0000 19.7883 0.0000
# 6 0.0000 0.0000 0.0000 0.0000 0.0000 26.9205
#
#
#
# Elastic Compliance Matrix: (Units=1/GPa)
#
#
# Indices 1 2 3 4 5 6 
#
# 1 0.014360 -0.005904 -0.017509 0.000000 0.000000 0.000000
# 2 -0.005904 0.014334 -0.007584 0.000000 0.000000 0.000000
# 3 -0.017509 -0.007584 0.098329 0.000000 0.000000 0.000000
# 4 0.000000 0.000000 0.000000 0.054798 0.000000 0.000000
# 5 0.000000 0.000000 0.000000 0.000000 0.050535 0.000000
# 6 0.000000 0.000000 0.000000 0.000000 0.000000 0.037146
#
#
# Mechanical properties :
#
#
# Convention : Reuss Voigt Hill
#
# Bulk Modulus (GPa) = 15.37817 56.21696 35.79757
# Shear Modulus (GPa) = 14.15731 22.34939 18.25335
#
# Velocity S-wave (km/s) = 2.80064 3.51884 3.18008
# Velocity P-wave (km/s) = 4.35638 6.90329 5.77206
#
# Compressibility (1/GPa) = 0.06502724
#
# Stress axis : x y z
#
# Youngs Moduli (GPa) = 69.63914 69.76466 10.16989
#
# Poissons Ratio (x) = 0.41191 0.17807
# Poissons Ratio (y) = 0.41117 0.07713
# Poissons Ratio (z) = 1.21933 0.52912
#
# Static dielectric constant tensor:
#      x y z
#    x 3.379280 0.000000 0.000000 
#    y 0.000000 3.686990 0.000000 
#    z 0.000000 0.000000 2.827940 
# 
# 
# High freq. dielectric constant tensor:
#      x y z
#    x 1.699630 0.000000 0.000000 
#    y 0.000000 1.712460 0.000000 
#    z 0.000000 0.000000 1.644580 
# 
# From -- ./inp_files/8193.got.cif
#   From: 2010.06.25/outbox.cif.g09.slc.cpg/sg58_5_cif.got.tgz:8193.got - 2010.06.26 21:38:00.
