data_PCOD8235526
_publ_section_title
;
Structure prediction by ZEFSAII (Michael W. Deem and Ramdas Pophale) SiO2 
 PCOD8235526
Probable space group: P N N M
;
_chemical_formula_sum "Si O2"
_cell_formula_units_Z 56
_cell_length_a 29.045879
_cell_length_b 13.770241
_cell_length_c 8.613328
_cell_angle_alpha 90.000000
_cell_angle_beta 90.000000
_cell_angle_gamma 90.000000
_cell_volume 3445.062067
_symmetry_space_group_name_H-M "P N N M"
_symmetry_group_IT_number 58
_symmetry_cell_setting 'orthorhombic'
loop_
_space_group_symop_operation_xyz
x,y,z
-x,-y,z
1/2+x,1/2-y,1/2-z
1/2-x,1/2+y,1/2-z
-x,-y,-z
x,y,-z
1/2-x,1/2+y,1/2+z
1/2+x,1/2-y,1/2+z
loop_
_atom_site_type_symbol
_atom_site_label
_atom_site_fract_x
_atom_site_fract_y
_atom_site_fract_z
Si Si1 0.727276 0.387608 0.183086
Si Si2 0.822371 0.711071 0.816726
Si Si3 0.901769 0.390254 0.182934
Si Si4 0.002992 0.385323 0.829323
Si Si5 0.732513 0.602797 0.181792
Si Si6 0.184956 0.705672 0.681440
Si Si7 0.404706 0.899425 0.179789
O O1 0.690709 0.321322 0.273632
O O2 0.719700 0.497110 0.248216
O O3 0.779793 0.359237 0.220414
O O4 0.718538 0.378817 0.000000
O O5 0.781489 0.641420 0.753690
O O6 0.868850 0.682896 0.728913
O O7 0.829789 0.702715 0.000000
O O8 0.952699 0.351548 0.231651
O O9 0.866694 0.322035 0.274615
O O10 0.894378 0.502780 0.225454
O O11 0.893963 0.379973 0.000000
O O12 0.000000 0.500000 0.844717
O O13 0.044231 0.356428 0.713923
O O14 0.013184 0.340847 0.000000
O O15 0.692715 0.680624 0.222870
O O16 0.738907 0.591906 0.000000
O O17 0.194427 0.687354 0.500000
O O18 0.400354 0.923952 0.000000
#
# Coordination Sequence:
#
# PCOD8235526 Si02
#       7
#     8   8   8   8   8   8   8
#     4  10  18  31  48  66  90 121 156 191 226 265
#     4  10  19  32  47  66  93 123 153 185 226 271
#     4  10  19  31  46  66  93 124 153 185 228 272
#     4   8  16  30  45  62  89 122 150 180 225 274
#     4   8  17  31  46  63  88 120 150 185 225 263
#     4  10  19  31  46  67  92 121 156 189 226 270
#     4  11  20  29  45  69  93 120 154 188 223 269
#
# _framework density 16.255151000000001
#
# number of rings (size 3 to 8) (size 9 to 14) (size 15 to 20)
#    0.000    2.429    0.000    5.571    0.000    4.286 
#    0.000    7.857    0.000    0.000    0.000    1.000 
#    0.000    8.000    0.000    0.000    0.000    0.000 
#
# Total GULP energy -694229.406300 kJ/mol
# GULP energy per Si atom -12396.953684 kJ/mol
# Density = 1.621815 g / cm^3
# Si number density = 16.255151 Si / 1000 Ang^3
#
#
#
# Elastic Constant Matrix: (Units=GPa)
#
#
# Indices 1 2 3 4 5 6 
#
# 1 107.6748 43.2944 17.9721 0.0000 0.0000 0.0000
# 2 43.2944 92.7640 13.1117 0.0000 0.0000 0.0000
# 3 17.9721 13.1117 45.4379 0.0000 0.0000 0.0000
# 4 0.0000 0.0000 0.0000 20.7509 0.0000 0.0000
# 5 0.0000 0.0000 0.0000 0.0000 24.8387 0.0000
# 6 0.0000 0.0000 0.0000 0.0000 0.0000 23.0854
#
#
#
# Elastic Compliance Matrix: (Units=1/GPa)
#
#
# Indices 1 2 3 4 5 6 
#
# 1 0.011870 -0.005084 -0.003228 0.000000 0.000000 0.000000
# 2 -0.005084 0.013416 -0.001861 0.000000 0.000000 0.000000
# 3 -0.003228 -0.001861 0.023822 0.000000 0.000000 0.000000
# 4 0.000000 0.000000 0.000000 0.048191 0.000000 0.000000
# 5 0.000000 0.000000 0.000000 0.000000 0.040260 0.000000
# 6 0.000000 0.000000 0.000000 0.000000 0.000000 0.043318
#
#
# Mechanical properties :
#
#
# Convention : Reuss Voigt Hill
#
# Bulk Modulus (GPa) = 34.76687 43.84812 39.30750
# Shear Modulus (GPa) = 23.71833 25.16823 24.44328
#
# Velocity S-wave (km/s) = 3.82400 3.93914 3.88200
# Velocity P-wave (km/s) = 6.39781 6.90815 6.65787
#
# Compressibility (1/GPa) = 0.02876301
#
# Stress axis : x y z
#
# Youngs Moduli (GPa) = 84.24539 74.53978 41.97852
#
# Poissons Ratio (x) = 0.37894 0.13551
# Poissons Ratio (y) = 0.42828 0.07810
# Poissons Ratio (z) = 0.27195 0.13868
#
# Static dielectric constant tensor:
#      x y z
#    x 3.265090 0.000000 0.000000 
#    y 0.000000 3.019750 0.000000 
#    z 0.000000 0.000000 3.017400 
# 
# 
# High freq. dielectric constant tensor:
#      x y z
#    x 1.621820 0.000000 0.000000 
#    y 0.000000 1.593730 0.000000 
#    z 0.000000 0.000000 1.627330 
# 
# From -- ./inp_files/7125.got.cif
#   From: 2010.06.25/outbox.cif.g09.slc.cpg/sg58_4_cif.got.tgz:7125.got - 2010.06.26 21:38:00.
