data_PCOD8235821
_publ_section_title
;
Structure prediction by ZEFSAII (Michael W. Deem and Ramdas Pophale) SiO2 
 PCOD8235821
Probable space group: P N N M
;
_chemical_formula_sum "Si O2"
_cell_formula_units_Z 64
_cell_length_a 18.454719
_cell_length_b 26.123112
_cell_length_c 9.012359
_cell_angle_alpha 90.000000
_cell_angle_beta 90.000000
_cell_angle_gamma 90.000000
_cell_volume 4344.810431
_symmetry_space_group_name_H-M "P N N M"
_symmetry_group_IT_number 58
_symmetry_cell_setting 'orthorhombic'
loop_
_space_group_symop_operation_xyz
x,y,z
-x,-y,z
1/2+x,1/2-y,1/2-z
1/2-x,1/2+y,1/2-z
-x,-y,-z
x,y,-z
1/2-x,1/2+y,1/2+z
1/2+x,1/2-y,1/2+z
loop_
_atom_site_type_symbol
_atom_site_label
_atom_site_fract_x
_atom_site_fract_y
_atom_site_fract_z
Si Si1 0.924214 0.257451 0.324448
Si Si2 0.292558 0.304414 0.835643
Si Si3 0.168814 0.351146 0.326278
Si Si4 0.088819 0.249259 0.325300
Si Si5 0.210772 0.197131 0.166466
Si Si6 0.659598 0.846651 0.328034
Si Si7 0.422382 0.947810 0.177506
Si Si8 0.573913 0.948071 0.326456
O O1 0.917516 0.267813 0.500000
O O2 0.873856 0.208742 0.278492
O O3 0.899101 0.308840 0.243488
O O4 0.005577 0.244300 0.276116
O O5 0.250551 0.345712 0.735945
O O6 0.250630 0.251099 0.833255
O O7 0.295430 0.327751 0.000000
O O8 0.175943 0.349773 0.500000
O O9 0.117797 0.304640 0.271593
O O10 0.134311 0.404317 0.273084
O O11 0.098483 0.242711 0.500000
O O12 0.133232 0.203671 0.246540
O O13 0.261237 0.157005 0.253585
O O14 0.198096 0.176864 0.000000
O O15 0.666809 0.832401 0.500000
O O16 0.633101 0.904320 0.303169
O O17 0.500152 0.932303 0.243490
O O18 0.394909 0.000569 0.250435
O O19 0.428410 0.952921 0.000000
O O20 0.557849 0.957513 0.500000
#
# Coordination Sequence:
#
# PCOD8235821 Si02
#       8
#     8   8   8   8   8   8   8   8
#     4   9  17  28  42  61  84 110 139 169 201 239
#     4   8  15  26  39  56  78 105 134 164 198 234
#     4   9  17  27  40  58  78 105 138 167 198 235
#     4   9  16  27  42  59  83 110 135 166 201 237
#     4   9  17  28  41  58  80 105 136 170 201 238
#     4  10  19  29  42  59  80 109 141 170 204 243
#     4  10  19  30  44  60  79 106 139 171 204 240
#     4  10  20  31  42  59  82 106 135 171 207 240
#
# _framework density 14.730217
#
# number of rings (size 3 to 8) (size 9 to 14) (size 15 to 20)
#    0.000    2.750    0.000    3.750    0.000    7.500 
#    0.000    2.500    0.000    0.000    0.000    0.000 
#    0.000    1.000    0.000   11.250    0.000    5.625 
#
# Total GULP energy -793377.348860 kJ/mol
# GULP energy per Si atom -12396.521076 kJ/mol
# Density = 1.469669 g / cm^3
# Si number density = 14.730217 Si / 1000 Ang^3
#
#
#
# Elastic Constant Matrix: (Units=GPa)
#
#
# Indices 1 2 3 4 5 6 
#
# 1 117.5863 55.2190 43.7463 0.0000 0.0000 0.0000
# 2 55.2190 74.4172 39.5713 0.0000 0.0000 0.0000
# 3 43.7463 39.5713 65.7240 0.0000 0.0000 0.0000
# 4 0.0000 0.0000 0.0000 19.1888 0.0000 0.0000
# 5 0.0000 0.0000 0.0000 0.0000 24.3429 0.0000
# 6 0.0000 0.0000 0.0000 0.0000 0.0000 26.1535
#
#
#
# Elastic Compliance Matrix: (Units=1/GPa)
#
#
# Indices 1 2 3 4 5 6 
#
# 1 0.013892 -0.007930 -0.004472 0.000000 0.000000 0.000000
# 2 -0.007930 0.024293 -0.009348 0.000000 0.000000 0.000000
# 3 -0.004472 -0.009348 0.023820 0.000000 0.000000 0.000000
# 4 0.000000 0.000000 0.000000 0.052114 0.000000 0.000000
# 5 0.000000 0.000000 0.000000 0.000000 0.041080 0.000000
# 6 0.000000 0.000000 0.000000 0.000000 0.000000 0.038236
#
#
# Mechanical properties :
#
#
# Convention : Reuss Voigt Hill
#
# Bulk Modulus (GPa) = 54.04052 59.42229 56.73141
# Shear Modulus (GPa) = 20.56738 21.88309 21.22524
#
# Velocity S-wave (km/s) = 3.74073 3.85852 3.80008
# Velocity P-wave (km/s) = 7.44472 7.76395 7.60601
#
# Compressibility (1/GPa) = 0.01850463
#
# Stress axis : x y z
#
# Youngs Moduli (GPa) = 71.98244 41.16414 41.98149
#
# Poissons Ratio (x) = 0.32645 0.18774
# Poissons Ratio (y) = 0.57084 0.39244
# Poissons Ratio (z) = 0.32191 0.38480
#
# Static dielectric constant tensor:
#      x y z
#    x 2.984730 0.000000 0.000000 
#    y 0.000000 2.701430 0.000000 
#    z 0.000000 0.000000 2.974670 
# 
# 
# High freq. dielectric constant tensor:
#      x y z
#    x 1.554550 0.000000 0.000000 
#    y 0.000000 1.527830 0.000000 
#    z 0.000000 0.000000 1.574150 
# 
# From -- ./inp_files/8535.got.cif
#   From: 2010.06.25/outbox.cif.g09.slc.cpg/sg58_5_cif.got.tgz:8535.got - 2010.06.26 21:38:00.
