data_PCOD8235780
_publ_section_title
;
Structure prediction by ZEFSAII (Michael W. Deem and Ramdas Pophale) SiO2 
 PCOD8235780
Probable space group: P N N M
;
_chemical_formula_sum "Si O2"
_cell_formula_units_Z 64
_cell_length_a 20.287806
_cell_length_b 19.202587
_cell_length_c 8.857613
_cell_angle_alpha 90.000000
_cell_angle_beta 90.000000
_cell_angle_gamma 90.000000
_cell_volume 3450.734344
_symmetry_space_group_name_H-M "P N N M"
_symmetry_group_IT_number 58
_symmetry_cell_setting 'orthorhombic'
loop_
_space_group_symop_operation_xyz
x,y,z
-x,-y,z
1/2+x,1/2-y,1/2-z
1/2-x,1/2+y,1/2-z
-x,-y,-z
x,y,-z
1/2-x,1/2+y,1/2+z
1/2+x,1/2-y,1/2+z
loop_
_atom_site_type_symbol
_atom_site_label
_atom_site_fract_x
_atom_site_fract_y
_atom_site_fract_z
Si Si1 0.003156 0.828366 0.323308
Si Si2 0.430978 0.038652 0.170871
Si Si3 0.504399 0.826376 0.176359
Si Si4 0.314598 0.959498 0.323237
Si Si5 0.561880 0.545696 0.676840
Si Si6 0.694205 0.466867 0.674483
Si Si7 0.144163 0.322541 0.320490
Si Si8 0.863350 0.819924 0.824242
O O1 0.990126 0.837571 0.500000
O O2 0.030521 0.750911 0.287382
O O3 0.934405 0.841539 0.239682
O O4 0.058690 0.881128 0.264722
O O5 0.444450 0.116185 0.239669
O O6 0.500000 0.000000 0.170714
O O7 0.380570 0.999962 0.278698
O O8 0.401914 0.040656 0.000000
O O9 0.430263 0.835415 0.240327
O O10 0.498921 0.841182 0.000000
O O11 0.314100 0.946348 0.500000
O O12 0.310109 0.884412 0.241682
O O13 0.252753 0.006190 0.277849
O O14 0.500000 0.500000 0.729991
O O15 0.558560 0.560865 0.500000
O O16 0.628118 0.506717 0.724045
O O17 0.710432 0.482002 0.500000
O O18 0.685839 0.384471 0.702453
O O19 0.148536 0.320659 0.500000
O O20 0.167651 0.247530 0.257950
O O21 0.871858 0.803671 0.000000
#
# Coordination Sequence:
#
# PCOD8235780 Si02
#       8
#     8   8   8   8   8   8   8   8
#     4  10  19  31  52  85 119 150 185 230 288 344
#     4  10  18  35  61  82 107 148 192 230 281 345
#     4   8  16  31  53  82 111 143 184 228 274 337
#     4  12  25  38  55  85 120 151 193 242 285 335
#     4  10  19  36  58  82 110 144 189 237 286 338
#     4  10  22  40  60  80 112 156 194 232 288 348
#     4  10  19  36  59  84 113 148 190 231 284 347
#     4  10  19  35  58  85 113 146 190 238 287 336
#
# _framework density 18.546776000000001
#
# number of rings (size 3 to 8) (size 9 to 14) (size 15 to 20)
#    0.000    2.000    2.500    3.000    0.000    2.000 
#    0.000    2.500    0.000    4.500    0.000    0.000 
#    0.000    0.000    0.000    0.000    0.000    0.000 
#
# Total GULP energy -793595.354756 kJ/mol
# GULP energy per Si atom -12399.927418 kJ/mol
# Density = 1.850456 g / cm^3
# Si number density = 18.546776 Si / 1000 Ang^3
#
#
#
# Elastic Constant Matrix: (Units=GPa)
#
#
# Indices 1 2 3 4 5 6 
#
# 1 67.7132 44.9937 34.7830 0.0000 0.0000 0.0000
# 2 44.9937 146.7228 56.6580 0.0000 0.0000 0.0000
# 3 34.7830 56.6580 93.3564 0.0000 0.0000 0.0000
# 4 0.0000 0.0000 0.0000 33.6156 0.0000 0.0000
# 5 0.0000 0.0000 0.0000 0.0000 21.9508 0.0000
# 6 0.0000 0.0000 0.0000 0.0000 0.0000 26.0948
#
#
#
# Elastic Compliance Matrix: (Units=1/GPa)
#
#
# Indices 1 2 3 4 5 6 
#
# 1 0.020131 -0.004280 -0.004903 0.000000 0.000000 0.000000
# 2 -0.004280 0.009812 -0.004360 0.000000 0.000000 0.000000
# 3 -0.004903 -0.004360 0.015184 0.000000 0.000000 0.000000
# 4 0.000000 0.000000 0.000000 0.029748 0.000000 0.000000
# 5 0.000000 0.000000 0.000000 0.000000 0.045556 0.000000
# 6 0.000000 0.000000 0.000000 0.000000 0.000000 0.038322
#
#
# Mechanical properties :
#
#
# Convention : Reuss Voigt Hill
#
# Bulk Modulus (GPa) = 55.42908 64.51798 59.97353
# Shear Modulus (GPa) = 26.06169 27.75609 26.90889
#
# Velocity S-wave (km/s) = 3.75265 3.87272 3.81316
# Velocity P-wave (km/s) = 6.98051 7.40671 7.19677
#
# Compressibility (1/GPa) = 0.01804107
#
# Stress axis : x y z
#
# Youngs Moduli (GPa) = 49.67576 101.91871 65.85669
#
# Poissons Ratio (x) = 0.43621 0.32288
# Poissons Ratio (y) = 0.21261 0.28714
# Poissons Ratio (z) = 0.24355 0.44438
#
# Static dielectric constant tensor:
#      x y z
#    x 3.259000 0.000000 0.000000 
#    y 0.000000 3.805990 0.000000 
#    z 0.000000 0.000000 3.292510 
# 
# 
# High freq. dielectric constant tensor:
#      x y z
#    x 1.686270 0.000000 0.000000 
#    y 0.000000 1.740440 0.000000 
#    z 0.000000 0.000000 1.710030 
# 
# From -- ./inp_files/9246.got.cif
#   From: 2010.06.25/outbox.cif.g09.slc.cpg/sg58_5_cif.got.tgz:9246.got - 2010.06.26 21:38:00.
