data_PCOD8235428
_publ_section_title
;
Structure prediction by ZEFSAII (Michael W. Deem and Ramdas Pophale) SiO2 
 PCOD8235428
Probable space group: P N N M
;
_chemical_formula_sum "Si O2"
_cell_formula_units_Z 64
_cell_length_a 21.253002
_cell_length_b 18.652423
_cell_length_c 9.372950
_cell_angle_alpha 90.000000
_cell_angle_beta 90.000000
_cell_angle_gamma 90.000000
_cell_volume 3715.624683
_symmetry_space_group_name_H-M "P N N M"
_symmetry_group_IT_number 58
_symmetry_cell_setting 'orthorhombic'
loop_
_space_group_symop_operation_xyz
x,y,z
-x,-y,z
1/2+x,1/2-y,1/2-z
1/2-x,1/2+y,1/2-z
-x,-y,-z
x,y,-z
1/2-x,1/2+y,1/2+z
1/2+x,1/2-y,1/2+z
loop_
_atom_site_type_symbol
_atom_site_label
_atom_site_fract_x
_atom_site_fract_y
_atom_site_fract_z
Si Si1 0.012330 0.421108 0.662592
Si Si2 0.920149 0.325642 0.837168
Si Si3 0.187915 0.568464 0.834349
Si Si4 0.820426 0.969329 0.342173
Si Si5 0.763550 0.127240 0.660910
Si Si6 0.876000 0.171789 0.834883
Si Si7 0.069105 0.980991 0.166642
Si Si8 0.844195 0.570430 0.664281
O O1 0.988484 0.421693 0.500000
O O2 0.973968 0.360529 0.743311
O O3 0.000000 0.500000 0.729609
O O4 0.085207 0.400152 0.673940
O O5 0.851213 0.359245 0.806804
O O6 0.918063 0.241292 0.801862
O O7 0.939379 0.338969 0.000000
O O8 0.262045 0.582467 0.796377
O O9 0.158049 0.507995 0.734156
O O10 0.183506 0.543201 0.000000
O O11 0.845042 0.949744 0.500000
O O12 0.790589 0.047737 0.339240
O O13 0.879819 0.965405 0.236947
O O14 0.751526 0.155048 0.500000
O O15 0.813599 0.178169 0.739129
O O16 0.698870 0.127120 0.750385
O O17 0.916750 0.101660 0.794998
O O18 0.855200 0.169300 0.000000
O O19 0.072974 0.996095 0.000000
O O20 0.000000 0.000000 0.226212
O O21 0.821611 0.564800 0.500000
#
# Coordination Sequence:
#
# PCOD8235428 Si02
#       8
#     8   8   8   8   8   8   8   8
#     4  10  20  33  47  71 104 136 172 212 248 293
#     4  10  20  32  50  72  97 135 171 207 251 303
#     4   9  17  29  45  69  97 124 158 200 245 288
#     4   8  15  27  44  68  94 115 143 189 236 284
#     4   9  17  30  49  72  95 120 155 202 248 291
#     4   9  18  33  51  73  98 128 167 205 253 309
#     4   9  17  30  50  73  95 122 158 202 245 289
#     4  10  18  29  48  71  97 128 163 205 247 286
#
# _framework density 17.224561000000001
#
# number of rings (size 3 to 8) (size 9 to 14) (size 15 to 20)
#    0.000    2.750    1.250    1.500    0.000    5.000 
#    0.000    0.000    2.750    0.000    0.000    0.000 
#    0.000    0.000    0.000    0.000    0.000    0.000 
#
# Total GULP energy -793419.829220 kJ/mol
# GULP energy per Si atom -12397.184832 kJ/mol
# Density = 1.718536 g / cm^3
# Si number density = 17.224561 Si / 1000 Ang^3
#
#
#
# Elastic Constant Matrix: (Units=GPa)
#
#
# Indices 1 2 3 4 5 6 
#
# 1 119.6938 37.4516 56.1724 0.0000 0.0000 0.0000
# 2 37.4516 57.6351 33.6983 0.0000 0.0000 0.0000
# 3 56.1724 33.6983 84.9829 0.0000 0.0000 0.0000
# 4 0.0000 0.0000 0.0000 17.4587 0.0000 0.0000
# 5 0.0000 0.0000 0.0000 0.0000 33.1634 0.0000
# 6 0.0000 0.0000 0.0000 0.0000 0.0000 21.8890
#
#
#
# Elastic Compliance Matrix: (Units=1/GPa)
#
#
# Indices 1 2 3 4 5 6 
#
# 1 0.012926 -0.004431 -0.006787 0.000000 0.000000 0.000000
# 2 -0.004431 0.024106 -0.006630 0.000000 0.000000 0.000000
# 3 -0.006787 -0.006630 0.018882 0.000000 0.000000 0.000000
# 4 0.000000 0.000000 0.000000 0.057278 0.000000 0.000000
# 5 0.000000 0.000000 0.000000 0.000000 0.030154 0.000000
# 6 0.000000 0.000000 0.000000 0.000000 0.000000 0.045685
#
#
# Mechanical properties :
#
#
# Convention : Reuss Voigt Hill
#
# Bulk Modulus (GPa) = 49.45964 57.43960 53.44962
# Shear Modulus (GPa) = 21.60131 23.50153 22.55142
#
# Velocity S-wave (km/s) = 3.54517 3.69781 3.62229
# Velocity P-wave (km/s) = 6.74793 7.18691 6.97088
#
# Compressibility (1/GPa) = 0.02021851
#
# Stress axis : x y z
#
# Youngs Moduli (GPa) = 77.36148 41.48264 52.96028
#
# Poissons Ratio (x) = 0.18383 0.35944
# Poissons Ratio (y) = 0.34282 0.35112
# Poissons Ratio (z) = 0.52505 0.27502
#
# Static dielectric constant tensor:
#      x y z
#    x 3.349480 0.000000 0.000000 
#    y 0.000000 2.921740 0.000000 
#    z 0.000000 0.000000 3.320180 
# 
# 
# High freq. dielectric constant tensor:
#      x y z
#    x 1.667660 0.000000 0.000000 
#    y 0.000000 1.623460 0.000000 
#    z 0.000000 0.000000 1.668440 
# 
# From -- ./inp_files/8385.got.cif
#   From: 2010.06.25/outbox.cif.g09.slc.cpg/sg58_5_cif.got.tgz:8385.got - 2010.06.26 21:38:00.
