data_PCOD8235519
_publ_section_title
;
Structure prediction by ZEFSAII (Michael W. Deem and Ramdas Pophale) SiO2 
 PCOD8235519
Probable space group: P N N M
;
_chemical_formula_sum "Si O2"
_cell_formula_units_Z 64
_cell_length_a 19.336362
_cell_length_b 8.547638
_cell_length_c 18.619261
_cell_angle_alpha 90.000000
_cell_angle_beta 90.000000
_cell_angle_gamma 90.000000
_cell_volume 3077.395603
_symmetry_space_group_name_H-M "P N N M"
_symmetry_group_IT_number 58
_symmetry_cell_setting 'orthorhombic'
loop_
_space_group_symop_operation_xyz
x,y,z
-x,-y,z
1/2+x,1/2-y,1/2-z
1/2-x,1/2+y,1/2-z
-x,-y,-z
x,y,-z
1/2-x,1/2+y,1/2+z
1/2+x,1/2-y,1/2+z
loop_
_atom_site_type_symbol
_atom_site_label
_atom_site_fract_x
_atom_site_fract_y
_atom_site_fract_z
Si Si1 0.647601 0.680262 0.417922
Si Si2 0.781927 0.933242 0.170049
Si Si3 0.764317 0.927439 0.580274
Si Si4 0.063273 0.603768 0.818444
Si Si5 0.025298 0.676263 0.667302
Si Si6 0.150321 0.588453 0.582824
Si Si7 0.697146 0.095183 0.707194
Si Si8 0.900968 0.759261 0.417737
O O1 0.626499 0.641357 0.500000
O O2 0.656137 0.522444 0.371384
O O3 0.721082 0.766903 0.414630
O O4 0.587838 0.787363 0.383416
O O5 0.726118 0.874543 0.112400
O O6 0.746478 0.046827 0.227779
O O7 0.814256 0.782125 0.210162
O O8 0.758516 0.996008 0.500000
O O9 0.843723 0.890114 0.599515
O O10 0.734544 0.057229 0.632569
O O11 0.037665 0.710366 0.751627
O O12 0.123744 0.491869 0.787395
O O13 0.000000 0.500000 0.848388
O O14 0.096088 0.700944 0.623502
O O15 0.000000 0.500000 0.655697
O O16 0.966160 0.789569 0.634757
O O17 0.147916 0.633977 0.500000
O O18 0.133499 0.407852 0.596956
O O19 0.926590 0.768959 0.500000
#
# Coordination Sequence:
#
# PCOD8235519 Si02
#       8
#     8   8   8   8   8   8   8   8
#     4  10  21  39  62  87 117 154 201 251 307 367
#     4  12  23  37  60  86 122 158 205 260 312 361
#     4   9  18  35  59  87 122 159 195 243 302 368
#     4  10  21  39  63  91 120 157 204 251 307 371
#     4   9  17  28  51  86 124 159 200 240 277 350
#     4  10  18  30  52  84 120 161 200 240 291 348
#     4  11  24  38  59  89 121 155 204 257 310 365
#     4   9  16  29  54  89 124 159 197 236 285 352
#
# _framework density 20.796807000000001
#
# number of rings (size 3 to 8) (size 9 to 14) (size 15 to 20)
#    0.000    2.000    2.500    2.250    0.000    2.750 
#    0.000    0.625    0.000    3.000    0.000    2.625 
#    0.000    0.000    0.000    0.000    0.000    0.000 
#
# Total GULP energy -793680.391072 kJ/mol
# GULP energy per Si atom -12401.256111 kJ/mol
# Density = 2.074947 g / cm^3
# Si number density = 20.796807 Si / 1000 Ang^3
#
#
#
# Elastic Constant Matrix: (Units=GPa)
#
#
# Indices 1 2 3 4 5 6 
#
# 1 95.7688 18.6753 47.1109 0.0000 0.0000 0.0000
# 2 18.6753 64.0001 34.3485 0.0000 0.0000 0.0000
# 3 47.1109 34.3485 117.5215 0.0000 0.0000 0.0000
# 4 0.0000 0.0000 0.0000 23.3043 0.0000 0.0000
# 5 0.0000 0.0000 0.0000 0.0000 34.2878 0.0000
# 6 0.0000 0.0000 0.0000 0.0000 0.0000 22.6844
#
#
#
# Elastic Compliance Matrix: (Units=1/GPa)
#
#
# Indices 1 2 3 4 5 6 
#
# 1 0.013083 -0.001189 -0.004897 0.000000 0.000000 0.000000
# 2 -0.001189 0.018640 -0.004971 0.000000 0.000000 0.000000
# 3 -0.004897 -0.004971 0.011925 0.000000 0.000000 0.000000
# 4 0.000000 0.000000 0.000000 0.042911 0.000000 0.000000
# 5 0.000000 0.000000 0.000000 0.000000 0.029165 0.000000
# 6 0.000000 0.000000 0.000000 0.000000 0.000000 0.044083
#
#
# Mechanical properties :
#
#
# Convention : Reuss Voigt Hill
#
# Bulk Modulus (GPa) = 46.44070 53.06220 49.75145
# Shear Modulus (GPa) = 26.44120 27.86567 27.15344
#
# Velocity S-wave (km/s) = 3.56955 3.66444 3.61730
# Velocity P-wave (km/s) = 6.27440 6.59349 6.43592
#
# Compressibility (1/GPa) = 0.02153284
#
# Stress axis : x y z
#
# Youngs Moduli (GPa) = 76.43735 53.64787 83.85734
#
# Poissons Ratio (x) = 0.06381 0.41063
# Poissons Ratio (y) = 0.09092 0.41687
# Poissons Ratio (z) = 0.37430 0.26669
#
# Static dielectric constant tensor:
#      x y z
#    x 3.769040 0.000000 0.000000 
#    y 0.000000 3.353990 0.000000 
#    z 0.000000 0.000000 3.886140 
# 
# 
# High freq. dielectric constant tensor:
#      x y z
#    x 1.804230 0.000000 0.000000 
#    y 0.000000 1.776400 0.000000 
#    z 0.000000 0.000000 1.824720 
# 
# From -- ./inp_files/27532.got.cif
#   From: 2010.06.25/outbox.cif.g09.slc.cpg/sg58_14_cif.got.tgz:27532.got - 2010.06.26 21:38:00.
