data_PCOD8235066
_publ_section_title
;
Structure prediction by ZEFSAII (Michael W. Deem and Ramdas Pophale) SiO2 
 PCOD8235066
Probable space group: P B C M
;
_chemical_formula_sum "Si O2"
_cell_formula_units_Z 36
_cell_length_a 13.201207
_cell_length_b 9.252288
_cell_length_c 14.493434
_cell_angle_alpha 90.000000
_cell_angle_beta 90.000000
_cell_angle_gamma 90.000000
_cell_volume 1770.247872
_symmetry_space_group_name_H-M "P B C M"
_symmetry_group_IT_number 57
_symmetry_cell_setting 'orthorhombic'
loop_
_space_group_symop_operation_xyz
x,y,z
-x,-y,1/2+z
x,1/2-y,-z
-x,1/2+y,1/2-z
-x,-y,-z
x,y,1/2-z
-x,1/2+y,z
x,1/2-y,1/2+z
loop_
_atom_site_type_symbol
_atom_site_label
_atom_site_fract_x
_atom_site_fract_y
_atom_site_fract_z
Si Si1 0.746546 0.750000 0.500000
Si Si2 0.382139 0.973149 0.490870
Si Si3 0.091018 0.698837 0.103719
Si Si4 0.314781 0.768629 0.853860
Si Si5 0.898115 0.872114 0.147000
O O1 0.675473 0.619977 0.467605
O O2 0.815293 0.790828 0.413476
O O3 0.340231 0.912196 0.587852
O O4 0.364037 0.867064 0.405232
O O5 0.500000 0.000000 0.500000
O O6 0.193867 0.746296 0.153996
O O7 0.074451 0.526904 0.104156
O O8 0.998344 0.775286 0.154310
O O9 0.097820 0.750000 0.000000
O O10 0.359394 0.779502 0.750000
O O11 0.854028 0.892753 0.250000
#
# Coordination Sequence:
#
# PCOD8235066 Si02
#       5
#     4   8   8   8   8
#     4  12  24  42  68  96 136 176 218 278 336 392
#     4  11  25  46  69  96 129 172 224 279 335 393
#     4  12  23  44  66  97 136 178 217 266 328 397
#     4  11  23  44  70  96 132 175 217 270 333 395
#     4  12  26  41  65 101 138 176 221 269 323 400
#
# _framework density 20.336136
#
# number of rings (size 3 to 8) (size 9 to 14) (size 15 to 20)
#    0.000    0.444    5.556    4.000    3.111    1.778 
#    0.000    2.222    0.000    0.000    0.000    0.000 
#    0.000    0.000    0.000    0.000    0.000    0.000 
#
# Total GULP energy -446588.319299 kJ/mol
# GULP energy per Si atom -12405.231092 kJ/mol
# Density = 2.028985 g / cm^3
# Si number density = 20.336136 Si / 1000 Ang^3
#
#
#
# Elastic Constant Matrix: (Units=GPa)
#
#
# Indices 1 2 3 4 5 6 
#
# 1 142.3946 61.1723 27.6783 0.0000 0.0000 0.0000
# 2 61.1723 160.4250 56.9731 0.0000 0.0000 0.0000
# 3 27.6783 56.9731 163.9479 0.0000 0.0000 0.0000
# 4 0.0000 0.0000 0.0000 13.5037 0.0000 0.0000
# 5 0.0000 0.0000 0.0000 0.0000 32.3050 0.0000
# 6 0.0000 0.0000 0.0000 0.0000 0.0000 -88.0007
#
#
#
# Elastic Compliance Matrix: (Units=1/GPa)
#
#
# Indices 1 2 3 4 5 6 
#
# 1 0.008416 -0.003085 -0.000349 0.000000 0.000000 0.000000
# 2 -0.003085 0.008242 -0.002343 0.000000 0.000000 0.000000
# 3 -0.000349 -0.002343 0.006973 0.000000 0.000000 0.000000
# 4 0.000000 0.000000 0.000000 0.074054 0.000000 0.000000
# 5 0.000000 0.000000 0.000000 0.000000 0.030955 0.000000
# 6 0.000000 0.000000 0.000000 0.000000 0.000000 -0.011364
#
#
# Mechanical properties :
#
#
# Convention : Reuss Voigt Hill
#
# Bulk Modulus (GPa) = 82.80751 84.26831 83.53791
# Shear Modulus (GPa) = 37.63476 12.95787 25.29631
#
# Velocity S-wave (km/s) = 4.30657 2.52699 3.53074
# Velocity P-wave (km/s) = 8.09546 7.07403 7.60192
#
# Compressibility (1/GPa) = 0.01207620
#
# Stress axis : x y z
#
# Youngs Moduli (GPa) = 118.82208 121.32812 143.41692
#
# Poissons Ratio (x) = 0.37433 0.05000
# Poissons Ratio (y) = 0.36660 0.33607
# Poissons Ratio (z) = 0.04143 0.28431
#
# Static dielectric constant tensor:
#      x y z
#    x 3.866730 0.000000 0.000000 
#    y 0.000000 3.887490 0.000000 
#    z 0.000000 0.000000 3.739710 
# 
# 
# High freq. dielectric constant tensor:
#      x y z
#    x 1.798260 0.000000 0.000000 
#    y 0.000000 1.806760 0.000000 
#    z 0.000000 0.000000 1.802150 
# 
# From -- ./inp_files/18151.got.cif
#   From: 2010.03.12/outbox.cif.g09.slc.cpg/sg57_10_cif.got.tgz:18151.got - 2010.04.16 15:48:40.
