data_PCOD8235605
_publ_section_title
;
Structure prediction by ZEFSAII (Michael W. Deem and Ramdas Pophale) SiO2 
 PCOD8235605
Probable space group: P N N M
;
_chemical_formula_sum "Si O2"
_cell_formula_units_Z 56
_cell_length_a 17.671032
_cell_length_b 9.305818
_cell_length_c 19.198364
_cell_angle_alpha 90.000000
_cell_angle_beta 90.000000
_cell_angle_gamma 90.000000
_cell_volume 3157.044398
_symmetry_space_group_name_H-M "P N N M"
_symmetry_group_IT_number 58
_symmetry_cell_setting 'orthorhombic'
loop_
_space_group_symop_operation_xyz
x,y,z
-x,-y,z
1/2+x,1/2-y,1/2-z
1/2-x,1/2+y,1/2-z
-x,-y,-z
x,y,-z
1/2-x,1/2+y,1/2+z
1/2+x,1/2-y,1/2+z
loop_
_atom_site_type_symbol
_atom_site_label
_atom_site_fract_x
_atom_site_fract_y
_atom_site_fract_z
Si Si1 0.658654 0.816246 0.693002
Si Si2 0.993006 0.666895 0.229034
Si Si3 0.204610 0.681665 0.647085
Si Si4 0.565416 0.321550 0.864822
Si Si5 0.086110 0.878905 0.421841
Si Si6 0.162903 0.364708 0.816518
Si Si7 0.705143 0.141765 0.844737
O O1 0.569012 0.781633 0.689268
O O2 0.678290 0.807344 0.773959
O O3 0.710501 0.708364 0.648068
O O4 0.677695 0.971731 0.660594
O O5 0.972432 0.774298 0.291774
O O6 0.925257 0.675364 0.172543
O O7 0.000000 0.500000 0.256178
O O8 0.145793 0.757192 0.596713
O O9 0.286036 0.757873 0.638083
O O10 0.210544 0.516860 0.623652
O O11 0.497728 0.307601 0.920776
O O12 0.591681 0.489477 0.866161
O O13 0.639190 0.228031 0.885755
O O14 0.102103 0.934482 0.500000
O O15 0.180862 0.351939 0.735085
#
# Coordination Sequence:
#
# PCOD8235605 Si02
#       7
#     8   8   8   8   8   8   8
#     4   9  15  28  45  71  97 127 153 183 231 295
#     4   9  16  28  49  75 102 128 157 187 234 294
#     4  10  18  32  46  65  94 125 160 200 243 273
#     4  10  19  33  48  64  91 126 161 202 243 270
#     4  11  23  36  49  65  90 129 179 212 238 280
#     4   8  16  27  45  69  96 127 154 184 229 299
#     4   9  18  28  48  68  93 122 159 192 238 296
#
# _framework density 17.738109000000001
#
# number of rings (size 3 to 8) (size 9 to 14) (size 15 to 20)
#    0.000    2.571    1.429    2.571    0.000    3.429 
#    0.000    2.143    0.000    0.000    0.000    0.000 
#    0.000   17.714    0.000    0.000    0.000    0.286 
#
# Total GULP energy -693912.463660 kJ/mol
# GULP energy per Si atom -12391.293994 kJ/mol
# Density = 1.769774 g / cm^3
# Si number density = 17.738109 Si / 1000 Ang^3
#
#
#
# Elastic Constant Matrix: (Units=GPa)
#
#
# Indices 1 2 3 4 5 6 
#
# 1 160.4115 86.6528 23.0852 0.0000 0.0000 0.0000
# 2 86.6528 133.8488 34.6353 0.0000 0.0000 0.0000
# 3 23.0852 34.6353 23.9795 0.0000 0.0000 0.0000
# 4 0.0000 0.0000 0.0000 8.5440 0.0000 0.0000
# 5 0.0000 0.0000 0.0000 0.0000 7.8171 0.0000
# 6 0.0000 0.0000 0.0000 0.0000 0.0000 29.3948
#
#
#
# Elastic Compliance Matrix: (Units=1/GPa)
#
#
# Indices 1 2 3 4 5 6 
#
# 1 0.009589 -0.006099 -0.000423 0.000000 0.000000 0.000000
# 2 -0.006099 0.015808 -0.016962 0.000000 0.000000 0.000000
# 3 -0.000423 -0.016962 0.066610 0.000000 0.000000 0.000000
# 4 0.000000 0.000000 0.000000 0.117042 0.000000 0.000000
# 5 0.000000 0.000000 0.000000 0.000000 0.127925 0.000000
# 6 0.000000 0.000000 0.000000 0.000000 0.000000 0.034020
#
#
# Mechanical properties :
#
#
# Convention : Reuss Voigt Hill
#
# Bulk Modulus (GPa) = 22.20273 67.44291 44.82282
# Shear Modulus (GPa) = 11.54804 20.74229 16.14517
#
# Velocity S-wave (km/s) = 2.55430 3.42330 3.02022
# Velocity P-wave (km/s) = 4.60905 7.33003 6.12261
#
# Compressibility (1/GPa) = 0.04503951
#
# Stress axis : x y z
#
# Youngs Moduli (GPa) = 104.28391 63.25714 15.01287
#
# Poissons Ratio (x) = 0.38577 0.00635
# Poissons Ratio (y) = 0.63598 0.25465
# Poissons Ratio (z) = 0.04412 1.07299
#
# Static dielectric constant tensor:
#      x y z
#    x 3.747380 0.000000 0.000000 
#    y 0.000000 3.458810 0.000000 
#    z 0.000000 0.000000 2.585370 
# 
# 
# High freq. dielectric constant tensor:
#      x y z
#    x 1.706810 0.000000 0.000000 
#    y 0.000000 1.692270 0.000000 
#    z 0.000000 0.000000 1.600960 
# 
# From -- ./inp_files/30236.got.cif
#   From: 2010.06.25/outbox.cif.g09.slc.cpg/sg58_16_cif.got.tgz:30236.got - 2010.06.26 21:38:00.
