data_PCOD8235750
_publ_section_title
;
Structure prediction by ZEFSAII (Michael W. Deem and Ramdas Pophale) SiO2 
 PCOD8235750
Probable space group: P N N M
;
_chemical_formula_sum "Si O2"
_cell_formula_units_Z 40
_cell_length_a 16.698965
_cell_length_b 8.596730
_cell_length_c 13.175307
_cell_angle_alpha 90.000000
_cell_angle_beta 90.000000
_cell_angle_gamma 90.000000
_cell_volume 1891.400872
_symmetry_space_group_name_H-M "P N N M"
_symmetry_group_IT_number 58
_symmetry_cell_setting 'orthorhombic'
loop_
_space_group_symop_operation_xyz
x,y,z
-x,-y,z
1/2+x,1/2-y,1/2-z
1/2-x,1/2+y,1/2-z
-x,-y,-z
x,y,-z
1/2-x,1/2+y,1/2+z
1/2+x,1/2-y,1/2+z
loop_
_atom_site_type_symbol
_atom_site_label
_atom_site_fract_x
_atom_site_fract_y
_atom_site_fract_z
Si Si1 0.606530 0.607371 0.119508
Si Si2 0.262171 0.015431 0.692035
Si Si3 0.198717 0.347787 0.383083
Si Si4 0.546027 0.277595 0.809711
Si Si5 0.425333 0.888395 0.386298
O O1 0.698552 0.616589 0.154702
O O2 0.548934 0.744832 0.164178
O O3 0.571237 0.449078 0.161986
O O4 0.601131 0.611738 0.000000
O O5 0.233998 0.187765 0.663076
O O6 0.270380 0.992003 0.814377
O O7 0.344987 0.984511 0.635269
O O8 0.224682 0.372656 0.500000
O O9 0.101750 0.341133 0.374354
O O10 0.563595 0.255017 0.690370
O O11 0.423111 0.820746 0.500000
O O12 0.500000 0.000000 0.369692
#
# Coordination Sequence:
#
# PCOD8235750 Si02
#       5
#     8   8   8   8   8
#     4  10  18  34  59  82 106 140 181 229 283 324
#     4  10  21  36  60  85 111 149 193 230 275 338
#     4  10  20  38  59  82 116 150 184 234 286 329
#     4   9  18  33  56  81 107 138 184 226 273 331
#     4  10  21  36  54  76 112 153 184 218 270 329
#
# _framework density 21.148346
#
# number of rings (size 3 to 8) (size 9 to 14) (size 15 to 20)
#    0.000    2.200    0.000    5.400    2.800    0.000 
#    0.000   13.000    0.000    6.000    0.000    0.000 
#    0.000    0.000    0.000    0.000    0.000    0.000 
#
# Total GULP energy -495645.757304 kJ/mol
# GULP energy per Si atom -12391.143933 kJ/mol
# Density = 2.110021 g / cm^3
# Si number density = 21.148346 Si / 1000 Ang^3
#
#
#
# Elastic Constant Matrix: (Units=GPa)
#
#
# Indices 1 2 3 4 5 6 
#
# 1 113.8298 -31.8052 3.1551 0.0000 0.0000 0.0000
# 2 -31.8052 -53.5384 -27.7504 0.0000 0.0000 0.0000
# 3 3.1551 -27.7504 131.6347 0.0000 0.0000 0.0000
# 4 0.0000 0.0000 0.0000 25.1437 0.0000 0.0000
# 5 0.0000 0.0000 0.0000 0.0000 26.0102 0.0000
# 6 0.0000 0.0000 0.0000 0.0000 0.0000 -3.6690
#
#
#
# Elastic Compliance Matrix: (Units=1/GPa)
#
#
# Indices 1 2 3 4 5 6 
#
# 1 0.007687 -0.004031 -0.001034 0.000000 0.000000 0.000000
# 2 -0.004031 -0.014725 -0.003008 0.000000 0.000000 0.000000
# 3 -0.001034 -0.003008 0.006988 0.000000 0.000000 0.000000
# 4 0.000000 0.000000 0.000000 0.039771 0.000000 0.000000
# 5 0.000000 0.000000 0.000000 0.000000 0.038447 0.000000
# 6 0.000000 0.000000 0.000000 0.000000 0.000000 -0.272555
#
#
# Mechanical properties :
#
#
# Convention : Reuss Voigt Hill
#
# Bulk Modulus (GPa) = -61.74899 8.79170 -26.47864
# Shear Modulus (GPa) = -27.22720 26.05208 -0.58756
#
# Velocity S-wave (km/s) = -3.59198 3.51361 -0.52767
# Velocity P-wave (km/s) = 6.81649 4.54168 3.59428
#
# Compressibility (1/GPa) = -0.01619460
#
# Stress axis : x y z
#
# Youngs Moduli (GPa) = 130.08229 -67.91309 143.11203
#
# Poissons Ratio (x) = -0.27375 0.14798
# Poissons Ratio (y) = 0.52434 0.43042
# Poissons Ratio (z) = 0.13451 -0.20425
#
# Static dielectric constant tensor:
#      x y z
#    x 5.051310 0.000000 0.000000 
#    y 0.000000 3.471960 0.000000 
#    z 0.000000 0.000000 3.952400 
# 
# 
# High freq. dielectric constant tensor:
#      x y z
#    x 1.854380 0.000000 0.000000 
#    y 0.000000 1.786990 0.000000 
#    z 0.000000 0.000000 1.834640 
# 
# From -- ./inp_files/22621.got.cif
#   From: 2010.06.25/outbox.cif.g09.slc.cpg/sg58_12_cif.got.tgz:22621.got - 2010.06.26 21:38:00.
