data_PCOD8235378
_publ_section_title
;
Structure prediction by ZEFSAII (Michael W. Deem and Ramdas Pophale) SiO2 
 PCOD8235378
Probable space group: P N N M
;
_chemical_formula_sum "Si O2"
_cell_formula_units_Z 64
_cell_length_a 22.954709
_cell_length_b 18.808015
_cell_length_c 8.913347
_cell_angle_alpha 90.000000
_cell_angle_beta 90.000000
_cell_angle_gamma 90.000000
_cell_volume 3848.181683
_symmetry_space_group_name_H-M "P N N M"
_symmetry_group_IT_number 58
_symmetry_cell_setting 'orthorhombic'
loop_
_space_group_symop_operation_xyz
x,y,z
-x,-y,z
1/2+x,1/2-y,1/2-z
1/2-x,1/2+y,1/2-z
-x,-y,-z
x,y,-z
1/2-x,1/2+y,1/2+z
1/2+x,1/2-y,1/2+z
loop_
_atom_site_type_symbol
_atom_site_label
_atom_site_fract_x
_atom_site_fract_y
_atom_site_fract_z
Si Si1 0.428773 0.855771 0.165112
Si Si2 0.973736 0.286629 0.174826
Si Si3 0.254400 0.785742 0.327005
Si Si4 0.691137 0.083564 0.177816
Si Si5 0.320402 0.662485 0.173868
Si Si6 0.283571 0.064687 0.325294
Si Si7 0.647892 0.810829 0.174859
Si Si8 0.558488 0.301108 0.836593
O O1 0.485458 0.853995 0.275403
O O2 0.375013 0.900230 0.234589
O O3 0.407576 0.774366 0.145886
O O4 0.446648 0.886042 0.000000
O O5 0.915174 0.288682 0.268680
O O6 0.006152 0.211196 0.217027
O O7 0.960385 0.289860 0.000000
O O8 0.264719 0.803356 0.500000
O O9 0.263202 0.858189 0.235980
O O10 0.300109 0.725916 0.279904
O O11 0.189469 0.756692 0.295855
O O12 0.710548 0.007818 0.236618
O O13 0.692262 0.084618 0.000000
O O14 0.281906 0.592662 0.206219
O O15 0.388972 0.645482 0.211641
O O16 0.312957 0.684806 0.000000
O O17 0.295353 0.051566 0.500000
O O18 0.330709 0.120942 0.266610
O O19 0.645955 0.831041 0.000000
O O20 0.532505 0.323688 0.000000
#
# Coordination Sequence:
#
# PCOD8235378 Si02
#       8
#     8   8   8   8   8   8   8   8
#     4   8  16  29  46  65  89 122 155 190 228 275
#     4  10  18  28  46  72  96 120 155 201 240 274
#     4  10  19  29  48  72  93 120 158 201 237 276
#     4  11  20  33  50  70  98 132 164 193 236 289
#     4   9  16  30  49  70  95 125 157 192 241 289
#     4  10  21  33  48  71 101 130 160 200 238 280
#     4  10  20  35  50  68  97 131 161 193 239 290
#     4   8  14  27  46  67  90 119 152 189 230 276
#
# _framework density 16.631232000000001
#
# number of rings (size 3 to 8) (size 9 to 14) (size 15 to 20)
#    0.750    1.750    1.250    2.250    0.000    4.500 
#    0.000    0.625    0.000    3.750    0.000    0.875 
#    0.000    7.000    0.000    0.000    0.000    0.000 
#
# Total GULP energy -792916.694688 kJ/mol
# GULP energy per Si atom -12389.323354 kJ/mol
# Density = 1.659338 g / cm^3
# Si number density = 16.631232 Si / 1000 Ang^3
#
#
#
# Elastic Constant Matrix: (Units=GPa)
#
#
# Indices 1 2 3 4 5 6 
#
# 1 69.1458 54.0606 35.2185 0.0000 0.0000 0.0000
# 2 54.0606 19.8285 21.9547 0.0000 0.0000 0.0000
# 3 35.2185 21.9547 64.4021 0.0000 0.0000 0.0000
# 4 0.0000 0.0000 0.0000 24.2117 0.0000 0.0000
# 5 0.0000 0.0000 0.0000 0.0000 26.7384 0.0000
# 6 0.0000 0.0000 0.0000 0.0000 0.0000 16.4533
#
#
#
# Elastic Compliance Matrix: (Units=1/GPa)
#
#
# Indices 1 2 3 4 5 6 
#
# 1 -0.010708 0.036481 -0.006581 0.000000 0.000000 0.000000
# 2 0.036481 -0.043275 -0.005197 0.000000 0.000000 0.000000
# 3 -0.006581 -0.005197 0.020898 0.000000 0.000000 0.000000
# 4 0.000000 0.000000 0.000000 0.041302 0.000000 0.000000
# 5 0.000000 0.000000 0.000000 0.000000 0.037399 0.000000
# 6 0.000000 0.000000 0.000000 0.000000 0.000000 0.060778
#
#
# Mechanical properties :
#
#
# Convention : Reuss Voigt Hill
#
# Bulk Modulus (GPa) = 61.27098 41.76046 51.51572
# Shear Modulus (GPa) = 80.09083 16.29018 48.19050
#
# Velocity S-wave (km/s) = 6.94704 3.13308 5.38877
# Velocity P-wave (km/s) = 10.06327 6.18486 8.35230
#
# Compressibility (1/GPa) = 0.01632094
#
# Stress axis : x y z
#
# Youngs Moduli (GPa) = -93.38699 -23.10815 47.85188
#
# Poissons Ratio (x) = 0.84301 0.31489
# Poissons Ratio (y) = 3.40684 0.24870
# Poissons Ratio (z) = -0.61454 -0.12010
#
# Static dielectric constant tensor:
#      x y z
#    x 3.137950 0.000000 0.000000 
#    y 0.000000 2.816480 0.000000 
#    z 0.000000 0.000000 3.154210 
# 
# 
# High freq. dielectric constant tensor:
#      x y z
#    x 1.638840 0.000000 0.000000 
#    y 0.000000 1.594660 0.000000 
#    z 0.000000 0.000000 1.649110 
# 
# From -- ./inp_files/9291.got.cif
#   From: 2010.06.25/outbox.cif.g09.slc.cpg/sg58_5_cif.got.tgz:9291.got - 2010.06.26 21:38:00.
