data_PCOD8235679
_publ_section_title
;
Structure prediction by ZEFSAII (Michael W. Deem and Ramdas Pophale) SiO2 
 PCOD8235679
Probable space group: P N N M
;
_chemical_formula_sum "Si O2"
_cell_formula_units_Z 48
_cell_length_a 18.711384
_cell_length_b 14.225023
_cell_length_c 8.465572
_cell_angle_alpha 90.000000
_cell_angle_beta 90.000000
_cell_angle_gamma 90.000000
_cell_volume 2253.280180
_symmetry_space_group_name_H-M "P N N M"
_symmetry_group_IT_number 58
_symmetry_cell_setting 'orthorhombic'
loop_
_space_group_symop_operation_xyz
x,y,z
-x,-y,z
1/2+x,1/2-y,1/2-z
1/2-x,1/2+y,1/2-z
-x,-y,-z
x,y,-z
1/2-x,1/2+y,1/2+z
1/2+x,1/2-y,1/2+z
loop_
_atom_site_type_symbol
_atom_site_label
_atom_site_fract_x
_atom_site_fract_y
_atom_site_fract_z
Si Si1 0.596760 0.450185 0.318518
Si Si2 0.955525 0.127051 0.682928
Si Si3 0.857418 0.637600 0.312593
Si Si4 0.015148 0.669843 0.314626
Si Si5 0.655449 0.929876 0.814780
Si Si6 0.716485 0.327150 0.184351
O O1 0.576289 0.433370 0.500000
O O2 0.599097 0.562112 0.282709
O O3 0.537362 0.405548 0.205107
O O4 0.672505 0.404620 0.281020
O O5 0.934560 0.120029 0.500000
O O6 0.950589 0.232993 0.748930
O O7 0.863135 0.634974 0.500000
O O8 0.826928 0.536193 0.256570
O O9 0.804925 0.721943 0.256900
O O10 0.937016 0.651473 0.238518
O O11 0.003063 0.681275 0.500000
O O12 0.071454 0.587305 0.276524
O O13 0.701445 0.851845 0.721393
O O14 0.670479 0.916495 0.000000
O O15 0.700047 0.336599 0.000000
#
# Coordination Sequence:
#
# PCOD8235679 Si02
#       6
#     8   8   8   8   8   8
#     4  11  21  34  53  82 115 150 195 239 280 329
#     4  10  18  32  56  86 118 150 185 229 286 345
#     4   9  18  36  62  86 109 149 196 237 282 343
#     4   9  17  33  60  90 115 147 192 237 284 343
#     4  10  21  37  60  89 116 144 190 245 290 340
#     4  11  22  39  59  81 115 156 194 234 293 355
#
# _framework density 21.302277
#
# number of rings (size 3 to 8) (size 9 to 14) (size 15 to 20)
#    0.000    2.000    1.667    4.000    0.000    3.333 
#    0.000    6.667    0.000    1.000    0.000    0.000 
#    0.000    0.000    0.000    0.000    0.000    0.000 
#
# Total GULP energy -595049.629225 kJ/mol
# GULP energy per Si atom -12396.867276 kJ/mol
# Density = 2.125379 g / cm^3
# Si number density = 21.302277 Si / 1000 Ang^3
#
#
#
# Elastic Constant Matrix: (Units=GPa)
#
#
# Indices 1 2 3 4 5 6 
#
# 1 88.2498 57.2449 10.5179 0.0000 0.0000 0.0000
# 2 57.2449 153.2846 23.9144 0.0000 0.0000 0.0000
# 3 10.5179 23.9144 45.8470 0.0000 0.0000 0.0000
# 4 0.0000 0.0000 0.0000 17.1869 0.0000 0.0000
# 5 0.0000 0.0000 0.0000 0.0000 23.2012 0.0000
# 6 0.0000 0.0000 0.0000 0.0000 0.0000 31.8251
#
#
#
# Elastic Compliance Matrix: (Units=1/GPa)
#
#
# Indices 1 2 3 4 5 6 
#
# 1 0.014967 -0.005502 -0.000564 0.000000 0.000000 0.000000
# 2 -0.005502 0.009124 -0.003497 0.000000 0.000000 0.000000
# 3 -0.000564 -0.003497 0.023765 0.000000 0.000000 0.000000
# 4 0.000000 0.000000 0.000000 0.058184 0.000000 0.000000
# 5 0.000000 0.000000 0.000000 0.000000 0.043101 0.000000
# 6 0.000000 0.000000 0.000000 0.000000 0.000000 0.031422
#
#
# Mechanical properties :
#
#
# Convention : Reuss Voigt Hill
#
# Bulk Modulus (GPa) = 34.80534 52.30397 43.55466
# Shear Modulus (GPa) = 23.89304 27.48960 25.69132
#
# Velocity S-wave (km/s) = 3.35269 3.59619 3.47657
# Velocity P-wave (km/s) = 5.60015 6.46915 6.05027
#
# Compressibility (1/GPa) = 0.02873122
#
# Stress axis : x y z
#
# Youngs Moduli (GPa) = 66.81161 109.60073 42.07841
#
# Poissons Ratio (x) = 0.60299 0.02373
# Poissons Ratio (y) = 0.36758 0.14715
# Poissons Ratio (z) = 0.03768 0.38328
#
# Static dielectric constant tensor:
#      x y z
#    x 3.647390 0.000000 0.000000 
#    y 0.000000 4.246020 0.000000 
#    z 0.000000 0.000000 3.357640 
# 
# 
# High freq. dielectric constant tensor:
#      x y z
#    x 1.820480 0.000000 0.000000 
#    y 0.000000 1.850340 0.000000 
#    z 0.000000 0.000000 1.793300 
# 
# From -- ./inp_files/7748.got.cif
#   From: 2010.06.25/outbox.cif.g09.slc.cpg/sg58_4_cif.got.tgz:7748.got - 2010.06.26 21:38:00.
