data_PCOD8235924
_publ_section_title
;
Structure prediction by ZEFSAII (Michael W. Deem and Ramdas Pophale) SiO2 
 PCOD8235924
Probable space group: P N N M
;
_chemical_formula_sum "Si O2"
_cell_formula_units_Z 56
_cell_length_a 22.591805
_cell_length_b 17.546154
_cell_length_c 8.927644
_cell_angle_alpha 90.000000
_cell_angle_beta 90.000000
_cell_angle_gamma 90.000000
_cell_volume 3538.911740
_symmetry_space_group_name_H-M "P N N M"
_symmetry_group_IT_number 58
_symmetry_cell_setting 'orthorhombic'
loop_
_space_group_symop_operation_xyz
x,y,z
-x,-y,z
1/2+x,1/2-y,1/2-z
1/2-x,1/2+y,1/2-z
-x,-y,-z
x,y,-z
1/2-x,1/2+y,1/2+z
1/2+x,1/2-y,1/2+z
loop_
_atom_site_type_symbol
_atom_site_label
_atom_site_fract_x
_atom_site_fract_y
_atom_site_fract_z
Si Si1 0.685517 0.721197 0.665170
Si Si2 0.932838 0.510261 0.825809
Si Si3 0.152501 0.377044 0.323168
Si Si4 0.317412 0.714962 0.834537
Si Si5 0.658999 0.882529 0.674174
Si Si6 0.724638 0.579875 0.176416
Si Si7 0.779505 0.927052 0.824138
O O1 0.667671 0.691139 0.500000
O O2 0.751091 0.754403 0.661331
O O3 0.644628 0.793483 0.713300
O O4 0.682082 0.650887 0.780167
O O5 0.905585 0.578813 0.729806
O O6 0.899346 0.431151 0.791750
O O7 0.000000 0.500000 0.773147
O O8 0.928696 0.532277 0.000000
O O9 0.163064 0.387040 0.500000
O O10 0.142911 0.287332 0.282750
O O11 0.209286 0.410920 0.239206
O O12 0.321940 0.643637 0.722032
O O13 0.336529 0.687105 0.000000
O O14 0.678457 0.889321 0.500000
O O15 0.711951 0.913758 0.775418
O O16 0.696282 0.503329 0.244816
O O17 0.728193 0.572891 0.000000
O O18 0.782586 0.937963 0.000000
#
# Coordination Sequence:
#
# PCOD8235924 Si02
#       7
#     8   8   8   8   8   8   8
#     4   8  15  27  41  58  81 110 144 176 212 257
#     4  10  20  32  47  66  87 117 155 188 220 259
#     4  10  19  31  45  61  83 114 148 184 223 258
#     4   8  16  29  42  58  83 112 142 175 216 262
#     4   9  17  30  44  58  83 116 144 180 222 254
#     4  11  19  27  41  61  87 116 144 176 216 259
#     4  11  19  26  41  64  87 113 146 177 210 259
#
# _framework density 15.824074
#
# number of rings (size 3 to 8) (size 9 to 14) (size 15 to 20)
#    0.000    2.429    1.429    4.714    0.000    6.000 
#    0.000    0.000    0.000    0.000    0.000    0.000 
#    0.000    1.143    0.000   13.143    0.000    3.286 
#
# Total GULP energy -694131.114730 kJ/mol
# GULP energy per Si atom -12395.198477 kJ/mol
# Density = 1.578806 g / cm^3
# Si number density = 15.824074 Si / 1000 Ang^3
#
#
#
# Elastic Constant Matrix: (Units=GPa)
#
#
# Indices 1 2 3 4 5 6 
#
# 1 46.3167 42.3305 21.1837 0.0000 0.0000 0.0000
# 2 42.3305 144.8471 65.5507 0.0000 0.0000 0.0000
# 3 21.1837 65.5507 104.2689 0.0000 0.0000 0.0000
# 4 0.0000 0.0000 0.0000 28.7693 0.0000 0.0000
# 5 0.0000 0.0000 0.0000 0.0000 8.7663 0.0000
# 6 0.0000 0.0000 0.0000 0.0000 0.0000 14.9971
#
#
#
# Elastic Compliance Matrix: (Units=1/GPa)
#
#
# Indices 1 2 3 4 5 6 
#
# 1 0.029506 -0.008260 -0.000802 0.000000 0.000000 0.000000
# 2 -0.008260 0.011961 -0.005842 0.000000 0.000000 0.000000
# 3 -0.000802 -0.005842 0.013426 0.000000 0.000000 0.000000
# 4 0.000000 0.000000 0.000000 0.034759 0.000000 0.000000
# 5 0.000000 0.000000 0.000000 0.000000 0.114073 0.000000
# 6 0.000000 0.000000 0.000000 0.000000 0.000000 0.066680
#
#
# Mechanical properties :
#
#
# Convention : Reuss Voigt Hill
#
# Bulk Modulus (GPa) = 39.86169 61.50694 50.68431
# Shear Modulus (GPa) = 16.20352 21.59773 18.90063
#
# Velocity S-wave (km/s) = 3.20344 3.69842 3.45979
# Velocity P-wave (km/s) = 6.23922 7.56249 6.93250
#
# Compressibility (1/GPa) = 0.02508675
#
# Stress axis : x y z
#
# Youngs Moduli (GPa) = 33.89084 83.60174 74.48286
#
# Poissons Ratio (x) = 0.69057 0.05971
# Poissons Ratio (y) = 0.27995 0.43510
# Poissons Ratio (z) = 0.02717 0.48837
#
# Static dielectric constant tensor:
#      x y z
#    x 2.549540 0.000000 0.000000 
#    y 0.000000 3.583870 0.000000 
#    z 0.000000 0.000000 3.004260 
# 
# 
# High freq. dielectric constant tensor:
#      x y z
#    x 1.530000 0.000000 0.000000 
#    y 0.000000 1.627760 0.000000 
#    z 0.000000 0.000000 1.612190 
# 
# From -- ./inp_files/8149.got.cif
#   From: 2010.06.25/outbox.cif.g09.slc.cpg/sg58_5_cif.got.tgz:8149.got - 2010.06.26 21:38:00.
