data_PCOD8235782
_publ_section_title
;
Structure prediction by ZEFSAII (Michael W. Deem and Ramdas Pophale) SiO2 
 PCOD8235782
Probable space group: P N N M
;
_chemical_formula_sum "Si O2"
_cell_formula_units_Z 48
_cell_length_a 8.769454
_cell_length_b 8.681227
_cell_length_c 29.066366
_cell_angle_alpha 90.000000
_cell_angle_beta 90.000000
_cell_angle_gamma 90.000000
_cell_volume 2212.811423
_symmetry_space_group_name_H-M "P N N M"
_symmetry_group_IT_number 58
_symmetry_cell_setting 'orthorhombic'
loop_
_space_group_symop_operation_xyz
x,y,z
-x,-y,z
1/2+x,1/2-y,1/2-z
1/2-x,1/2+y,1/2-z
-x,-y,-z
x,y,-z
1/2-x,1/2+y,1/2+z
1/2+x,1/2-y,1/2+z
loop_
_atom_site_type_symbol
_atom_site_label
_atom_site_fract_x
_atom_site_fract_y
_atom_site_fract_z
Si Si1 0.314755 0.163486 0.092715
Si Si2 0.826071 0.525722 0.735510
Si Si3 0.678323 0.339068 0.000000
Si Si4 0.161950 0.298893 0.595919
Si Si5 0.899547 0.855681 0.169575
Si Si6 0.317061 0.315204 0.000000
Si Si7 0.192662 0.690596 0.188796
O O1 0.482042 0.235577 0.100981
O O2 0.191140 0.228420 0.128334
O O3 0.312072 0.980045 0.099080
O O4 0.257354 0.216824 0.042952
O O5 0.723539 0.410911 0.705893
O O6 0.794222 0.481111 0.789430
O O7 0.782077 0.699962 0.724570
O O8 0.000000 0.500000 0.720421
O O9 0.732319 0.256464 0.047105
O O10 0.497518 0.329935 0.000000
O O11 0.747729 0.511185 0.000000
O O12 0.244767 0.205793 0.636964
O O13 0.012742 0.730184 0.191483
O O14 0.000000 0.000000 0.151128
#
# Coordination Sequence:
#
# PCOD8235782 Si02
#       7
#     8   8   4   8   8   4   8
#     4  10  18  35  63  87 113 160 206 247 288 362
#     4  11  22  41  63  85 121 161 206 255 297 360
#     4   9  19  37  58  91 124 150 191 256 298 363
#     4  10  19  36  64  88 119 156 205 245 300 356
#     4  10  20  36  59  86 120 154 198 250 298 352
#     4   9  19  35  59  88 124 150 197 250 304 349
#     4  11  23  40  62  92 122 163 200 257 307 361
#
# _framework density 21.691863000000001
#
# number of rings (size 3 to 8) (size 9 to 14) (size 15 to 20)
#    0.000    1.833    3.333    2.500    0.000    2.000 
#    6.000    2.917   11.000    1.000    0.000    0.000 
#    0.000    0.000    0.000    0.000    0.000    0.000 
#
# Total GULP energy -594980.625524 kJ/mol
# GULP energy per Si atom -12395.429698 kJ/mol
# Density = 2.164249 g / cm^3
# Si number density = 21.691863 Si / 1000 Ang^3
#
#
#
# Elastic Constant Matrix: (Units=GPa)
#
#
# Indices 1 2 3 4 5 6 
#
# 1 99.8390 11.2777 40.1407 0.0000 0.0000 0.0000
# 2 11.2777 26.1050 34.1969 0.0000 0.0000 0.0000
# 3 40.1407 34.1969 129.0343 0.0000 0.0000 0.0000
# 4 0.0000 0.0000 0.0000 28.6845 0.0000 0.0000
# 5 0.0000 0.0000 0.0000 0.0000 23.7323 0.0000
# 6 0.0000 0.0000 0.0000 0.0000 0.0000 12.1356
#
#
#
# Elastic Compliance Matrix: (Units=1/GPa)
#
#
# Indices 1 2 3 4 5 6 
#
# 1 0.011451 -0.000430 -0.003448 0.000000 0.000000 0.000000
# 2 -0.000430 0.058694 -0.015422 0.000000 0.000000 0.000000
# 3 -0.003448 -0.015422 0.012910 0.000000 0.000000 0.000000
# 4 0.000000 0.000000 0.000000 0.034862 0.000000 0.000000
# 5 0.000000 0.000000 0.000000 0.000000 0.042137 0.000000
# 6 0.000000 0.000000 0.000000 0.000000 0.000000 0.082402
#
#
# Mechanical properties :
#
#
# Convention : Reuss Voigt Hill
#
# Bulk Modulus (GPa) = 22.49429 47.35655 34.92542
# Shear Modulus (GPa) = 16.89906 24.20134 20.55020
#
# Velocity S-wave (km/s) = 2.79418 3.34381 3.08128
# Velocity P-wave (km/s) = 4.56096 6.06523 5.36607
#
# Compressibility (1/GPa) = 0.04445573
#
# Stress axis : x y z
#
# Youngs Moduli (GPa) = 87.32783 17.03738 77.46117
#
# Poissons Ratio (x) = 0.00732 0.26712
# Poissons Ratio (y) = 0.03753 1.19458
# Poissons Ratio (z) = 0.30114 0.26274
#
# Static dielectric constant tensor:
#      x y z
#    x 3.996510 0.000000 0.000000 
#    y 0.000000 3.816170 0.000000 
#    z 0.000000 0.000000 4.090350 
# 
# 
# High freq. dielectric constant tensor:
#      x y z
#    x 1.840420 0.000000 0.000000 
#    y 0.000000 1.836040 0.000000 
#    z 0.000000 0.000000 1.860940 
# 
# From -- ./inp_files/34624.got.cif
#   From: 2010.06.25/outbox.cif.g09.slc.cpg/sg58_18_cif.got.tgz:34624.got - 2010.06.26 21:38:00.
