data_PCOD8235797
_publ_section_title
;
Structure prediction by ZEFSAII (Michael W. Deem and Ramdas Pophale) SiO2 
 PCOD8235797
Probable space group: P N N M
;
_chemical_formula_sum "Si O2"
_cell_formula_units_Z 32
_cell_length_a 8.696987
_cell_length_b 14.900906
_cell_length_c 11.376370
_cell_angle_alpha 90.000000
_cell_angle_beta 90.000000
_cell_angle_gamma 90.000000
_cell_volume 1474.297756
_symmetry_space_group_name_H-M "P N N M"
_symmetry_group_IT_number 58
_symmetry_cell_setting 'orthorhombic'
loop_
_space_group_symop_operation_xyz
x,y,z
-x,-y,z
1/2+x,1/2-y,1/2-z
1/2-x,1/2+y,1/2-z
-x,-y,-z
x,y,-z
1/2-x,1/2+y,1/2+z
1/2+x,1/2-y,1/2+z
loop_
_atom_site_type_symbol
_atom_site_label
_atom_site_fract_x
_atom_site_fract_y
_atom_site_fract_z
Si Si1 0.819002 0.480809 0.244884
Si Si2 0.129318 0.838863 0.239280
Si Si3 0.824097 0.813552 0.365228
Si Si4 0.934018 0.100469 0.000000
Si Si5 0.324844 0.013607 0.000000
O O1 0.723814 0.572201 0.227230
O O2 0.758194 0.409683 0.151167
O O3 0.781593 0.438838 0.376060
O O4 0.000000 0.500000 0.226878
O O5 0.247797 0.757644 0.223137
O O6 0.006814 0.818556 0.341334
O O7 0.025132 0.848335 0.119960
O O8 0.799657 0.783933 0.500000
O O9 0.748349 0.086598 0.000000
O O10 0.000000 0.000000 0.000000
O O11 0.500000 0.000000 0.000000
#
# Coordination Sequence:
#
# PCOD8235797 Si02
#       5
#     8   8   8   4   4
#     4  10  21  41  70 101 135 177 227 278 337 405
#     4  11  23  44  66  97 140 177 224 281 333 402
#     4  12  26  45  67  99 140 178 226 282 341 406
#     4  10  18  36  66  92 119 165 220 276 323 382
#     4   8  16  32  60  94 121 159 214 270 314 372
#
# _framework density 21.705248999999998
#
# number of rings (size 3 to 8) (size 9 to 14) (size 15 to 20)
#    0.000    1.500    1.250    5.250    0.000    2.500 
#    9.000    0.000    0.000    0.000    0.000    0.000 
#    0.000    0.000    0.000    0.000    0.000    0.000 
#
# Total GULP energy -396491.803106 kJ/mol
# GULP energy per Si atom -12390.368847 kJ/mol
# Density = 2.165585 g / cm^3
# Si number density = 21.705249 Si / 1000 Ang^3
#
#
#
# Elastic Constant Matrix: (Units=GPa)
#
#
# Indices 1 2 3 4 5 6 
#
# 1 134.1181 50.5692 25.3491 0.0000 0.0000 0.0000
# 2 50.5692 122.6796 14.3422 0.0000 0.0000 0.0000
# 3 25.3491 14.3422 65.2727 0.0000 0.0000 0.0000
# 4 0.0000 0.0000 0.0000 23.2401 0.0000 0.0000
# 5 0.0000 0.0000 0.0000 0.0000 30.7914 0.0000
# 6 0.0000 0.0000 0.0000 0.0000 0.0000 42.3380
#
#
#
# Elastic Compliance Matrix: (Units=1/GPa)
#
#
# Indices 1 2 3 4 5 6 
#
# 1 0.009317 -0.003508 -0.002848 0.000000 0.000000 0.000000
# 2 -0.003508 0.009687 -0.000766 0.000000 0.000000 0.000000
# 3 -0.002848 -0.000766 0.016595 0.000000 0.000000 0.000000
# 4 0.000000 0.000000 0.000000 0.043029 0.000000 0.000000
# 5 0.000000 0.000000 0.000000 0.000000 0.032477 0.000000
# 6 0.000000 0.000000 0.000000 0.000000 0.000000 0.023619
#
#
# Mechanical properties :
#
#
# Convention : Reuss Voigt Hill
#
# Bulk Modulus (GPa) = 46.82653 55.84349 51.33501
# Shear Modulus (GPa) = 32.03393 34.72789 33.38091
#
# Velocity S-wave (km/s) = 3.84586 4.00431 3.92589
# Velocity P-wave (km/s) = 6.42974 6.86755 6.65225
#
# Compressibility (1/GPa) = 0.02135542
#
# Stress axis : x y z
#
# Youngs Moduli (GPa) = 107.33247 103.23406 60.26062
#
# Poissons Ratio (x) = 0.36210 0.17160
# Poissons Ratio (y) = 0.37647 0.04618
# Poissons Ratio (z) = 0.30564 0.07910
#
# Static dielectric constant tensor:
#      x y z
#    x 4.305170 0.000000 0.000000 
#    y 0.000000 3.639240 0.000000 
#    z 0.000000 0.000000 3.363530 
# 
# 
# High freq. dielectric constant tensor:
#      x y z
#    x 1.869500 0.000000 0.000000 
#    y 0.000000 1.837050 0.000000 
#    z 0.000000 0.000000 1.844170 
# 
# From -- ./inp_files/12456.got.cif
#   From: 2010.06.25/outbox.cif.g09.slc.cpg/sg58_7_cif.got.tgz:12456.got - 2010.06.26 21:38:00.
