data_PCOD8235156
_publ_section_title
;
Structure prediction by ZEFSAII (Michael W. Deem and Ramdas Pophale) SiO2 
 PCOD8235156
Probable space group: P B C M
;
_chemical_formula_sum "Si O2"
_cell_formula_units_Z 32
_cell_length_a 4.814257
_cell_length_b 8.505199
_cell_length_c 32.527535
_cell_angle_alpha 90.000000
_cell_angle_beta 90.000000
_cell_angle_gamma 90.000000
_cell_volume 1331.879403
_symmetry_space_group_name_H-M "P B C M"
_symmetry_group_IT_number 57
_symmetry_cell_setting 'orthorhombic'
loop_
_space_group_symop_operation_xyz
x,y,z
-x,-y,1/2+z
x,1/2-y,-z
-x,1/2+y,1/2-z
-x,-y,-z
x,y,1/2-z
-x,1/2+y,z
x,1/2-y,1/2+z
loop_
_atom_site_type_symbol
_atom_site_label
_atom_site_fract_x
_atom_site_fract_y
_atom_site_fract_z
Si Si1 0.620698 0.490487 0.045373
Si Si2 0.370903 0.112238 0.702318
Si Si3 0.127727 0.788635 0.829733
Si Si4 0.136452 0.831501 0.923817
O O1 0.368137 0.530475 0.076508
O O2 0.732725 0.317709 0.053710
O O3 0.866478 0.616729 0.050773
O O4 0.500000 0.500000 0.000000
O O5 0.445403 0.097953 0.750000
O O6 0.652219 0.149194 0.677693
O O7 0.151975 0.252680 0.695368
O O8 0.247941 0.951408 0.685791
O O9 0.048755 0.792911 0.877523
#
# Coordination Sequence:
#
# PCOD8235156 Si02
#       4
#     8   8   8   8
#     4  12  26  45  71 102 138 179 227 286 344 407
#     4  12  24  42  66 100 136 176 224 278 337 402
#     4  12  25  44  70  99 136 182 227 281 340 406
#     4  12  25  47  70 101 136 179 230 281 341 409
#
# _framework density 24.026198999999998
#
# number of rings (size 3 to 8) (size 9 to 14) (size 15 to 20)
#    0.000    0.000    0.000   11.250    0.000    2.000 
#    0.000    0.000    0.000    0.000    0.000    0.000 
#    0.000    0.000    0.000    0.000    0.000    0.000 
#
# Total GULP energy -397127.969231 kJ/mol
# GULP energy per Si atom -12410.249038 kJ/mol
# Density = 2.397151 g / cm^3
# Si number density = 24.026199 Si / 1000 Ang^3
#
#
#
# Elastic Constant Matrix: (Units=GPa)
#
#
# Indices 1 2 3 4 5 6 
#
# 1 96.0636 -5.0909 24.8037 0.0000 0.0000 0.0000
# 2 -5.0909 65.2962 41.9081 0.0000 0.0000 0.0000
# 3 24.8037 41.9081 103.3112 0.0000 0.0000 0.0000
# 4 0.0000 0.0000 0.0000 39.4550 0.0000 0.0000
# 5 0.0000 0.0000 0.0000 0.0000 38.8256 0.0000
# 6 0.0000 0.0000 0.0000 0.0000 0.0000 51.1066
#
#
#
# Elastic Compliance Matrix: (Units=1/GPa)
#
#
# Indices 1 2 3 4 5 6 
#
# 1 0.011716 0.003676 -0.004304 0.000000 0.000000 0.000000
# 2 0.003676 0.021859 -0.009749 0.000000 0.000000 0.000000
# 3 -0.004304 -0.009749 0.014668 0.000000 0.000000 0.000000
# 4 0.000000 0.000000 0.000000 0.025345 0.000000 0.000000
# 5 0.000000 0.000000 0.000000 0.000000 0.025756 0.000000
# 6 0.000000 0.000000 0.000000 0.000000 0.000000 0.019567
#
#
# Mechanical properties :
#
#
# Convention : Reuss Voigt Hill
#
# Bulk Modulus (GPa) = 36.38083 43.10141 39.74112
# Shear Modulus (GPa) = 33.59576 39.41412 36.50494
#
# Velocity S-wave (km/s) = 3.74344 4.05466 3.90215
# Velocity P-wave (km/s) = 5.81889 6.31654 6.07281
#
# Compressibility (1/GPa) = 0.02748700
#
# Stress axis : x y z
#
# Youngs Moduli (GPa) = 85.35469 45.74821 68.17722
#
# Poissons Ratio (x) = -0.16816 0.29343
# Poissons Ratio (y) = -0.31374 0.66469
# Poissons Ratio (z) = 0.36735 0.44602
#
# Static dielectric constant tensor:
#      x y z
#    x 4.826680 0.000000 0.000000 
#    y 0.000000 4.752760 0.000000 
#    z 0.000000 0.000000 4.657300 
# 
# 
# High freq. dielectric constant tensor:
#      x y z
#    x 1.975250 0.000000 0.000000 
#    y 0.000000 1.968300 0.000000 
#    z 0.000000 0.000000 1.958980 
# 
# From -- ./inp_files/28975.got.cif
#   From: 2010.03.12/outbox.cif.g09.slc.cpg/sg57_15_cif.got.tgz:28975.got - 2010.04.16 15:48:40.
