data_PCOD8235212
_publ_section_title
;
Structure prediction by ZEFSAII (Michael W. Deem and Ramdas Pophale) SiO2 
 PCOD8235212
Probable space group: P N N M
;
_chemical_formula_sum "Si O2"
_cell_formula_units_Z 48
_cell_length_a 14.784653
_cell_length_b 9.232353
_cell_length_c 14.730554
_cell_angle_alpha 90.000000
_cell_angle_beta 90.000000
_cell_angle_gamma 90.000000
_cell_volume 2010.678425
_symmetry_space_group_name_H-M "P N N M"
_symmetry_group_IT_number 58
_symmetry_cell_setting 'orthorhombic'
loop_
_space_group_symop_operation_xyz
x,y,z
-x,-y,z
1/2+x,1/2-y,1/2-z
1/2-x,1/2+y,1/2-z
-x,-y,-z
x,y,-z
1/2-x,1/2+y,1/2+z
1/2+x,1/2-y,1/2+z
loop_
_atom_site_type_symbol
_atom_site_label
_atom_site_fract_x
_atom_site_fract_y
_atom_site_fract_z
Si Si1 0.666842 0.055995 0.398215
Si Si2 0.756880 0.864681 0.899196
Si Si3 0.898405 0.362549 0.249383
Si Si4 0.008406 0.756030 0.403323
Si Si5 0.133812 0.020626 0.362365
Si Si6 0.097007 0.948398 0.165732
O O1 0.628726 0.027882 0.500000
O O2 0.597647 0.996734 0.321058
O O3 0.761357 0.970388 0.387193
O O4 0.680673 0.224963 0.380501
O O5 0.685306 0.878849 0.818493
O O6 0.823158 0.004053 0.901969
O O7 0.711422 0.854502 0.000000
O O8 0.986279 0.353188 0.316784
O O9 0.894502 0.221890 0.184900
O O10 0.016616 0.673082 0.500000
O O11 0.915137 0.843770 0.408441
O O12 0.093572 0.866727 0.395100
O O13 0.114708 0.040022 0.256636
O O14 0.000000 0.000000 0.126387
#
# Coordination Sequence:
#
# PCOD8235212 Si02
#       6
#     8   8   8   8   8   8
#     4  11  22  37  58  88 120 152 194 242 298 352
#     4  11  22  37  59  86 118 159 200 240 289 353
#     4  11  20  35  59  88 121 151 188 247 297 350
#     4  10  17  28  55  91 116 145 188 237 292 351
#     4  10  16  31  56  87 118 144 184 244 294 348
#     4  11  21  39  62  87 118 154 201 243 295 344
#
# _framework density 23.872539
#
# number of rings (size 3 to 8) (size 9 to 14) (size 15 to 20)
#    0.000    1.333    8.333    2.500    0.000    1.000 
#    0.000    0.833    0.000    2.000    0.000    1.167 
#    0.000    0.000    0.000    0.000    0.000    0.000 
#
# Total GULP energy -594865.481838 kJ/mol
# GULP energy per Si atom -12393.030872 kJ/mol
# Density = 2.381820 g / cm^3
# Si number density = 23.872539 Si / 1000 Ang^3
#
#
#
# Elastic Constant Matrix: (Units=GPa)
#
#
# Indices 1 2 3 4 5 6 
#
# 1 28.1130 -13.3130 -17.9020 0.0000 0.0000 0.0000
# 2 -13.3130 42.1427 21.5102 0.0000 0.0000 0.0000
# 3 -17.9020 21.5102 120.6143 0.0000 0.0000 0.0000
# 4 0.0000 0.0000 0.0000 12.1540 0.0000 0.0000
# 5 0.0000 0.0000 0.0000 0.0000 7.9427 0.0000
# 6 0.0000 0.0000 0.0000 0.0000 0.0000 26.5238
#
#
#
# Elastic Compliance Matrix: (Units=1/GPa)
#
#
# Indices 1 2 3 4 5 6 
#
# 1 0.043894 0.011596 0.004447 0.000000 0.000000 0.000000
# 2 0.011596 0.029169 -0.003481 0.000000 0.000000 0.000000
# 3 0.004447 -0.003481 0.009572 0.000000 0.000000 0.000000
# 4 0.000000 0.000000 0.000000 0.082278 0.000000 0.000000
# 5 0.000000 0.000000 0.000000 0.000000 0.125902 0.000000
# 6 0.000000 0.000000 0.000000 0.000000 0.000000 0.037702
#
#
# Mechanical properties :
#
#
# Convention : Reuss Voigt Hill
#
# Bulk Modulus (GPa) = 9.27992 19.05116 14.16554
# Shear Modulus (GPa) = 14.73576 22.69576 18.71576
#
# Velocity S-wave (km/s) = 2.48718 3.08670 2.80301
# Velocity P-wave (km/s) = 3.48480 4.54987 4.05248
#
# Compressibility (1/GPa) = 0.10775952
#
# Stress axis : x y z
#
# Youngs Moduli (GPa) = 22.78220 34.28312 104.47515
#
# Poissons Ratio (x) = -0.39756 -0.46458
# Poissons Ratio (y) = -0.26419 0.36365
# Poissons Ratio (z) = -0.10131 0.11933
#
# Static dielectric constant tensor:
#      x y z
#    x 4.116700 0.000000 0.000000 
#    y 0.000000 4.048740 0.000000 
#    z 0.000000 0.000000 4.513030 
# 
# 
# High freq. dielectric constant tensor:
#      x y z
#    x 1.925750 0.000000 0.000000 
#    y 0.000000 1.918610 0.000000 
#    z 0.000000 0.000000 1.956330 
# 
# From -- ./inp_files/22747.got.cif
#   From: 2010.06.25/outbox.cif.g09.slc.cpg/sg58_12_cif.got.tgz:22747.got - 2010.06.26 21:38:00.
