data_PCOD8235590
_publ_section_title
;
Structure prediction by ZEFSAII (Michael W. Deem and Ramdas Pophale) SiO2 
 PCOD8235590
Probable space group: P N N M
;
_chemical_formula_sum "Si O2"
_cell_formula_units_Z 64
_cell_length_a 12.826630
_cell_length_b 29.091328
_cell_length_c 9.051664
_cell_angle_alpha 90.000000
_cell_angle_beta 90.000000
_cell_angle_gamma 90.000000
_cell_volume 3377.571400
_symmetry_space_group_name_H-M "P N N M"
_symmetry_group_IT_number 58
_symmetry_cell_setting 'orthorhombic'
loop_
_space_group_symop_operation_xyz
x,y,z
-x,-y,z
1/2+x,1/2-y,1/2-z
1/2-x,1/2+y,1/2-z
-x,-y,-z
x,y,-z
1/2-x,1/2+y,1/2+z
1/2+x,1/2-y,1/2+z
loop_
_atom_site_type_symbol
_atom_site_label
_atom_site_fract_x
_atom_site_fract_y
_atom_site_fract_z
Si Si1 0.873065 0.396429 0.669851
Si Si2 0.808306 0.035096 0.829197
Si Si3 0.460283 0.394357 0.173540
Si Si4 0.953016 0.296659 0.674191
Si Si5 0.350502 0.826441 0.326726
Si Si6 0.677284 0.439917 0.826421
Si Si7 0.898004 0.584053 0.667381
Si Si8 0.127140 0.799151 0.325511
O O1 0.836913 0.399313 0.500000
O O2 0.892363 0.343405 0.718466
O O3 0.781856 0.415855 0.770442
O O4 0.978971 0.426988 0.693414
O O5 0.682158 0.041648 0.813000
O O6 0.873067 0.077105 0.761110
O O7 0.840549 0.989060 0.746793
O O8 0.839003 0.030511 0.000000
O O9 0.577039 0.409381 0.215575
O O10 0.451117 0.340577 0.219567
O O11 0.437570 0.401367 0.000000
O O12 0.964892 0.294379 0.500000
O O13 0.900874 0.250724 0.740662
O O14 0.066413 0.295263 0.744461
O O15 0.361630 0.819423 0.500000
O O16 0.363991 0.879576 0.288847
O O17 0.240136 0.810848 0.263115
O O18 0.687256 0.447043 0.000000
O O19 0.887844 0.604213 0.500000
O O20 0.130419 0.795150 0.500000
#
# Coordination Sequence:
#
# PCOD8235590 Si02
#       8
#     8   8   8   8   8   8   8   8
#     4   9  19  37  57  77 109 148 185 227 280 336
#     4  11  22  37  60  86 111 143 189 236 283 336
#     4  10  21  39  58  80 113 151 188 230 282 337
#     4   9  19  36  56  79 111 150 184 223 284 342
#     4  10  18  31  54  81 107 139 182 231 274 322
#     4  11  24  38  55  80 115 153 189 228 281 339
#     4   9  19  36  58  82 108 143 182 226 281 336
#     4   9  18  34  57  81 107 145 186 223 275 335
#
# _framework density 18.948526000000001
#
# number of rings (size 3 to 8) (size 9 to 14) (size 15 to 20)
#    0.000    2.250    1.250    2.250    0.000    6.500 
#    0.000    4.375    0.000    0.000    0.000    0.000 
#    0.000    0.000    0.000    0.000    0.000    0.000 
#
# Total GULP energy -793315.642591 kJ/mol
# GULP energy per Si atom -12395.556915 kJ/mol
# Density = 1.890540 g / cm^3
# Si number density = 18.948526 Si / 1000 Ang^3
#
#
#
# Elastic Constant Matrix: (Units=GPa)
#
#
# Indices 1 2 3 4 5 6 
#
# 1 99.5255 19.6562 30.6705 0.0000 0.0000 0.0000
# 2 19.6562 56.5502 23.2232 0.0000 0.0000 0.0000
# 3 30.6705 23.2232 47.7062 0.0000 0.0000 0.0000
# 4 0.0000 0.0000 0.0000 22.1909 0.0000 0.0000
# 5 0.0000 0.0000 0.0000 0.0000 31.1800 0.0000
# 6 0.0000 0.0000 0.0000 0.0000 0.0000 24.3422
#
#
#
# Elastic Compliance Matrix: (Units=1/GPa)
#
#
# Indices 1 2 3 4 5 6 
#
# 1 0.012608 -0.001317 -0.007465 0.000000 0.000000 0.000000
# 2 -0.001317 0.022239 -0.009979 0.000000 0.000000 0.000000
# 3 -0.007465 -0.009979 0.030619 0.000000 0.000000 0.000000
# 4 0.000000 0.000000 0.000000 0.045064 0.000000 0.000000
# 5 0.000000 0.000000 0.000000 0.000000 0.032072 0.000000
# 6 0.000000 0.000000 0.000000 0.000000 0.000000 0.041081
#
#
# Mechanical properties :
#
#
# Convention : Reuss Voigt Hill
#
# Bulk Modulus (GPa) = 35.78580 38.98686 37.38633
# Shear Modulus (GPa) = 21.69016 24.22475 22.95746
#
# Velocity S-wave (km/s) = 3.38699 3.57942 3.48454
# Velocity P-wave (km/s) = 5.84999 6.14026 5.99689
#
# Compressibility (1/GPa) = 0.02794404
#
# Stress axis : x y z
#
# Youngs Moduli (GPa) = 79.31376 44.96537 32.65981
#
# Poissons Ratio (x) = 0.05922 0.24380
# Poissons Ratio (y) = 0.10445 0.32593
# Poissons Ratio (z) = 0.59206 0.44873
#
# Static dielectric constant tensor:
#      x y z
#    x 3.688060 0.000000 0.000000 
#    y 0.000000 3.664040 0.000000 
#    z 0.000000 0.000000 3.336300 
# 
# 
# High freq. dielectric constant tensor:
#      x y z
#    x 1.745010 0.000000 0.000000 
#    y 0.000000 1.732230 0.000000 
#    z 0.000000 0.000000 1.725190 
# 
# From -- ./inp_files/4790.got.cif
#   From: 2010.06.25/outbox.cif.g09.slc.cpg/sg58_3_cif.got.tgz:4790.got - 2010.06.26 21:38:00.
