data_PCOD8235946
_publ_section_title
;
Structure prediction by ZEFSAII (Michael W. Deem and Ramdas Pophale) SiO2 
 PCOD8235946
Probable space group: P N N M
;
_chemical_formula_sum "Si O2"
_cell_formula_units_Z 64
_cell_length_a 5.079966
_cell_length_b 37.534644
_cell_length_c 18.364226
_cell_angle_alpha 90.000000
_cell_angle_beta 90.000000
_cell_angle_gamma 90.000000
_cell_volume 3501.593565
_symmetry_space_group_name_H-M "P N N M"
_symmetry_group_IT_number 58
_symmetry_cell_setting 'orthorhombic'
loop_
_space_group_symop_operation_xyz
x,y,z
-x,-y,z
1/2+x,1/2-y,1/2-z
1/2-x,1/2+y,1/2-z
-x,-y,-z
x,y,-z
1/2-x,1/2+y,1/2+z
1/2+x,1/2-y,1/2+z
loop_
_atom_site_type_symbol
_atom_site_label
_atom_site_fract_x
_atom_site_fract_y
_atom_site_fract_z
Si Si1 0.966768 0.041196 0.203580
Si Si2 0.435153 0.714769 0.806712
Si Si3 0.045058 0.155185 0.582005
Si Si4 0.034373 0.631391 0.651787
Si Si5 0.935233 0.706042 0.714301
Si Si6 0.467192 0.401334 0.415331
Si Si7 0.445279 0.890267 0.583736
Si Si8 0.035435 0.573647 0.228301
O O1 0.994212 0.061252 0.126579
O O2 0.685777 0.047477 0.240612
O O3 0.185099 0.055128 0.259671
O O4 0.000000 0.000000 0.186081
O O5 0.494019 0.692187 0.877691
O O6 0.142702 0.705519 0.780127
O O7 0.467526 0.756349 0.827946
O O8 0.639985 0.703111 0.744426
O O9 0.978464 0.164902 0.500000
O O10 0.835438 0.125661 0.608056
O O11 0.336668 0.140233 0.592513
O O12 0.987647 0.673438 0.660189
O O13 0.317023 0.626217 0.614824
O O14 0.020598 0.611888 0.730529
O O15 0.817961 0.615541 0.597472
O O16 0.510137 0.409072 0.500000
O O17 0.442636 0.904910 0.500000
O O18 0.503679 0.921648 0.641246
#
# Coordination Sequence:
#
# PCOD8235946 Si02
#       8
#     8   8   8   8   8   8   8   8
#     4  10  21  36  56  80 104 133 166 202 248 298
#     4  10  19  32  49  72  99 131 171 215 257 297
#     4  10  19  31  48  72 102 132 166 208 256 301
#     4  10  19  33  53  76 101 133 173 211 256 299
#     4  10  20  32  51  73  98 131 172 215 252 300
#     4  10  21  36  54  77 104 133 168 210 252 299
#     4  10  20  33  53  79 104 133 167 208 254 297
#     4  10  19  33  55  78 103 133 166 208 247 295
#
# _framework density 18.277393
#
# number of rings (size 3 to 8) (size 9 to 14) (size 15 to 20)
#    0.000    2.000    0.000    4.500    0.000    2.250 
#    0.000    1.250    0.000    8.250    0.000    0.000 
#    0.000    0.000    0.000    0.000    0.000    0.000 
#
# Total GULP energy -793750.938295 kJ/mol
# GULP energy per Si atom -12402.358411 kJ/mol
# Density = 1.823579 g / cm^3
# Si number density = 18.277393 Si / 1000 Ang^3
#
#
#
# Elastic Constant Matrix: (Units=GPa)
#
#
# Indices 1 2 3 4 5 6 
#
# 1 61.3439 -1.1344 5.0712 0.0000 0.0000 0.0000
# 2 -1.1344 96.8939 38.7529 0.0000 0.0000 0.0000
# 3 5.0712 38.7529 86.7587 0.0000 0.0000 0.0000
# 4 0.0000 0.0000 0.0000 19.5966 0.0000 0.0000
# 5 0.0000 0.0000 0.0000 0.0000 18.6600 0.0000
# 6 0.0000 0.0000 0.0000 0.0000 0.0000 19.0542
#
#
#
# Elastic Compliance Matrix: (Units=1/GPa)
#
#
# Indices 1 2 3 4 5 6 
#
# 1 0.016420 0.000701 -0.001273 0.000000 0.000000 0.000000
# 2 0.000701 0.012595 -0.005667 0.000000 0.000000 0.000000
# 3 -0.001273 -0.005667 0.014132 0.000000 0.000000 0.000000
# 4 0.000000 0.000000 0.000000 0.051029 0.000000 0.000000
# 5 0.000000 0.000000 0.000000 0.000000 0.053591 0.000000
# 6 0.000000 0.000000 0.000000 0.000000 0.000000 0.052482
#
#
# Mechanical properties :
#
#
# Convention : Reuss Voigt Hill
#
# Bulk Modulus (GPa) = 32.60550 36.70844 34.65697
# Shear Modulus (GPa) = 22.42665 24.94929 23.68797
#
# Velocity S-wave (km/s) = 3.50668 3.69865 3.60394
# Velocity P-wave (km/s) = 5.85437 6.19416 6.02666
#
# Compressibility (1/GPa) = 0.03066967
#
# Stress axis : x y z
#
# Youngs Moduli (GPa) = 60.90224 79.39470 70.76173
#
# Poissons Ratio (x) = -0.05569 0.09008
# Poissons Ratio (y) = -0.04272 0.40101
# Poissons Ratio (z) = 0.07753 0.44993
#
# Static dielectric constant tensor:
#      x y z
#    x 3.626320 0.000000 0.000000 
#    y 0.000000 3.225170 0.000000 
#    z 0.000000 0.000000 3.209450 
# 
# 
# High freq. dielectric constant tensor:
#      x y z
#    x 1.734170 0.000000 0.000000 
#    y 0.000000 1.692800 0.000000 
#    z 0.000000 0.000000 1.690520 
# 
# From -- ./inp_files/24525.got.cif
#   From: 2010.06.25/outbox.cif.g09.slc.cpg/sg58_13_cif.got.tgz:24525.got - 2010.06.26 21:38:00.
