data_PCOD8235177
_publ_section_title
;
Structure prediction by ZEFSAII (Michael W. Deem and Ramdas Pophale) SiO2 
 PCOD8235177
Probable space group: P B C M
;
_chemical_formula_sum "Si O2"
_cell_formula_units_Z 64
_cell_length_a 10.491043
_cell_length_b 21.466400
_cell_length_c 17.759751
_cell_angle_alpha 90.000000
_cell_angle_beta 90.000000
_cell_angle_gamma 90.000000
_cell_volume 3999.583400
_symmetry_space_group_name_H-M "P B C M"
_symmetry_group_IT_number 57
_symmetry_cell_setting 'orthorhombic'
loop_
_space_group_symop_operation_xyz
x,y,z
-x,-y,1/2+z
x,1/2-y,-z
-x,1/2+y,1/2-z
-x,-y,-z
x,y,1/2-z
-x,1/2+y,z
x,1/2-y,1/2+z
loop_
_atom_site_type_symbol
_atom_site_label
_atom_site_fract_x
_atom_site_fract_y
_atom_site_fract_z
Si Si1 0.630096 0.560830 0.562346
Si Si2 0.722492 0.609201 0.334509
Si Si3 0.878680 0.997660 0.401464
Si Si4 0.718975 0.679610 0.016875
Si Si5 0.118893 0.565324 0.558255
Si Si6 0.015075 0.885371 0.666621
Si Si7 0.370647 0.510190 0.906312
Si Si8 0.016745 0.818664 0.518605
O O1 0.748441 0.539950 0.615291
O O2 0.642859 0.633164 0.538445
O O3 0.629207 0.517335 0.489669
O O4 0.499438 0.549655 0.608581
O O5 0.694731 0.634542 0.250000
O O6 0.688641 0.662695 0.395686
O O7 0.639920 0.546907 0.347695
O O8 0.870552 0.590204 0.344124
O O9 0.999822 0.952517 0.388309
O O10 0.879410 0.018806 0.487853
O O11 0.889854 0.056799 0.346327
O O12 0.868395 0.671257 0.999061
O O13 0.673760 0.750000 0.000000
O O14 0.251423 0.557460 0.603332
O O15 0.103038 0.636212 0.531702
O O16 0.037625 0.858003 0.750000
O O17 0.042420 0.830711 0.607076
O O18 0.063759 0.750000 0.500000
#
# Coordination Sequence:
#
# PCOD8235177 Si02
#       8
#     8   8   8   8   8   8   8   8
#     4   9  16  26  42  66  90 112 140 186 225 261
#     4   9  16  27  44  65  88 115 150 189 229 278
#     4   9  14  24  42  62  85 109 138 175 225 264
#     4   9  16  27  44  66  89 119 157 190 223 266
#     4   9  14  24  42  63  84 108 141 182 217 260
#     4   9  16  26  43  65  89 115 147 191 235 275
#     4   9  16  26  42  65  89 111 142 181 230 265
#     4   9  16  26  43  66  88 119 159 190 224 271
#
# _framework density 16.001667999999999
#
# number of rings (size 3 to 8) (size 9 to 14) (size 15 to 20)
#    0.000    3.000    2.500    0.000    0.000    0.000 
#    0.000    1.250    0.000    3.000    0.000    0.000 
#    0.000    0.000    0.000    0.000    0.000    0.000 
#
# Total GULP energy -793223.506528 kJ/mol
# GULP energy per Si atom -12394.117290 kJ/mol
# Density = 1.596525 g / cm^3
# Si number density = 16.001668 Si / 1000 Ang^3
#
#
#
# Elastic Constant Matrix: (Units=GPa)
#
#
# Indices 1 2 3 4 5 6 
#
# 1 94.4302 56.6421 23.1637 0.0000 0.0000 0.0000
# 2 56.6421 114.2760 42.6725 0.0000 0.0000 0.0000
# 3 23.1637 42.6725 63.8744 0.0000 0.0000 0.0000
# 4 0.0000 0.0000 0.0000 13.1199 0.0000 0.0000
# 5 0.0000 0.0000 0.0000 0.0000 10.0941 0.0000
# 6 0.0000 0.0000 0.0000 0.0000 0.0000 17.9630
#
#
#
# Elastic Compliance Matrix: (Units=1/GPa)
#
#
# Indices 1 2 3 4 5 6 
#
# 1 0.015090 -0.007243 -0.000633 0.000000 0.000000 0.000000
# 2 -0.007243 0.015136 -0.007485 0.000000 0.000000 0.000000
# 3 -0.000633 -0.007485 0.020886 0.000000 0.000000 0.000000
# 4 0.000000 0.000000 0.000000 0.076220 0.000000 0.000000
# 5 0.000000 0.000000 0.000000 0.000000 0.099068 0.000000
# 6 0.000000 0.000000 0.000000 0.000000 0.000000 0.055670
#
#
# Mechanical properties :
#
#
# Convention : Reuss Voigt Hill
#
# Bulk Modulus (GPa) = 49.04708 57.50413 53.27560
# Shear Modulus (GPa) = 15.64513 18.24224 16.94368
#
# Velocity S-wave (km/s) = 3.13024 3.38008 3.25756
# Velocity P-wave (km/s) = 6.61682 7.15874 6.89311
#
# Compressibility (1/GPa) = 0.02038857
#
# Stress axis : x y z
#
# Youngs Moduli (GPa) = 66.27050 66.06850 47.87878
#
# Poissons Ratio (x) = 0.47852 0.03033
# Poissons Ratio (y) = 0.47998 0.35838
# Poissons Ratio (z) = 0.04198 0.49454
#
# Static dielectric constant tensor:
#      x y z
#    x 3.191590 0.000000 0.000000 
#    y 0.000000 2.856720 0.000000 
#    z 0.000000 0.000000 2.751440 
# 
# 
# High freq. dielectric constant tensor:
#      x y z
#    x 1.601390 0.000000 0.000000 
#    y 0.000000 1.594890 0.000000 
#    z 0.000000 0.000000 1.579370 
# 
# From -- ./inp_files/22204.got.cif
#   From: 2010.03.12/outbox.cif.g09.slc.cpg/sg57_12_cif.got.tgz:22204.got - 2010.04.16 15:48:40.
