data_PCOD8235831
_publ_section_title
;
Structure prediction by ZEFSAII (Michael W. Deem and Ramdas Pophale) SiO2 
 PCOD8235831
Probable space group: P N N M
;
_chemical_formula_sum "Si O2"
_cell_formula_units_Z 56
_cell_length_a 28.771683
_cell_length_b 13.536952
_cell_length_c 9.016536
_cell_angle_alpha 90.000000
_cell_angle_beta 90.000000
_cell_angle_gamma 90.000000
_cell_volume 3511.768482
_symmetry_space_group_name_H-M "P N N M"
_symmetry_group_IT_number 58
_symmetry_cell_setting 'orthorhombic'
loop_
_space_group_symop_operation_xyz
x,y,z
-x,-y,z
1/2+x,1/2-y,1/2-z
1/2-x,1/2+y,1/2-z
-x,-y,-z
x,y,-z
1/2-x,1/2+y,1/2+z
1/2+x,1/2-y,1/2+z
loop_
_atom_site_type_symbol
_atom_site_label
_atom_site_fract_x
_atom_site_fract_y
_atom_site_fract_z
Si Si1 0.097793 0.107722 0.325043
Si Si2 0.320560 0.707666 0.668278
Si Si3 0.185957 0.788840 0.828192
Si Si4 0.503407 0.617177 0.163460
Si Si5 0.724988 0.896039 0.825962
Si Si6 0.592884 0.597974 0.330334
Si Si7 0.265513 0.902517 0.673133
O O1 0.099481 0.092746 0.500000
O O2 0.136806 0.184998 0.275877
O O3 0.047306 0.152729 0.278102
O O4 0.107261 0.001149 0.254363
O O5 0.337238 0.692503 0.500000
O O6 0.278207 0.634057 0.703810
O O7 0.304702 0.819608 0.696408
O O8 0.190988 0.685636 0.742979
O O9 0.132864 0.821317 0.810157
O O10 0.218368 0.872479 0.756157
O O11 0.199980 0.776396 0.000000
O O12 0.500000 0.500000 0.154548
O O13 0.545288 0.648168 0.271324
O O14 0.513833 0.660887 0.000000
O O15 0.714333 0.998250 0.744276
O O16 0.714489 0.904881 0.000000
O O17 0.585483 0.568551 0.500000
O O18 0.254137 0.917138 0.500000
#
# Coordination Sequence:
#
# PCOD8235831 Si02
#       7
#     8   8   8   8   8   8   8
#     4  10  19  29  44  66  91 120 151 183 221 264
#     4   9  19  32  45  65  91 118 150 184 218 262
#     4  10  20  32  46  67  93 120 153 188 222 265
#     4   8  16  29  42  61  89 117 147 182 219 263
#     4  10  20  33  48  67  91 120 154 188 224 266
#     4  10  19  29  44  66  91 120 151 183 221 265
#     4  10  20  33  48  67  92 121 152 187 226 265
#
# _framework density 15.946382
#
# number of rings (size 3 to 8) (size 9 to 14) (size 15 to 20)
#    0.000    2.429    0.000    4.714    0.000   12.286 
#    0.000    0.000    0.000    0.000    0.000    1.000 
#    0.000    8.000    0.000    0.000    0.000    0.000 
#
# Total GULP energy -694391.094163 kJ/mol
# GULP energy per Si atom -12399.840967 kJ/mol
# Density = 1.591009 g / cm^3
# Si number density = 15.946382 Si / 1000 Ang^3
#
#
#
# Elastic Constant Matrix: (Units=GPa)
#
#
# Indices 1 2 3 4 5 6 
#
# 1 103.4348 35.5566 60.4405 0.0000 0.0000 0.0000
# 2 35.5566 77.9071 43.5357 0.0000 0.0000 0.0000
# 3 60.4405 43.5357 107.1185 0.0000 0.0000 0.0000
# 4 0.0000 0.0000 0.0000 24.6979 0.0000 0.0000
# 5 0.0000 0.0000 0.0000 0.0000 29.5139 0.0000
# 6 0.0000 0.0000 0.0000 0.0000 0.0000 16.4751
#
#
#
# Elastic Compliance Matrix: (Units=1/GPa)
#
#
# Indices 1 2 3 4 5 6 
#
# 1 0.014853 -0.002712 -0.007279 0.000000 0.000000 0.000000
# 2 -0.002712 0.017103 -0.005421 0.000000 0.000000 0.000000
# 3 -0.007279 -0.005421 0.015646 0.000000 0.000000 0.000000
# 4 0.000000 0.000000 0.000000 0.040489 0.000000 0.000000
# 5 0.000000 0.000000 0.000000 0.000000 0.033882 0.000000
# 6 0.000000 0.000000 0.000000 0.000000 0.000000 0.060698
#
#
# Mechanical properties :
#
#
# Convention : Reuss Voigt Hill
#
# Bulk Modulus (GPa) = 59.59829 63.05843 61.32836
# Shear Modulus (GPa) = 22.82202 24.06587 23.44394
#
# Velocity S-wave (km/s) = 3.78719 3.88902 3.83844
# Velocity P-wave (km/s) = 7.52190 7.73278 7.62807
#
# Compressibility (1/GPa) = 0.01677901
#
# Stress axis : x y z
#
# Youngs Moduli (GPa) = 67.32525 58.47038 63.91548
#
# Poissons Ratio (x) = 0.15854 0.46523
# Poissons Ratio (y) = 0.18255 0.34649
# Poissons Ratio (z) = 0.49004 0.31697
#
# Static dielectric constant tensor:
#      x y z
#    x 3.190690 0.000000 0.000000 
#    y 0.000000 2.782010 0.000000 
#    z 0.000000 0.000000 3.185780 
# 
# 
# High freq. dielectric constant tensor:
#      x y z
#    x 1.607060 0.000000 0.000000 
#    y 0.000000 1.580780 0.000000 
#    z 0.000000 0.000000 1.630040 
# 
# From -- ./inp_files/11097.got.cif
#   From: 2010.06.25/outbox.cif.g09.slc.cpg/sg58_6_cif.got.tgz:11097.got - 2010.06.26 21:38:00.
