data_PCOD8235415
_publ_section_title
;
Structure prediction by ZEFSAII (Michael W. Deem and Ramdas Pophale) SiO2 
 PCOD8235415
Probable space group: P N N M
;
_chemical_formula_sum "Si O2"
_cell_formula_units_Z 64
_cell_length_a 20.718607
_cell_length_b 19.893826
_cell_length_c 9.193520
_cell_angle_alpha 90.000000
_cell_angle_beta 90.000000
_cell_angle_gamma 90.000000
_cell_volume 3789.314859
_symmetry_space_group_name_H-M "P N N M"
_symmetry_group_IT_number 58
_symmetry_cell_setting 'orthorhombic'
loop_
_space_group_symop_operation_xyz
x,y,z
-x,-y,z
1/2+x,1/2-y,1/2-z
1/2-x,1/2+y,1/2-z
-x,-y,-z
x,y,-z
1/2-x,1/2+y,1/2+z
1/2+x,1/2-y,1/2+z
loop_
_atom_site_type_symbol
_atom_site_label
_atom_site_fract_x
_atom_site_fract_y
_atom_site_fract_z
Si Si1 0.567819 0.218853 0.172970
Si Si2 0.696721 0.713775 0.827600
Si Si3 0.232152 0.064517 0.172271
Si Si4 0.822885 0.796631 0.827792
Si Si5 0.876150 0.436221 0.326028
Si Si6 0.379304 0.918834 0.166368
Si Si7 0.924570 0.297293 0.327961
Si Si8 0.773185 0.083105 0.166496
O O1 0.612227 0.274110 0.248355
O O2 0.585976 0.145306 0.238903
O O3 0.493600 0.233692 0.216623
O O4 0.578841 0.222343 0.000000
O O5 0.761662 0.752041 0.776816
O O6 0.634103 0.752937 0.765066
O O7 0.692745 0.638865 0.764648
O O8 0.694415 0.709225 0.000000
O O9 0.187229 0.126086 0.222940
O O10 0.303957 0.076445 0.234289
O O11 0.204745 0.991414 0.221398
O O12 0.237772 0.064093 0.000000
O O13 0.832207 0.790826 0.000000
O O14 0.874480 0.440387 0.500000
O O15 0.901320 0.508907 0.265947
O O16 0.920082 0.374504 0.270299
O O17 0.303183 0.910552 0.184059
O O18 0.400833 0.918196 0.000000
O O19 0.917404 0.299732 0.500000
O O20 0.793869 0.095019 0.000000
#
# Coordination Sequence:
#
# PCOD8235415 Si02
#       8
#     8   8   8   8   8   8   8   8
#     4  10  19  30  44  68  98 123 149 187 232 272
#     4  10  18  29  47  70  92 119 154 188 223 267
#     4   8  14  26  46  69  91 116 150 190 227 263
#     4  10  18  30  49  69  90 121 157 189 222 268
#     4   8  12  22  40  64  92 119 148 182 217 259
#     4   8  14  23  39  65  95 119 143 179 223 265
#     4   9  17  28  43  65  95 125 153 186 225 270
#     4   9  16  28  47  70  94 117 145 188 234 269
#
# _framework density 16.889596999999998
#
# number of rings (size 3 to 8) (size 9 to 14) (size 15 to 20)
#    0.000    3.000    2.500    1.500    0.000    0.500 
#    0.000    3.750    0.000    0.750    0.000    8.750 
#    0.000    0.000    0.000    0.000    0.000    0.000 
#
# Total GULP energy -792964.144873 kJ/mol
# GULP energy per Si atom -12390.064764 kJ/mol
# Density = 1.685116 g / cm^3
# Si number density = 16.889597 Si / 1000 Ang^3
#
#
#
# Elastic Constant Matrix: (Units=GPa)
#
#
# Indices 1 2 3 4 5 6 
#
# 1 68.7624 43.2000 15.6548 0.0000 0.0000 0.0000
# 2 43.2000 125.8774 19.6106 0.0000 0.0000 0.0000
# 3 15.6548 19.6106 14.5881 0.0000 0.0000 0.0000
# 4 0.0000 0.0000 0.0000 22.7034 0.0000 0.0000
# 5 0.0000 0.0000 0.0000 0.0000 17.1757 0.0000
# 6 0.0000 0.0000 0.0000 0.0000 0.0000 24.3117
#
#
#
# Elastic Compliance Matrix: (Units=1/GPa)
#
#
# Indices 1 2 3 4 5 6 
#
# 1 0.021263 -0.004734 -0.016454 0.000000 0.000000 0.000000
# 2 -0.004734 0.011103 -0.009845 0.000000 0.000000 0.000000
# 3 -0.016454 -0.009845 0.099441 0.000000 0.000000 0.000000
# 4 0.000000 0.000000 0.000000 0.044046 0.000000 0.000000
# 5 0.000000 0.000000 0.000000 0.000000 0.058222 0.000000
# 6 0.000000 0.000000 0.000000 0.000000 0.000000 0.041133
#
#
# Mechanical properties :
#
#
# Convention : Reuss Voigt Hill
#
# Bulk Modulus (GPa) = 14.33892 40.68432 27.51162
# Shear Modulus (GPa) = 13.86888 21.55567 17.71228
#
# Velocity S-wave (km/s) = 2.86868 3.57637 3.24189
# Velocity P-wave (km/s) = 4.41369 6.41830 5.50796
#
# Compressibility (1/GPa) = 0.06974026
#
# Stress axis : x y z
#
# Youngs Moduli (GPa) = 47.03033 90.06866 10.05624
#
# Poissons Ratio (x) = 0.42637 0.16547
# Poissons Ratio (y) = 0.22263 0.09901
# Poissons Ratio (z) = 0.77384 0.88674
#
# Static dielectric constant tensor:
#      x y z
#    x 3.037480 0.000000 0.000000 
#    y 0.000000 3.556080 0.000000 
#    z 0.000000 0.000000 2.621390 
# 
# 
# High freq. dielectric constant tensor:
#      x y z
#    x 1.628620 0.000000 0.000000 
#    y 0.000000 1.665950 0.000000 
#    z 0.000000 0.000000 1.590790 
# 
# From -- ./inp_files/9432.got.cif
#   From: 2010.06.25/outbox.cif.g09.slc.cpg/sg58_5_cif.got.tgz:9432.got - 2010.06.26 21:38:00.
