data_PCOD8235173
_publ_section_title
;
Structure prediction by ZEFSAII (Michael W. Deem and Ramdas Pophale) SiO2 
 PCOD8235173
Probable space group: P B C M
;
_chemical_formula_sum "Si O2"
_cell_formula_units_Z 56
_cell_length_a 16.158916
_cell_length_b 24.711385
_cell_length_c 9.281343
_cell_angle_alpha 90.000000
_cell_angle_beta 90.000000
_cell_angle_gamma 90.000000
_cell_volume 3706.125597
_symmetry_space_group_name_H-M "P B C M"
_symmetry_group_IT_number 57
_symmetry_cell_setting 'orthorhombic'
loop_
_space_group_symop_operation_xyz
x,y,z
-x,-y,1/2+z
x,1/2-y,-z
-x,1/2+y,1/2-z
-x,-y,-z
x,y,1/2-z
-x,1/2+y,z
x,1/2-y,1/2+z
loop_
_atom_site_type_symbol
_atom_site_label
_atom_site_fract_x
_atom_site_fract_y
_atom_site_fract_z
Si Si1 0.778453 0.301828 0.917462
Si Si2 0.486695 0.917138 0.918310
Si Si3 0.588819 0.303634 0.580946
Si Si4 0.621131 0.519900 0.581028
Si Si5 0.971328 0.946521 0.081077
Si Si6 0.196330 0.009615 0.583247
Si Si7 0.890379 0.401480 0.920182
O O1 0.786094 0.290053 0.750000
O O2 0.684096 0.314426 0.960777
O O3 0.835707 0.350925 0.965626
O O4 0.812778 0.250000 0.000000
O O5 0.506902 0.917503 0.750000
O O6 0.460445 0.857111 0.969404
O O7 0.413845 0.959995 0.953241
O O8 0.569100 0.933566 0.002731
O O9 0.555095 0.250000 0.500000
O O10 0.578093 0.293668 0.750000
O O11 0.617599 0.532496 0.750000
O O12 0.714334 0.523648 0.515540
O O13 0.992904 0.950060 0.250000
O O14 0.871235 0.942137 0.059852
O O15 0.021418 0.897523 0.005021
O O16 0.000000 0.000000 0.000000
O O17 0.213550 0.998869 0.750000
O O18 0.159349 0.953748 0.521404
O O19 0.908107 0.404523 0.750000
#
# Coordination Sequence:
#
# PCOD8235173 Si02
#       7
#     8   8   8   8   8   8   8
#     4   9  17  28  42  60  82 109 139 168 198 237
#     4   9  17  28  41  60  85 109 135 169 207 243
#     4   9  17  29  44  61  83 111 141 172 206 244
#     4   9  16  27  43  60  81 111 141 166 198 245
#     4   9  16  26  40  59  82 106 134 165 196 233
#     4   8  14  25  41  59  79 106 137 163 191 235
#     4   9  16  27  42  59  82 111 138 164 199 240
#
# _framework density 15.11012
#
# number of rings (size 3 to 8) (size 9 to 14) (size 15 to 20)
#    0.000    3.143    0.000    2.143    0.000    4.571 
#    0.000    3.571    0.000    5.143    0.000    1.000 
#    0.000    0.000    0.000    0.000    0.000    0.000 
#
# Total GULP energy -693993.445383 kJ/mol
# GULP energy per Si atom -12392.740096 kJ/mol
# Density = 1.507573 g / cm^3
# Si number density = 15.110120 Si / 1000 Ang^3
#
#
#
# Elastic Constant Matrix: (Units=GPa)
#
#
# Indices 1 2 3 4 5 6 
#
# 1 122.1200 60.5196 40.3637 0.0000 0.0000 0.0000
# 2 60.5196 106.0640 37.0982 0.0000 0.0000 0.0000
# 3 40.3637 37.0982 40.5117 0.0000 0.0000 0.0000
# 4 0.0000 0.0000 0.0000 24.7638 0.0000 0.0000
# 5 0.0000 0.0000 0.0000 0.0000 23.1880 0.0000
# 6 0.0000 0.0000 0.0000 0.0000 0.0000 24.8124
#
#
#
# Elastic Compliance Matrix: (Units=1/GPa)
#
#
# Indices 1 2 3 4 5 6 
#
# 1 0.013476 -0.004403 -0.009394 0.000000 0.000000 0.000000
# 2 -0.004403 0.015310 -0.009633 0.000000 0.000000 0.000000
# 3 -0.009394 -0.009633 0.042865 0.000000 0.000000 0.000000
# 4 0.000000 0.000000 0.000000 0.040382 0.000000 0.000000
# 5 0.000000 0.000000 0.000000 0.000000 0.043126 0.000000
# 6 0.000000 0.000000 0.000000 0.000000 0.000000 0.040302
#
#
# Mechanical properties :
#
#
# Convention : Reuss Voigt Hill
#
# Bulk Modulus (GPa) = 40.33817 60.51764 50.42790
# Shear Modulus (GPa) = 19.95324 23.26710 21.61017
#
# Velocity S-wave (km/s) = 3.63784 3.92833 3.78587
# Velocity P-wave (km/s) = 6.66328 7.79190 7.24959
#
# Compressibility (1/GPa) = 0.02479042
#
# Stress axis : x y z
#
# Youngs Moduli (GPa) = 74.20620 65.31620 23.32884
#
# Poissons Ratio (x) = 0.28762 0.21916
# Poissons Ratio (y) = 0.32676 0.22472
# Poissons Ratio (z) = 0.69712 0.62918
#
# Static dielectric constant tensor:
#      x y z
#    x 3.194290 0.000000 0.000000 
#    y 0.000000 2.863820 0.000000 
#    z 0.000000 0.000000 2.864290 
# 
# 
# High freq. dielectric constant tensor:
#      x y z
#    x 1.574550 0.000000 0.000000 
#    y 0.000000 1.552560 0.000000 
#    z 0.000000 0.000000 1.569090 
# 
# From -- ./inp_files/7328.got.cif
#   From: 2010.03.12/outbox.cif.g09.slc.cpg/sg57_4_cif.got.tgz:7328.got - 2010.04.16 15:48:40.
