data_PCOD8235223
_publ_section_title
;
Structure prediction by ZEFSAII (Michael W. Deem and Ramdas Pophale) SiO2 
 PCOD8235223
Probable space group: P N N M
;
_chemical_formula_sum "Si O2"
_cell_formula_units_Z 56
_cell_length_a 22.651032
_cell_length_b 17.786195
_cell_length_c 8.818574
_cell_angle_alpha 90.000000
_cell_angle_beta 90.000000
_cell_angle_gamma 90.000000
_cell_volume 3552.788927
_symmetry_space_group_name_H-M "P N N M"
_symmetry_group_IT_number 58
_symmetry_cell_setting 'orthorhombic'
loop_
_space_group_symop_operation_xyz
x,y,z
-x,-y,z
1/2+x,1/2-y,1/2-z
1/2-x,1/2+y,1/2-z
-x,-y,-z
x,y,-z
1/2-x,1/2+y,1/2+z
1/2+x,1/2-y,1/2+z
loop_
_atom_site_type_symbol
_atom_site_label
_atom_site_fract_x
_atom_site_fract_y
_atom_site_fract_z
Si Si1 0.433410 0.994015 0.180684
Si Si2 0.801358 0.232088 0.674381
Si Si3 0.714690 0.420613 0.678235
Si Si4 0.345519 0.116325 0.824524
Si Si5 0.317195 0.724972 0.177171
Si Si6 0.146964 0.371253 0.821648
Si Si7 0.722781 0.571436 0.173322
O O1 0.397972 0.066852 0.247939
O O2 0.500000 0.000000 0.241670
O O3 0.404520 0.918802 0.244667
O O4 0.432327 0.990332 0.000000
O O5 0.777577 0.241612 0.500000
O O6 0.853974 0.293081 0.702740
O O7 0.750034 0.252364 0.790477
O O8 0.819542 0.145000 0.698365
O O9 0.709143 0.410227 0.500000
O O10 0.781635 0.408544 0.739086
O O11 0.671915 0.358986 0.756485
O O12 0.696187 0.504962 0.724599
O O13 0.346218 0.096648 0.000000
O O14 0.359004 0.786429 0.257860
O O15 0.330634 0.725076 0.000000
O O16 0.210599 0.406585 0.778285
O O17 0.137480 0.369641 0.000000
O O18 0.721375 0.544582 0.000000
#
# Coordination Sequence:
#
# PCOD8235223 Si02
#       7
#     8   8   8   8   8   8   8
#     4  10  19  30  45  65  86 113 154 193 222 254
#     4   8  15  27  40  57  81 110 143 174 210 256
#     4  10  17  26  41  59  84 114 142 168 207 259
#     4   8  14  26  41  56  79 112 143 175 215 251
#     4  10  18  27  41  60  82 107 141 176 212 254
#     4  10  19  31  44  58  83 114 147 181 220 261
#     4   9  16  25  39  60  83 108 140 176 208 249
#
# _framework density 15.762264
#
# number of rings (size 3 to 8) (size 9 to 14) (size 15 to 20)
#    0.000    2.714    1.429    3.857    0.000    2.571 
#    0.000    0.000    0.000    0.000    0.000    0.000 
#    0.000    1.143    0.000   13.429    0.000    2.571 
#
# Total GULP energy -693859.698552 kJ/mol
# GULP energy per Si atom -12390.351760 kJ/mol
# Density = 1.572639 g / cm^3
# Si number density = 15.762264 Si / 1000 Ang^3
#
#
#
# Elastic Constant Matrix: (Units=GPa)
#
#
# Indices 1 2 3 4 5 6 
#
# 1 50.2366 41.7102 11.5054 0.0000 0.0000 0.0000
# 2 41.7102 149.2374 30.0506 0.0000 0.0000 0.0000
# 3 11.5054 30.0506 42.5382 0.0000 0.0000 0.0000
# 4 0.0000 0.0000 0.0000 26.6274 0.0000 0.0000
# 5 0.0000 0.0000 0.0000 0.0000 10.6996 0.0000
# 6 0.0000 0.0000 0.0000 0.0000 0.0000 15.9126
#
#
#
# Elastic Compliance Matrix: (Units=1/GPa)
#
#
# Indices 1 2 3 4 5 6 
#
# 1 0.026100 -0.006847 -0.002222 0.000000 0.000000 0.000000
# 2 -0.006847 0.009608 -0.004936 0.000000 0.000000 0.000000
# 3 -0.002222 -0.004936 0.027596 0.000000 0.000000 0.000000
# 4 0.000000 0.000000 0.000000 0.037555 0.000000 0.000000
# 5 0.000000 0.000000 0.000000 0.000000 0.093462 0.000000
# 6 0.000000 0.000000 0.000000 0.000000 0.000000 0.062843
#
#
# Mechanical properties :
#
#
# Convention : Reuss Voigt Hill
#
# Bulk Modulus (GPa) = 28.33339 45.39385 36.86362
# Shear Modulus (GPa) = 16.83847 21.23099 19.03473
#
# Velocity S-wave (km/s) = 3.27200 3.67406 3.47884
# Velocity P-wave (km/s) = 5.68235 6.84543 6.29083
#
# Compressibility (1/GPa) = 0.03529404
#
# Stress axis : x y z
#
# Youngs Moduli (GPa) = 38.31455 104.07689 36.23707
#
# Poissons Ratio (x) = 0.71263 0.08053
# Poissons Ratio (y) = 0.26234 0.17885
# Poissons Ratio (z) = 0.08514 0.51369
#
# Static dielectric constant tensor:
#      x y z
#    x 2.592470 0.000000 0.000000 
#    y 0.000000 3.439130 0.000000 
#    z 0.000000 0.000000 2.849160 
# 
# 
# High freq. dielectric constant tensor:
#      x y z
#    x 1.525490 0.000000 0.000000 
#    y 0.000000 1.627830 0.000000 
#    z 0.000000 0.000000 1.599450 
# 
# From -- ./inp_files/8118.got.cif
#   From: 2010.06.25/outbox.cif.g09.slc.cpg/sg58_5_cif.got.tgz:8118.got - 2010.06.26 21:38:00.
