data_PCOD8235787
_publ_section_title
;
Structure prediction by ZEFSAII (Michael W. Deem and Ramdas Pophale) SiO2 
 PCOD8235787
Probable space group: P N N M
;
_chemical_formula_sum "Si O2"
_cell_formula_units_Z 40
_cell_length_a 26.404948
_cell_length_b 10.261420
_cell_length_c 7.692864
_cell_angle_alpha 90.000000
_cell_angle_beta 90.000000
_cell_angle_gamma 90.000000
_cell_volume 2084.398898
_symmetry_space_group_name_H-M "P N N M"
_symmetry_group_IT_number 58
_symmetry_cell_setting 'orthorhombic'
loop_
_space_group_symop_operation_xyz
x,y,z
-x,-y,z
1/2+x,1/2-y,1/2-z
1/2-x,1/2+y,1/2-z
-x,-y,-z
x,y,-z
1/2-x,1/2+y,1/2+z
1/2+x,1/2-y,1/2+z
loop_
_atom_site_type_symbol
_atom_site_label
_atom_site_fract_x
_atom_site_fract_y
_atom_site_fract_z
Si Si1 0.298429 0.010509 0.207945
Si Si2 0.556403 0.154496 0.000000
Si Si3 0.685483 0.506870 0.304309
Si Si4 0.353980 0.756229 0.808424
Si Si5 0.130633 0.740526 0.800134
Si Si6 0.558449 0.845085 0.000000
O O1 0.240902 0.012734 0.279530
O O2 0.324073 0.877139 0.276583
O O3 0.326283 0.131225 0.295807
O O4 0.303996 0.023936 0.000000
O O5 0.586144 0.207721 0.828217
O O6 0.499285 0.205748 0.000000
O O7 0.560430 0.999791 0.000000
O O8 0.695667 0.550513 0.500000
O O9 0.653015 0.374115 0.302441
O O10 0.653978 0.625466 0.220632
O O11 0.330625 0.728662 0.000000
O O12 0.083774 0.705879 0.676467
O O13 0.111496 0.756258 0.000000
#
# Coordination Sequence:
#
# PCOD8235787 Si02
#       6
#     8   4   8   8   8   4
#     4  10  18  36  56  81 119 160 196 238 283 347
#     4   9  20  39  69  85 107 157 199 251 302 342
#     4  10  22  33  52  85 124 157 189 235 292 348
#     4   9  18  36  55  82 110 149 199 236 284 349
#     4  11  22  38  58  88 119 153 197 245 288 355
#     4  11  20  43  67  85 117 151 197 257 306 336
#
# _framework density 19.190185
#
# number of rings (size 3 to 8) (size 9 to 14) (size 15 to 20)
#    0.600    1.400    3.000    1.200    1.400    3.200 
#    0.000    5.000    0.000    2.400    0.000    0.000 
#    0.000    0.000    0.000    0.000    0.000    0.000 
#
# Total GULP energy -495787.835511 kJ/mol
# GULP energy per Si atom -12394.695888 kJ/mol
# Density = 1.914651 g / cm^3
# Si number density = 19.190185 Si / 1000 Ang^3
#
#
#
# Elastic Constant Matrix: (Units=GPa)
#
#
# Indices 1 2 3 4 5 6 
#
# 1 168.4958 65.7000 33.0360 0.0000 0.0000 0.0000
# 2 65.7000 145.5198 15.8123 0.0000 0.0000 0.0000
# 3 33.0360 15.8123 56.3182 0.0000 0.0000 0.0000
# 4 0.0000 0.0000 0.0000 20.6236 0.0000 0.0000
# 5 0.0000 0.0000 0.0000 0.0000 11.9733 0.0000
# 6 0.0000 0.0000 0.0000 0.0000 0.0000 17.6112
#
#
#
# Elastic Compliance Matrix: (Units=1/GPa)
#
#
# Indices 1 2 3 4 5 6 
#
# 1 0.007902 -0.003160 -0.003748 0.000000 0.000000 0.000000
# 2 -0.003160 0.008352 -0.000491 0.000000 0.000000 0.000000
# 3 -0.003748 -0.000491 0.020093 0.000000 0.000000 0.000000
# 4 0.000000 0.000000 0.000000 0.048488 0.000000 0.000000
# 5 0.000000 0.000000 0.000000 0.000000 0.083519 0.000000
# 6 0.000000 0.000000 0.000000 0.000000 0.000000 0.056782
#
#
# Mechanical properties :
#
#
# Convention : Reuss Voigt Hill
#
# Bulk Modulus (GPa) = 46.40826 66.60336 56.50581
# Shear Modulus (GPa) = 20.23328 27.09399 23.66363
#
# Velocity S-wave (km/s) = 3.25061 3.76156 3.51538
# Velocity P-wave (km/s) = 6.19067 7.32449 6.78132
#
# Compressibility (1/GPa) = 0.02154789
#
# Stress axis : x y z
#
# Youngs Moduli (GPa) = 126.55026 119.72967 49.76935
#
# Poissons Ratio (x) = 0.37839 0.18653
# Poissons Ratio (y) = 0.39995 0.02444
# Poissons Ratio (z) = 0.47430 0.05881
#
# Static dielectric constant tensor:
#      x y z
#    x 3.524010 0.000000 0.000000 
#    y 0.000000 3.509270 0.000000 
#    z 0.000000 0.000000 3.213300 
# 
# 
# High freq. dielectric constant tensor:
#      x y z
#    x 1.730630 0.000000 0.000000 
#    y 0.000000 1.756530 0.000000 
#    z 0.000000 0.000000 1.724070 
# 
# From -- ./inp_files/2654.got.cif
#   From: 2010.06.25/outbox.cif.g09.slc.cpg/sg58_2_cif.got.tgz:2654.got - 2010.06.26 21:38:00.
