data_PCOD8235867
_publ_section_title
;
Structure prediction by ZEFSAII (Michael W. Deem and Ramdas Pophale) SiO2 
 PCOD8235867
Probable space group: P N N M
;
_chemical_formula_sum "Si O2"
_cell_formula_units_Z 48
_cell_length_a 9.115726
_cell_length_b 31.589328
_cell_length_c 9.125807
_cell_angle_alpha 90.000000
_cell_angle_beta 90.000000
_cell_angle_gamma 90.000000
_cell_volume 2627.864268
_symmetry_space_group_name_H-M "P N N M"
_symmetry_group_IT_number 58
_symmetry_cell_setting 'orthorhombic'
loop_
_space_group_symop_operation_xyz
x,y,z
-x,-y,z
1/2+x,1/2-y,1/2-z
1/2-x,1/2+y,1/2-z
-x,-y,-z
x,y,-z
1/2-x,1/2+y,1/2+z
1/2+x,1/2-y,1/2+z
loop_
_atom_site_type_symbol
_atom_site_label
_atom_site_fract_x
_atom_site_fract_y
_atom_site_fract_z
Si Si1 0.862634 0.864770 0.175528
Si Si2 0.640639 0.208440 0.330748
Si Si3 0.181954 0.954622 0.834217
Si Si4 0.166744 0.045101 0.163211
Si Si5 0.832214 0.127421 0.670287
Si Si6 0.834121 0.286773 0.672796
O O1 0.787719 0.909341 0.232458
O O2 0.758733 0.827044 0.228177
O O3 0.021409 0.858109 0.246691
O O4 0.883374 0.865900 0.000000
O O5 0.603330 0.215981 0.500000
O O6 0.710273 0.162774 0.302818
O O7 0.752626 0.244334 0.274886
O O8 0.492954 0.212121 0.241434
O O9 0.237394 0.916326 0.732524
O O10 0.007855 0.953429 0.839585
O O11 0.225506 0.001074 0.763572
O O12 0.243930 0.949184 0.000000
O O13 0.229741 0.042718 0.000000
O O14 0.869641 0.121558 0.500000
O O15 0.853384 0.287874 0.500000
#
# Coordination Sequence:
#
# PCOD8235867 Si02
#       6
#     8   8   8   8   8   8
#     4   9  17  31  51  74  98 124 160 203 241 280
#     4  10  22  37  51  72 102 129 155 196 245 286
#     4   8  13  24  43  66  93 126 161 196 237 278
#     4   7  11  22  42  67  94 122 153 197 244 275
#     4  10  19  30  46  71 102 132 161 194 237 286
#     4  10  21  36  55  76  95 123 164 200 234 287
#
# _framework density 18.265782999999999
#
# number of rings (size 3 to 8) (size 9 to 14) (size 15 to 20)
#    0.000    3.000    0.000    3.500    0.000    2.667 
#    0.000    6.667    0.000    1.000    0.000    7.000 
#    0.000    0.000    0.000    0.000    0.000    0.000 
#
# Total GULP energy -594635.623306 kJ/mol
# GULP energy per Si atom -12388.242152 kJ/mol
# Density = 1.822421 g / cm^3
# Si number density = 18.265783 Si / 1000 Ang^3
#
#
#
# Elastic Constant Matrix: (Units=GPa)
#
#
# Indices 1 2 3 4 5 6 
#
# 1 53.4216 14.5245 23.1292 0.0000 0.0000 0.0000
# 2 14.5245 116.1620 27.1705 0.0000 0.0000 0.0000
# 3 23.1292 27.1705 43.0810 0.0000 0.0000 0.0000
# 4 0.0000 0.0000 0.0000 17.7351 0.0000 0.0000
# 5 0.0000 0.0000 0.0000 0.0000 23.2343 0.0000
# 6 0.0000 0.0000 0.0000 0.0000 0.0000 20.1754
#
#
#
# Elastic Compliance Matrix: (Units=1/GPa)
#
#
# Indices 1 2 3 4 5 6 
#
# 1 0.024388 0.000015 -0.013103 0.000000 0.000000 0.000000
# 2 0.000015 0.010098 -0.006377 0.000000 0.000000 0.000000
# 3 -0.013103 -0.006377 0.034269 0.000000 0.000000 0.000000
# 4 0.000000 0.000000 0.000000 0.056385 0.000000 0.000000
# 5 0.000000 0.000000 0.000000 0.000000 0.043040 0.000000
# 6 0.000000 0.000000 0.000000 0.000000 0.000000 0.049565
#
#
# Mechanical properties :
#
#
# Convention : Reuss Voigt Hill
#
# Bulk Modulus (GPa) = 33.52835 38.03478 35.78156
# Shear Modulus (GPa) = 18.75348 22.08498 20.41923
#
# Velocity S-wave (km/s) = 3.20769 3.48097 3.34712
# Velocity P-wave (km/s) = 5.66699 6.08477 5.87959
#
# Compressibility (1/GPa) = 0.02982551
#
# Stress axis : x y z
#
# Youngs Moduli (GPa) = 41.00391 99.02598 29.18102
#
# Poissons Ratio (x) = -0.00153 0.38236
# Poissons Ratio (y) = -0.00063 0.18609
# Poissons Ratio (z) = 0.53728 0.63151
#
# Static dielectric constant tensor:
#      x y z
#    x 2.891610 0.000000 0.000000 
#    y 0.000000 4.289230 0.000000 
#    z 0.000000 0.000000 3.170050 
# 
# 
# High freq. dielectric constant tensor:
#      x y z
#    x 1.662040 0.000000 0.000000 
#    y 0.000000 1.743310 0.000000 
#    z 0.000000 0.000000 1.679160 
# 
# From -- ./inp_files/2984.got.cif
#   From: 2010.06.25/outbox.cif.g09.slc.cpg/sg58_2_cif.got.tgz:2984.got - 2010.06.26 21:38:00.
