data_PCOD8235571
_publ_section_title
;
Structure prediction by ZEFSAII (Michael W. Deem and Ramdas Pophale) SiO2 
 PCOD8235571
Probable space group: P N N M
;
_chemical_formula_sum "Si O2"
_cell_formula_units_Z 48
_cell_length_a 16.436882
_cell_length_b 18.187582
_cell_length_c 9.242554
_cell_angle_alpha 90.000000
_cell_angle_beta 90.000000
_cell_angle_gamma 90.000000
_cell_volume 2763.035077
_symmetry_space_group_name_H-M "P N N M"
_symmetry_group_IT_number 58
_symmetry_cell_setting 'orthorhombic'
loop_
_space_group_symop_operation_xyz
x,y,z
-x,-y,z
1/2+x,1/2-y,1/2-z
1/2-x,1/2+y,1/2-z
-x,-y,-z
x,y,-z
1/2-x,1/2+y,1/2+z
1/2+x,1/2-y,1/2+z
loop_
_atom_site_type_symbol
_atom_site_label
_atom_site_fract_x
_atom_site_fract_y
_atom_site_fract_z
Si Si1 0.836509 0.663556 0.668821
Si Si2 0.329377 0.413524 0.668274
Si Si3 0.644070 0.326352 0.830146
Si Si4 0.915059 0.532179 0.168600
Si Si5 0.749496 0.957082 0.332539
Si Si6 0.987813 0.084995 0.670171
O O1 0.857986 0.658919 0.500000
O O2 0.742461 0.644418 0.696414
O O3 0.850087 0.744699 0.736604
O O4 0.896135 0.607525 0.749475
O O5 0.347142 0.424773 0.500000
O O6 0.305599 0.491456 0.735676
O O7 0.409664 0.382930 0.746554
O O8 0.725690 0.373318 0.793455
O O9 0.564899 0.368977 0.771871
O O10 0.636585 0.316762 0.000000
O O11 0.845655 0.470880 0.199521
O O12 0.000000 0.500000 0.227071
O O13 0.920884 0.551158 0.000000
O O14 0.770529 0.974380 0.500000
O O15 0.974486 0.095189 0.500000
O O16 0.000000 0.000000 0.710919
#
# Coordination Sequence:
#
# PCOD8235571 Si02
#       6
#     8   8   8   8   8   8
#     4   9  19  35  52  71  99 135 167 201 250 301
#     4  10  19  31  48  74 103 129 159 199 249 297
#     4   9  17  32  52  72  95 130 172 205 237 292
#     4   9  18  33  53  78 100 126 169 214 249 288
#     4   9  16  31  54  71  92 131 171 202 237 292
#     4  10  18  31  53  76  96 128 173 205 234 291
#
# _framework density 17.372201
#
# number of rings (size 3 to 8) (size 9 to 14) (size 15 to 20)
#    0.000    2.667    1.667    0.500    0.000    1.333 
#    3.000    1.667    0.000    0.000    0.000    0.000 
#    0.000    0.000    0.000    0.000    0.000    0.000 
#
# Total GULP energy -595112.375558 kJ/mol
# GULP energy per Si atom -12398.174491 kJ/mol
# Density = 1.733266 g / cm^3
# Si number density = 17.372201 Si / 1000 Ang^3
#
#
#
# Elastic Constant Matrix: (Units=GPa)
#
#
# Indices 1 2 3 4 5 6 
#
# 1 136.3671 80.9551 41.7909 0.0000 0.0000 0.0000
# 2 80.9551 150.8834 39.3049 0.0000 0.0000 0.0000
# 3 41.7909 39.3049 43.1676 0.0000 0.0000 0.0000
# 4 0.0000 0.0000 0.0000 19.2806 0.0000 0.0000
# 5 0.0000 0.0000 0.0000 0.0000 24.1901 0.0000
# 6 0.0000 0.0000 0.0000 0.0000 0.0000 23.2631
#
#
#
# Elastic Compliance Matrix: (Units=1/GPa)
#
#
# Indices 1 2 3 4 5 6 
#
# 1 0.012513 -0.004664 -0.007867 0.000000 0.000000 0.000000
# 2 -0.004664 0.010427 -0.004978 0.000000 0.000000 0.000000
# 3 -0.007867 -0.004978 0.035315 0.000000 0.000000 0.000000
# 4 0.000000 0.000000 0.000000 0.051866 0.000000 0.000000
# 5 0.000000 0.000000 0.000000 0.000000 0.041339 0.000000
# 6 0.000000 0.000000 0.000000 0.000000 0.000000 0.042987
#
#
# Mechanical properties :
#
#
# Convention : Reuss Voigt Hill
#
# Bulk Modulus (GPa) = 43.03829 72.72444 57.88137
# Shear Modulus (GPa) = 21.07826 24.57122 22.82474
#
# Velocity S-wave (km/s) = 3.48707 3.76493 3.62866
# Velocity P-wave (km/s) = 6.40632 7.80083 7.13771
#
# Compressibility (1/GPa) = 0.02323512
#
# Stress axis : x y z
#
# Youngs Moduli (GPa) = 79.91585 95.90312 28.31691
#
# Poissons Ratio (x) = 0.44734 0.22277
# Poissons Ratio (y) = 0.37277 0.14097
# Poissons Ratio (z) = 0.62870 0.47745
#
# Static dielectric constant tensor:
#      x y z
#    x 3.401220 0.000000 0.000000 
#    y 0.000000 3.306300 0.000000 
#    z 0.000000 0.000000 3.075920 
# 
# 
# High freq. dielectric constant tensor:
#      x y z
#    x 1.677050 0.000000 0.000000 
#    y 0.000000 1.659200 0.000000 
#    z 0.000000 0.000000 1.651660 
# 
# From -- ./inp_files/7848.got.cif
#   From: 2010.06.25/outbox.cif.g09.slc.cpg/sg58_4_cif.got.tgz:7848.got - 2010.06.26 21:38:00.
