data_PCOD8235881
_publ_section_title
;
Structure prediction by ZEFSAII (Michael W. Deem and Ramdas Pophale) SiO2 
 PCOD8235881
Probable space group: P N N M
;
_chemical_formula_sum "Si O2"
_cell_formula_units_Z 48
_cell_length_a 16.563208
_cell_length_b 18.083956
_cell_length_c 9.298503
_cell_angle_alpha 90.000000
_cell_angle_beta 90.000000
_cell_angle_gamma 90.000000
_cell_volume 2785.165026
_symmetry_space_group_name_H-M "P N N M"
_symmetry_group_IT_number 58
_symmetry_cell_setting 'orthorhombic'
loop_
_space_group_symop_operation_xyz
x,y,z
-x,-y,z
1/2+x,1/2-y,1/2-z
1/2-x,1/2+y,1/2-z
-x,-y,-z
x,y,-z
1/2-x,1/2+y,1/2+z
1/2+x,1/2-y,1/2+z
loop_
_atom_site_type_symbol
_atom_site_label
_atom_site_fract_x
_atom_site_fract_y
_atom_site_fract_z
Si Si1 0.081085 0.453059 0.338111
Si Si2 0.496140 0.165760 0.666681
Si Si3 0.517302 0.335821 0.331368
Si Si4 0.076492 0.947270 0.657734
Si Si5 0.159907 0.575066 0.833555
Si Si6 0.159933 0.089289 0.332558
O O1 0.109818 0.436086 0.500000
O O2 0.149590 0.500119 0.257650
O O3 0.000000 0.500000 0.335646
O O4 0.065275 0.375927 0.256970
O O5 0.514904 0.151611 0.500000
O O6 0.499658 0.251342 0.706799
O O7 0.406987 0.136169 0.707395
O O8 0.523124 0.350516 0.500000
O O9 0.440995 0.382061 0.270551
O O10 0.602188 0.358613 0.260913
O O11 0.094176 0.912497 0.500000
O O12 0.149067 0.001792 0.706741
O O13 0.000000 0.000000 0.648460
O O14 0.247392 0.610219 0.799138
O O15 0.153246 0.552356 0.000000
O O16 0.137961 0.101766 0.500000
#
# Coordination Sequence:
#
# PCOD8235881 Si02
#       6
#     8   8   8   8   8   8
#     4   9  17  29  47  71  94 117 151 192 231 273
#     4   9  18  32  49  69  94 126 160 191 230 283
#     4  10  19  30  47  71  97 125 158 195 234 279
#     4   8  15  29  47  66  88 116 153 191 229 280
#     4   9  17  32  52  69  91 125 161 196 235 282
#     4   9  18  32  50  70  92 123 161 198 239 285
#
# _framework density 17.234166999999999
#
# number of rings (size 3 to 8) (size 9 to 14) (size 15 to 20)
#    0.000    3.000    0.000    2.000    0.000    7.000 
#    0.000    1.667    0.000    4.000    0.000    0.000 
#    0.000    0.000    0.000    0.000    0.000    0.000 
#
# Total GULP energy -595012.068048 kJ/mol
# GULP energy per Si atom -12396.084751 kJ/mol
# Density = 1.719494 g / cm^3
# Si number density = 17.234167 Si / 1000 Ang^3
#
#
#
# Elastic Constant Matrix: (Units=GPa)
#
#
# Indices 1 2 3 4 5 6 
#
# 1 75.7569 44.6547 40.5694 0.0000 0.0000 0.0000
# 2 44.6547 120.3147 68.4557 0.0000 0.0000 0.0000
# 3 40.5694 68.4557 93.4027 0.0000 0.0000 0.0000
# 4 0.0000 0.0000 0.0000 28.6196 0.0000 0.0000
# 5 0.0000 0.0000 0.0000 0.0000 19.4496 0.0000
# 6 0.0000 0.0000 0.0000 0.0000 0.0000 18.3099
#
#
#
# Elastic Compliance Matrix: (Units=1/GPa)
#
#
# Indices 1 2 3 4 5 6 
#
# 1 0.018195 -0.003870 -0.005066 0.000000 0.000000 0.000000
# 2 -0.003870 0.015080 -0.009371 0.000000 0.000000 0.000000
# 3 -0.005066 -0.009371 0.019775 0.000000 0.000000 0.000000
# 4 0.000000 0.000000 0.000000 0.034941 0.000000 0.000000
# 5 0.000000 0.000000 0.000000 0.000000 0.051415 0.000000
# 6 0.000000 0.000000 0.000000 0.000000 0.000000 0.054615
#
#
# Mechanical properties :
#
#
# Convention : Reuss Voigt Hill
#
# Bulk Modulus (GPa) = 60.84893 66.31489 63.58191
# Shear Modulus (GPa) = 21.17621 22.32879 21.75250
#
# Velocity S-wave (km/s) = 3.50913 3.60337 3.55656
# Velocity P-wave (km/s) = 7.19739 7.47493 7.33747
#
# Compressibility (1/GPa) = 0.01643414
#
# Stress axis : x y z
#
# Youngs Moduli (GPa) = 54.96158 66.31340 50.56898
#
# Poissons Ratio (x) = 0.25666 0.25619
# Poissons Ratio (y) = 0.21272 0.47389
# Poissons Ratio (z) = 0.27844 0.62143
#
# Static dielectric constant tensor:
#      x y z
#    x 3.264360 0.000000 0.000000 
#    y 0.000000 3.221060 0.000000 
#    z 0.000000 0.000000 3.288500 
# 
# 
# High freq. dielectric constant tensor:
#      x y z
#    x 1.646560 0.000000 0.000000 
#    y 0.000000 1.650750 0.000000 
#    z 0.000000 0.000000 1.667870 
# 
# From -- ./inp_files/7868.got.cif
#   From: 2010.06.25/outbox.cif.g09.slc.cpg/sg58_4_cif.got.tgz:7868.got - 2010.06.26 21:38:00.
