data_PCOD8235855
_publ_section_title
;
Structure prediction by ZEFSAII (Michael W. Deem and Ramdas Pophale) SiO2 
 PCOD8235855
Probable space group: P N N M
;
_chemical_formula_sum "Si O2"
_cell_formula_units_Z 56
_cell_length_a 8.840563
_cell_length_b 18.401947
_cell_length_c 18.673456
_cell_angle_alpha 90.000000
_cell_angle_beta 90.000000
_cell_angle_gamma 90.000000
_cell_volume 3037.864519
_symmetry_space_group_name_H-M "P N N M"
_symmetry_group_IT_number 58
_symmetry_cell_setting 'orthorhombic'
loop_
_space_group_symop_operation_xyz
x,y,z
-x,-y,z
1/2+x,1/2-y,1/2-z
1/2-x,1/2+y,1/2-z
-x,-y,-z
x,y,-z
1/2-x,1/2+y,1/2+z
1/2+x,1/2-y,1/2+z
loop_
_atom_site_type_symbol
_atom_site_label
_atom_site_fract_x
_atom_site_fract_y
_atom_site_fract_z
Si Si1 0.358249 0.838445 0.712605
Si Si2 0.701459 0.695846 0.079213
Si Si3 0.902768 0.722890 0.416478
Si Si4 0.129975 0.767257 0.822837
Si Si5 0.600536 0.338721 0.581194
Si Si6 0.823337 0.991488 0.078196
Si Si7 0.904415 0.571922 0.339995
O O1 0.278613 0.858418 0.636824
O O2 0.230494 0.793529 0.755965
O O3 0.516439 0.795777 0.702579
O O4 0.399202 0.912462 0.754801
O O5 0.528964 0.715547 0.097421
O O6 0.793458 0.769827 0.083725
O O7 0.714396 0.660702 0.000000
O O8 0.880701 0.707549 0.500000
O O9 0.750345 0.757973 0.383360
O O10 0.952429 0.646656 0.379244
O O11 0.033627 0.831282 0.860741
O O12 0.535003 0.349712 0.500000
O O13 0.705026 0.407851 0.602428
O O14 0.762540 0.050413 0.133976
O O15 0.748914 0.005386 0.000000
O O16 0.000000 0.000000 0.073697
O O17 0.000000 0.500000 0.359152
#
# Coordination Sequence:
#
# PCOD8235855 Si02
#       7
#     8   8   8   8   8   8   8
#     4  10  20  34  49  70  98 131 171 211 254 298
#     4   9  18  33  53  73  92 118 158 209 261 301
#     4  10  19  32  52  79 104 128 163 206 253 306
#     4  10  19  31  50  72 101 134 168 211 257 295
#     4   9  17  30  48  71 100 132 164 199 241 293
#     4  10  19  30  45  68 100 137 170 195 226 279
#     4  11  22  33  47  70 106 144 172 196 233 292
#
# _framework density 18.434002
#
# number of rings (size 3 to 8) (size 9 to 14) (size 15 to 20)
#    0.000    2.143    0.000    5.143    0.000    5.143 
#    0.000    1.429    0.000    0.429    0.000    0.000 
#    0.000    7.429    0.000    0.000    0.000    0.000 
#
# Total GULP energy -693767.672281 kJ/mol
# GULP energy per Si atom -12388.708434 kJ/mol
# Density = 1.839205 g / cm^3
# Si number density = 18.434002 Si / 1000 Ang^3
#
#
#
# Elastic Constant Matrix: (Units=GPa)
#
#
# Indices 1 2 3 4 5 6 
#
# 1 82.5415 14.4455 39.5278 0.0000 0.0000 0.0000
# 2 14.4455 37.8362 28.5437 0.0000 0.0000 0.0000
# 3 39.5278 28.5437 109.6920 0.0000 0.0000 0.0000
# 4 0.0000 0.0000 0.0000 19.7371 0.0000 0.0000
# 5 0.0000 0.0000 0.0000 0.0000 21.6610 0.0000
# 6 0.0000 0.0000 0.0000 0.0000 0.0000 23.5636
#
#
#
# Elastic Compliance Matrix: (Units=1/GPa)
#
#
# Indices 1 2 3 4 5 6 
#
# 1 0.014765 -0.002020 -0.004795 0.000000 0.000000 0.000000
# 2 -0.002020 0.033162 -0.007901 0.000000 0.000000 0.000000
# 3 -0.004795 -0.007901 0.012900 0.000000 0.000000 0.000000
# 4 0.000000 0.000000 0.000000 0.050666 0.000000 0.000000
# 5 0.000000 0.000000 0.000000 0.000000 0.046166 0.000000
# 6 0.000000 0.000000 0.000000 0.000000 0.000000 0.042438
#
#
# Mechanical properties :
#
#
# Convention : Reuss Voigt Hill
#
# Bulk Modulus (GPa) = 31.85255 43.90042 37.87649
# Shear Modulus (GPa) = 20.83381 22.82917 21.83149
#
# Velocity S-wave (km/s) = 3.36547 3.52295 3.44511
# Velocity P-wave (km/s) = 5.69373 6.35727 6.03463
#
# Compressibility (1/GPa) = 0.03139466
#
# Stress axis : x y z
#
# Youngs Moduli (GPa) = 67.72848 30.15526 77.51692
#
# Poissons Ratio (x) = 0.06091 0.37169
# Poissons Ratio (y) = 0.13679 0.61249
# Poissons Ratio (z) = 0.32476 0.23827
#
# Static dielectric constant tensor:
#      x y z
#    x 3.583030 0.000000 0.000000 
#    y 0.000000 3.661350 0.000000 
#    z 0.000000 0.000000 3.854030 
# 
# 
# High freq. dielectric constant tensor:
#      x y z
#    x 1.728600 0.000000 0.000000 
#    y 0.000000 1.664410 0.000000 
#    z 0.000000 0.000000 1.719230 
# 
# From -- ./inp_files/25624.got.cif
#   From: 2010.06.25/outbox.cif.g09.slc.cpg/sg58_13_cif.got.tgz:25624.got - 2010.06.26 21:38:00.
