data_PCOD8235190
_publ_section_title
;
Structure prediction by ZEFSAII (Michael W. Deem and Ramdas Pophale) SiO2 
 PCOD8235190
Probable space group: P B C M
;
_chemical_formula_sum "Si O2"
_cell_formula_units_Z 64
_cell_length_a 24.000000
_cell_length_b 15.000000
_cell_length_c 9.000000
_cell_angle_alpha 90.000000
_cell_angle_beta 90.000000
_cell_angle_gamma 90.000000
_cell_volume 3240.000000
_symmetry_space_group_name_H-M "P B C M"
_symmetry_group_IT_number 57
_symmetry_cell_setting 'orthorhombic'
loop_
_space_group_symop_operation_xyz
x,y,z
-x,-y,1/2+z
x,1/2-y,-z
-x,1/2+y,1/2-z
-x,-y,-z
x,y,1/2-z
-x,1/2+y,z
x,1/2-y,1/2+z
loop_
_atom_site_type_symbol
_atom_site_label
_atom_site_fract_x
_atom_site_fract_y
_atom_site_fract_z
Si Si1 0.886552 0.835765 0.584241
Si Si2 0.572711 0.977442 0.418690
Si Si3 0.865468 0.339035 0.578808
Si Si4 0.700896 0.502965 0.579479
Si Si5 0.492059 0.652064 0.425455
Si Si6 0.248347 0.656551 0.572591
Si Si7 0.754908 0.663601 0.083094
Si Si8 0.058078 0.494316 0.080554
O O1 0.911812 0.750000 0.500000
O O2 0.912214 0.839099 0.750000
O O3 0.820720 0.828319 0.592911
O O4 0.901819 0.924142 0.496582
O O5 0.551951 0.962672 0.250000
O O6 0.547887 0.897914 0.519167
O O7 0.638090 0.964458 0.432904
O O8 0.556255 0.079282 0.466748
O O9 0.887956 0.250000 0.500000
O O10 0.848680 0.319428 0.750000
O O11 0.811702 0.374269 0.489325
O O12 0.914434 0.409386 0.568723
O O13 0.718328 0.484815 0.750000
O O14 0.706312 0.414108 0.481866
O O15 0.740838 0.577375 0.512337
O O16 0.482508 0.750000 0.500000
O O17 0.495615 0.669285 0.250000
O O18 0.265389 0.750000 0.500000
O O19 0.247708 0.662700 0.750000
O O20 0.729778 0.657467 0.250000
O O21 0.729744 0.750000 0.000000
O O22 0.049095 0.465298 0.250000
O O23 0.000000 0.500000 0.000000
#
# Coordination Sequence:
#
# PCOD8235190 Si02
#       8
#     8   8   8   8   8   8   8   8
#     4  10  21  38  60  83 110 144 184 229 276 330
#     4   9  21  39  57  82 113 147 188 231 277 328
#     4  10  21  38  60  84 110 145 186 229 277 329
#     4  11  22  37  57  83 118 152 185 231 280 329
#     4  10  20  37  61  84 109 144 187 233 280 331
#     4  11  22  37  58  84 114 149 188 228 274 331
#     4  10  21  37  58  85 114 149 190 229 275 331
#     4  11  24  39  57  82 112 145 184 229 279 333
#
# _framework density 19.753086
#
# number of rings (size 3 to 8) (size 9 to 14) (size 15 to 20)
#    0.000    1.750    0.000    4.875    0.000    8.500 
#    0.000    2.500    0.000    0.000    0.000    0.000 
#    0.000    0.000    0.000    0.000    0.000    0.000 
#
# Total GULP energy -793598.201666 kJ/mol
# GULP energy per Si atom -12399.971901 kJ/mol
# Density = 1.970813 g / cm^3
# Si number density = 19.753086 Si / 1000 Ang^3
#
#
#
# Elastic Constant Matrix: (Units=GPa)
#
#
# Indices 1 2 3 4 5 6 
#
# 1 27.5293 15.6384 29.0078 0.0000 0.0000 0.0000
# 2 15.6384 113.0642 57.7188 0.0000 0.0000 0.0000
# 3 29.0078 57.7188 172.5457 0.0000 0.0000 0.0000
# 4 0.0000 0.0000 0.0000 42.0540 0.0000 0.0000
# 5 0.0000 0.0000 0.0000 0.0000 24.9165 0.0000
# 6 0.0000 0.0000 0.0000 0.0000 0.0000 11.2520
#
#
#
# Elastic Compliance Matrix: (Units=1/GPa)
#
#
# Indices 1 2 3 4 5 6 
#
# 1 0.044890 -0.002842 -0.006596 0.000000 0.000000 0.000000
# 2 -0.002842 0.010846 -0.003150 0.000000 0.000000 0.000000
# 3 -0.006596 -0.003150 0.007958 0.000000 0.000000 0.000000
# 4 0.000000 0.000000 0.000000 0.023779 0.000000 0.000000
# 5 0.000000 0.000000 0.000000 0.000000 0.040134 0.000000
# 6 0.000000 0.000000 0.000000 0.000000 0.000000 0.088873
#
#
# Mechanical properties :
#
#
# Convention : Reuss Voigt Hill
#
# Bulk Modulus (GPa) = 25.96218 57.54102 41.75160
# Shear Modulus (GPa) = 19.64675 29.69612 24.67144
#
# Velocity S-wave (km/s) = 3.15718 3.88153 3.53794
# Velocity P-wave (km/s) = 5.14415 7.02010 6.15402
#
# Compressibility (1/GPa) = 0.03851756
#
# Stress axis : x y z
#
# Youngs Moduli (GPa) = 22.27691 92.20154 125.65453
#
# Poissons Ratio (x) = 0.26199 0.82884
# Poissons Ratio (y) = 0.06330 0.39586
# Poissons Ratio (z) = 0.14694 0.29047
#
# Static dielectric constant tensor:
#      x y z
#    x 3.329420 0.000000 0.000000 
#    y 0.000000 3.307830 0.000000 
#    z 0.000000 0.000000 4.046030 
# 
# 
# High freq. dielectric constant tensor:
#      x y z
#    x 1.748820 0.000000 0.000000 
#    y 0.000000 1.784210 0.000000 
#    z 0.000000 0.000000 1.793390 
# 
# From -- ./inp_files/9272.got.cif
#   From: 2010.03.12/outbox.ucp.g09.slc.cvg/sg57_5_cif.got.tgz:9272.got - 2010.05.04 19:26:41.
