data_PCOD8235608
_publ_section_title
;
Structure prediction by ZEFSAII (Michael W. Deem and Ramdas Pophale) SiO2 
 PCOD8235608
Probable space group: P N N M
;
_chemical_formula_sum "Si O2"
_cell_formula_units_Z 64
_cell_length_a 14.320945
_cell_length_b 29.964141
_cell_length_c 9.046089
_cell_angle_alpha 90.000000
_cell_angle_beta 90.000000
_cell_angle_gamma 90.000000
_cell_volume 3881.810810
_symmetry_space_group_name_H-M "P N N M"
_symmetry_group_IT_number 58
_symmetry_cell_setting 'orthorhombic'
loop_
_space_group_symop_operation_xyz
x,y,z
-x,-y,z
1/2+x,1/2-y,1/2-z
1/2-x,1/2+y,1/2-z
-x,-y,-z
x,y,-z
1/2-x,1/2+y,1/2+z
1/2+x,1/2-y,1/2+z
loop_
_atom_site_type_symbol
_atom_site_label
_atom_site_fract_x
_atom_site_fract_y
_atom_site_fract_z
Si Si1 0.299396 0.629822 0.826749
Si Si2 0.331800 0.195949 0.176084
Si Si3 0.168545 0.868085 0.666459
Si Si4 0.721488 0.216409 0.324777
Si Si5 0.103826 0.948980 0.171526
Si Si6 0.016609 0.183278 0.334413
Si Si7 0.009322 0.271825 0.826180
Si Si8 0.891096 0.949925 0.172842
O O1 0.211584 0.650831 0.742212
O O2 0.385918 0.661721 0.790237
O O3 0.320246 0.580673 0.764845
O O4 0.278224 0.626527 0.000000
O O5 0.274298 0.239350 0.234756
O O6 0.437268 0.197443 0.237030
O O7 0.332311 0.193242 0.000000
O O8 0.202877 0.876513 0.500000
O O9 0.230781 0.828585 0.739359
O O10 0.176186 0.914883 0.751959
O O11 0.060495 0.854819 0.672703
O O12 0.732522 0.216727 0.500000
O O13 0.614022 0.215863 0.275078
O O14 0.997414 0.942889 0.228194
O O15 0.138794 0.999052 0.203733
O O16 0.105836 0.938402 0.000000
O O17 0.019472 0.204171 0.500000
O O18 0.990667 0.220629 0.215652
O O19 0.994850 0.278517 0.000000
O O20 0.882832 0.938356 0.000000
#
# Coordination Sequence:
#
# PCOD8235608 Si02
#       8
#     8   8   8   8   8   8   8   8
#     4  11  21  32  48  75 102 130 172 211 241 289
#     4  11  21  36  52  70  99 135 167 203 252 297
#     4  10  18  32  49  69  97 134 169 201 245 293
#     4   9  19  33  49  68  96 131 166 199 242 294
#     4   9  18  31  47  71 100 130 166 204 244 298
#     4  10  19  30  46  70 102 133 164 205 245 285
#     4  11  21  34  50  71  96 130 172 210 242 286
#     4   9  18  32  48  68 100 136 164 198 250 301
#
# _framework density 16.487151000000001
#
# number of rings (size 3 to 8) (size 9 to 14) (size 15 to 20)
#    0.000    2.000    3.750    1.875    0.000    1.500 
#    0.000    2.500    0.000    0.000    0.000    0.875 
#    0.000    7.000    0.000    0.000    0.000    0.000 
#
# Total GULP energy -793553.818662 kJ/mol
# GULP energy per Si atom -12399.278417 kJ/mol
# Density = 1.644963 g / cm^3
# Si number density = 16.487151 Si / 1000 Ang^3
#
#
#
# Elastic Constant Matrix: (Units=GPa)
#
#
# Indices 1 2 3 4 5 6 
#
# 1 65.2133 26.6032 23.1130 0.0000 0.0000 0.0000
# 2 26.6032 97.2337 37.4163 0.0000 0.0000 0.0000
# 3 23.1130 37.4163 57.2386 0.0000 0.0000 0.0000
# 4 0.0000 0.0000 0.0000 29.8812 0.0000 0.0000
# 5 0.0000 0.0000 0.0000 0.0000 22.5535 0.0000
# 6 0.0000 0.0000 0.0000 0.0000 0.0000 26.1707
#
#
#
# Elastic Compliance Matrix: (Units=1/GPa)
#
#
# Indices 1 2 3 4 5 6 
#
# 1 0.018496 -0.002921 -0.005559 0.000000 0.000000 0.000000
# 2 -0.002921 0.014202 -0.008104 0.000000 0.000000 0.000000
# 3 -0.005559 -0.008104 0.025013 0.000000 0.000000 0.000000
# 4 0.000000 0.000000 0.000000 0.033466 0.000000 0.000000
# 5 0.000000 0.000000 0.000000 0.000000 0.044339 0.000000
# 6 0.000000 0.000000 0.000000 0.000000 0.000000 0.038211
#
#
# Mechanical properties :
#
#
# Convention : Reuss Voigt Hill
#
# Bulk Modulus (GPa) = 40.74606 43.77228 42.25917
# Shear Modulus (GPa) = 23.24740 24.55797 23.90268
#
# Velocity S-wave (km/s) = 3.75911 3.86362 3.81172
# Velocity P-wave (km/s) = 6.60369 6.81985 6.71264
#
# Compressibility (1/GPa) = 0.02454225
#
# Stress axis : x y z
#
# Youngs Moduli (GPa) = 54.06478 70.41065 39.97887
#
# Poissons Ratio (x) = 0.20570 0.22225
# Poissons Ratio (y) = 0.15794 0.32400
# Poissons Ratio (z) = 0.30055 0.57063
#
# Static dielectric constant tensor:
#      x y z
#    x 3.014350 0.000000 0.000000 
#    y 0.000000 3.057030 0.000000 
#    z 0.000000 0.000000 3.031320 
# 
# 
# High freq. dielectric constant tensor:
#      x y z
#    x 1.609540 0.000000 0.000000 
#    y 0.000000 1.625300 0.000000 
#    z 0.000000 0.000000 1.629370 
# 
# From -- ./inp_files/7155.got.cif
#   From: 2010.06.25/outbox.cif.g09.slc.cpg/sg58_4_cif.got.tgz:7155.got - 2010.06.26 21:38:00.
