data_PCOD8235186
_publ_section_title
;
Structure prediction by ZEFSAII (Michael W. Deem and Ramdas Pophale) SiO2 
 PCOD8235186
Probable space group: P B C M
;
_chemical_formula_sum "Si O2"
_cell_formula_units_Z 64
_cell_length_a 21.000000
_cell_length_b 21.000000
_cell_length_c 9.000000
_cell_angle_alpha 90.000000
_cell_angle_beta 90.000000
_cell_angle_gamma 90.000000
_cell_volume 3969.000000
_symmetry_space_group_name_H-M "P B C M"
_symmetry_group_IT_number 57
_symmetry_cell_setting 'orthorhombic'
loop_
_space_group_symop_operation_xyz
x,y,z
-x,-y,1/2+z
x,1/2-y,-z
-x,1/2+y,1/2-z
-x,-y,-z
x,y,1/2-z
-x,1/2+y,z
x,1/2-y,1/2+z
loop_
_atom_site_type_symbol
_atom_site_label
_atom_site_fract_x
_atom_site_fract_y
_atom_site_fract_z
Si Si1 0.179648 0.577308 0.419587
Si Si2 0.904690 0.988354 0.915982
Si Si3 0.695293 0.417260 0.081292
Si Si4 0.079006 0.814028 0.921372
Si Si5 0.510055 0.906004 0.413510
Si Si6 0.590034 0.187110 0.582446
Si Si7 0.990461 0.598377 0.583427
Si Si8 0.404833 0.014280 0.412769
O O1 0.176985 0.556592 0.250000
O O2 0.159621 0.515893 0.514333
O O3 0.249270 0.597807 0.467408
O O4 0.135321 0.637100 0.451090
O O5 0.890861 0.965470 0.750000
O O6 0.925967 0.927008 0.009291
O O7 0.957890 0.042646 0.920795
O O8 0.719719 0.428466 0.250000
O O9 0.651447 0.356223 0.076998
O O10 0.656815 0.478842 0.020305
O O11 0.066333 0.800974 0.750000
O O12 0.100723 0.750000 0.000000
O O13 0.014100 0.840613 0.992171
O O14 0.530774 0.885156 0.250000
O O15 0.471229 0.848265 0.491478
O O16 0.575349 0.923168 0.496458
O O17 0.463550 0.966103 0.404737
O O18 0.608756 0.250000 0.500000
O O19 0.571900 0.203689 0.750000
O O20 0.975632 0.620298 0.750000
O O21 0.387159 0.038527 0.250000
#
# Coordination Sequence:
#
# PCOD8235186 Si02
#       8
#     8   8   8   8   8   8   8   8
#     4  10  20  31  43  61  84 112 148 183 212 248
#     4   9  16  27  44  63  83 108 136 170 215 258
#     4   9  18  31  43  57  82 113 143 176 212 248
#     4  10  20  32  44  60  84 114 148 182 214 250
#     4   8  14  25  40  58  79 101 128 167 212 251
#     4   9  18  30  42  58  82 112 144 176 209 246
#     4   9  16  27  44  64  84 106 135 173 215 256
#     4   8  14  25  41  59  77 100 131 167 209 254
#
# _framework density 16.124969
#
# number of rings (size 3 to 8) (size 9 to 14) (size 15 to 20)
#    0.000    3.000    0.000    3.000    0.000    6.500 
#    0.000    5.000    0.000    0.000    0.000    0.000 
#    0.000    1.000    0.000    7.000    0.000    6.625 
#
# Total GULP energy -793022.877225 kJ/mol
# GULP energy per Si atom -12390.982457 kJ/mol
# Density = 1.608827 g / cm^3
# Si number density = 16.124969 Si / 1000 Ang^3
#
#
#
# Elastic Constant Matrix: (Units=GPa)
#
#
# Indices 1 2 3 4 5 6 
#
# 1 26.5818 44.3252 57.7241 0.0000 0.0000 0.0000
# 2 44.3252 22.6175 43.0262 0.0000 0.0000 0.0000
# 3 57.7241 43.0262 69.3476 0.0000 0.0000 0.0000
# 4 0.0000 0.0000 0.0000 22.4216 0.0000 0.0000
# 5 0.0000 0.0000 0.0000 0.0000 22.2539 0.0000
# 6 0.0000 0.0000 0.0000 0.0000 0.0000 34.2784
#
#
#
# Elastic Compliance Matrix: (Units=1/GPa)
#
#
# Indices 1 2 3 4 5 6 
#
# 1 -0.269936 -0.563380 0.574237 0.000000 0.000000 0.000000
# 2 -0.563380 -1.421054 1.350634 0.000000 0.000000 0.000000
# 3 0.574237 1.350634 -1.301559 0.000000 0.000000 0.000000
# 4 0.000000 0.000000 0.000000 0.044600 0.000000 0.000000
# 5 0.000000 0.000000 0.000000 0.000000 0.044936 0.000000
# 6 0.000000 0.000000 0.000000 0.000000 0.000000 0.029173
#
#
# Mechanical properties :
#
#
# Convention : Reuss Voigt Hill
#
# Bulk Modulus (GPa) = -3.70964 45.41088 20.85062
# Shear Modulus (GPa) = -0.87925 14.02218 6.57147
#
# Velocity S-wave (km/s) = -0.73923 2.95209 2.02094
# Velocity P-wave (km/s) = 1.74188 6.31211 4.29002
#
# Compressibility (1/GPa) = -0.26956810
#
# Stress axis : x y z
#
# Youngs Moduli (GPa) = -3.70458 -0.70370 -0.76831
#
# Poissons Ratio (x) = -0.39645 0.44119
# Poissons Ratio (y) = -2.08709 1.03770
# Poissons Ratio (z) = 2.12731 0.95045
#
# Static dielectric constant tensor:
#      x y z
#    x 2.816000 0.000000 0.000000 
#    y 0.000000 2.836340 0.000000 
#    z 0.000000 0.000000 3.170180 
# 
# 
# High freq. dielectric constant tensor:
#      x y z
#    x 1.581400 0.000000 0.000000 
#    y 0.000000 1.580470 0.000000 
#    z 0.000000 0.000000 1.618420 
# 
# From -- ./inp_files/8725.got.cif
#   From: 2010.03.12/outbox.ucp.g09.slc.cvg/sg57_5_cif.got.tgz:8725.got - 2010.05.04 19:26:41.
