data_PCOD8235132
_publ_section_title
;
Structure prediction by ZEFSAII (Michael W. Deem and Ramdas Pophale) SiO2 
 PCOD8235132
Probable space group: P B C M
;
_chemical_formula_sum "Si O2"
_cell_formula_units_Z 28
_cell_length_a 7.254851
_cell_length_b 13.903975
_cell_length_c 13.798108
_cell_angle_alpha 90.000000
_cell_angle_beta 90.000000
_cell_angle_gamma 90.000000
_cell_volume 1391.832635
_symmetry_space_group_name_H-M "P B C M"
_symmetry_group_IT_number 57
_symmetry_cell_setting 'orthorhombic'
loop_
_space_group_symop_operation_xyz
x,y,z
-x,-y,1/2+z
x,1/2-y,-z
-x,1/2+y,1/2-z
-x,-y,-z
x,y,1/2-z
-x,1/2+y,z
x,1/2-y,1/2+z
loop_
_atom_site_type_symbol
_atom_site_label
_atom_site_fract_x
_atom_site_fract_y
_atom_site_fract_z
Si Si1 0.319517 0.615813 0.358978
Si Si2 0.489411 0.250000 0.500000
Si Si3 0.732169 0.934894 0.466600
Si Si4 0.044253 0.020115 0.358335
O O1 0.401197 0.612996 0.250000
O O2 0.383967 0.711931 0.412683
O O3 0.391671 0.522356 0.421172
O O4 0.096024 0.611802 0.355522
O O5 0.365237 0.166795 0.546908
O O6 0.773790 0.953985 0.580569
O O7 0.929646 0.932466 0.409125
O O8 0.105615 0.990556 0.250000
#
# Coordination Sequence:
#
# PCOD8235132 Si02
#       4
#     8   4   8   8
#     4   9  20  38  56  80 116 151 187 235 290 342
#     4  12  22  32  60  90 116 150 188 240 288 342
#     4   9  19  37  58  82 115 151 191 237 287 337
#     4   8  17  38  60  76 108 154 192 234 281 334
#
# _framework density 20.117362
#
# number of rings (size 3 to 8) (size 9 to 14) (size 15 to 20)
#    1.714    1.143    0.000    0.857    0.000    4.571 
#    0.000    1.429    0.000    0.000    0.000    0.000 
#    0.000    0.000    0.000    0.000    0.000    0.000 
#
# Total GULP energy -346886.540549 kJ/mol
# GULP energy per Si atom -12388.805020 kJ/mol
# Density = 2.007157 g / cm^3
# Si number density = 20.117362 Si / 1000 Ang^3
#
#
#
# Elastic Constant Matrix: (Units=GPa)
#
#
# Indices 1 2 3 4 5 6 
#
# 1 46.1038 37.2946 40.4937 0.0000 0.0000 0.0000
# 2 37.2946 113.5475 65.7852 0.0000 0.0000 0.0000
# 3 40.4937 65.7852 202.0343 0.0000 0.0000 0.0000
# 4 0.0000 0.0000 0.0000 26.6232 0.0000 0.0000
# 5 0.0000 0.0000 0.0000 0.0000 21.0178 0.0000
# 6 0.0000 0.0000 0.0000 0.0000 0.0000 23.4684
#
#
#
# Elastic Compliance Matrix: (Units=1/GPa)
#
#
# Indices 1 2 3 4 5 6 
#
# 1 0.031567 -0.008261 -0.003637 0.000000 0.000000 0.000000
# 2 -0.008261 0.013016 -0.002583 0.000000 0.000000 0.000000
# 3 -0.003637 -0.002583 0.006520 0.000000 0.000000 0.000000
# 4 0.000000 0.000000 0.000000 0.037561 0.000000 0.000000
# 5 0.000000 0.000000 0.000000 0.000000 0.047579 0.000000
# 6 0.000000 0.000000 0.000000 0.000000 0.000000 0.042611
#
#
# Mechanical properties :
#
#
# Convention : Reuss Voigt Hill
#
# Bulk Modulus (GPa) = 45.16339 72.09251 58.62795
# Shear Modulus (GPa) = 23.23465 28.76269 25.99867
#
# Velocity S-wave (km/s) = 3.40215 3.78530 3.59883
# Velocity P-wave (km/s) = 6.15886 7.41744 6.81726
#
# Compressibility (1/GPa) = 0.02214183
#
# Stress axis : x y z
#
# Youngs Moduli (GPa) = 31.67836 76.82571 153.38446
#
# Poissons Ratio (x) = 0.63466 0.55788
# Poissons Ratio (y) = 0.26170 0.39613
# Poissons Ratio (z) = 0.11522 0.19841
#
# Static dielectric constant tensor:
#      x y z
#    x 3.344520 0.000000 0.000000 
#    y 0.000000 3.193830 0.000000 
#    z 0.000000 0.000000 3.695460 
# 
# 
# High freq. dielectric constant tensor:
#      x y z
#    x 1.774650 0.000000 0.000000 
#    y 0.000000 1.740940 0.000000 
#    z 0.000000 0.000000 1.797920 
# 
# From -- ./inp_files/11220.got.cif
#   From: 2010.03.12/outbox.cif.g09.slc.cpg/sg57_6_cif.got.tgz:11220.got - 2010.04.16 15:48:40.
