data_PCOD8235157
_publ_section_title
;
Structure prediction by ZEFSAII (Michael W. Deem and Ramdas Pophale) SiO2 
 PCOD8235157
Probable space group: P B C M
;
_chemical_formula_sum "Si O2"
_cell_formula_units_Z 32
_cell_length_a 4.636518
_cell_length_b 28.545855
_cell_length_c 9.645055
_cell_angle_alpha 90.000000
_cell_angle_beta 90.000000
_cell_angle_gamma 90.000000
_cell_volume 1276.555538
_symmetry_space_group_name_H-M "P B C M"
_symmetry_group_IT_number 57
_symmetry_cell_setting 'orthorhombic'
loop_
_space_group_symop_operation_xyz
x,y,z
-x,-y,1/2+z
x,1/2-y,-z
-x,1/2+y,1/2-z
-x,-y,-z
x,y,1/2-z
-x,1/2+y,z
x,1/2-y,1/2+z
loop_
_atom_site_type_symbol
_atom_site_label
_atom_site_fract_x
_atom_site_fract_y
_atom_site_fract_z
Si Si1 0.259426 0.903818 0.502193
Si Si2 0.177102 0.534772 0.750000
Si Si3 0.539478 0.284124 0.750000
Si Si4 0.760936 0.659723 0.004173
Si Si5 0.069340 0.281582 0.250000
Si Si6 0.322939 0.531327 0.250000
O O1 0.106201 0.934022 0.383493
O O2 0.521771 0.873985 0.434630
O O3 0.396296 0.937601 0.616785
O O4 0.013670 0.871267 0.575226
O O5 0.506509 0.517686 0.750000
O O6 0.006379 0.485734 0.750000
O O7 0.428589 0.310732 0.613456
O O8 0.402095 0.233044 0.750000
O O9 0.877288 0.267236 0.750000
O O10 0.951325 0.688670 0.891330
#
# Coordination Sequence:
#
# PCOD8235157 Si02
#       6
#     8   4   4   8   4   4
#     4  12  24  43  67  98 135 180 229 284 347 417
#     4  12  24  42  66  98 135 178 227 284 343 410
#     4  12  26  46  70 102 138 180 232 292 351 418
#     4  12  25  45  70 100 137 182 231 288 352 419
#     4  12  26  46  70 102 138 180 232 292 351 418
#     4  12  24  42  66  98 135 178 227 284 343 410
#
# _framework density 25.067454999999999
#
# number of rings (size 3 to 8) (size 9 to 14) (size 15 to 20)
#    0.000    0.000    0.000   11.250    0.000    2.000 
#    0.000    0.000    0.000    0.000    0.000    0.000 
#    0.000    0.000    0.000    0.000    0.000    0.000 
#
# Total GULP energy -396640.802620 kJ/mol
# GULP energy per Si atom -12395.025082 kJ/mol
# Density = 2.501040 g / cm^3
# Si number density = 25.067455 Si / 1000 Ang^3
#
#
#
# Elastic Constant Matrix: (Units=GPa)
#
#
# Indices 1 2 3 4 5 6 
#
# 1 103.5199 43.4450 18.7201 0.0000 0.0000 0.0000
# 2 43.4450 122.1100 54.1028 0.0000 0.0000 0.0000
# 3 18.7201 54.1028 146.0919 0.0000 0.0000 0.0000
# 4 0.0000 0.0000 0.0000 30.4834 0.0000 0.0000
# 5 0.0000 0.0000 0.0000 0.0000 34.7858 0.0000
# 6 0.0000 0.0000 0.0000 0.0000 0.0000 64.8422
#
#
#
# Elastic Compliance Matrix: (Units=1/GPa)
#
#
# Indices 1 2 3 4 5 6 
#
# 1 0.011356 -0.004062 0.000049 0.000000 0.000000 0.000000
# 2 -0.004062 0.011250 -0.003646 0.000000 0.000000 0.000000
# 3 0.000049 -0.003646 0.008189 0.000000 0.000000 0.000000
# 4 0.000000 0.000000 0.000000 0.032805 0.000000 0.000000
# 5 0.000000 0.000000 0.000000 0.000000 0.028747 0.000000
# 6 0.000000 0.000000 0.000000 0.000000 0.000000 0.015422
#
#
# Mechanical properties :
#
#
# Convention : Reuss Voigt Hill
#
# Bulk Modulus (GPa) = 64.61030 67.13972 65.87501
# Shear Modulus (GPa) = 38.98794 43.05255 41.02024
#
# Velocity S-wave (km/s) = 3.94803 4.14873 4.04963
# Velocity P-wave (km/s) = 6.82738 7.05628 6.94277
#
# Compressibility (1/GPa) = 0.01547741
#
# Stress axis : x y z
#
# Youngs Moduli (GPa) = 88.06057 88.89026 122.11766
#
# Poissons Ratio (x) = 0.36107 -0.00601
# Poissons Ratio (y) = 0.35770 0.44520
# Poissons Ratio (z) = -0.00433 0.32407
#
# Static dielectric constant tensor:
#      x y z
#    x 4.518670 0.000000 0.000000 
#    y 0.000000 4.630570 0.000000 
#    z 0.000000 0.000000 4.099310 
# 
# 
# High freq. dielectric constant tensor:
#      x y z
#    x 2.015200 0.000000 0.000000 
#    y 0.000000 2.018540 0.000000 
#    z 0.000000 0.000000 1.982290 
# 
# From -- ./inp_files/853.got.cif
#   From: 2010.03.12/outbox.cif.g09.slc.cpg/sg57_1_cif.got.tgz:853.got - 2010.04.16 15:48:40.
