data_PCOD8235709
_publ_section_title
;
Structure prediction by ZEFSAII (Michael W. Deem and Ramdas Pophale) SiO2 
 PCOD8235709
Probable space group: P N N M
;
_chemical_formula_sum "Si O2"
_cell_formula_units_Z 64
_cell_length_a 31.047431
_cell_length_b 12.021724
_cell_length_c 9.056108
_cell_angle_alpha 90.000000
_cell_angle_beta 90.000000
_cell_angle_gamma 90.000000
_cell_volume 3380.134772
_symmetry_space_group_name_H-M "P N N M"
_symmetry_group_IT_number 58
_symmetry_cell_setting 'orthorhombic'
loop_
_space_group_symop_operation_xyz
x,y,z
-x,-y,z
1/2+x,1/2-y,1/2-z
1/2-x,1/2+y,1/2-z
-x,-y,-z
x,y,-z
1/2-x,1/2+y,1/2+z
1/2+x,1/2-y,1/2+z
loop_
_atom_site_type_symbol
_atom_site_label
_atom_site_fract_x
_atom_site_fract_y
_atom_site_fract_z
Si Si1 0.205513 0.975309 0.329985
Si Si2 0.545744 0.526797 0.331145
Si Si3 0.198854 0.519215 0.175118
Si Si4 0.624347 0.143081 0.324390
Si Si5 0.452129 0.010629 0.675248
Si Si6 0.330166 0.238413 0.831647
Si Si7 0.871359 0.897025 0.823895
Si Si8 0.914469 0.255995 0.831437
O O1 0.200670 0.012056 0.500000
O O2 0.253067 0.998230 0.266168
O O3 0.171361 0.044859 0.236538
O O4 0.200981 0.843126 0.313535
O O5 0.500000 0.500000 0.252069
O O6 0.543321 0.486242 0.500000
O O7 0.586286 0.460627 0.260590
O O8 0.550383 0.659283 0.319708
O O9 0.165667 0.425718 0.235873
O O10 0.185171 0.639687 0.228656
O O11 0.197658 0.517733 0.000000
O O12 0.624264 0.140832 0.500000
O O13 0.626805 0.269658 0.267308
O O14 0.580226 0.085248 0.265510
O O15 0.454899 0.003864 0.500000
O O16 0.434504 0.129659 0.726125
O O17 0.500000 0.000000 0.743914
O O18 0.376457 0.279308 0.776845
O O19 0.332294 0.197310 0.000000
O O20 0.869145 0.904769 0.000000
O O21 0.897619 0.267748 0.000000
#
# Coordination Sequence:
#
# PCOD8235709 Si02
#       8
#     8   8   8   8   8   8   8   8
#     4  10  23  39  56  79 111 145 177 222 275 326
#     4   9  18  30  49  82 114 139 178 233 276 311
#     4  10  21  39  58  78 106 142 180 222 276 327
#     4   9  18  32  52  78 108 138 173 221 270 319
#     4   9  17  28  49  81 109 136 175 223 272 320
#     4  11  22  37  58  82 109 141 183 231 273 320
#     4  10  20  34  56  81 109 145 183 223 270 325
#     4  10  18  33  56  79 108 146 184 226 276 328
#
# _framework density 18.934156000000002
#
# number of rings (size 3 to 8) (size 9 to 14) (size 15 to 20)
#    0.000    2.250    2.500    0.375    3.500    1.000 
#    0.000    0.625    0.000    1.875    0.000    0.000 
#    0.000    0.000    0.000    0.000    0.000    0.000 
#
# Total GULP energy -793464.238961 kJ/mol
# GULP energy per Si atom -12397.878734 kJ/mol
# Density = 1.889106 g / cm^3
# Si number density = 18.934156 Si / 1000 Ang^3
#
#
#
# Elastic Constant Matrix: (Units=GPa)
#
#
# Indices 1 2 3 4 5 6 
#
# 1 147.1717 47.8245 17.8114 0.0000 0.0000 0.0000
# 2 47.8245 115.9827 12.1060 0.0000 0.0000 0.0000
# 3 17.8114 12.1060 9.6810 0.0000 0.0000 0.0000
# 4 0.0000 0.0000 0.0000 13.5196 0.0000 0.0000
# 5 0.0000 0.0000 0.0000 0.0000 17.8209 0.0000
# 6 0.0000 0.0000 0.0000 0.0000 0.0000 28.6550
#
#
#
# Elastic Compliance Matrix: (Units=1/GPa)
#
#
# Indices 1 2 3 4 5 6 
#
# 1 0.009265 -0.002348 -0.014111 0.000000 0.000000 0.000000
# 2 -0.002348 0.010511 -0.008825 0.000000 0.000000 0.000000
# 3 -0.014111 -0.008825 0.140294 0.000000 0.000000 0.000000
# 4 0.000000 0.000000 0.000000 0.073966 0.000000 0.000000
# 5 0.000000 0.000000 0.000000 0.000000 0.056114 0.000000
# 6 0.000000 0.000000 0.000000 0.000000 0.000000 0.034898
#
#
# Mechanical properties :
#
#
# Convention : Reuss Voigt Hill
#
# Bulk Modulus (GPa) = 9.13220 47.59102 28.36161
# Shear Modulus (GPa) = 12.13248 25.00533 18.56890
#
# Velocity S-wave (km/s) = 2.53409 3.63801 3.13503
# Velocity P-wave (km/s) = 3.66003 6.54495 5.30246
#
# Compressibility (1/GPa) = 0.10950262
#
# Stress axis : x y z
#
# Youngs Moduli (GPa) = 107.92757 95.13724 7.12791
#
# Poissons Ratio (x) = 0.22335 0.10058
# Poissons Ratio (y) = 0.25338 0.06290
# Poissons Ratio (z) = 1.52299 0.83957
#
# Static dielectric constant tensor:
#      x y z
#    x 3.876350 0.000000 0.000000 
#    y 0.000000 3.576200 0.000000 
#    z 0.000000 0.000000 3.020530 
# 
# 
# High freq. dielectric constant tensor:
#      x y z
#    x 1.749280 0.000000 0.000000 
#    y 0.000000 1.749030 0.000000 
#    z 0.000000 0.000000 1.680830 
# 
# From -- ./inp_files/4753.got.cif
#   From: 2010.06.25/outbox.cif.g09.slc.cpg/sg58_3_cif.got.tgz:4753.got - 2010.06.26 21:38:00.
