data_PCOD8235047
_publ_section_title
;
Structure prediction by ZEFSAII (Michael W. Deem and Ramdas Pophale) SiO2 
 PCOD8235047
Probable space group: P B C M
;
_chemical_formula_sum "Si O2"
_cell_formula_units_Z 40
_cell_length_a 14.369332
_cell_length_b 8.444490
_cell_length_c 15.356904
_cell_angle_alpha 90.000000
_cell_angle_beta 90.000000
_cell_angle_gamma 90.000000
_cell_volume 1863.432537
_symmetry_space_group_name_H-M "P B C M"
_symmetry_group_IT_number 57
_symmetry_cell_setting 'orthorhombic'
loop_
_space_group_symop_operation_xyz
x,y,z
-x,-y,1/2+z
x,1/2-y,-z
-x,1/2+y,1/2-z
-x,-y,-z
x,y,1/2-z
-x,1/2+y,z
x,1/2-y,1/2+z
loop_
_atom_site_type_symbol
_atom_site_label
_atom_site_fract_x
_atom_site_fract_y
_atom_site_fract_z
Si Si1 0.707365 0.189336 0.596406
Si Si2 0.913235 0.661451 0.848035
Si Si3 0.733602 0.817276 0.592641
Si Si4 0.585300 0.185322 0.250000
Si Si5 0.382274 0.184977 0.750000
Si Si6 0.905750 0.313473 0.596020
O O1 0.681890 0.250000 0.500000
O O2 0.627635 0.238706 0.663013
O O3 0.804446 0.262522 0.630236
O O4 0.714599 0.001875 0.595797
O O5 0.882243 0.619220 0.750000
O O6 0.842959 0.786916 0.891007
O O7 0.911855 0.502992 0.905400
O O8 0.014987 0.739727 0.843127
O O9 0.701864 0.750000 0.500000
O O10 0.674922 0.725920 0.664322
O O11 0.476236 0.215667 0.250000
O O12 0.599285 0.999725 0.250000
O O13 0.923127 0.250000 0.500000
#
# Coordination Sequence:
#
# PCOD8235047 Si02
#       6
#     8   8   8   4   4   8
#     4  11  25  44  69 102 133 180 223 273 334 399
#     4  12  24  39  64  99 136 179 229 277 332 393
#     4  12  24  45  71  99 138 176 224 277 334 398
#     4  12  26  46  75  96 143 166 224 276 338 398
#     4  12  26  48  69 108 127 180 216 278 336 402
#     4  11  23  41  62  93 135 181 227 273 332 394
#
# _framework density 21.465762999999999
#
# number of rings (size 3 to 8) (size 9 to 14) (size 15 to 20)
#    0.000    0.400    1.000    9.600    2.800    0.800 
#    0.000    4.000    0.000    0.000    0.000    0.000 
#    0.000    0.000    0.000    0.000    0.000    0.000 
#
# Total GULP energy -496324.769977 kJ/mol
# GULP energy per Si atom -12408.119249 kJ/mol
# Density = 2.141691 g / cm^3
# Si number density = 21.465763 Si / 1000 Ang^3
#
#
#
# Elastic Constant Matrix: (Units=GPa)
#
#
# Indices 1 2 3 4 5 6 
#
# 1 87.7459 -10.1581 30.5542 0.0000 0.0000 0.0000
# 2 -10.1581 104.3219 16.0801 0.0000 0.0000 0.0000
# 3 30.5542 16.0801 133.6821 0.0000 0.0000 0.0000
# 4 0.0000 0.0000 0.0000 33.2596 0.0000 0.0000
# 5 0.0000 0.0000 0.0000 0.0000 -5.5636 0.0000
# 6 0.0000 0.0000 0.0000 0.0000 0.0000 38.0787
#
#
#
# Elastic Compliance Matrix: (Units=1/GPa)
#
#
# Indices 1 2 3 4 5 6 
#
# 1 0.012675 0.001713 -0.003103 0.000000 0.000000 0.000000
# 2 0.001713 0.009998 -0.001594 0.000000 0.000000 0.000000
# 3 -0.003103 -0.001594 0.008381 0.000000 0.000000 0.000000
# 4 0.000000 0.000000 0.000000 0.030066 0.000000 0.000000
# 5 0.000000 0.000000 0.000000 0.000000 -0.179740 0.000000
# 6 0.000000 0.000000 0.000000 0.000000 0.000000 0.026261
#
#
# Mechanical properties :
#
#
# Convention : Reuss Voigt Hill
#
# Bulk Modulus (GPa) = 39.86327 44.30026 42.08177
# Shear Modulus (GPa) = -64.08141 32.43987 -15.82077
#
# Velocity S-wave (km/s) = -5.46970 3.89168 -2.71776
# Velocity P-wave (km/s) = 4.61294 6.39344 3.13024
#
# Compressibility (1/GPa) = 0.02508575
#
# Stress axis : x y z
#
# Youngs Moduli (GPa) = 78.89355 100.01825 119.31177
#
# Poissons Ratio (x) = -0.17128 0.37023
# Poissons Ratio (y) = -0.13511 0.19019
# Poissons Ratio (z) = 0.24481 0.15943
#
# Static dielectric constant tensor:
#      x y z
#    x 4.199360 0.000000 0.000000 
#    y 0.000000 3.985590 0.000000 
#    z 0.000000 0.000000 3.894980 
# 
# 
# High freq. dielectric constant tensor:
#      x y z
#    x 1.843780 0.000000 0.000000 
#    y 0.000000 1.862140 0.000000 
#    z 0.000000 0.000000 1.856220 
# 
# From -- ./inp_files/18269.got.cif
#   From: 2010.03.12/outbox.cif.g09.slc.cpg/sg57_10_cif.got.tgz:18269.got - 2010.04.16 15:48:40.
