data_PCOD8235342
_publ_section_title
;
Structure prediction by ZEFSAII (Michael W. Deem and Ramdas Pophale) SiO2 
 PCOD8235342
Probable space group: P N N M
;
_chemical_formula_sum "Si O2"
_cell_formula_units_Z 56
_cell_length_a 29.062621
_cell_length_b 13.648627
_cell_length_c 9.103927
_cell_angle_alpha 90.000000
_cell_angle_beta 90.000000
_cell_angle_gamma 90.000000
_cell_volume 3611.208053
_symmetry_space_group_name_H-M "P N N M"
_symmetry_group_IT_number 58
_symmetry_cell_setting 'orthorhombic'
loop_
_space_group_symop_operation_xyz
x,y,z
-x,-y,z
1/2+x,1/2-y,1/2-z
1/2-x,1/2+y,1/2-z
-x,-y,-z
x,y,-z
1/2-x,1/2+y,1/2+z
1/2+x,1/2-y,1/2+z
loop_
_atom_site_type_symbol
_atom_site_label
_atom_site_fract_x
_atom_site_fract_y
_atom_site_fract_z
Si Si1 0.734219 0.393261 0.169488
Si Si2 0.819387 0.704756 0.673603
Si Si3 0.908072 0.402823 0.328117
Si Si4 0.996032 0.383947 0.838487
Si Si5 0.736124 0.611694 0.170317
Si Si6 0.184218 0.698461 0.669506
Si Si7 0.402789 0.890586 0.325779
O O1 0.695499 0.315228 0.218706
O O2 0.716624 0.503139 0.203554
O O3 0.782557 0.376661 0.248621
O O4 0.744934 0.377468 0.000000
O O5 0.825741 0.691142 0.500000
O O6 0.780850 0.629361 0.730147
O O7 0.867124 0.684705 0.754940
O O8 0.911363 0.426269 0.500000
O O9 0.956166 0.354156 0.275598
O O10 0.868572 0.323872 0.290391
O O11 0.896236 0.502326 0.243527
O O12 0.000000 0.500000 0.846684
O O13 0.046510 0.346093 0.789435
O O14 0.983118 0.342703 0.000000
O O15 0.696032 0.689010 0.211682
O O16 0.750769 0.622041 0.000000
O O17 0.193337 0.679090 0.500000
O O18 0.395266 0.899727 0.500000
#
# Coordination Sequence:
#
# PCOD8235342 Si02
#       7
#     8   8   8   8   8   8   8
#     4   9  18  30  44  61  82 110 142 173 203 239
#     4  10  19  29  42  64  87 106 137 178 211 238
#     4  10  18  27  42  65  89 111 137 173 211 242
#     4   8  16  29  42  58  82 111 141 169 201 249
#     4   9  17  31  46  59  82 116 144 166 201 249
#     4   9  18  29  42  62  86 111 139 169 203 245
#     4  10  19  30  43  60  84 115 144 167 201 252
#
# _framework density 15.507277
#
# number of rings (size 3 to 8) (size 9 to 14) (size 15 to 20)
#    0.000    2.714    0.000    3.000    0.000    7.714 
#    0.000    0.000    0.000    0.000    0.000    1.000 
#    0.000    8.000    0.000    0.000    0.000    0.000 
#
# Total GULP energy -694189.615740 kJ/mol
# GULP energy per Si atom -12396.243138 kJ/mol
# Density = 1.547198 g / cm^3
# Si number density = 15.507277 Si / 1000 Ang^3
#
#
#
# Elastic Constant Matrix: (Units=GPa)
#
#
# Indices 1 2 3 4 5 6 
#
# 1 129.2038 52.3504 57.0320 0.0000 0.0000 0.0000
# 2 52.3504 82.9532 34.8177 0.0000 0.0000 0.0000
# 3 57.0320 34.8177 70.7558 0.0000 0.0000 0.0000
# 4 0.0000 0.0000 0.0000 14.4836 0.0000 0.0000
# 5 0.0000 0.0000 0.0000 0.0000 28.9150 0.0000
# 6 0.0000 0.0000 0.0000 0.0000 0.0000 20.0740
#
#
#
# Elastic Compliance Matrix: (Units=1/GPa)
#
#
# Indices 1 2 3 4 5 6 
#
# 1 0.013464 -0.004968 -0.008408 0.000000 0.000000 0.000000
# 2 -0.004968 0.017026 -0.004374 0.000000 0.000000 0.000000
# 3 -0.008408 -0.004374 0.023062 0.000000 0.000000 0.000000
# 4 0.000000 0.000000 0.000000 0.069044 0.000000 0.000000
# 5 0.000000 0.000000 0.000000 0.000000 0.034584 0.000000
# 6 0.000000 0.000000 0.000000 0.000000 0.000000 0.049816
#
#
# Mechanical properties :
#
#
# Convention : Reuss Voigt Hill
#
# Bulk Modulus (GPa) = 55.39195 63.47923 59.43559
# Shear Modulus (GPa) = 20.11971 21.94203 21.03087
#
# Velocity S-wave (km/s) = 3.60590 3.76566 3.68665
# Velocity P-wave (km/s) = 7.28932 7.74151 7.51882
#
# Compressibility (1/GPa) = 0.01805316
#
# Stress axis : x y z
#
# Youngs Moduli (GPa) = 74.27289 58.73389 43.36046
#
# Poissons Ratio (x) = 0.29178 0.36457
# Poissons Ratio (y) = 0.36897 0.18965
# Poissons Ratio (z) = 0.62447 0.25690
#
# Static dielectric constant tensor:
#      x y z
#    x 3.198950 0.000000 0.000000 
#    y 0.000000 2.922620 0.000000 
#    z 0.000000 0.000000 3.066680 
# 
# 
# High freq. dielectric constant tensor:
#      x y z
#    x 1.590260 0.000000 0.000000 
#    y 0.000000 1.563440 0.000000 
#    z 0.000000 0.000000 1.605220 
# 
# From -- ./inp_files/11094.got.cif
#   From: 2010.06.25/outbox.cif.g09.slc.cpg/sg58_6_cif.got.tgz:11094.got - 2010.06.26 21:38:00.
