data_PCOD8235918
_publ_section_title
;
Structure prediction by ZEFSAII (Michael W. Deem and Ramdas Pophale) SiO2 
 PCOD8235918
Probable space group: P N N M
;
_chemical_formula_sum "Si O2"
_cell_formula_units_Z 64
_cell_length_a 21.389589
_cell_length_b 18.456984
_cell_length_c 9.205326
_cell_angle_alpha 90.000000
_cell_angle_beta 90.000000
_cell_angle_gamma 90.000000
_cell_volume 3634.145815
_symmetry_space_group_name_H-M "P N N M"
_symmetry_group_IT_number 58
_symmetry_cell_setting 'orthorhombic'
loop_
_space_group_symop_operation_xyz
x,y,z
-x,-y,z
1/2+x,1/2-y,1/2-z
1/2-x,1/2+y,1/2-z
-x,-y,-z
x,y,-z
1/2-x,1/2+y,1/2+z
1/2+x,1/2-y,1/2+z
loop_
_atom_site_type_symbol
_atom_site_label
_atom_site_fract_x
_atom_site_fract_y
_atom_site_fract_z
Si Si1 0.259013 0.616817 0.666640
Si Si2 0.355420 0.082108 0.670469
Si Si3 0.113238 0.179178 0.164691
Si Si4 0.188349 0.420458 0.165442
Si Si5 0.019593 0.580580 0.331352
Si Si6 0.902393 0.679079 0.330239
Si Si7 0.429595 0.519147 0.669829
Si Si8 0.684069 0.517601 0.168645
O O1 0.241797 0.599883 0.500000
O O2 0.195769 0.635157 0.754636
O O3 0.310858 0.680119 0.676765
O O4 0.290738 0.548027 0.737887
O O5 0.354203 0.096237 0.500000
O O6 0.422129 0.104213 0.734005
O O7 0.338891 0.999066 0.710107
O O8 0.086349 0.241059 0.268011
O O9 0.083637 0.102502 0.213192
O O10 0.092949 0.196127 0.000000
O O11 0.159055 0.358511 0.264641
O O12 0.264156 0.418556 0.184003
O O13 0.169696 0.403578 0.000000
O O14 0.038212 0.585787 0.500000
O O15 0.000000 0.500000 0.288265
O O16 0.963105 0.632920 0.290051
O O17 0.891559 0.684643 0.500000
O O18 0.500000 0.500000 0.713158
O O19 0.416532 0.506137 0.500000
O O20 0.384015 0.465026 0.762092
O O21 0.677181 0.495632 0.000000
#
# Coordination Sequence:
#
# PCOD8235918 Si02
#       8
#     8   8   8   8   8   8   8   8
#     4   9  17  31  52  74  98 131 165 204 256 307
#     4  10  19  30  50  78 103 131 170 218 261 298
#     4   9  19  35  54  76 103 135 169 212 267 318
#     4   9  18  31  47  71 103 134 167 209 259 307
#     4  10  20  34  49  72 106 142 183 221 256 307
#     4  11  22  33  51  75 101 139 180 219 260 310
#     4   9  18  34  57  82 105 135 175 215 262 321
#     4   9  17  29  48  78 106 128 161 208 256 301
#
# _framework density 17.610741999999998
#
# number of rings (size 3 to 8) (size 9 to 14) (size 15 to 20)
#    0.000    2.500    1.250    3.000    0.000    6.500 
#    0.000    0.000    2.750    0.000    0.000    0.000 
#    0.000    0.000    0.000    0.000    0.000    0.000 
#
# Total GULP energy -793366.295721 kJ/mol
# GULP energy per Si atom -12396.348371 kJ/mol
# Density = 1.757066 g / cm^3
# Si number density = 17.610742 Si / 1000 Ang^3
#
#
#
# Elastic Constant Matrix: (Units=GPa)
#
#
# Indices 1 2 3 4 5 6 
#
# 1 135.2094 44.0730 64.9077 0.0000 0.0000 0.0000
# 2 44.0730 63.6912 37.0136 0.0000 0.0000 0.0000
# 3 64.9077 37.0136 91.0252 0.0000 0.0000 0.0000
# 4 0.0000 0.0000 0.0000 23.0417 0.0000 0.0000
# 5 0.0000 0.0000 0.0000 0.0000 31.7413 0.0000
# 6 0.0000 0.0000 0.0000 0.0000 0.0000 19.0855
#
#
#
# Elastic Compliance Matrix: (Units=1/GPa)
#
#
# Indices 1 2 3 4 5 6 
#
# 1 0.012121 -0.004406 -0.006852 0.000000 0.000000 0.000000
# 2 -0.004406 0.022160 -0.005869 0.000000 0.000000 0.000000
# 3 -0.006852 -0.005869 0.018259 0.000000 0.000000 0.000000
# 4 0.000000 0.000000 0.000000 0.043400 0.000000 0.000000
# 5 0.000000 0.000000 0.000000 0.000000 0.031505 0.000000
# 6 0.000000 0.000000 0.000000 0.000000 0.000000 0.052396
#
#
# Mechanical properties :
#
#
# Convention : Reuss Voigt Hill
#
# Bulk Modulus (GPa) = 54.68638 64.65718 59.67178
# Shear Modulus (GPa) = 22.70765 24.36912 23.53838
#
# Velocity S-wave (km/s) = 3.59475 3.72393 3.65991
# Velocity P-wave (km/s) = 6.95341 7.43536 7.19842
#
# Compressibility (1/GPa) = 0.01828609
#
# Stress axis : x y z
#
# Youngs Moduli (GPa) = 82.49930 45.12539 54.76884
#
# Poissons Ratio (x) = 0.19881 0.37527
# Poissons Ratio (y) = 0.36348 0.32146
# Poissons Ratio (z) = 0.56527 0.26486
#
# Static dielectric constant tensor:
#      x y z
#    x 3.739750 0.000000 0.000000 
#    y 0.000000 2.930090 0.000000 
#    z 0.000000 0.000000 3.360020 
# 
# 
# High freq. dielectric constant tensor:
#      x y z
#    x 1.688950 0.000000 0.000000 
#    y 0.000000 1.635030 0.000000 
#    z 0.000000 0.000000 1.690600 
# 
# From -- ./inp_files/9469.got.cif
#   From: 2010.06.25/outbox.cif.g09.slc.cpg/sg58_5_cif.got.tgz:9469.got - 2010.06.26 21:38:00.
