data_PCOD8235253
_publ_section_title
;
Structure prediction by ZEFSAII (Michael W. Deem and Ramdas Pophale) SiO2 
 PCOD8235253
Probable space group: P N N M
;
_chemical_formula_sum "Si O2"
_cell_formula_units_Z 64
_cell_length_a 14.948541
_cell_length_b 13.550374
_cell_length_c 18.530761
_cell_angle_alpha 90.000000
_cell_angle_beta 90.000000
_cell_angle_gamma 90.000000
_cell_volume 3753.559841
_symmetry_space_group_name_H-M "P N N M"
_symmetry_group_IT_number 58
_symmetry_cell_setting 'orthorhombic'
loop_
_space_group_symop_operation_xyz
x,y,z
-x,-y,z
1/2+x,1/2-y,1/2-z
1/2-x,1/2+y,1/2-z
-x,-y,-z
x,y,-z
1/2-x,1/2+y,1/2+z
1/2+x,1/2-y,1/2+z
loop_
_atom_site_type_symbol
_atom_site_label
_atom_site_fract_x
_atom_site_fract_y
_atom_site_fract_z
Si Si1 0.034747 0.157664 0.316837
Si Si2 0.138826 0.958007 0.688731
Si Si3 0.093879 0.055252 0.081290
Si Si4 0.166246 0.254559 0.418218
Si Si5 0.818465 0.115874 0.155666
Si Si6 0.237540 0.548758 0.080304
Si Si7 0.547892 0.898352 0.579743
Si Si8 0.996127 0.780630 0.161163
O O1 0.072675 0.234952 0.376082
O O2 0.016711 0.222767 0.246352
O O3 0.940563 0.110874 0.342652
O O4 0.101129 0.067834 0.294766
O O5 0.184086 0.909673 0.759359
O O6 0.214972 0.964825 0.627983
O O7 0.083849 0.155273 0.126728
O O8 0.172997 0.987275 0.112784
O O9 0.118901 0.082949 0.000000
O O10 0.000000 0.000000 0.087431
O O11 0.150785 0.296459 0.500000
O O12 0.229609 0.327786 0.371823
O O13 0.204599 0.146218 0.424573
O O14 0.905426 0.181364 0.138163
O O15 0.143850 0.580119 0.116051
O O16 0.222867 0.504294 0.000000
O O17 0.560715 0.849221 0.500000
O O18 0.488245 0.829395 0.630639
O O19 0.500000 0.000000 0.570381
#
# Coordination Sequence:
#
# PCOD8235253 Si02
#       8
#     8   8   8   8   8   8   8   8
#     4   9  18  31  47  71  99 136 170 209 261 303
#     4   9  17  31  49  69 101 133 171 214 257 308
#     4   9  16  24  41  67  92 123 158 192 246 311
#     4  10  19  30  47  72 103 132 165 210 257 305
#     4  10  17  28  47  72  99 129 162 209 262 306
#     4   9  18  32  48  68  96 134 170 207 253 300
#     4  10  20  32  47  69  99 135 171 208 251 304
#     4  10  17  30  47  66  97 129 165 208 251 307
#
# _framework density 17.050481999999999
#
# number of rings (size 3 to 8) (size 9 to 14) (size 15 to 20)
#    0.000    2.500    2.500    0.750    0.000    2.500 
#    0.000    2.500    0.000    0.000    0.000    0.000 
#    0.000    5.500    0.000    0.000    0.000    0.000 
#
# Total GULP energy -793207.743087 kJ/mol
# GULP energy per Si atom -12393.870986 kJ/mol
# Density = 1.701167 g / cm^3
# Si number density = 17.050482 Si / 1000 Ang^3
#
#
#
# Elastic Constant Matrix: (Units=GPa)
#
#
# Indices 1 2 3 4 5 6 
#
# 1 58.8505 31.7470 43.3286 0.0000 0.0000 0.0000
# 2 31.7470 64.5814 44.3962 0.0000 0.0000 0.0000
# 3 43.3286 44.3962 96.1420 0.0000 0.0000 0.0000
# 4 0.0000 0.0000 0.0000 25.3939 0.0000 0.0000
# 5 0.0000 0.0000 0.0000 0.0000 22.7298 0.0000
# 6 0.0000 0.0000 0.0000 0.0000 0.0000 25.9245
#
#
#
# Elastic Compliance Matrix: (Units=1/GPa)
#
#
# Indices 1 2 3 4 5 6 
#
# 1 0.027626 -0.007357 -0.009053 0.000000 0.000000 0.000000
# 2 -0.007357 0.024645 -0.008065 0.000000 0.000000 0.000000
# 3 -0.009053 -0.008065 0.018205 0.000000 0.000000 0.000000
# 4 0.000000 0.000000 0.000000 0.039380 0.000000 0.000000
# 5 0.000000 0.000000 0.000000 0.000000 0.043995 0.000000
# 6 0.000000 0.000000 0.000000 0.000000 0.000000 0.038573
#
#
# Mechanical properties :
#
#
# Convention : Reuss Voigt Hill
#
# Bulk Modulus (GPa) = 46.45390 50.94639 48.70014
# Shear Modulus (GPa) = 20.11660 21.48312 20.79986
#
# Velocity S-wave (km/s) = 3.43859 3.55346 3.49649
# Velocity P-wave (km/s) = 6.56272 6.83964 6.70261
#
# Compressibility (1/GPa) = 0.02152672
#
# Stress axis : x y z
#
# Youngs Moduli (GPa) = 36.19729 40.57600 54.92849
#
# Poissons Ratio (x) = 0.29852 0.49728
# Poissons Ratio (y) = 0.26631 0.44299
# Poissons Ratio (z) = 0.32770 0.32724
#
# Static dielectric constant tensor:
#      x y z
#    x 2.150540 0.000000 0.000000 
#    y 0.000000 2.960550 0.000000 
#    z 0.000000 0.000000 3.387690 
# 
# 
# High freq. dielectric constant tensor:
#      x y z
#    x 1.630490 0.000000 0.000000 
#    y 0.000000 1.634520 0.000000 
#    z 0.000000 0.000000 1.659380 
# 
# From -- ./inp_files/27091.got.cif
#   From: 2010.06.25/outbox.cif.g09.slc.cpg/sg58_14_cif.got.tgz:27091.got - 2010.06.26 21:38:00.
