data_PCOD8235622
_publ_section_title
;
Structure prediction by ZEFSAII (Michael W. Deem and Ramdas Pophale) SiO2 
 PCOD8235622
Probable space group: P N N M
;
_chemical_formula_sum "Si O2"
_cell_formula_units_Z 64
_cell_length_a 29.403264
_cell_length_b 12.124777
_cell_length_c 9.080424
_cell_angle_alpha 90.000000
_cell_angle_beta 90.000000
_cell_angle_gamma 90.000000
_cell_volume 3237.243973
_symmetry_space_group_name_H-M "P N N M"
_symmetry_group_IT_number 58
_symmetry_cell_setting 'orthorhombic'
loop_
_space_group_symop_operation_xyz
x,y,z
-x,-y,z
1/2+x,1/2-y,1/2-z
1/2-x,1/2+y,1/2-z
-x,-y,-z
x,y,-z
1/2-x,1/2+y,1/2+z
1/2+x,1/2-y,1/2+z
loop_
_atom_site_type_symbol
_atom_site_label
_atom_site_fract_x
_atom_site_fract_y
_atom_site_fract_z
Si Si1 0.883042 0.840021 0.826469
Si Si2 0.719685 0.963334 0.830827
Si Si3 0.345206 0.891092 0.325301
Si Si4 0.319825 0.472295 0.330316
Si Si5 0.562168 0.788130 0.166397
Si Si6 0.475411 0.761267 0.674163
Si Si7 0.069043 0.460564 0.668212
Si Si8 0.835786 0.251052 0.674586
O O1 0.854123 0.734209 0.772991
O O2 0.860741 0.952078 0.763200
O O3 0.936036 0.826655 0.779960
O O4 0.878568 0.845908 0.000000
O O5 0.773912 0.955989 0.814041
O O6 0.696633 0.850684 0.771685
O O7 0.703489 0.066940 0.731654
O O8 0.705486 0.984242 0.000000
O O9 0.349720 0.903875 0.500000
O O10 0.381702 0.968603 0.243794
O O11 0.328745 0.441318 0.500000
O O12 0.315662 0.360861 0.239238
O O13 0.524238 0.722868 0.262213
O O14 0.548849 0.916851 0.171311
O O15 0.612459 0.767352 0.231662
O O16 0.559463 0.743617 0.000000
O O17 0.478566 0.772393 0.500000
O O18 0.463035 0.880251 0.739291
O O19 0.072968 0.418165 0.500000
O O20 0.834890 0.244427 0.500000
#
# Coordination Sequence:
#
# PCOD8235622 Si02
#       8
#     8   8   8   8   8   8   8   8
#     4   8  18  37  56  79 113 150 185 230 287 336
#     4  10  21  38  59  83 114 150 184 227 289 353
#     4  10  19  32  56  85 113 147 188 233 279 333
#     4  10  22  40  62  83 109 149 195 235 279 342
#     4  10  20  35  54  77 111 156 193 228 288 353
#     4  10  20  33  53  83 115 148 193 243 288 338
#     4  10  18  32  52  77 115 156 187 224 283 347
#     4  10  22  41  60  83 117 152 189 235 290 344
#
# _framework density 19.769904
#
# number of rings (size 3 to 8) (size 9 to 14) (size 15 to 20)
#    0.000    2.250    1.250    2.250    1.750    4.000 
#    0.000    4.375    0.000    3.750    0.000    0.000 
#    0.000    0.000    0.000    0.000    0.000    0.000 
#
# Total GULP energy -793440.786959 kJ/mol
# GULP energy per Si atom -12397.512296 kJ/mol
# Density = 1.972491 g / cm^3
# Si number density = 19.769904 Si / 1000 Ang^3
#
#
#
# Elastic Constant Matrix: (Units=GPa)
#
#
# Indices 1 2 3 4 5 6 
#
# 1 111.4959 38.3216 32.3460 0.0000 0.0000 0.0000
# 2 38.3216 78.0600 19.2232 0.0000 0.0000 0.0000
# 3 32.3460 19.2232 57.1359 0.0000 0.0000 0.0000
# 4 0.0000 0.0000 0.0000 23.1816 0.0000 0.0000
# 5 0.0000 0.0000 0.0000 0.0000 29.9078 0.0000
# 6 0.0000 0.0000 0.0000 0.0000 0.0000 21.1473
#
#
#
# Elastic Compliance Matrix: (Units=1/GPa)
#
#
# Indices 1 2 3 4 5 6 
#
# 1 0.012097 -0.004636 -0.005288 0.000000 0.000000 0.000000
# 2 -0.004636 0.015745 -0.002673 0.000000 0.000000 0.000000
# 3 -0.005288 -0.002673 0.021395 0.000000 0.000000 0.000000
# 4 0.000000 0.000000 0.000000 0.043138 0.000000 0.000000
# 5 0.000000 0.000000 0.000000 0.000000 0.033436 0.000000
# 6 0.000000 0.000000 0.000000 0.000000 0.000000 0.047287
#
#
# Mechanical properties :
#
#
# Convention : Reuss Voigt Hill
#
# Bulk Modulus (GPa) = 41.59339 47.38593 44.48966
# Shear Modulus (GPa) = 24.23580 25.30073 24.76826
#
# Velocity S-wave (km/s) = 3.50507 3.58125 3.54337
# Velocity P-wave (km/s) = 6.12088 6.41259 6.26843
#
# Compressibility (1/GPa) = 0.02404228
#
# Stress axis : x y z
#
# Youngs Moduli (GPa) = 82.66764 63.51275 46.73944
#
# Poissons Ratio (x) = 0.29446 0.24717
# Poissons Ratio (y) = 0.38327 0.12492
# Poissons Ratio (z) = 0.43718 0.16975
#
# Static dielectric constant tensor:
#      x y z
#    x 3.819140 0.000000 0.000000 
#    y 0.000000 3.429840 0.000000 
#    z 0.000000 0.000000 3.432870 
# 
# 
# High freq. dielectric constant tensor:
#      x y z
#    x 1.781790 0.000000 0.000000 
#    y 0.000000 1.746750 0.000000 
#    z 0.000000 0.000000 1.754600 
# 
# From -- ./inp_files/10940.got.cif
#   From: 2010.06.25/outbox.cif.g09.slc.cpg/sg58_6_cif.got.tgz:10940.got - 2010.06.26 21:38:00.
