data_PCOD8235316
_publ_section_title
;
Structure prediction by ZEFSAII (Michael W. Deem and Ramdas Pophale) SiO2 
 PCOD8235316
Probable space group: P N N M
;
_chemical_formula_sum "Si O2"
_cell_formula_units_Z 52
_cell_length_a 12.038665
_cell_length_b 27.238418
_cell_length_c 8.006126
_cell_angle_alpha 90.000000
_cell_angle_beta 90.000000
_cell_angle_gamma 90.000000
_cell_volume 2625.322318
_symmetry_space_group_name_H-M "P N N M"
_symmetry_group_IT_number 58
_symmetry_cell_setting 'orthorhombic'
loop_
_space_group_symop_operation_xyz
x,y,z
-x,-y,z
1/2+x,1/2-y,1/2-z
1/2-x,1/2+y,1/2-z
-x,-y,-z
x,y,-z
1/2-x,1/2+y,1/2+z
1/2+x,1/2-y,1/2+z
loop_
_atom_site_type_symbol
_atom_site_label
_atom_site_fract_x
_atom_site_fract_y
_atom_site_fract_z
Si Si1 0.518958 0.825220 0.312633
Si Si2 0.740631 0.334150 0.320705
Si Si3 0.451800 0.726885 0.184419
Si Si4 0.293981 0.571992 0.500000
Si Si5 0.962072 0.076821 0.000000
Si Si6 0.774597 0.532848 0.500000
Si Si7 0.663555 0.098093 0.693971
Si Si8 0.401386 0.361460 0.811753
O O1 0.553484 0.836534 0.500000
O O2 0.631519 0.822031 0.210367
O O3 0.452383 0.773672 0.305635
O O4 0.441515 0.869670 0.250099
O O5 0.710376 0.310524 0.500000
O O6 0.656087 0.308481 0.194264
O O7 0.725841 0.393752 0.334716
O O8 0.563284 0.694997 0.214537
O O9 0.452075 0.749415 0.000000
O O10 0.419229 0.549644 0.500000
O O11 0.208888 0.526067 0.500000
O O12 0.964247 0.108523 0.169214
O O13 0.857447 0.041239 0.000000
O O14 0.828153 0.553945 0.671326
O O15 0.654527 0.078936 0.500000
O O16 0.769571 0.133677 0.712129
O O17 0.435651 0.379195 0.000000
#
# Coordination Sequence:
#
# PCOD8235316 Si02
#       8
#     8   8   8   4   4   4   8   8
#     4  11  24  39  59  85 121 166 206 257 303 368
#     4  10  22  40  59  83 125 157 202 252 302 369
#     4  11  22  36  59  87 120 160 206 241 309 377
#     4  10  21  39  64  89 125 164 206 260 324 356
#     4  10  17  36  60  90 128 150 200 250 312 367
#     4  10  21  37  70  93 117 166 210 264 323 378
#     4   9  21  40  59  86 124 154 206 261 308 367
#     4   9  18  34  56  84 116 160 189 243 301 363
#
# _framework density 19.807092000000001
#
# number of rings (size 3 to 8) (size 9 to 14) (size 15 to 20)
#    0.462    1.538    1.538    1.615    5.385    0.000 
#    0.000    3.846    0.000    5.538    0.000    0.000 
#    0.000    0.000    0.000    0.000    0.000    0.000 
#
# Total GULP energy -644302.957242 kJ/mol
# GULP energy per Si atom -12390.441485 kJ/mol
# Density = 1.976201 g / cm^3
# Si number density = 19.807092 Si / 1000 Ang^3
#
#
#
# Elastic Constant Matrix: (Units=GPa)
#
#
# Indices 1 2 3 4 5 6 
#
# 1 70.9182 20.9249 10.3429 0.0000 0.0000 0.0000
# 2 20.9249 86.8154 22.2004 0.0000 0.0000 0.0000
# 3 10.3429 22.2004 76.9265 0.0000 0.0000 0.0000
# 4 0.0000 0.0000 0.0000 19.6758 0.0000 0.0000
# 5 0.0000 0.0000 0.0000 0.0000 18.2924 0.0000
# 6 0.0000 0.0000 0.0000 0.0000 0.0000 16.9023
#
#
#
# Elastic Compliance Matrix: (Units=1/GPa)
#
#
# Indices 1 2 3 4 5 6 
#
# 1 0.015261 -0.003405 -0.001069 0.000000 0.000000 0.000000
# 2 -0.003405 0.013196 -0.003351 0.000000 0.000000 0.000000
# 3 -0.001069 -0.003351 0.014110 0.000000 0.000000 0.000000
# 4 0.000000 0.000000 0.000000 0.050824 0.000000 0.000000
# 5 0.000000 0.000000 0.000000 0.000000 0.054667 0.000000
# 6 0.000000 0.000000 0.000000 0.000000 0.000000 0.059163
#
#
# Mechanical properties :
#
#
# Convention : Reuss Voigt Hill
#
# Bulk Modulus (GPa) = 37.14967 37.95518 37.55243
# Shear Modulus (GPa) = 21.56616 23.05356 22.30986
#
# Velocity S-wave (km/s) = 3.30329 3.41531 3.35977
# Velocity P-wave (km/s) = 5.77455 5.89546 5.83532
#
# Compressibility (1/GPa) = 0.02691814
#
# Stress axis : x y z
#
# Youngs Moduli (GPa) = 65.52496 75.77953 70.87110
#
# Poissons Ratio (x) = 0.25803 0.07578
# Poissons Ratio (y) = 0.22311 0.23745
# Poissons Ratio (z) = 0.07006 0.25390
#
# Static dielectric constant tensor:
#      x y z
#    x 3.511920 0.000000 0.000000 
#    y 0.000000 3.268110 0.000000 
#    z 0.000000 0.000000 3.734790 
# 
# 
# High freq. dielectric constant tensor:
#      x y z
#    x 1.773250 0.000000 0.000000 
#    y 0.000000 1.746040 0.000000 
#    z 0.000000 0.000000 1.775730 
# 
# From -- ./inp_files/4413.got.cif
#   From: 2010.06.25/outbox.cif.g09.slc.cpg/sg58_3_cif.got.tgz:4413.got - 2010.06.26 21:38:00.
