data_PCOD8235802
_publ_section_title
;
Structure prediction by ZEFSAII (Michael W. Deem and Ramdas Pophale) SiO2 
 PCOD8235802
Probable space group: P N N M
;
_chemical_formula_sum "Si O2"
_cell_formula_units_Z 52
_cell_length_a 17.180339
_cell_length_b 10.718184
_cell_length_c 15.058112
_cell_angle_alpha 90.000000
_cell_angle_beta 90.000000
_cell_angle_gamma 90.000000
_cell_volume 2772.831381
_symmetry_space_group_name_H-M "P N N M"
_symmetry_group_IT_number 58
_symmetry_cell_setting 'orthorhombic'
loop_
_space_group_symop_operation_xyz
x,y,z
-x,-y,z
1/2+x,1/2-y,1/2-z
1/2-x,1/2+y,1/2-z
-x,-y,-z
x,y,-z
1/2-x,1/2+y,1/2+z
1/2+x,1/2-y,1/2+z
loop_
_atom_site_type_symbol
_atom_site_label
_atom_site_fract_x
_atom_site_fract_y
_atom_site_fract_z
Si Si1 0.239082 0.690650 0.209333
Si Si2 0.368634 0.956259 0.500000
Si Si3 0.428563 0.283461 0.318802
Si Si4 0.688002 0.079841 0.306682
Si Si5 0.000000 0.000000 0.281649
Si Si6 0.535652 0.122250 0.199314
Si Si7 0.109368 0.169558 0.601386
Si Si8 0.022016 0.694627 0.000000
O O1 0.161678 0.750919 0.169075
O O2 0.267204 0.788988 0.285803
O O3 0.225334 0.545349 0.240095
O O4 0.301823 0.682360 0.131085
O O5 0.313828 0.941990 0.413076
O O6 0.433724 0.850750 0.500000
O O7 0.412549 0.087856 0.500000
O O8 0.443577 0.419934 0.280482
O O9 0.465131 0.187254 0.249872
O O10 0.468898 0.279989 0.414048
O O11 0.600302 0.092944 0.273044
O O12 0.938293 0.928442 0.341297
O O13 0.568648 0.197467 0.115862
O O14 0.500000 0.000000 0.155167
O O15 0.106129 0.128006 0.500000
#
# Coordination Sequence:
#
# PCOD8235802 Si02
#       8
#     8   4   8   8   4   8   8   4
#     4  11  23  38  62  89 127 163 195 252 313 367
#     4  11  20  36  64  96 114 149 212 258 290 359
#     4  11  21  37  61  90 119 159 201 245 311 367
#     4  11  22  38  63  90 124 159 202 246 304 368
#     4  10  23  43  62  82 122 166 202 247 305 372
#     4  10  18  37  63  84 110 154 201 246 291 354
#     4  10  23  38  60  87 114 155 206 250 292 352
#     4  11  20  33  66  96 116 147 205 260 298 361
#
# _framework density 18.753392999999999
#
# number of rings (size 3 to 8) (size 9 to 14) (size 15 to 20)
#    0.000    1.385    4.615    1.154    2.154    0.615 
#    0.000    0.000    8.462    0.000    0.000    0.000 
#    0.000    0.000    0.000    0.000    0.000    0.000 
#
# Total GULP energy -644541.378321 kJ/mol
# GULP energy per Si atom -12395.026506 kJ/mol
# Density = 1.871071 g / cm^3
# Si number density = 18.753393 Si / 1000 Ang^3
#
#
#
# Elastic Constant Matrix: (Units=GPa)
#
#
# Indices 1 2 3 4 5 6 
#
# 1 105.1127 44.9857 27.2101 0.0000 0.0000 0.0000
# 2 44.9857 119.9820 40.8691 0.0000 0.0000 0.0000
# 3 27.2101 40.8691 89.3444 0.0000 0.0000 0.0000
# 4 0.0000 0.0000 0.0000 147.5270 0.0000 0.0000
# 5 0.0000 0.0000 0.0000 0.0000 19.9212 0.0000
# 6 0.0000 0.0000 0.0000 0.0000 0.0000 26.6207
#
#
#
# Elastic Compliance Matrix: (Units=1/GPa)
#
#
# Indices 1 2 3 4 5 6 
#
# 1 0.011578 -0.003719 -0.001825 0.000000 0.000000 0.000000
# 2 -0.003719 0.011068 -0.003930 0.000000 0.000000 0.000000
# 3 -0.001825 -0.003930 0.013546 0.000000 0.000000 0.000000
# 4 0.000000 0.000000 0.000000 0.006778 0.000000 0.000000
# 5 0.000000 0.000000 0.000000 0.000000 0.050198 0.000000
# 6 0.000000 0.000000 0.000000 0.000000 0.000000 0.037565
#
#
# Mechanical properties :
#
#
# Convention : Reuss Voigt Hill
#
# Bulk Modulus (GPa) = 57.99301 60.06319 59.02810
# Shear Modulus (GPa) = 32.16914 52.23873 42.20393
#
# Velocity S-wave (km/s) = 4.14620 5.28357 4.74906
# Velocity P-wave (km/s) = 7.34251 8.32580 7.84957
#
# Compressibility (1/GPa) = 0.01724346
#
# Stress axis : x y z
#
# Youngs Moduli (GPa) = 86.37251 90.35220 73.82210
#
# Poissons Ratio (x) = 0.33606 0.13470
# Poissons Ratio (y) = 0.32125 0.29012
# Poissons Ratio (z) = 0.15760 0.35509
#
# Static dielectric constant tensor:
#      x y z
#    x 3.580500 0.000000 0.000000 
#    y 0.000000 3.905000 0.000000 
#    z 0.000000 0.000000 3.213190 
# 
# 
# High freq. dielectric constant tensor:
#      x y z
#    x 1.740480 0.000000 0.000000 
#    y 0.000000 1.736350 0.000000 
#    z 0.000000 0.000000 1.706790 
# 
# From -- ./inp_files/22906.got.cif
#   From: 2010.06.25/outbox.cif.g09.slc.cpg/sg58_12_cif.got.tgz:22906.got - 2010.06.26 21:38:00.
