data_PCOD8235484
_publ_section_title
;
Structure prediction by ZEFSAII (Michael W. Deem and Ramdas Pophale) SiO2 
 PCOD8235484
Probable space group: P N N M
;
_chemical_formula_sum "Si O2"
_cell_formula_units_Z 64
_cell_length_a 14.586262
_cell_length_b 24.963124
_cell_length_c 8.929141
_cell_angle_alpha 90.000000
_cell_angle_beta 90.000000
_cell_angle_gamma 90.000000
_cell_volume 3251.266918
_symmetry_space_group_name_H-M "P N N M"
_symmetry_group_IT_number 58
_symmetry_cell_setting 'orthorhombic'
loop_
_space_group_symop_operation_xyz
x,y,z
-x,-y,z
1/2+x,1/2-y,1/2-z
1/2-x,1/2+y,1/2-z
-x,-y,-z
x,y,-z
1/2-x,1/2+y,1/2+z
1/2+x,1/2-y,1/2+z
loop_
_atom_site_type_symbol
_atom_site_label
_atom_site_fract_x
_atom_site_fract_y
_atom_site_fract_z
Si Si1 0.372213 0.659779 0.666576
Si Si2 0.858070 0.089159 0.669896
Si Si3 0.560003 0.434560 0.168353
Si Si4 0.863630 0.732761 0.670039
Si Si5 0.062169 0.699093 0.325776
Si Si6 0.216695 0.005988 0.822924
Si Si7 0.661059 0.699941 0.674749
Si Si8 0.678605 0.894915 0.832768
O O1 0.414098 0.653010 0.500000
O O2 0.431819 0.627904 0.788188
O O3 0.375724 0.721148 0.710121
O O4 0.268200 0.641252 0.669230
O O5 0.830102 0.102222 0.500000
O O6 0.873807 0.144285 0.756819
O O7 0.951287 0.052984 0.674636
O O8 0.778447 0.052239 0.744494
O O9 0.617966 0.467683 0.288963
O O10 0.597704 0.444405 0.000000
O O11 0.860092 0.755353 0.500000
O O12 0.769975 0.701654 0.706381
O O13 0.952427 0.695036 0.691738
O O14 0.091109 0.703133 0.500000
O O15 0.106176 0.750439 0.245235
O O16 0.101210 0.642766 0.255213
O O17 0.296539 0.046692 0.759838
O O18 0.225590 0.998710 0.000000
O O19 0.638809 0.700070 0.500000
O O20 0.645711 0.907904 0.000000
#
# Coordination Sequence:
#
# PCOD8235484 Si02
#       8
#     8   8   8   8   8   8   8   8
#     4  10  18  30  50  75 104 139 178 217 261 314
#     4  11  23  37  52  73 104 147 186 217 268 332
#     4  10  20  33  50  75 108 142 180 220 263 323
#     4  10  21  34  52  78 109 142 179 223 274 324
#     4  10  19  36  58  79 107 145 181 217 268 333
#     4  10  20  34  54  80 106 137 179 228 274 318
#     4  11  23  37  53  81 114 143 180 229 273 318
#     4   8  16  31  52  76 100 132 173 213 256 311
#
# _framework density 19.684633000000002
#
# number of rings (size 3 to 8) (size 9 to 14) (size 15 to 20)
#    0.000    2.000    1.250    3.750    0.000    7.500 
#    0.000    0.625    0.000    0.750    0.000    5.250 
#    0.000    0.000    0.000    0.000    0.000    0.000 
#
# Total GULP energy -793072.539621 kJ/mol
# GULP energy per Si atom -12391.758432 kJ/mol
# Density = 1.963983 g / cm^3
# Si number density = 19.684633 Si / 1000 Ang^3
#
#
#
# Elastic Constant Matrix: (Units=GPa)
#
#
# Indices 1 2 3 4 5 6 
#
# 1 68.4096 -0.0244 12.7552 0.0000 0.0000 0.0000
# 2 -0.0244 29.2089 -3.4197 0.0000 0.0000 0.0000
# 3 12.7552 -3.4197 56.2553 0.0000 0.0000 0.0000
# 4 0.0000 0.0000 0.0000 30.7365 0.0000 0.0000
# 5 0.0000 0.0000 0.0000 0.0000 15.4916 0.0000
# 6 0.0000 0.0000 0.0000 0.0000 0.0000 22.1820
#
#
#
# Elastic Compliance Matrix: (Units=1/GPa)
#
#
# Indices 1 2 3 4 5 6 
#
# 1 0.015268 -0.000395 -0.003486 0.000000 0.000000 0.000000
# 2 -0.000395 0.034492 0.002186 0.000000 0.000000 0.000000
# 3 -0.003486 0.002186 0.018699 0.000000 0.000000 0.000000
# 4 0.000000 0.000000 0.000000 0.032535 0.000000 0.000000
# 5 0.000000 0.000000 0.000000 0.000000 0.064551 0.000000
# 6 0.000000 0.000000 0.000000 0.000000 0.000000 0.045082
#
#
# Mechanical properties :
#
#
# Convention : Reuss Voigt Hill
#
# Bulk Modulus (GPa) = 15.36824 19.16622 17.26723
# Shear Modulus (GPa) = 21.21291 23.31954 22.26622
#
# Velocity S-wave (km/s) = 3.28630 3.44562 3.36690
# Velocity P-wave (km/s) = 4.71422 5.05841 4.88934
#
# Compressibility (1/GPa) = 0.06506925
#
# Stress axis : x y z
#
# Youngs Moduli (GPa) = 65.49813 28.99241 53.47776
#
# Poissons Ratio (x) = 0.01146 0.18641
# Poissons Ratio (y) = 0.02590 -0.11692
# Poissons Ratio (z) = 0.22831 -0.06339
#
# Static dielectric constant tensor:
#      x y z
#    x 3.566890 0.000000 0.000000 
#    y 0.000000 3.692350 0.000000 
#    z 0.000000 0.000000 3.565500 
# 
# 
# High freq. dielectric constant tensor:
#      x y z
#    x 1.742230 0.000000 0.000000 
#    y 0.000000 1.765640 0.000000 
#    z 0.000000 0.000000 1.758620 
# 
# From -- ./inp_files/6989.got.cif
#   From: 2010.06.25/outbox.cif.g09.slc.cpg/sg58_4_cif.got.tgz:6989.got - 2010.06.26 21:38:00.
