data_PCOD8235429
_publ_section_title
;
Structure prediction by ZEFSAII (Michael W. Deem and Ramdas Pophale) SiO2 
 PCOD8235429
Probable space group: P N N M
;
_chemical_formula_sum "Si O2"
_cell_formula_units_Z 64
_cell_length_a 23.506470
_cell_length_b 18.927517
_cell_length_c 8.819939
_cell_angle_alpha 90.000000
_cell_angle_beta 90.000000
_cell_angle_gamma 90.000000
_cell_volume 3924.159415
_symmetry_space_group_name_H-M "P N N M"
_symmetry_group_IT_number 58
_symmetry_cell_setting 'orthorhombic'
loop_
_space_group_symop_operation_xyz
x,y,z
-x,-y,z
1/2+x,1/2-y,1/2-z
1/2-x,1/2+y,1/2-z
-x,-y,-z
x,y,-z
1/2-x,1/2+y,1/2+z
1/2+x,1/2-y,1/2+z
loop_
_atom_site_type_symbol
_atom_site_label
_atom_site_fract_x
_atom_site_fract_y
_atom_site_fract_z
Si Si1 0.775414 0.639103 0.678707
Si Si2 0.880885 0.994323 0.680163
Si Si3 0.341804 0.739003 0.321582
Si Si4 0.251431 0.502646 0.821551
Si Si5 0.436931 0.363853 0.821595
Si Si6 0.265432 0.145089 0.174618
Si Si7 0.063567 0.150645 0.680425
Si Si8 0.172452 0.783374 0.675713
O O1 0.781468 0.640453 0.500000
O O2 0.825709 0.685939 0.749499
O O3 0.782879 0.559545 0.739050
O O4 0.713709 0.667966 0.725916
O O5 0.881181 0.996055 0.500000
O O6 0.911105 0.923556 0.739299
O O7 0.816260 0.996724 0.739027
O O8 0.914764 0.061785 0.746813
O O9 0.346163 0.748928 0.500000
O O10 0.293866 0.681601 0.277671
O O11 0.401936 0.714753 0.254510
O O12 0.222843 0.577250 0.778203
O O13 0.247853 0.490962 0.000000
O O14 0.498941 0.344023 0.757658
O O15 0.392525 0.301496 0.780670
O O16 0.442688 0.373670 0.000000
O O17 0.316494 0.200604 0.205560
O O18 0.263871 0.121620 0.000000
O O19 0.067697 0.157127 0.500000
O O20 0.185222 0.802146 0.500000
#
# Coordination Sequence:
#
# PCOD8235429 Si02
#       8
#     8   8   8   8   8   8   8   8
#     4  11  21  32  49  71  95 122 160 204 244 288
#     4   9  16  26  43  68  98 130 166 200 228 271
#     4  10  20  34  49  67  96 130 161 199 246 290
#     4  11  19  30  49  70  96 129 161 193 242 295
#     4   9  16  28  48  70  96 130 170 204 234 275
#     4   9  18  30  46  67  94 124 160 200 241 285
#     4  10  18  29  48  73  96 128 172 208 232 271
#     4   9  17  32  49  69  96 130 164 200 244 287
#
# _framework density 16.309225999999999
#
# number of rings (size 3 to 8) (size 9 to 14) (size 15 to 20)
#    0.000    2.250    2.500    3.000    0.000    3.500 
#    0.000    0.625    0.000    0.750    0.000    0.875 
#    0.000    7.000    0.000    0.000    0.000    0.000 
#
# Total GULP energy -793617.106086 kJ/mol
# GULP energy per Si atom -12400.267283 kJ/mol
# Density = 1.627211 g / cm^3
# Si number density = 16.309226 Si / 1000 Ang^3
#
#
#
# Elastic Constant Matrix: (Units=GPa)
#
#
# Indices 1 2 3 4 5 6 
#
# 1 93.9102 56.1799 21.6465 0.0000 0.0000 0.0000
# 2 56.1799 111.1490 35.0261 0.0000 0.0000 0.0000
# 3 21.6465 35.0261 54.2914 0.0000 0.0000 0.0000
# 4 0.0000 0.0000 0.0000 24.9483 0.0000 0.0000
# 5 0.0000 0.0000 0.0000 0.0000 17.6055 0.0000
# 6 0.0000 0.0000 0.0000 0.0000 0.0000 26.6628
#
#
#
# Elastic Compliance Matrix: (Units=1/GPa)
#
#
# Indices 1 2 3 4 5 6 
#
# 1 0.015348 -0.007317 -0.001399 0.000000 0.000000 0.000000
# 2 -0.007317 0.014781 -0.006619 0.000000 0.000000 0.000000
# 3 -0.001399 -0.006619 0.023247 0.000000 0.000000 0.000000
# 4 0.000000 0.000000 0.000000 0.040083 0.000000 0.000000
# 5 0.000000 0.000000 0.000000 0.000000 0.056800 0.000000
# 6 0.000000 0.000000 0.000000 0.000000 0.000000 0.037505
#
#
# Mechanical properties :
#
#
# Convention : Reuss Voigt Hill
#
# Bulk Modulus (GPa) = 44.03915 53.89507 48.96711
# Shear Modulus (GPa) = 22.12367 23.60986 22.86677
#
# Velocity S-wave (km/s) = 3.68708 3.80891 3.74849
# Velocity P-wave (km/s) = 6.72215 7.24301 6.98744
#
# Compressibility (1/GPa) = 0.02270707
#
# Stress axis : x y z
#
# Youngs Moduli (GPa) = 65.15486 67.65499 43.01643
#
# Poissons Ratio (x) = 0.49501 0.06018
# Poissons Ratio (y) = 0.47672 0.28471
# Poissons Ratio (z) = 0.09115 0.44778
#
# Static dielectric constant tensor:
#      x y z
#    x 3.063070 0.000000 0.000000 
#    y 0.000000 3.129540 0.000000 
#    z 0.000000 0.000000 2.845970 
# 
# 
# High freq. dielectric constant tensor:
#      x y z
#    x 1.602320 0.000000 0.000000 
#    y 0.000000 1.625280 0.000000 
#    z 0.000000 0.000000 1.609830 
# 
# From -- ./inp_files/8481.got.cif
#   From: 2010.06.25/outbox.cif.g09.slc.cpg/sg58_5_cif.got.tgz:8481.got - 2010.06.26 21:38:00.
