data_PCOD8235027
_publ_section_title
;
Structure prediction by ZEFSAII (Michael W. Deem and Ramdas Pophale) SiO2 
 PCOD8235027
Probable space group: P B C M
;
_chemical_formula_sum "Si O2"
_cell_formula_units_Z 64
_cell_length_a 17.406891
_cell_length_b 22.494147
_cell_length_c 8.741485
_cell_angle_alpha 90.000000
_cell_angle_beta 90.000000
_cell_angle_gamma 90.000000
_cell_volume 3422.756118
_symmetry_space_group_name_H-M "P B C M"
_symmetry_group_IT_number 57
_symmetry_cell_setting 'orthorhombic'
loop_
_space_group_symop_operation_xyz
x,y,z
-x,-y,1/2+z
x,1/2-y,-z
-x,1/2+y,1/2-z
-x,-y,-z
x,y,1/2-z
-x,1/2+y,z
x,1/2-y,1/2+z
loop_
_atom_site_type_symbol
_atom_site_label
_atom_site_fract_x
_atom_site_fract_y
_atom_site_fract_z
Si Si1 0.145356 0.585754 0.429904
Si Si2 0.419361 0.517317 0.070493
Si Si3 0.995829 0.936294 0.426364
Si Si4 0.322923 0.417795 0.925479
Si Si5 0.741796 0.310460 0.931803
Si Si6 0.826994 0.949969 0.427146
Si Si7 0.592661 0.358494 0.068489
Si Si8 0.563907 0.812451 0.927558
O O1 0.137756 0.588309 0.250000
O O2 0.061565 0.604549 0.496811
O O3 0.207701 0.633437 0.488418
O O4 0.168846 0.519091 0.482220
O O5 0.428797 0.528629 0.250000
O O6 0.500000 0.500000 0.000000
O O7 0.359133 0.465574 0.039941
O O8 0.387270 0.576108 0.991368
O O9 0.016033 0.941760 0.250000
O O10 0.907866 0.914867 0.450693
O O11 0.000000 0.000000 0.500000
O O12 0.333426 0.438096 0.750000
O O13 0.362668 0.354451 0.952242
O O14 0.233462 0.413895 0.969574
O O15 0.738039 0.307218 0.750000
O O16 0.778537 0.250000 0.000000
O O17 0.656216 0.314723 0.999959
O O18 0.802255 0.948224 0.250000
O O19 0.594936 0.356373 0.250000
O O20 0.508883 0.339816 0.012666
O O21 0.543007 0.804923 0.750000
O O22 0.587027 0.750000 0.000000
#
# Coordination Sequence:
#
# PCOD8235027 Si02
#       8
#     8   8   8   8   8   8   8   8
#     4   9  19  35  55  80 111 147 182 223 276 328
#     4  12  23  37  57  82 113 146 181 225 279 335
#     4   9  17  30  52  81 112 143 174 213 263 323
#     4  11  23  37  56  83 112 145 184 228 276 327
#     4  11  23  39  57  80 113 151 192 238 282 332
#     4   9  18  33  54  83 115 145 178 222 279 336
#     4  12  24  39  60  83 109 145 187 231 282 331
#     4  11  24  41  59  78 105 140 186 234 277 327
#
# _framework density 18.698381000000001
#
# number of rings (size 3 to 8) (size 9 to 14) (size 15 to 20)
#    0.000    1.500    1.250    5.625    0.000    6.000 
#    0.000    0.000    0.000    0.750    0.000    0.000 
#    0.000    0.000    0.000    0.000    0.000    0.000 
#
# Total GULP energy -793643.691694 kJ/mol
# GULP energy per Si atom -12400.682683 kJ/mol
# Density = 1.865582 g / cm^3
# Si number density = 18.698381 Si / 1000 Ang^3
#
#
#
# Elastic Constant Matrix: (Units=GPa)
#
#
# Indices 1 2 3 4 5 6 
#
# 1 118.3282 35.3180 46.7282 0.0000 0.0000 0.0000
# 2 35.3180 83.7958 38.6885 0.0000 0.0000 0.0000
# 3 46.7282 38.6885 91.8983 0.0000 0.0000 0.0000
# 4 0.0000 0.0000 0.0000 29.5024 0.0000 0.0000
# 5 0.0000 0.0000 0.0000 0.0000 35.0634 0.0000
# 6 0.0000 0.0000 0.0000 0.0000 0.0000 20.0525
#
#
#
# Elastic Compliance Matrix: (Units=1/GPa)
#
#
# Indices 1 2 3 4 5 6 
#
# 1 0.010996 -0.002548 -0.004518 0.000000 0.000000 0.000000
# 2 -0.002548 0.015404 -0.005189 0.000000 0.000000 0.000000
# 3 -0.004518 -0.005189 0.015364 0.000000 0.000000 0.000000
# 4 0.000000 0.000000 0.000000 0.033896 0.000000 0.000000
# 5 0.000000 0.000000 0.000000 0.000000 0.028520 0.000000
# 6 0.000000 0.000000 0.000000 0.000000 0.000000 0.049869
#
#
# Mechanical properties :
#
#
# Convention : Reuss Voigt Hill
#
# Bulk Modulus (GPa) = 57.96534 59.49907 58.73220
# Shear Modulus (GPa) = 27.12823 28.47617 27.80220
#
# Velocity S-wave (km/s) = 3.81311 3.90670 3.86019
# Velocity P-wave (km/s) = 7.10309 7.22767 7.16565
#
# Compressibility (1/GPa) = 0.01725169
#
# Stress axis : x y z
#
# Youngs Moduli (GPa) = 90.94191 64.91972 65.08897
#
# Poissons Ratio (x) = 0.16544 0.29409
# Poissons Ratio (y) = 0.23176 0.33775
# Poissons Ratio (z) = 0.41091 0.33687
#
# Static dielectric constant tensor:
#      x y z
#    x 3.910590 0.000000 0.000000 
#    y 0.000000 3.400400 0.000000 
#    z 0.000000 0.000000 3.576780 
# 
# 
# High freq. dielectric constant tensor:
#      x y z
#    x 1.732210 0.000000 0.000000 
#    y 0.000000 1.699970 0.000000 
#    z 0.000000 0.000000 1.738250 
# 
# From -- ./inp_files/7293.got.cif
#   From: 2010.03.12/outbox.cif.g09.slc.cpg/sg57_4_cif.got.tgz:7293.got - 2010.04.16 15:48:40.
