data_PCOD8235895
_publ_section_title
;
Structure prediction by ZEFSAII (Michael W. Deem and Ramdas Pophale) SiO2 
 PCOD8235895
Probable space group: P N N M
;
_chemical_formula_sum "Si O2"
_cell_formula_units_Z 64
_cell_length_a 19.865715
_cell_length_b 20.197501
_cell_length_c 8.795143
_cell_angle_alpha 90.000000
_cell_angle_beta 90.000000
_cell_angle_gamma 90.000000
_cell_volume 3528.943816
_symmetry_space_group_name_H-M "P N N M"
_symmetry_group_IT_number 58
_symmetry_cell_setting 'orthorhombic'
loop_
_space_group_symop_operation_xyz
x,y,z
-x,-y,z
1/2+x,1/2-y,1/2-z
1/2-x,1/2+y,1/2-z
-x,-y,-z
x,y,-z
1/2-x,1/2+y,1/2+z
1/2+x,1/2-y,1/2+z
loop_
_atom_site_type_symbol
_atom_site_label
_atom_site_fract_x
_atom_site_fract_y
_atom_site_fract_z
Si Si1 0.058572 0.046682 0.820468
Si Si2 0.667916 0.791730 0.176694
Si Si3 0.973998 0.297053 0.824646
Si Si4 0.995124 0.167677 0.676655
Si Si5 0.300894 0.485601 0.678929
Si Si6 0.693848 0.919904 0.319583
Si Si7 0.457367 0.059440 0.321640
Si Si8 0.840036 0.145514 0.325521
O O1 0.047875 0.120475 0.760100
O O2 0.129961 0.019201 0.764864
O O3 0.054643 0.047656 0.000000
O O4 0.000000 0.000000 0.752112
O O5 0.604444 0.796204 0.286665
O O6 0.716936 0.850733 0.236218
O O7 0.697159 0.716986 0.195515
O O8 0.648030 0.802555 0.000000
O O9 0.998009 0.372108 0.788603
O O10 0.013467 0.242916 0.724673
O O11 0.984476 0.278685 0.000000
O O12 0.006330 0.159701 0.500000
O O13 0.918321 0.151472 0.724468
O O14 0.289654 0.493559 0.500000
O O15 0.241262 0.520453 0.769243
O O16 0.302606 0.407889 0.720712
O O17 0.697464 0.910134 0.500000
O O18 0.618986 0.938347 0.259075
O O19 0.451418 0.047113 0.500000
O O20 0.500000 0.000000 0.244600
O O21 0.835587 0.122298 0.500000
#
# Coordination Sequence:
#
# PCOD8235895 Si02
#       8
#     8   8   8   8   8   8   8   8
#     4  10  20  34  50  73 102 136 178 218 257 305
#     4   9  17  31  51  75 102 130 168 214 256 304
#     4   9  16  27  48  76 103 132 166 209 255 304
#     4  10  19  30  48  73 103 136 170 216 261 301
#     4  11  22  34  52  75 104 139 173 216 262 310
#     4  10  20  34  54  78 104 135 170 213 261 315
#     4   8  15  30  54  81 103 127 166 209 253 304
#     4   9  18  31  49  75 102 131 169 211 255 304
#
# _framework density 18.135738
#
# number of rings (size 3 to 8) (size 9 to 14) (size 15 to 20)
#    0.000    2.500    1.250    3.375    0.000    3.750 
#    0.000    0.000    2.750   13.500    0.000    0.000 
#    0.000    0.000    0.000    0.000    0.000    0.000 
#
# Total GULP energy -793255.480947 kJ/mol
# GULP energy per Si atom -12394.616890 kJ/mol
# Density = 1.809446 g / cm^3
# Si number density = 18.135738 Si / 1000 Ang^3
#
#
#
# Elastic Constant Matrix: (Units=GPa)
#
#
# Indices 1 2 3 4 5 6 
#
# 1 56.5602 46.0283 20.9717 0.0000 0.0000 0.0000
# 2 46.0283 139.2220 24.1722 0.0000 0.0000 0.0000
# 3 20.9717 24.1722 21.4486 0.0000 0.0000 0.0000
# 4 0.0000 0.0000 0.0000 30.6143 0.0000 0.0000
# 5 0.0000 0.0000 0.0000 0.0000 18.7273 0.0000
# 6 0.0000 0.0000 0.0000 0.0000 0.0000 25.0915
#
#
#
# Elastic Compliance Matrix: (Units=1/GPa)
#
#
# Indices 1 2 3 4 5 6 
#
# 1 0.031669 -0.006333 -0.023827 0.000000 0.000000 0.000000
# 2 -0.006333 0.010197 -0.005299 0.000000 0.000000 0.000000
# 3 -0.023827 -0.005299 0.075893 0.000000 0.000000 0.000000
# 4 0.000000 0.000000 0.000000 0.032665 0.000000 0.000000
# 5 0.000000 0.000000 0.000000 0.000000 0.053398 0.000000
# 6 0.000000 0.000000 0.000000 0.000000 0.000000 0.039854
#
#
# Mechanical properties :
#
#
# Convention : Reuss Voigt Hill
#
# Bulk Modulus (GPa) = 21.34979 44.39725 32.87352
# Shear Modulus (GPa) = 15.14201 23.29052 19.21626
#
# Velocity S-wave (km/s) = 2.89264 3.58751 3.25865
# Velocity P-wave (km/s) = 4.79106 6.45709 5.68543
#
# Compressibility (1/GPa) = 0.04683886
#
# Stress axis : x y z
#
# Youngs Moduli (GPa) = 31.57670 98.07173 13.17651
#
# Poissons Ratio (x) = 0.62110 0.31396
# Poissons Ratio (y) = 0.19998 0.06982
# Poissons Ratio (z) = 0.75239 0.51970
#
# Static dielectric constant tensor:
#      x y z
#    x 3.033230 0.000000 0.000000 
#    y 0.000000 3.809200 0.000000 
#    z 0.000000 0.000000 3.230210 
# 
# 
# High freq. dielectric constant tensor:
#      x y z
#    x 1.647810 0.000000 0.000000 
#    y 0.000000 1.722780 0.000000 
#    z 0.000000 0.000000 1.699180 
# 
# From -- ./inp_files/8297.got.cif
#   From: 2010.06.25/outbox.cif.g09.slc.cpg/sg58_5_cif.got.tgz:8297.got - 2010.06.26 21:38:00.
