data_PCOD8235894
_publ_section_title
;
Structure prediction by ZEFSAII (Michael W. Deem and Ramdas Pophale) SiO2 
 PCOD8235894
Probable space group: P N N M
;
_chemical_formula_sum "Si O2"
_cell_formula_units_Z 48
_cell_length_a 19.555436
_cell_length_b 17.143377
_cell_length_c 9.031118
_cell_angle_alpha 90.000000
_cell_angle_beta 90.000000
_cell_angle_gamma 90.000000
_cell_volume 3027.648097
_symmetry_space_group_name_H-M "P N N M"
_symmetry_group_IT_number 58
_symmetry_cell_setting 'orthorhombic'
loop_
_space_group_symop_operation_xyz
x,y,z
-x,-y,z
1/2+x,1/2-y,1/2-z
1/2-x,1/2+y,1/2-z
-x,-y,-z
x,y,-z
1/2-x,1/2+y,1/2+z
1/2+x,1/2-y,1/2+z
loop_
_atom_site_type_symbol
_atom_site_label
_atom_site_fract_x
_atom_site_fract_y
_atom_site_fract_z
Si Si1 0.570252 0.466412 0.167698
Si Si2 0.909117 0.654249 0.824497
Si Si3 0.846267 0.506328 0.327247
Si Si4 0.633473 0.310702 0.832432
Si Si5 0.543360 0.921809 0.336988
Si Si6 0.300910 0.558785 0.673256
O O1 0.500000 0.500000 0.236458
O O2 0.569082 0.371245 0.168555
O O3 0.635468 0.494146 0.266270
O O4 0.579533 0.497929 0.000000
O O5 0.863198 0.585508 0.757633
O O6 0.884010 0.735563 0.761801
O O7 0.989563 0.644018 0.781641
O O8 0.899743 0.652074 0.000000
O O9 0.858187 0.519681 0.500000
O O10 0.894084 0.433895 0.275871
O O11 0.768705 0.485185 0.288587
O O12 0.697274 0.356834 0.756340
O O13 0.652942 0.286593 0.000000
O O14 0.572621 0.900754 0.500000
O O15 0.500000 0.000000 0.348434
O O16 0.309451 0.573304 0.500000
#
# Coordination Sequence:
#
# PCOD8235894 Si02
#       6
#     8   8   8   8   8   8
#     4   8  16  31  51  72  93 120 158 198 236 281
#     4  10  19  31  49  72  98 127 160 199 242 288
#     4  10  19  30  48  72  99 128 162 199 235 286
#     4   9  18  31  50  71  94 123 157 198 241 286
#     4   8  16  29  45  68  95 124 159 194 234 283
#     4   9  18  31  48  72  98 127 162 197 239 287
#
# _framework density 15.85389
#
# number of rings (size 3 to 8) (size 9 to 14) (size 15 to 20)
#    1.000    2.000    0.000    2.500    0.000    6.667 
#    0.000    0.000    3.667    0.000    0.000    0.000 
#    0.000    0.000    0.000    0.000    0.000    0.000 
#
# Total GULP energy -594639.052264 kJ/mol
# GULP energy per Si atom -12388.313589 kJ/mol
# Density = 1.581781 g / cm^3
# Si number density = 15.853890 Si / 1000 Ang^3
#
#
#
# Elastic Constant Matrix: (Units=GPa)
#
#
# Indices 1 2 3 4 5 6 
#
# 1 115.6654 43.9200 65.4064 0.0000 0.0000 0.0000
# 2 43.9200 69.2106 42.9499 0.0000 0.0000 0.0000
# 3 65.4064 42.9499 94.6930 0.0000 0.0000 0.0000
# 4 0.0000 0.0000 0.0000 14.0233 0.0000 0.0000
# 5 0.0000 0.0000 0.0000 0.0000 24.3276 0.0000
# 6 0.0000 0.0000 0.0000 0.0000 0.0000 19.7622
#
#
#
# Elastic Compliance Matrix: (Units=1/GPa)
#
#
# Indices 1 2 3 4 5 6 
#
# 1 0.015060 -0.004316 -0.008444 0.000000 0.000000 0.000000
# 2 -0.004316 0.021346 -0.006700 0.000000 0.000000 0.000000
# 3 -0.008444 -0.006700 0.019432 0.000000 0.000000 0.000000
# 4 0.000000 0.000000 0.000000 0.071310 0.000000 0.000000
# 5 0.000000 0.000000 0.000000 0.000000 0.041106 0.000000
# 6 0.000000 0.000000 0.000000 0.000000 0.000000 0.050602
#
#
# Mechanical properties :
#
#
# Convention : Reuss Voigt Hill
#
# Bulk Modulus (GPa) = 59.11712 64.90239 62.00975
# Shear Modulus (GPa) = 18.98141 20.10878 19.54510
#
# Velocity S-wave (km/s) = 3.46391 3.56530 3.51497
# Velocity P-wave (km/s) = 7.30534 7.61414 7.46134
#
# Compressibility (1/GPa) = 0.01691557
#
# Stress axis : x y z
#
# Youngs Moduli (GPa) = 66.40241 46.84755 51.46109
#
# Poissons Ratio (x) = 0.20221 0.43455
# Poissons Ratio (y) = 0.28662 0.34481
# Poissons Ratio (z) = 0.56072 0.31390
#
# Static dielectric constant tensor:
#      x y z
#    x 3.032270 0.000000 0.000000 
#    y 0.000000 2.826270 0.000000 
#    z 0.000000 0.000000 3.096730 
# 
# 
# High freq. dielectric constant tensor:
#      x y z
#    x 1.594290 0.000000 0.000000 
#    y 0.000000 1.579810 0.000000 
#    z 0.000000 0.000000 1.622780 
# 
# From -- ./inp_files/8858.got.cif
#   From: 2010.06.25/outbox.cif.g09.slc.cpg/sg58_5_cif.got.tgz:8858.got - 2010.06.26 21:38:00.
