data_PCOD8235822
_publ_section_title
;
Structure prediction by ZEFSAII (Michael W. Deem and Ramdas Pophale) SiO2 
 PCOD8235822
Probable space group: P N N M
;
_chemical_formula_sum "Si O2"
_cell_formula_units_Z 64
_cell_length_a 18.133135
_cell_length_b 26.326896
_cell_length_c 8.751806
_cell_angle_alpha 90.000000
_cell_angle_beta 90.000000
_cell_angle_gamma 90.000000
_cell_volume 4178.017309
_symmetry_space_group_name_H-M "P N N M"
_symmetry_group_IT_number 58
_symmetry_cell_setting 'orthorhombic'
loop_
_space_group_symop_operation_xyz
x,y,z
-x,-y,z
1/2+x,1/2-y,1/2-z
1/2-x,1/2+y,1/2-z
-x,-y,-z
x,y,-z
1/2-x,1/2+y,1/2+z
1/2+x,1/2-y,1/2+z
loop_
_atom_site_type_symbol
_atom_site_label
_atom_site_fract_x
_atom_site_fract_y
_atom_site_fract_z
Si Si1 0.919118 0.049577 0.820577
Si Si2 0.414250 0.255794 0.821394
Si Si3 0.430087 0.745592 0.324647
Si Si4 0.161943 0.144657 0.822950
Si Si5 0.289666 0.197853 0.670622
Si Si6 0.925091 0.944033 0.320273
Si Si7 0.663334 0.649938 0.678814
Si Si8 0.694197 0.201044 0.830693
O O1 0.859886 0.092834 0.780123
O O2 0.999437 0.068614 0.768056
O O3 0.895232 0.999200 0.730004
O O4 0.921572 0.037796 0.000000
O O5 0.499569 0.248874 0.782027
O O6 0.369033 0.209925 0.743447
O O7 0.388427 0.311354 0.769408
O O8 0.402076 0.251101 0.000000
O O9 0.453911 0.750209 0.500000
O O10 0.391545 0.692004 0.289756
O O11 0.373559 0.791494 0.285301
O O12 0.245429 0.157017 0.772100
O O13 0.135376 0.097485 0.722751
O O14 0.161629 0.129744 0.000000
O O15 0.300749 0.176034 0.500000
O O16 0.244294 0.249386 0.665826
O O17 0.940132 0.943611 0.500000
O O18 0.651700 0.661864 0.500000
O O19 0.750130 0.656107 0.723032
O O20 0.662395 0.190006 0.000000
#
# Coordination Sequence:
#
# PCOD8235822 Si02
#       8
#     8   8   8   8   8   8   8   8
#     4  10  19  32  47  62  83 113 147 183 220 255
#     4  11  20  28  42  63  87 115 145 176 210 251
#     4  10  19  29  42  61  85 113 144 176 209 248
#     4  10  19  31  46  63  84 113 148 180 214 257
#     4   9  17  30  45  61  84 111 140 176 214 252
#     4  11  21  31  43  62  87 114 145 182 220 254
#     4   9  18  31  46  62  83 112 144 178 216 256
#     4   8  15  28  43  60  82 107 136 171 210 251
#
# _framework density 15.318270999999999
#
# number of rings (size 3 to 8) (size 9 to 14) (size 15 to 20)
#    0.000    2.250    0.000    6.000    0.000    8.500 
#    0.000    0.000    0.000    0.000    0.000    0.000 
#    0.000    1.000    0.000   10.750    0.000    4.750 
#
# Total GULP energy -793568.037085 kJ/mol
# GULP energy per Si atom -12399.500579 kJ/mol
# Density = 1.528341 g / cm^3
# Si number density = 15.318271 Si / 1000 Ang^3
#
#
#
# Elastic Constant Matrix: (Units=GPa)
#
#
# Indices 1 2 3 4 5 6 
#
# 1 72.6988 36.3007 29.6376 0.0000 0.0000 0.0000
# 2 36.3007 65.3210 22.7946 0.0000 0.0000 0.0000
# 3 29.6376 22.7946 70.7304 0.0000 0.0000 0.0000
# 4 0.0000 0.0000 0.0000 19.8470 0.0000 0.0000
# 5 0.0000 0.0000 0.0000 0.0000 25.1346 0.0000
# 6 0.0000 0.0000 0.0000 0.0000 0.0000 26.5625
#
#
#
# Elastic Compliance Matrix: (Units=1/GPa)
#
#
# Indices 1 2 3 4 5 6 
#
# 1 0.020860 -0.009625 -0.005639 0.000000 0.000000 0.000000
# 2 -0.009625 0.021690 -0.002957 0.000000 0.000000 0.000000
# 3 -0.005639 -0.002957 0.017454 0.000000 0.000000 0.000000
# 4 0.000000 0.000000 0.000000 0.050386 0.000000 0.000000
# 5 0.000000 0.000000 0.000000 0.000000 0.039786 0.000000
# 6 0.000000 0.000000 0.000000 0.000000 0.000000 0.037647
#
#
# Mechanical properties :
#
#
# Convention : Reuss Voigt Hill
#
# Bulk Modulus (GPa) = 42.44088 42.91289 42.67688
# Shear Modulus (GPa) = 21.54075 22.30997 21.92536
#
# Velocity S-wave (km/s) = 3.75402 3.82046 3.78738
# Velocity P-wave (km/s) = 6.82323 6.89465 6.85903
#
# Compressibility (1/GPa) = 0.02356219
#
# Stress axis : x y z
#
# Youngs Moduli (GPa) = 47.93807 46.10487 57.29328
#
# Poissons Ratio (x) = 0.44375 0.32308
# Poissons Ratio (y) = 0.46139 0.16942
# Poissons Ratio (z) = 0.27033 0.13633
#
# Static dielectric constant tensor:
#      x y z
#    x 2.972190 0.000000 0.000000 
#    y 0.000000 2.825040 0.000000 
#    z 0.000000 0.000000 3.045060 
# 
# 
# High freq. dielectric constant tensor:
#      x y z
#    x 1.573970 0.000000 0.000000 
#    y 0.000000 1.552820 0.000000 
#    z 0.000000 0.000000 1.602390 
# 
# From -- ./inp_files/8532.got.cif
#   From: 2010.06.25/outbox.cif.g09.slc.cpg/sg58_5_cif.got.tgz:8532.got - 2010.06.26 21:38:00.
