data_PCOD8235395
_publ_section_title
;
Structure prediction by ZEFSAII (Michael W. Deem and Ramdas Pophale) SiO2 
 PCOD8235395
Probable space group: P N N M
;
_chemical_formula_sum "Si O2"
_cell_formula_units_Z 56
_cell_length_a 8.967156
_cell_length_b 18.316805
_cell_length_c 18.365571
_cell_angle_alpha 90.000000
_cell_angle_beta 90.000000
_cell_angle_gamma 90.000000
_cell_volume 3016.538569
_symmetry_space_group_name_H-M "P N N M"
_symmetry_group_IT_number 58
_symmetry_cell_setting 'orthorhombic'
loop_
_space_group_symop_operation_xyz
x,y,z
-x,-y,z
1/2+x,1/2-y,1/2-z
1/2-x,1/2+y,1/2-z
-x,-y,-z
x,y,-z
1/2-x,1/2+y,1/2+z
1/2+x,1/2-y,1/2+z
loop_
_atom_site_type_symbol
_atom_site_label
_atom_site_fract_x
_atom_site_fract_y
_atom_site_fract_z
Si Si1 0.432981 0.700527 0.416335
Si Si2 0.091252 0.886944 0.700478
Si Si3 0.888505 0.939324 0.182395
Si Si4 0.463973 0.815241 0.809393
Si Si5 0.372349 0.274350 0.917717
Si Si6 0.343202 0.254942 0.303929
Si Si7 0.351872 0.965121 0.761494
O O1 0.461537 0.677941 0.500000
O O2 0.383437 0.630100 0.370164
O O3 0.305224 0.762429 0.411101
O O4 0.583517 0.736829 0.383944
O O5 0.076404 0.849523 0.621683
O O6 0.128661 0.827535 0.759947
O O7 0.232855 0.942452 0.699235
O O8 0.941685 0.923510 0.733284
O O9 0.722976 0.973619 0.186413
O O10 0.000000 0.000000 0.148507
O O11 0.552266 0.797683 0.883232
O O12 0.577393 0.810922 0.740140
O O13 0.337007 0.750255 0.806133
O O14 0.394991 0.895744 0.812196
O O15 0.426510 0.281656 0.000000
O O16 0.500000 0.000000 0.725507
#
# Coordination Sequence:
#
# PCOD8235395 Si02
#       7
#     8   8   8   8   8   8   8
#     4  10  19  31  48  71 100 132 164 198 241 292
#     4   8  17  33  50  69  93 126 166 203 243 293
#     4   9  18  33  49  69  98 134 168 196 236 295
#     4  10  19  32  51  76 101 125 160 204 247 294
#     4  10  20  34  52  73 100 132 164 207 259 298
#     4   9  17  31  51  72  96 124 161 206 247 285
#     4  10  18  28  49  75  97 122 160 206 245 285
#
# _framework density 18.564326000000001
#
# number of rings (size 3 to 8) (size 9 to 14) (size 15 to 20)
#    0.000    2.571    0.000    4.286    0.000    3.143 
#    0.000    0.714    0.000    6.857    0.000    0.000 
#    0.000    0.000    0.000    0.000    0.000    0.000 
#
# Total GULP energy -693779.558456 kJ/mol
# GULP energy per Si atom -12388.920687 kJ/mol
# Density = 1.852207 g / cm^3
# Si number density = 18.564326 Si / 1000 Ang^3
#
#
#
# Elastic Constant Matrix: (Units=GPa)
#
#
# Indices 1 2 3 4 5 6 
#
# 1 71.0785 7.1955 26.7172 0.0000 0.0000 0.0000
# 2 7.1955 48.5686 34.4038 0.0000 0.0000 0.0000
# 3 26.7172 34.4038 120.4662 0.0000 0.0000 0.0000
# 4 0.0000 0.0000 0.0000 14.5140 0.0000 0.0000
# 5 0.0000 0.0000 0.0000 0.0000 13.7873 0.0000
# 6 0.0000 0.0000 0.0000 0.0000 0.0000 31.0330
#
#
#
# Elastic Compliance Matrix: (Units=1/GPa)
#
#
# Indices 1 2 3 4 5 6 
#
# 1 0.015350 0.000172 -0.003453 0.000000 0.000000 0.000000
# 2 0.000172 0.025813 -0.007410 0.000000 0.000000 0.000000
# 3 -0.003453 -0.007410 0.011183 0.000000 0.000000 0.000000
# 4 0.000000 0.000000 0.000000 0.068899 0.000000 0.000000
# 5 0.000000 0.000000 0.000000 0.000000 0.072530 0.000000
# 6 0.000000 0.000000 0.000000 0.000000 0.000000 0.032224
#
#
# Mechanical properties :
#
#
# Convention : Reuss Voigt Hill
#
# Bulk Modulus (GPa) = 32.29653 41.86070 37.07861
# Shear Modulus (GPa) = 19.40222 23.31999 21.36111
#
# Velocity S-wave (km/s) = 3.23636 3.54810 3.39581
# Velocity P-wave (km/s) = 5.60359 6.27561 5.94910
#
# Compressibility (1/GPa) = 0.03096308
#
# Stress axis : x y z
#
# Youngs Moduli (GPa) = 65.14822 38.74041 89.41975
#
# Poissons Ratio (x) = -0.00667 0.30880
# Poissons Ratio (y) = -0.01122 0.66260
# Poissons Ratio (z) = 0.22498 0.28707
#
# Static dielectric constant tensor:
#      x y z
#    x 3.915460 0.000000 0.000000 
#    y 0.000000 3.748880 0.000000 
#    z 0.000000 0.000000 3.276370 
# 
# 
# High freq. dielectric constant tensor:
#      x y z
#    x 1.736290 0.000000 0.000000 
#    y 0.000000 1.713550 0.000000 
#    z 0.000000 0.000000 1.672020 
# 
# From -- ./inp_files/25622.got.cif
#   From: 2010.06.25/outbox.cif.g09.slc.cpg/sg58_13_cif.got.tgz:25622.got - 2010.06.26 21:38:00.
