data_PCOD8235268
_publ_section_title
;
Structure prediction by ZEFSAII (Michael W. Deem and Ramdas Pophale) SiO2 
 PCOD8235268
Probable space group: P N N M
;
_chemical_formula_sum "Si O2"
_cell_formula_units_Z 40
_cell_length_a 21.011867
_cell_length_b 12.701329
_cell_length_c 8.882945
_cell_angle_alpha 90.000000
_cell_angle_beta 90.000000
_cell_angle_gamma 90.000000
_cell_volume 2370.668242
_symmetry_space_group_name_H-M "P N N M"
_symmetry_group_IT_number 58
_symmetry_cell_setting 'orthorhombic'
loop_
_space_group_symop_operation_xyz
x,y,z
-x,-y,z
1/2+x,1/2-y,1/2-z
1/2-x,1/2+y,1/2-z
-x,-y,-z
x,y,-z
1/2-x,1/2+y,1/2+z
1/2+x,1/2-y,1/2+z
loop_
_atom_site_type_symbol
_atom_site_label
_atom_site_fract_x
_atom_site_fract_y
_atom_site_fract_z
Si Si1 0.297240 0.615617 0.175613
Si Si2 0.800678 0.113201 0.321949
Si Si3 0.426789 0.996098 0.676511
Si Si4 0.166499 0.339043 0.322970
Si Si5 0.661323 0.814921 0.322608
O O1 0.325050 0.503277 0.231104
O O2 0.343666 0.713926 0.212347
O O3 0.227024 0.637637 0.244100
O O4 0.285492 0.604873 0.000000
O O5 0.800941 0.127005 0.500000
O O6 0.728697 0.122030 0.263491
O O7 0.848136 0.199708 0.251208
O O8 0.417554 0.975195 0.500000
O O9 0.395222 0.899919 0.765420
O O10 0.500000 0.000000 0.723872
O O11 0.395616 0.107288 0.724149
O O12 0.176376 0.357766 0.500000
O O13 0.664057 0.797846 0.500000
#
# Coordination Sequence:
#
# PCOD8235268 Si02
#       5
#     8   8   8   8   8
#     4   8  15  28  46  67  97 127 150 194 245 286
#     4  10  17  29  49  72  98 128 160 195 244 300
#     4  10  20  35  53  70  96 134 169 203 244 291
#     4  10  19  31  47  71 100 128 160 200 246 288
#     4   9  17  31  46  68  99 126 158 201 247 285
#
# _framework density 16.872879000000001
#
# number of rings (size 3 to 8) (size 9 to 14) (size 15 to 20)
#    0.000    2.600    2.000    2.400    0.000    1.200 
#    0.000    3.000    0.000    1.200    0.000    8.400 
#    0.000    0.000    0.000    0.000    0.000    0.000 
#
# Total GULP energy -495711.729628 kJ/mol
# GULP energy per Si atom -12392.793241 kJ/mol
# Density = 1.683448 g / cm^3
# Si number density = 16.872879 Si / 1000 Ang^3
#
#
#
# Elastic Constant Matrix: (Units=GPa)
#
#
# Indices 1 2 3 4 5 6 
#
# 1 76.0076 59.4846 25.4361 0.0000 0.0000 0.0000
# 2 59.4846 182.8986 47.8295 0.0000 0.0000 0.0000
# 3 25.4361 47.8295 47.6718 0.0000 0.0000 0.0000
# 4 0.0000 0.0000 0.0000 27.7398 0.0000 0.0000
# 5 0.0000 0.0000 0.0000 0.0000 11.0168 0.0000
# 6 0.0000 0.0000 0.0000 0.0000 0.0000 23.5255
#
#
#
# Elastic Compliance Matrix: (Units=1/GPa)
#
#
# Indices 1 2 3 4 5 6 
#
# 1 0.018558 -0.004672 -0.005214 0.000000 0.000000 0.000000
# 2 -0.004672 0.008589 -0.006124 0.000000 0.000000 0.000000
# 3 -0.005214 -0.006124 0.029903 0.000000 0.000000 0.000000
# 4 0.000000 0.000000 0.000000 0.036049 0.000000 0.000000
# 5 0.000000 0.000000 0.000000 0.000000 0.090771 0.000000
# 6 0.000000 0.000000 0.000000 0.000000 0.000000 0.042507
#
#
# Mechanical properties :
#
#
# Convention : Reuss Voigt Hill
#
# Bulk Modulus (GPa) = 39.95407 63.56429 51.75918
# Shear Modulus (GPa) = 18.74477 24.04494 21.39485
#
# Velocity S-wave (km/s) = 3.33669 3.77910 3.56477
# Velocity P-wave (km/s) = 6.21092 7.53634 6.90550
#
# Compressibility (1/GPa) = 0.02502874
#
# Stress axis : x y z
#
# Youngs Moduli (GPa) = 53.88502 116.43465 33.44106
#
# Poissons Ratio (x) = 0.54399 0.17438
# Poissons Ratio (y) = 0.25175 0.20480
# Poissons Ratio (z) = 0.28098 0.71305
#
# Static dielectric constant tensor:
#      x y z
#    x 2.809500 0.000000 0.000000 
#    y 0.000000 3.729160 0.000000 
#    z 0.000000 0.000000 3.027960 
# 
# 
# High freq. dielectric constant tensor:
#      x y z
#    x 1.599210 0.000000 0.000000 
#    y 0.000000 1.672110 0.000000 
#    z 0.000000 0.000000 1.640300 
# 
# From -- ./inp_files/3811.got.cif
#   From: 2010.06.25/outbox.cif.g09.slc.cpg/sg58_2_cif.got.tgz:3811.got - 2010.06.26 21:38:00.
