data_PCOD8235319
_publ_section_title
;
Structure prediction by ZEFSAII (Michael W. Deem and Ramdas Pophale) SiO2 
 PCOD8235319
Probable space group: P N N M
;
_chemical_formula_sum "Si O2"
_cell_formula_units_Z 44
_cell_length_a 5.350301
_cell_length_b 20.180575
_cell_length_c 23.212040
_cell_angle_alpha 90.000000
_cell_angle_beta 90.000000
_cell_angle_gamma 90.000000
_cell_volume 2506.253879
_symmetry_space_group_name_H-M "P N N M"
_symmetry_group_IT_number 58
_symmetry_cell_setting 'orthorhombic'
loop_
_space_group_symop_operation_xyz
x,y,z
-x,-y,z
1/2+x,1/2-y,1/2-z
1/2-x,1/2+y,1/2-z
-x,-y,-z
x,y,-z
1/2-x,1/2+y,1/2+z
1/2+x,1/2-y,1/2+z
loop_
_atom_site_type_symbol
_atom_site_label
_atom_site_fract_x
_atom_site_fract_y
_atom_site_fract_z
Si Si1 0.250841 0.543114 0.000000
Si Si2 0.702059 0.241896 0.887603
Si Si3 0.258597 0.788755 0.763587
Si Si4 0.782280 0.615422 0.162179
Si Si5 0.201880 0.271387 0.065298
Si Si6 0.281647 0.603073 0.877976
O O1 0.500000 0.500000 0.000000
O O2 0.253663 0.591175 0.945539
O O3 0.000000 0.500000 0.000000
O O4 0.700910 0.195170 0.831031
O O5 0.450459 0.227032 0.924034
O O6 0.696517 0.318271 0.865840
O O7 0.950728 0.227645 0.925266
O O8 0.486874 0.744241 0.741421
O O9 0.258664 0.855448 0.726093
O O10 0.803606 0.668955 0.110517
O O11 0.537442 0.570755 0.147796
O O12 0.040557 0.573743 0.156382
O O13 0.206405 0.298959 0.000000
#
# Coordination Sequence:
#
# PCOD8235319 Si02
#       6
#     4   8   8   8   8   8
#     4  12  26  40  50  62  84 116 154 218 258 288
#     4  10  19  28  43  62  78 113 124 179 220 270
#     4  12  16  30  40  64  94 100 136 156 234 278
#     4  10  19  28  45  66  80 111 124 183 220 274
#     4  10  18  25  36  55  81 100 140 162 207 241
#     4  10  20  32  46  61  76 103 146 172 241 282
#
# _framework density 17.556083999999998
#
# number of rings (size 3 to 8) (size 9 to 14) (size 15 to 20)
#    0.000    1.455    7.273    1.636   10.182    0.000 
#    0.000    0.000    0.000    0.000    0.000    0.000 
#    0.000    0.000    0.000    0.000    0.000    0.000 
#
# Total GULP energy -545163.363108 kJ/mol
# GULP energy per Si atom -12390.076434 kJ/mol
# Density = 1.751613 g / cm^3
# Si number density = 17.556084 Si / 1000 Ang^3
#
#
#
# Elastic Constant Matrix: (Units=GPa)
#
#
# Indices 1 2 3 4 5 6 
#
# 1 171.9956 -4.4484 7.2245 0.0000 0.0000 0.0000
# 2 -4.4484 4.0397 4.0834 0.0000 0.0000 0.0000
# 3 7.2245 4.0834 74.8007 0.0000 0.0000 0.0000
# 4 0.0000 0.0000 0.0000 9.2502 0.0000 0.0000
# 5 0.0000 0.0000 0.0000 0.0000 31.5497 0.0000
# 6 0.0000 0.0000 0.0000 0.0000 0.0000 6.9997
#
#
#
# Elastic Compliance Matrix: (Units=1/GPa)
#
#
# Indices 1 2 3 4 5 6 
#
# 1 0.006055 0.007683 -0.001004 0.000000 0.000000 0.000000
# 2 0.007683 0.271746 -0.015577 0.000000 0.000000 0.000000
# 3 -0.001004 -0.015577 0.014316 0.000000 0.000000 0.000000
# 4 0.000000 0.000000 0.000000 0.108106 0.000000 0.000000
# 5 0.000000 0.000000 0.000000 0.000000 0.031696 0.000000
# 6 0.000000 0.000000 0.000000 0.000000 0.000000 0.142862
#
#
# Mechanical properties :
#
#
# Convention : Reuss Voigt Hill
#
# Bulk Modulus (GPa) = 3.64536 29.39499 16.52018
# Shear Modulus (GPa) = 7.30974 25.82502 16.56738
#
# Velocity S-wave (km/s) = 2.04272 3.83952 3.07528
# Velocity P-wave (km/s) = 2.76487 6.03620 4.69469
#
# Compressibility (1/GPa) = 0.27432103
#
# Stress axis : x y z
#
# Youngs Moduli (GPa) = 165.15325 3.67990 69.85106
#
# Poissons Ratio (x) = -0.02827 0.07014
# Poissons Ratio (y) = -1.26881 1.08804
# Poissons Ratio (z) = 0.16585 0.05732
#
# Static dielectric constant tensor:
#      x y z
#    x 5.367340 0.000000 0.000000 
#    y 0.000000 2.475710 0.000000 
#    z 0.000000 0.000000 3.408420 
# 
# 
# High freq. dielectric constant tensor:
#      x y z
#    x 1.734440 0.000000 0.000000 
#    y 0.000000 1.568980 0.000000 
#    z 0.000000 0.000000 1.675680 
# 
# From -- ./inp_files/30972.got.cif
#   From: 2010.06.25/outbox.cif.g09.slc.cpg/sg58_16_cif.got.tgz:30972.got - 2010.06.26 21:38:00.
