data_PCOD8235554
_publ_section_title
;
Structure prediction by ZEFSAII (Michael W. Deem and Ramdas Pophale) SiO2 
 PCOD8235554
Probable space group: P N N M
;
_chemical_formula_sum "Si O2"
_cell_formula_units_Z 64
_cell_length_a 13.655446
_cell_length_b 9.291988
_cell_length_c 28.280979
_cell_angle_alpha 90.000000
_cell_angle_beta 90.000000
_cell_angle_gamma 90.000000
_cell_volume 3588.467099
_symmetry_space_group_name_H-M "P N N M"
_symmetry_group_IT_number 58
_symmetry_cell_setting 'orthorhombic'
loop_
_space_group_symop_operation_xyz
x,y,z
-x,-y,z
1/2+x,1/2-y,1/2-z
1/2-x,1/2+y,1/2-z
-x,-y,-z
x,y,-z
1/2-x,1/2+y,1/2+z
1/2+x,1/2-y,1/2+z
loop_
_atom_site_type_symbol
_atom_site_label
_atom_site_fract_x
_atom_site_fract_y
_atom_site_fract_z
Si Si1 0.821299 0.706667 0.661063
Si Si2 0.609435 0.694808 0.196547
Si Si3 0.727324 0.958749 0.224210
Si Si4 0.492366 0.163678 0.888496
Si Si5 0.595476 0.591728 0.944965
Si Si6 0.733342 0.500330 0.133100
Si Si7 0.401333 0.915188 0.691262
Si Si8 0.420351 0.657786 0.248652
O O1 0.776019 0.550140 0.674705
O O2 0.745284 0.832387 0.646223
O O3 0.880217 0.741654 0.707927
O O4 0.894107 0.708943 0.616135
O O5 0.698721 0.788306 0.218720
O O6 0.558122 0.812475 0.162466
O O7 0.646842 0.557592 0.167444
O O8 0.532982 0.620585 0.233897
O O9 0.840852 0.969939 0.241640
O O10 0.657721 0.014564 0.265455
O O11 0.431183 0.247112 0.928549
O O12 0.500000 0.000000 0.903838
O O13 0.500000 0.500000 0.931481
O O14 0.693441 0.529536 0.919736
O O15 0.619393 0.590003 0.000000
O O16 0.834859 0.582774 0.143538
O O17 0.427450 0.750541 0.703038
O O18 0.500000 0.000000 0.681019
#
# Coordination Sequence:
#
# PCOD8235554 Si02
#       8
#     8   8   8   8   8   8   8   8
#     4  10  20  31  47  73 102 137 182 210 254 303
#     4  10  20  31  53  70 101 142 182 210 255 302
#     4  11  19  33  47  72 105 145 179 216 254 291
#     4  10  18  31  51  77 104 140 166 207 255 318
#     4  10  21  36  56  81 107 132 164 214 273 330
#     4  11  21  36  53  74 100 137 177 218 264 321
#     4  11  21  32  49  73 101 138 176 222 258 292
#     4  10  20  31  47  69 102 139 183 216 242 297
#
# _framework density 17.834913
#
# number of rings (size 3 to 8) (size 9 to 14) (size 15 to 20)
#    0.000    1.625    6.250    0.000    0.000    0.250 
#    0.000    1.250    0.000    0.375    0.000    0.000 
#    0.000    0.000    0.000    2.250    0.000    0.000 
#
# Total GULP energy -792942.161807 kJ/mol
# GULP energy per Si atom -12389.721278 kJ/mol
# Density = 1.779432 g / cm^3
# Si number density = 17.834913 Si / 1000 Ang^3
#
#
#
# Elastic Constant Matrix: (Units=GPa)
#
#
# Indices 1 2 3 4 5 6 
#
# 1 95.8348 23.5413 40.4376 0.0000 0.0000 0.0000
# 2 23.5413 63.4096 18.1210 0.0000 0.0000 0.0000
# 3 40.4376 18.1210 73.5495 0.0000 0.0000 0.0000
# 4 0.0000 0.0000 0.0000 13.9855 0.0000 0.0000
# 5 0.0000 0.0000 0.0000 0.0000 20.3524 0.0000
# 6 0.0000 0.0000 0.0000 0.0000 0.0000 22.6875
#
#
#
# Elastic Compliance Matrix: (Units=1/GPa)
#
#
# Indices 1 2 3 4 5 6 
#
# 1 0.014190 -0.003269 -0.006996 0.000000 0.000000 0.000000
# 2 -0.003269 0.017718 -0.002568 0.000000 0.000000 0.000000
# 3 -0.006996 -0.002568 0.018076 0.000000 0.000000 0.000000
# 4 0.000000 0.000000 0.000000 0.071503 0.000000 0.000000
# 5 0.000000 0.000000 0.000000 0.000000 0.049134 0.000000
# 6 0.000000 0.000000 0.000000 0.000000 0.000000 0.044077
#
#
# Mechanical properties :
#
#
# Convention : Reuss Voigt Hill
#
# Bulk Modulus (GPa) = 41.12342 44.11042 42.61692
# Shear Modulus (GPa) = 20.12326 21.45135 20.78730
#
# Velocity S-wave (km/s) = 3.36267 3.47186 3.41770
# Velocity P-wave (km/s) = 6.17937 6.39203 6.28660
#
# Compressibility (1/GPa) = 0.02431705
#
# Stress axis : x y z
#
# Youngs Moduli (GPa) = 70.47435 56.44003 55.32349
#
# Poissons Ratio (x) = 0.18448 0.38705
# Poissons Ratio (y) = 0.23036 0.14208
# Poissons Ratio (z) = 0.49305 0.14495
#
# Static dielectric constant tensor:
#      x y z
#    x 3.413250 0.000000 0.000000 
#    y 0.000000 3.406800 0.000000 
#    z 0.000000 0.000000 2.958910 
# 
# 
# High freq. dielectric constant tensor:
#      x y z
#    x 1.680230 0.000000 0.000000 
#    y 0.000000 1.706860 0.000000 
#    z 0.000000 0.000000 1.630080 
# 
# From -- ./inp_files/35100.got.cif
#   From: 2010.06.25/outbox.cif.g09.slc.cpg/sg58_18_cif.got.tgz:35100.got - 2010.06.26 21:38:00.
