data_PCOD8235939
_publ_section_title
;
Structure prediction by ZEFSAII (Michael W. Deem and Ramdas Pophale) SiO2 
 PCOD8235939
Probable space group: P N N M
;
_chemical_formula_sum "Si O2"
_cell_formula_units_Z 40
_cell_length_a 25.479591
_cell_length_b 9.479324
_cell_length_c 9.197238
_cell_angle_alpha 90.000000
_cell_angle_beta 90.000000
_cell_angle_gamma 90.000000
_cell_volume 2221.402442
_symmetry_space_group_name_H-M "P N N M"
_symmetry_group_IT_number 58
_symmetry_cell_setting 'orthorhombic'
loop_
_space_group_symop_operation_xyz
x,y,z
-x,-y,z
1/2+x,1/2-y,1/2-z
1/2-x,1/2+y,1/2-z
-x,-y,-z
x,y,-z
1/2-x,1/2+y,1/2+z
1/2+x,1/2-y,1/2+z
loop_
_atom_site_type_symbol
_atom_site_label
_atom_site_fract_x
_atom_site_fract_y
_atom_site_fract_z
Si Si1 0.889917 0.613909 0.836781
Si Si2 0.487976 0.834575 0.163272
Si Si3 0.289682 0.955699 0.830462
Si Si4 0.699133 0.759649 0.668422
Si Si5 0.415490 0.214338 0.339267
O O1 0.936032 0.700423 0.756342
O O2 0.835949 0.631015 0.748346
O O3 0.905795 0.451902 0.842113
O O4 0.882908 0.674216 0.000000
O O5 0.537385 0.748817 0.229683
O O6 0.500000 0.000000 0.165329
O O7 0.479075 0.780328 0.000000
O O8 0.235605 0.873942 0.803213
O O9 0.281460 0.110720 0.765822
O O10 0.303855 0.967523 0.000000
O O11 0.700335 0.808817 0.500000
O O12 0.639447 0.714312 0.710735
O O13 0.431901 0.266456 0.500000
#
# Coordination Sequence:
#
# PCOD8235939 Si02
#       5
#     8   8   8   8   8
#     4   9  16  26  40  59  86 118 148 181 225 272
#     4   9  15  22  35  58  85 111 143 182 222 266
#     4  10  19  31  48  69  93 122 156 192 227 267
#     4   9  19  33  47  67  95 124 154 189 229 272
#     4   8  14  25  39  56  83 116 145 177 221 269
#
# _framework density 18.006643
#
# number of rings (size 3 to 8) (size 9 to 14) (size 15 to 20)
#    0.000    3.000    0.000    3.000    0.000    8.800 
#    0.000    0.000    0.000    0.000    0.000    1.400 
#    0.000   11.200    0.000    0.000    0.000    0.000 
#
# Total GULP energy -495853.628328 kJ/mol
# GULP energy per Si atom -12396.340708 kJ/mol
# Density = 1.796566 g / cm^3
# Si number density = 18.006643 Si / 1000 Ang^3
#
#
#
# Elastic Constant Matrix: (Units=GPa)
#
#
# Indices 1 2 3 4 5 6 
#
# 1 21.8258 -4.1635 10.6959 0.0000 0.0000 0.0000
# 2 -4.1635 12.2985 8.1986 0.0000 0.0000 0.0000
# 3 10.6959 8.1986 102.7298 0.0000 0.0000 0.0000
# 4 0.0000 0.0000 0.0000 8.5023 0.0000 0.0000
# 5 0.0000 0.0000 0.0000 0.0000 35.1274 0.0000
# 6 0.0000 0.0000 0.0000 0.0000 0.0000 18.4921
#
#
#
# Elastic Compliance Matrix: (Units=1/GPa)
#
#
# Indices 1 2 3 4 5 6 
#
# 1 0.053907 0.023227 -0.007466 0.000000 0.000000 0.000000
# 2 0.023227 0.095887 -0.010071 0.000000 0.000000 0.000000
# 3 -0.007466 -0.010071 0.011315 0.000000 0.000000 0.000000
# 4 0.000000 0.000000 0.000000 0.117615 0.000000 0.000000
# 5 0.000000 0.000000 0.000000 0.000000 0.028468 0.000000
# 6 0.000000 0.000000 0.000000 0.000000 0.000000 0.054077
#
#
# Mechanical properties :
#
#
# Convention : Reuss Voigt Hill
#
# Bulk Modulus (GPa) = 5.79746 18.47955 12.13851
# Shear Modulus (GPa) = 12.27337 20.56592 16.41964
#
# Velocity S-wave (km/s) = 2.61358 3.38321 3.02299
# Velocity P-wave (km/s) = 3.51203 5.05434 4.35205
#
# Compressibility (1/GPa) = 0.17248926
#
# Stress axis : x y z
#
# Youngs Moduli (GPa) = 18.55048 10.42890 88.37551
#
# Poissons Ratio (x) = -0.24223 0.65983
# Poissons Ratio (y) = -0.43087 0.89001
# Poissons Ratio (z) = 0.13850 0.10503
#
# Static dielectric constant tensor:
#      x y z
#    x 3.701040 0.000000 0.000000 
#    y 0.000000 2.592590 0.000000 
#    z 0.000000 0.000000 3.555420 
# 
# 
# High freq. dielectric constant tensor:
#      x y z
#    x 1.713660 0.000000 0.000000 
#    y 0.000000 1.614890 0.000000 
#    z 0.000000 0.000000 1.710010 
# 
# From -- ./inp_files/2442.got.cif
#   From: 2010.06.25/outbox.cif.g09.slc.cpg/sg58_2_cif.got.tgz:2442.got - 2010.06.26 21:38:00.
