data_PCOD8235195
_publ_section_title
;
Structure prediction by ZEFSAII (Michael W. Deem and Ramdas Pophale) SiO2 
 PCOD8235195
Probable space group: P B C M
;
_chemical_formula_sum "Si O2"
_cell_formula_units_Z 56
_cell_length_a 15.000000
_cell_length_b 9.000000
_cell_length_c 21.000000
_cell_angle_alpha 90.000000
_cell_angle_beta 90.000000
_cell_angle_gamma 90.000000
_cell_volume 2835.000000
_symmetry_space_group_name_H-M "P B C M"
_symmetry_group_IT_number 57
_symmetry_cell_setting 'orthorhombic'
loop_
_space_group_symop_operation_xyz
x,y,z
-x,-y,1/2+z
x,1/2-y,-z
-x,1/2+y,1/2-z
-x,-y,-z
x,y,1/2-z
-x,1/2+y,z
x,1/2-y,1/2+z
loop_
_atom_site_type_symbol
_atom_site_label
_atom_site_fract_x
_atom_site_fract_y
_atom_site_fract_z
Si Si1 0.064091 0.666834 0.250000
Si Si2 0.776192 0.585404 0.124585
Si Si3 0.901903 0.109625 0.114536
Si Si4 0.586218 0.221517 0.676812
Si Si5 0.068831 0.280603 0.072496
Si Si6 0.406651 0.127298 0.321651
Si Si7 0.881803 0.995385 0.750000
Si Si8 0.731639 0.222939 0.928847
O O1 0.115994 0.594535 0.310007
O O2 0.072208 0.844496 0.250000
O O3 0.958715 0.628519 0.250000
O O4 0.838174 0.706143 0.091570
O O5 0.681875 0.666766 0.138261
O O6 0.818369 0.520231 0.189034
O O7 0.760112 0.448751 0.076840
O O8 0.818483 0.175053 0.077285
O O9 0.987180 0.218170 0.113135
O O10 0.926836 0.955086 0.082985
O O11 0.608394 0.274072 0.750000
O O12 0.493761 0.290534 0.651165
O O13 0.662580 0.270126 0.626849
O O14 0.574686 0.046526 0.675400
O O15 0.045994 0.250000 0.000000
O O16 0.390125 0.182549 0.250000
O O17 0.691839 0.250000 0.000000
#
# Coordination Sequence:
#
# PCOD8235195 Si02
#       8
#     4   8   8   8   8   8   4   8
#     4  12  24  38  62  93 121 156 202 263 311 359
#     4  11  22  39  64  88 120 166 202 257 308 375
#     4  12  24  39  62  86 123 160 205 258 310 365
#     4   9  20  37  63  89 119 155 199 254 307 371
#     4  12  25  42  59  86 123 169 209 248 302 374
#     4   9  18  36  61  87 118 153 198 246 315 366
#     4  12  22  40  62  87 129 158 208 253 319 357
#     4  11  23  41  62  89 121 166 211 254 311 374
#
# _framework density 19.753086
#
# number of rings (size 3 to 8) (size 9 to 14) (size 15 to 20)
#    0.000    1.143    3.571    3.429    2.000    1.143 
#    0.000    3.571    0.000    0.000    0.000    0.000 
#    0.000    0.000    0.000    0.000    0.000    0.000 
#
# Total GULP energy -694579.950712 kJ/mol
# GULP energy per Si atom -12403.213406 kJ/mol
# Density = 1.970813 g / cm^3
# Si number density = 19.753086 Si / 1000 Ang^3
#
#
#
# Elastic Constant Matrix: (Units=GPa)
#
#
# Indices 1 2 3 4 5 6 
#
# 1 120.1127 31.5902 31.6372 0.0000 0.0000 0.0000
# 2 31.5902 40.7696 5.1021 0.0000 0.0000 0.0000
# 3 31.6372 5.1021 102.1279 0.0000 0.0000 0.0000
# 4 0.0000 0.0000 0.0000 22.1036 0.0000 0.0000
# 5 0.0000 0.0000 0.0000 0.0000 26.0067 0.0000
# 6 0.0000 0.0000 0.0000 0.0000 0.0000 38.4087
#
#
#
# Elastic Compliance Matrix: (Units=1/GPa)
#
#
# Indices 1 2 3 4 5 6 
#
# 1 0.011353 -0.008409 -0.003097 0.000000 0.000000 0.000000
# 2 -0.008409 0.030911 0.001061 0.000000 0.000000 0.000000
# 3 -0.003097 0.001061 0.010698 0.000000 0.000000 0.000000
# 4 0.000000 0.000000 0.000000 0.045242 0.000000 0.000000
# 5 0.000000 0.000000 0.000000 0.000000 0.038452 0.000000
# 6 0.000000 0.000000 0.000000 0.000000 0.000000 0.026036
#
#
# Mechanical properties :
#
#
# Convention : Reuss Voigt Hill
#
# Bulk Modulus (GPa) = 31.18032 44.40770 37.79401
# Shear Modulus (GPa) = 25.73715 30.28253 28.00984
#
# Velocity S-wave (km/s) = 3.61355 3.91967 3.76972
# Velocity P-wave (km/s) = 5.76451 6.55860 6.17434
#
# Compressibility (1/GPa) = 0.03207151
#
# Stress axis : x y z
#
# Youngs Moduli (GPa) = 88.08363 32.35080 93.47569
#
# Poissons Ratio (x) = 0.27204 0.28947
# Poissons Ratio (y) = 0.74071 -0.09915
# Poissons Ratio (z) = 0.27278 -0.03432
#
# Static dielectric constant tensor:
#      x y z
#    x 3.724690 0.000000 0.000000 
#    y 0.000000 3.482560 0.000000 
#    z 0.000000 0.000000 3.793510 
# 
# 
# High freq. dielectric constant tensor:
#      x y z
#    x 1.774760 0.000000 0.000000 
#    y 0.000000 1.763820 0.000000 
#    z 0.000000 0.000000 1.776310 
# 
# From -- ./inp_files/25432.got.cif
#   From: 2010.03.12/outbox.ucp.g09.slc.cvg/sg57_13_cif.got.tgz:25432.got - 2010.05.04 19:26:41.
