data_PCOD8235910
_publ_section_title
;
Structure prediction by ZEFSAII (Michael W. Deem and Ramdas Pophale) SiO2 
 PCOD8235910
Probable space group: P N N M
;
_chemical_formula_sum "Si O2"
_cell_formula_units_Z 48
_cell_length_a 16.592456
_cell_length_b 18.138774
_cell_length_c 9.077219
_cell_angle_alpha 90.000000
_cell_angle_beta 90.000000
_cell_angle_gamma 90.000000
_cell_volume 2731.941641
_symmetry_space_group_name_H-M "P N N M"
_symmetry_group_IT_number 58
_symmetry_cell_setting 'orthorhombic'
loop_
_space_group_symop_operation_xyz
x,y,z
-x,-y,z
1/2+x,1/2-y,1/2-z
1/2-x,1/2+y,1/2-z
-x,-y,-z
x,y,-z
1/2-x,1/2+y,1/2+z
1/2+x,1/2-y,1/2+z
loop_
_atom_site_type_symbol
_atom_site_label
_atom_site_fract_x
_atom_site_fract_y
_atom_site_fract_z
Si Si1 0.139985 0.331417 0.673833
Si Si2 0.089652 0.020098 0.324875
Si Si3 0.761073 0.044468 0.826856
Si Si4 0.500117 0.084217 0.330703
Si Si5 0.166089 0.170137 0.328408
Si Si6 0.320336 0.085952 0.668801
O O1 0.130131 0.328302 0.500000
O O2 0.220826 0.376986 0.713901
O O3 0.146283 0.249228 0.744352
O O4 0.059914 0.368004 0.735146
O O5 0.098442 0.014115 0.500000
O O6 0.110434 0.103032 0.268275
O O7 0.152824 0.962717 0.254031
O O8 0.000000 0.000000 0.271654
O O9 0.697964 0.982917 0.773419
O O10 0.775120 0.035659 0.000000
O O11 0.527697 0.088727 0.500000
O O12 0.410275 0.116099 0.306296
O O13 0.500000 0.000000 0.276557
O O14 0.149823 0.177346 0.500000
O O15 0.259537 0.152455 0.294842
O O16 0.308536 0.058910 0.500000
#
# Coordination Sequence:
#
# PCOD8235910 Si02
#       6
#     8   8   8   8   8   8
#     4  10  20  33  49  72 104 136 163 198 252 309
#     4   9  18  35  58  76  93 129 177 212 243 291
#     4  10  19  30  49  75 101 129 162 201 248 298
#     4  10  19  31  51  78 102 127 168 211 245 288
#     4   8  16  33  53  70  95 132 168 201 245 298
#     4   9  17  33  54  71  94 133 171 202 239 292
#
# _framework density 17.569921999999998
#
# number of rings (size 3 to 8) (size 9 to 14) (size 15 to 20)
#    0.000    2.667    1.667    1.500    0.000    2.000 
#    3.000    3.333    0.000    0.000    0.000    0.000 
#    0.000    0.000    0.000    0.000    0.000    0.000 
#
# Total GULP energy -595011.959341 kJ/mol
# GULP energy per Si atom -12396.082486 kJ/mol
# Density = 1.752993 g / cm^3
# Si number density = 17.569922 Si / 1000 Ang^3
#
#
#
# Elastic Constant Matrix: (Units=GPa)
#
#
# Indices 1 2 3 4 5 6 
#
# 1 151.8716 81.8599 35.2038 0.0000 0.0000 0.0000
# 2 81.8599 130.1091 24.8219 0.0000 0.0000 0.0000
# 3 35.2038 24.8219 28.7960 0.0000 0.0000 0.0000
# 4 0.0000 0.0000 0.0000 15.7838 0.0000 0.0000
# 5 0.0000 0.0000 0.0000 0.0000 27.0900 0.0000
# 6 0.0000 0.0000 0.0000 0.0000 0.0000 21.9287
#
#
#
# Elastic Compliance Matrix: (Units=1/GPa)
#
#
# Indices 1 2 3 4 5 6 
#
# 1 0.011845 -0.005613 -0.009643 0.000000 0.000000 0.000000
# 2 -0.005613 0.011858 -0.003360 0.000000 0.000000 0.000000
# 3 -0.009643 -0.003360 0.049411 0.000000 0.000000 0.000000
# 4 0.000000 0.000000 0.000000 0.063356 0.000000 0.000000
# 5 0.000000 0.000000 0.000000 0.000000 0.036914 0.000000
# 6 0.000000 0.000000 0.000000 0.000000 0.000000 0.045602
#
#
# Mechanical properties :
#
#
# Convention : Reuss Voigt Hill
#
# Bulk Modulus (GPa) = 27.86743 66.06089 46.96416
# Shear Modulus (GPa) = 18.64423 24.21989 21.43206
#
# Velocity S-wave (km/s) = 3.26106 3.71682 3.49637
# Velocity P-wave (km/s) = 5.48403 7.49001 6.56410
#
# Compressibility (1/GPa) = 0.03588418
#
# Stress axis : x y z
#
# Youngs Moduli (GPa) = 84.42340 84.32943 20.23820
#
# Poissons Ratio (x) = 0.47333 0.19515
# Poissons Ratio (y) = 0.47386 0.06800
# Poissons Ratio (z) = 0.81406 0.28333
#
# Static dielectric constant tensor:
#      x y z
#    x 3.408060 0.000000 0.000000 
#    y 0.000000 3.459620 0.000000 
#    z 0.000000 0.000000 3.053590 
# 
# 
# High freq. dielectric constant tensor:
#      x y z
#    x 1.686810 0.000000 0.000000 
#    y 0.000000 1.667760 0.000000 
#    z 0.000000 0.000000 1.657360 
# 
# From -- ./inp_files/7847.got.cif
#   From: 2010.06.25/outbox.cif.g09.slc.cpg/sg58_4_cif.got.tgz:7847.got - 2010.06.26 21:38:00.
