data_PCOD8235663
_publ_section_title
;
Structure prediction by ZEFSAII (Michael W. Deem and Ramdas Pophale) SiO2 
 PCOD8235663
Probable space group: P N N M
;
_chemical_formula_sum "Si O2"
_cell_formula_units_Z 56
_cell_length_a 18.762881
_cell_length_b 17.300965
_cell_length_c 9.570681
_cell_angle_alpha 90.000000
_cell_angle_beta 90.000000
_cell_angle_gamma 90.000000
_cell_volume 3106.795681
_symmetry_space_group_name_H-M "P N N M"
_symmetry_group_IT_number 58
_symmetry_cell_setting 'orthorhombic'
loop_
_space_group_symop_operation_xyz
x,y,z
-x,-y,z
1/2+x,1/2-y,1/2-z
1/2-x,1/2+y,1/2-z
-x,-y,-z
x,y,-z
1/2-x,1/2+y,1/2+z
1/2+x,1/2-y,1/2+z
loop_
_atom_site_type_symbol
_atom_site_label
_atom_site_fract_x
_atom_site_fract_y
_atom_site_fract_z
Si Si1 0.144584 0.610891 0.337788
Si Si2 0.532149 0.763948 0.162673
Si Si3 0.604436 0.441493 0.165059
Si Si4 0.201159 0.167898 0.839911
Si Si5 0.099963 0.303476 0.161271
Si Si6 0.948346 0.097976 0.337812
Si Si7 0.918595 0.519587 0.836307
O O1 0.139640 0.587705 0.500000
O O2 0.079126 0.664244 0.290440
O O3 0.215066 0.661021 0.307455
O O4 0.137798 0.533707 0.246022
O O5 0.459807 0.761405 0.248678
O O6 0.577105 0.685251 0.194511
O O7 0.511836 0.767797 0.000000
O O8 0.665473 0.395860 0.243524
O O9 0.528347 0.411207 0.221003
O O10 0.607382 0.532465 0.213739
O O11 0.616697 0.429623 0.000000
O O12 0.173291 0.255721 0.809945
O O13 0.184887 0.146418 0.000000
O O14 0.104615 0.393360 0.204764
O O15 0.077325 0.298352 0.000000
O O16 0.956653 0.081103 0.500000
O O17 0.000000 0.500000 0.790360
O O18 0.909074 0.503836 0.000000
#
# Coordination Sequence:
#
# PCOD8235663 Si02
#       7
#     8   8   8   8   8   8   8
#     4  10  22  37  54  77 108 143 178 220 269 321
#     4  10  18  32  55  79 103 136 178 221 261 310
#     4   9  16  30  52  76 101 134 174 218 261 308
#     4  10  21  37  52  74 111 147 177 216 272 330
#     4  10  20  35  56  80 108 141 176 219 270 321
#     4   8  15  28  49  78 104 125 168 224 261 300
#     4  10  20  36  58  83 108 135 177 228 272 319
#
# _framework density 18.025002000000001
#
# number of rings (size 3 to 8) (size 9 to 14) (size 15 to 20)
#    0.000    2.429    2.857    0.857    0.000    1.429 
#    2.571    2.143    0.000    0.000    0.000    0.000 
#    0.000    0.000    0.000    0.000    0.000    0.000 
#
# Total GULP energy -693979.344715 kJ/mol
# GULP energy per Si atom -12392.488298 kJ/mol
# Density = 1.798398 g / cm^3
# Si number density = 18.025002 Si / 1000 Ang^3
#
#
#
# Elastic Constant Matrix: (Units=GPa)
#
#
# Indices 1 2 3 4 5 6 
#
# 1 73.6394 43.8146 32.0455 0.0000 0.0000 0.0000
# 2 43.8146 142.4126 44.4891 0.0000 0.0000 0.0000
# 3 32.0455 44.4891 43.7854 0.0000 0.0000 0.0000
# 4 0.0000 0.0000 0.0000 -24.2680 0.0000 0.0000
# 5 0.0000 0.0000 0.0000 0.0000 22.9107 0.0000
# 6 0.0000 0.0000 0.0000 0.0000 0.0000 29.4167
#
#
#
# Elastic Compliance Matrix: (Units=1/GPa)
#
#
# Indices 1 2 3 4 5 6 
#
# 1 0.020457 -0.002368 -0.012566 0.000000 0.000000 0.000000
# 2 -0.002368 0.010561 -0.008998 0.000000 0.000000 0.000000
# 3 -0.012566 -0.008998 0.041177 0.000000 0.000000 0.000000
# 4 0.000000 0.000000 0.000000 -0.041207 0.000000 0.000000
# 5 0.000000 0.000000 0.000000 0.000000 0.043648 0.000000
# 6 0.000000 0.000000 0.000000 0.000000 0.000000 0.033994
#
#
# Mechanical properties :
#
#
# Convention : Reuss Voigt Hill
#
# Bulk Modulus (GPa) = 41.09734 55.61508 48.35621
# Shear Modulus (GPa) = 30.37572 14.91111 22.64341
#
# Velocity S-wave (km/s) = 4.10957 2.87931 3.54817
# Velocity P-wave (km/s) = 6.73556 6.47883 6.60844
#
# Compressibility (1/GPa) = 0.02433247
#
# Stress axis : x y z
#
# Youngs Moduli (GPa) = 48.88319 94.68476 24.28515
#
# Poissons Ratio (x) = 0.22425 0.30516
# Poissons Ratio (y) = 0.11577 0.21851
# Poissons Ratio (z) = 0.61424 0.85195
#
# Static dielectric constant tensor:
#      x y z
#    x 3.132870 0.000000 0.000000 
#    y 0.000000 3.598080 0.000000 
#    z 0.000000 0.000000 3.130430 
# 
# 
# High freq. dielectric constant tensor:
#      x y z
#    x 1.672700 0.000000 0.000000 
#    y 0.000000 1.716470 0.000000 
#    z 0.000000 0.000000 1.678150 
# 
# From -- ./inp_files/9181.got.cif
#   From: 2010.06.25/outbox.cif.g09.slc.cpg/sg58_5_cif.got.tgz:9181.got - 2010.06.26 21:38:00.
