data_PCOD8235964
_publ_section_title
;
Structure prediction by ZEFSAII (Michael W. Deem and Ramdas Pophale) SiO2 
 PCOD8235964
Probable space group: P N N M
;
_chemical_formula_sum "Si O2"
_cell_formula_units_Z 56
_cell_length_a 19.058256
_cell_length_b 19.336451
_cell_length_c 8.937387
_cell_angle_alpha 90.000000
_cell_angle_beta 90.000000
_cell_angle_gamma 90.000000
_cell_volume 3293.597217
_symmetry_space_group_name_H-M "P N N M"
_symmetry_group_IT_number 58
_symmetry_cell_setting 'orthorhombic'
loop_
_space_group_symop_operation_xyz
x,y,z
-x,-y,z
1/2+x,1/2-y,1/2-z
1/2-x,1/2+y,1/2-z
-x,-y,-z
x,y,-z
1/2-x,1/2+y,1/2+z
1/2+x,1/2-y,1/2+z
loop_
_atom_site_type_symbol
_atom_site_label
_atom_site_fract_x
_atom_site_fract_y
_atom_site_fract_z
Si Si1 0.522106 0.702582 0.176797
Si Si2 0.248155 0.626848 0.325230
Si Si3 0.292468 0.475791 0.674662
Si Si4 0.937875 0.049265 0.322966
Si Si5 0.239181 0.333319 0.675820
Si Si6 0.855237 0.275256 0.823313
Si Si7 0.862393 0.780962 0.677522
O O1 0.546677 0.627133 0.231715
O O2 0.567888 0.761626 0.256795
O O3 0.442420 0.714523 0.229114
O O4 0.529744 0.710911 0.000000
O O5 0.246256 0.644565 0.500000
O O6 0.248424 0.544849 0.295051
O O7 0.177937 0.655612 0.247281
O O8 0.318763 0.658261 0.255176
O O9 0.308022 0.465378 0.500000
O O10 0.366667 0.479907 0.755640
O O11 0.247132 0.410983 0.740521
O O12 0.932048 0.046223 0.500000
O O13 0.000000 0.000000 0.265097
O O14 0.235897 0.338175 0.500000
O O15 0.306729 0.289116 0.725533
O O16 0.168915 0.293580 0.730582
O O17 0.859712 0.284923 0.000000
O O18 0.854141 0.791203 0.500000
#
# Coordination Sequence:
#
# PCOD8235964 Si02
#       7
#     8   8   8   8   8   8   8
#     4  10  19  31  49  74 102 131 166 208 250 294
#     4  10  20  32  49  73 101 128 163 211 252 295
#     4  10  19  32  49  71  98 129 165 206 248 294
#     4  10  20  31  45  70 105 138 163 194 243 304
#     4   8  15  30  50  70  91 123 166 204 241 290
#     4  10  19  33  53  71  95 131 169 208 249 302
#     4   9  18  33  52  72  99 133 167 205 247 299
#
# _framework density 17.002687000000002
#
# number of rings (size 3 to 8) (size 9 to 14) (size 15 to 20)
#    0.000    2.429    1.429    2.571    0.000    3.143 
#    0.000    0.000    0.000    0.857    0.000    6.000 
#    0.000    0.000    0.000    0.000    0.000    0.000 
#
# Total GULP energy -694306.424098 kJ/mol
# GULP energy per Si atom -12398.329002 kJ/mol
# Density = 1.696399 g / cm^3
# Si number density = 17.002687 Si / 1000 Ang^3
#
#
#
# Elastic Constant Matrix: (Units=GPa)
#
#
# Indices 1 2 3 4 5 6 
#
# 1 58.5771 31.1867 16.6435 0.0000 0.0000 0.0000
# 2 31.1867 99.9729 23.6356 0.0000 0.0000 0.0000
# 3 16.6435 23.6356 26.1858 0.0000 0.0000 0.0000
# 4 0.0000 0.0000 0.0000 20.0705 0.0000 0.0000
# 5 0.0000 0.0000 0.0000 0.0000 25.2420 0.0000
# 6 0.0000 0.0000 0.0000 0.0000 0.0000 26.4335
#
#
#
# Elastic Compliance Matrix: (Units=1/GPa)
#
#
# Indices 1 2 3 4 5 6 
#
# 1 0.022383 -0.004601 -0.010074 0.000000 0.000000 0.000000
# 2 -0.004601 0.013662 -0.009407 0.000000 0.000000 0.000000
# 3 -0.010074 -0.009407 0.053083 0.000000 0.000000 0.000000
# 4 0.000000 0.000000 0.000000 0.049824 0.000000 0.000000
# 5 0.000000 0.000000 0.000000 0.000000 0.039617 0.000000
# 6 0.000000 0.000000 0.000000 0.000000 0.000000 0.037831
#
#
# Mechanical properties :
#
#
# Convention : Reuss Voigt Hill
#
# Bulk Modulus (GPa) = 24.41165 36.40749 30.40957
# Shear Modulus (GPa) = 17.97151 21.90053 19.93602
#
# Velocity S-wave (km/s) = 3.25465 3.59285 3.42793
# Velocity P-wave (km/s) = 5.33970 6.21858 5.79582
#
# Compressibility (1/GPa) = 0.04096405
#
# Stress axis : x y z
#
# Youngs Moduli (GPa) = 44.67614 73.19567 18.83856
#
# Poissons Ratio (x) = 0.33676 0.18978
# Poissons Ratio (y) = 0.20555 0.17722
# Poissons Ratio (z) = 0.45006 0.68857
#
# Static dielectric constant tensor:
#      x y z
#    x 3.187870 0.000000 0.000000 
#    y 0.000000 3.460000 0.000000 
#    z 0.000000 0.000000 3.031820 
# 
# 
# High freq. dielectric constant tensor:
#      x y z
#    x 1.645150 0.000000 0.000000 
#    y 0.000000 1.653900 0.000000 
#    z 0.000000 0.000000 1.644910 
# 
# From -- ./inp_files/8137.got.cif
#   From: 2010.06.25/outbox.cif.g09.slc.cpg/sg58_5_cif.got.tgz:8137.got - 2010.06.26 21:38:00.
