data_PCOD8235864
_publ_section_title
;
Structure prediction by ZEFSAII (Michael W. Deem and Ramdas Pophale) SiO2 
 PCOD8235864
Probable space group: P N N M
;
_chemical_formula_sum "Si O2"
_cell_formula_units_Z 64
_cell_length_a 20.135083
_cell_length_b 20.084223
_cell_length_c 9.250789
_cell_angle_alpha 90.000000
_cell_angle_beta 90.000000
_cell_angle_gamma 90.000000
_cell_volume 3740.995918
_symmetry_space_group_name_H-M "P N N M"
_symmetry_group_IT_number 58
_symmetry_cell_setting 'orthorhombic'
loop_
_space_group_symop_operation_xyz
x,y,z
-x,-y,z
1/2+x,1/2-y,1/2-z
1/2-x,1/2+y,1/2-z
-x,-y,-z
x,y,-z
1/2-x,1/2+y,1/2+z
1/2+x,1/2-y,1/2+z
loop_
_atom_site_type_symbol
_atom_site_label
_atom_site_fract_x
_atom_site_fract_y
_atom_site_fract_z
Si Si1 0.056674 0.052447 0.830922
Si Si2 0.659194 0.786919 0.163043
Si Si3 0.970887 0.295798 0.833463
Si Si4 0.995708 0.171260 0.668760
Si Si5 0.307811 0.484109 0.670948
Si Si6 0.684856 0.930781 0.165912
Si Si7 0.451905 0.057696 0.331996
Si Si8 0.842061 0.142735 0.336876
O O1 0.045208 0.119377 0.742053
O O2 0.126149 0.022021 0.778085
O O3 0.056669 0.069768 0.000000
O O4 0.000000 0.000000 0.791268
O O5 0.605672 0.792288 0.288734
O O6 0.705891 0.852126 0.178903
O O7 0.694973 0.714882 0.181763
O O8 0.626599 0.787035 0.000000
O O9 0.991589 0.372707 0.806973
O O10 0.012513 0.243968 0.736110
O O11 0.978599 0.274937 0.000000
O O12 0.010540 0.173416 0.500000
O O13 0.919631 0.151720 0.703931
O O14 0.306637 0.477751 0.500000
O O15 0.244709 0.525238 0.730266
O O16 0.306252 0.409769 0.733939
O O17 0.617183 0.946478 0.248019
O O18 0.672974 0.949972 0.000000
O O19 0.434837 0.048060 0.500000
O O20 0.500000 0.000000 0.273799
O O21 0.835401 0.116337 0.500000
#
# Coordination Sequence:
#
# PCOD8235864 Si02
#       8
#     8   8   8   8   8   8   8   8
#     4  10  19  31  47  69  98 133 169 205 245 288
#     4   8  15  29  47  68  93 120 157 199 239 285
#     4   9  16  27  47  73  97 123 155 195 241 287
#     4  10  19  30  46  69  98 129 164 206 244 283
#     4  10  20  32  48  71  98 130 165 203 245 291
#     4   9  18  33  52  73  98 128 163 202 244 295
#     4   9  18  33  54  79 103 125 157 201 247 297
#     4   9  17  28  45  69  93 122 159 200 241 285
#
# _framework density 17.107742999999999
#
# number of rings (size 3 to 8) (size 9 to 14) (size 15 to 20)
#    0.000    2.750    1.250    1.500    0.000    4.000 
#    0.000    0.000    2.750    0.000    0.000    0.000 
#    0.000    0.000    0.000    0.000    0.000    0.000 
#
# Total GULP energy -793159.596800 kJ/mol
# GULP energy per Si atom -12393.118700 kJ/mol
# Density = 1.706881 g / cm^3
# Si number density = 17.107743 Si / 1000 Ang^3
#
#
#
# Elastic Constant Matrix: (Units=GPa)
#
#
# Indices 1 2 3 4 5 6 
#
# 1 71.5941 58.6612 28.8894 0.0000 0.0000 0.0000
# 2 58.6612 155.9917 53.9658 0.0000 0.0000 0.0000
# 3 28.8894 53.9658 55.5061 0.0000 0.0000 0.0000
# 4 0.0000 0.0000 0.0000 28.6586 0.0000 0.0000
# 5 0.0000 0.0000 0.0000 0.0000 16.8519 0.0000
# 6 0.0000 0.0000 0.0000 0.0000 0.0000 25.1365
#
#
#
# Elastic Compliance Matrix: (Units=1/GPa)
#
#
# Indices 1 2 3 4 5 6 
#
# 1 0.021040 -0.006214 -0.004909 0.000000 0.000000 0.000000
# 2 -0.006214 0.011495 -0.007942 0.000000 0.000000 0.000000
# 3 -0.004909 -0.007942 0.028293 0.000000 0.000000 0.000000
# 4 0.000000 0.000000 0.000000 0.034894 0.000000 0.000000
# 5 0.000000 0.000000 0.000000 0.000000 0.059341 0.000000
# 6 0.000000 0.000000 0.000000 0.000000 0.000000 0.039783
#
#
# Mechanical properties :
#
#
# Convention : Reuss Voigt Hill
#
# Bulk Modulus (GPa) = 44.05755 62.90273 53.48014
# Shear Modulus (GPa) = 20.78660 23.56777 22.17718
#
# Velocity S-wave (km/s) = 3.48952 3.71564 3.60436
# Velocity P-wave (km/s) = 6.48418 7.43346 6.97499
#
# Compressibility (1/GPa) = 0.02269759
#
# Stress axis : x y z
#
# Youngs Moduli (GPa) = 47.52872 86.99639 35.34500
#
# Poissons Ratio (x) = 0.54057 0.17352
# Poissons Ratio (y) = 0.29533 0.28070
# Poissons Ratio (z) = 0.23334 0.69090
#
# Static dielectric constant tensor:
#      x y z
#    x 2.836310 0.000000 0.000000 
#    y 0.000000 3.576510 0.000000 
#    z 0.000000 0.000000 3.162870 
# 
# 
# High freq. dielectric constant tensor:
#      x y z
#    x 1.605500 0.000000 0.000000 
#    y 0.000000 1.679240 0.000000 
#    z 0.000000 0.000000 1.662370 
# 
# From -- ./inp_files/8298.got.cif
#   From: 2010.06.25/outbox.cif.g09.slc.cpg/sg58_5_cif.got.tgz:8298.got - 2010.06.26 21:38:00.
