data_PCOD8235934
_publ_section_title
;
Structure prediction by ZEFSAII (Michael W. Deem and Ramdas Pophale) SiO2 
 PCOD8235934
Probable space group: P N N M
;
_chemical_formula_sum "Si O2"
_cell_formula_units_Z 64
_cell_length_a 23.099882
_cell_length_b 18.922567
_cell_length_c 8.978118
_cell_angle_alpha 90.000000
_cell_angle_beta 90.000000
_cell_angle_gamma 90.000000
_cell_volume 3924.416763
_symmetry_space_group_name_H-M "P N N M"
_symmetry_group_IT_number 58
_symmetry_cell_setting 'orthorhombic'
loop_
_space_group_symop_operation_xyz
x,y,z
-x,-y,z
1/2+x,1/2-y,1/2-z
1/2-x,1/2+y,1/2-z
-x,-y,-z
x,y,-z
1/2-x,1/2+y,1/2+z
1/2+x,1/2-y,1/2+z
loop_
_atom_site_type_symbol
_atom_site_label
_atom_site_fract_x
_atom_site_fract_y
_atom_site_fract_z
Si Si1 0.772936 0.363371 0.173787
Si Si2 0.062227 0.854918 0.675730
Si Si3 0.169649 0.219366 0.823752
Si Si4 0.068644 0.143048 0.326977
Si Si5 0.626973 0.505493 0.827261
Si Si6 0.227699 0.342665 0.326851
Si Si7 0.345220 0.269173 0.328768
Si Si8 0.749486 0.499629 0.326186
O O1 0.715577 0.333653 0.251096
O O2 0.827575 0.312200 0.201838
O O3 0.787287 0.439936 0.242505
O O4 0.758706 0.370256 0.000000
O O5 0.062474 0.854050 0.500000
O O6 0.091073 0.927462 0.733139
O O7 0.098273 0.787689 0.733919
O O8 0.996687 0.849513 0.733325
O O9 0.106167 0.196924 0.770816
O O10 0.181233 0.299612 0.770128
O O11 0.174593 0.214996 0.000000
O O12 0.074223 0.164173 0.500000
O O13 0.087393 0.062548 0.301734
O O14 0.684293 0.498350 0.731026
O O15 0.644242 0.514311 0.000000
O O16 0.218113 0.323809 0.500000
O O17 0.292338 0.319649 0.279336
O O18 0.219992 0.425433 0.293594
O O19 0.360544 0.281795 0.500000
O O20 0.748539 0.482878 0.500000
#
# Coordination Sequence:
#
# PCOD8235934 Si02
#       8
#     8   8   8   8   8   8   8   8
#     4  10  20  34  50  69  98 133 162 198 253 300
#     4  10  20  32  49  72  96 131 176 207 236 285
#     4  11  21  32  49  73  96 125 169 210 241 287
#     4  10  20  34  49  67  99 138 169 203 246 289
#     4  10  19  31  47  68  99 136 170 201 238 284
#     4   9  19  34  50  69  99 131 158 198 254 300
#     4   9  18  33  49  67  95 130 162 199 248 291
#     4  11  20  31  50  76 101 128 165 203 243 294
#
# _framework density 16.308156
#
# number of rings (size 3 to 8) (size 9 to 14) (size 15 to 20)
#    0.000    2.000    2.500    3.000    0.000    5.500 
#    0.000    0.000    0.000    2.250    0.000    0.875 
#    0.000    7.000    0.000    0.000    0.000    0.000 
#
# Total GULP energy -793730.509743 kJ/mol
# GULP energy per Si atom -12402.039215 kJ/mol
# Density = 1.627104 g / cm^3
# Si number density = 16.308156 Si / 1000 Ang^3
#
#
#
# Elastic Constant Matrix: (Units=GPa)
#
#
# Indices 1 2 3 4 5 6 
#
# 1 73.0063 46.6544 32.5483 0.0000 0.0000 0.0000
# 2 46.6544 112.1385 51.0159 0.0000 0.0000 0.0000
# 3 32.5483 51.0159 73.0744 0.0000 0.0000 0.0000
# 4 0.0000 0.0000 0.0000 26.7395 0.0000 0.0000
# 5 0.0000 0.0000 0.0000 0.0000 23.0543 0.0000
# 6 0.0000 0.0000 0.0000 0.0000 0.0000 21.0482
#
#
#
# Elastic Compliance Matrix: (Units=1/GPa)
#
#
# Indices 1 2 3 4 5 6 
#
# 1 0.019598 -0.006129 -0.004450 0.000000 0.000000 0.000000
# 2 -0.006129 0.014985 -0.007732 0.000000 0.000000 0.000000
# 3 -0.004450 -0.007732 0.021065 0.000000 0.000000 0.000000
# 4 0.000000 0.000000 0.000000 0.037398 0.000000 0.000000
# 5 0.000000 0.000000 0.000000 0.000000 0.043376 0.000000
# 6 0.000000 0.000000 0.000000 0.000000 0.000000 0.047510
#
#
# Mechanical properties :
#
#
# Convention : Reuss Voigt Hill
#
# Bulk Modulus (GPa) = 52.56026 57.62850 55.09438
# Shear Modulus (GPa) = 22.03658 22.70178 22.36918
#
# Velocity S-wave (km/s) = 3.67994 3.73507 3.70761
# Velocity P-wave (km/s) = 7.09615 7.34948 7.22393
#
# Compressibility (1/GPa) = 0.01902578
#
# Stress axis : x y z
#
# Youngs Moduli (GPa) = 51.02472 66.73405 47.47294
#
# Poissons Ratio (x) = 0.40902 0.21128
# Poissons Ratio (y) = 0.31273 0.36704
# Poissons Ratio (z) = 0.22708 0.51595
#
# Static dielectric constant tensor:
#      x y z
#    x 2.922190 0.000000 0.000000 
#    y 0.000000 3.292880 0.000000 
#    z 0.000000 0.000000 3.062650 
# 
# 
# High freq. dielectric constant tensor:
#      x y z
#    x 1.596970 0.000000 0.000000 
#    y 0.000000 1.627650 0.000000 
#    z 0.000000 0.000000 1.630130 
# 
# From -- ./inp_files/9441.got.cif
#   From: 2010.06.25/outbox.cif.g09.slc.cpg/sg58_5_cif.got.tgz:9441.got - 2010.06.26 21:38:00.
