data_PCOD8235722
_publ_section_title
;
Structure prediction by ZEFSAII (Michael W. Deem and Ramdas Pophale) SiO2 
 PCOD8235722
Probable space group: P N N M
;
_chemical_formula_sum "Si O2"
_cell_formula_units_Z 64
_cell_length_a 18.501889
_cell_length_b 13.724432
_cell_length_c 13.772365
_cell_angle_alpha 90.000000
_cell_angle_beta 90.000000
_cell_angle_gamma 90.000000
_cell_volume 3497.187963
_symmetry_space_group_name_H-M "P N N M"
_symmetry_group_IT_number 58
_symmetry_cell_setting 'orthorhombic'
loop_
_space_group_symop_operation_xyz
x,y,z
-x,-y,z
1/2+x,1/2-y,1/2-z
1/2-x,1/2+y,1/2-z
-x,-y,-z
x,y,-z
1/2-x,1/2+y,1/2+z
1/2+x,1/2-y,1/2+z
loop_
_atom_site_type_symbol
_atom_site_label
_atom_site_fract_x
_atom_site_fract_y
_atom_site_fract_z
Si Si1 0.451581 0.356230 0.892419
Si Si2 0.102160 0.075856 0.608225
Si Si3 0.571356 0.207765 0.386933
Si Si4 0.172472 0.801841 0.265068
Si Si5 0.587073 0.801802 0.389963
Si Si6 0.721202 0.481851 0.757037
Si Si7 0.640803 0.010846 0.388802
Si Si8 0.214052 0.181904 0.114315
O O1 0.534352 0.359615 0.854140
O O2 0.419472 0.463781 0.896260
O O3 0.401511 0.290007 0.825606
O O4 0.450811 0.310750 0.000000
O O5 0.125180 0.109957 0.500000
O O6 0.167978 0.088746 0.681870
O O7 0.559575 0.190120 0.500000
O O8 0.491012 0.233324 0.346271
O O9 0.629395 0.293318 0.367330
O O10 0.600415 0.105117 0.345216
O O11 0.155909 0.740875 0.168195
O O12 0.187962 0.912767 0.234532
O O13 0.238511 0.761494 0.328438
O O14 0.597481 0.764857 0.500000
O O15 0.587320 0.919066 0.385324
O O16 0.793042 0.490622 0.818290
O O17 0.732520 0.425753 0.654874
O O18 0.668383 0.029173 0.500000
O O19 0.232748 0.186068 0.000000
#
# Coordination Sequence:
#
# PCOD8235722 Si02
#       8
#     8   8   8   8   8   8   8   8
#     4   8  15  28  47  72 100 134 172 216 261 308
#     4   8  15  28  47  73 104 132 167 216 267 317
#     4   9  19  36  58  81 110 143 181 233 284 332
#     4  11  21  35  56  78 108 148 190 226 273 335
#     4  10  21  36  55  84 113 141 184 237 287 329
#     4  11  21  33  53  82 112 145 184 224 282 333
#     4  10  18  33  58  85 109 136 180 240 290 328
#     4  11  23  38  55  81 114 150 191 232 278 338
#
# _framework density 18.300418000000001
#
# number of rings (size 3 to 8) (size 9 to 14) (size 15 to 20)
#    0.000    2.250    2.500    1.875    1.750    3.000 
#    0.000    0.000    0.000    2.250    0.000    2.625 
#    0.000    0.000    0.000    0.000    0.000    0.000 
#
# Total GULP energy -793258.132535 kJ/mol
# GULP energy per Si atom -12394.658321 kJ/mol
# Density = 1.825877 g / cm^3
# Si number density = 18.300418 Si / 1000 Ang^3
#
#
#
# Elastic Constant Matrix: (Units=GPa)
#
#
# Indices 1 2 3 4 5 6 
#
# 1 80.2673 10.0250 32.8125 0.0000 0.0000 0.0000
# 2 10.0250 62.4819 26.2793 0.0000 0.0000 0.0000
# 3 32.8125 26.2793 69.3134 0.0000 0.0000 0.0000
# 4 0.0000 0.0000 0.0000 20.7328 0.0000 0.0000
# 5 0.0000 0.0000 0.0000 0.0000 25.8250 0.0000
# 6 0.0000 0.0000 0.0000 0.0000 0.0000 23.2566
#
#
#
# Elastic Compliance Matrix: (Units=1/GPa)
#
#
# Indices 1 2 3 4 5 6 
#
# 1 0.015474 0.000712 -0.007595 0.000000 0.000000 0.000000
# 2 0.000712 0.019074 -0.007568 0.000000 0.000000 0.000000
# 3 -0.007595 -0.007568 0.020892 0.000000 0.000000 0.000000
# 4 0.000000 0.000000 0.000000 0.048233 0.000000 0.000000
# 5 0.000000 0.000000 0.000000 0.000000 0.038722 0.000000
# 6 0.000000 0.000000 0.000000 0.000000 0.000000 0.042999
#
#
# Mechanical properties :
#
#
# Convention : Reuss Voigt Hill
#
# Bulk Modulus (GPa) = 37.68435 38.92178 38.30306
# Shear Modulus (GPa) = 22.40713 23.49259 22.94986
#
# Velocity S-wave (km/s) = 3.50295 3.58679 3.54512
# Velocity P-wave (km/s) = 6.08257 6.20224 6.14270
#
# Compressibility (1/GPa) = 0.02653622
#
# Stress axis : x y z
#
# Youngs Moduli (GPa) = 64.62296 52.42830 47.86460
#
# Poissons Ratio (x) = -0.03731 0.36355
# Poissons Ratio (y) = -0.04599 0.36226
# Poissons Ratio (z) = 0.49083 0.39680
#
# Static dielectric constant tensor:
#      x y z
#    x 3.548330 0.000000 0.000000 
#    y 0.000000 3.128600 0.000000 
#    z 0.000000 0.000000 3.304770 
# 
# 
# High freq. dielectric constant tensor:
#      x y z
#    x 1.719250 0.000000 0.000000 
#    y 0.000000 1.682810 0.000000 
#    z 0.000000 0.000000 1.693780 
# 
# From -- ./inp_files/15906.got.cif
#   From: 2010.06.25/outbox.cif.g09.slc.cpg/sg58_8_cif.got.tgz:15906.got - 2010.06.26 21:38:00.
