data_PCOD8235400
_publ_section_title
;
Structure prediction by ZEFSAII (Michael W. Deem and Ramdas Pophale) SiO2 
 PCOD8235400
Probable space group: P N N M
;
_chemical_formula_sum "Si O2"
_cell_formula_units_Z 64
_cell_length_a 18.601006
_cell_length_b 26.581777
_cell_length_c 8.487039
_cell_angle_alpha 90.000000
_cell_angle_beta 90.000000
_cell_angle_gamma 90.000000
_cell_volume 4196.397707
_symmetry_space_group_name_H-M "P N N M"
_symmetry_group_IT_number 58
_symmetry_cell_setting 'orthorhombic'
loop_
_space_group_symop_operation_xyz
x,y,z
-x,-y,z
1/2+x,1/2-y,1/2-z
1/2-x,1/2+y,1/2-z
-x,-y,-z
x,y,-z
1/2-x,1/2+y,1/2+z
1/2+x,1/2-y,1/2+z
loop_
_atom_site_type_symbol
_atom_site_label
_atom_site_fract_x
_atom_site_fract_y
_atom_site_fract_z
Si Si1 0.839529 0.353498 0.813426
Si Si2 0.832861 0.645060 0.185025
Si Si3 0.081539 0.450165 0.814651
Si Si4 0.427884 0.056906 0.816077
Si Si5 0.722192 0.292465 0.316254
Si Si6 0.916629 0.741532 0.183624
Si Si7 0.205950 0.803616 0.181736
Si Si8 0.924940 0.254794 0.812525
O O1 0.866701 0.404692 0.736517
O O2 0.758684 0.343987 0.744894
O O3 0.891172 0.307917 0.756795
O O4 0.836698 0.359375 0.000000
O O5 0.863395 0.592273 0.248710
O O6 0.879738 0.691299 0.256522
O O7 0.748429 0.651722 0.228832
O O8 0.840641 0.646084 0.000000
O O9 0.100145 0.500907 0.721448
O O10 0.000569 0.431745 0.780210
O O11 0.089755 0.459873 0.000000
O O12 0.444221 0.061837 0.000000
O O13 0.739882 0.282591 0.500000
O O14 0.635470 0.290116 0.290188
O O15 0.753832 0.248809 0.207610
O O16 0.995047 0.751067 0.260887
O O17 0.929025 0.731780 0.000000
O O18 0.124190 0.792954 0.243476
O O19 0.206143 0.818357 0.000000
O O20 0.925571 0.254438 0.000000
#
# Coordination Sequence:
#
# PCOD8235400 Si02
#       8
#     8   8   8   8   8   8   8   8
#     4  10  18  29  44  59  80 112 145 172 202 246
#     4   9  17  28  43  59  78 109 143 172 203 241
#     4  10  19  32  47  61  80 110 144 173 206 247
#     4  11  21  31  43  62  86 108 135 175 214 243
#     4   9  16  26  40  58  80 106 137 174 210 242
#     4   8  13  23  39  58  80 105 135 168 200 237
#     4   9  16  25  39  58  81 108 137 171 207 245
#     4   8  14  24  39  59  80 106 139 169 199 239
#
# _framework density 15.251177
#
# number of rings (size 3 to 8) (size 9 to 14) (size 15 to 20)
#    0.000    2.750    0.000    5.625    0.000    3.000 
#    0.000    0.000    0.000   14.250    0.000    0.000 
#    0.000    1.000    0.000   11.500    0.000    2.875 
#
# Total GULP energy -792983.273175 kJ/mol
# GULP energy per Si atom -12390.363643 kJ/mol
# Density = 1.521646 g / cm^3
# Si number density = 15.251177 Si / 1000 Ang^3
#
#
#
# Elastic Constant Matrix: (Units=GPa)
#
#
# Indices 1 2 3 4 5 6 
#
# 1 109.8084 55.2329 15.1693 0.0000 0.0000 0.0000
# 2 55.2329 80.7716 14.0132 0.0000 0.0000 0.0000
# 3 15.1693 14.0132 25.0998 0.0000 0.0000 0.0000
# 4 0.0000 0.0000 0.0000 17.8279 0.0000 0.0000
# 5 0.0000 0.0000 0.0000 0.0000 19.1070 0.0000
# 6 0.0000 0.0000 0.0000 0.0000 0.0000 30.6203
#
#
#
# Elastic Compliance Matrix: (Units=1/GPa)
#
#
# Indices 1 2 3 4 5 6 
#
# 1 0.014152 -0.009072 -0.003488 0.000000 0.000000 0.000000
# 2 -0.009072 0.019524 -0.005417 0.000000 0.000000 0.000000
# 3 -0.003488 -0.005417 0.044973 0.000000 0.000000 0.000000
# 4 0.000000 0.000000 0.000000 0.056092 0.000000 0.000000
# 5 0.000000 0.000000 0.000000 0.000000 0.052337 0.000000
# 6 0.000000 0.000000 0.000000 0.000000 0.000000 0.032658
#
#
# Mechanical properties :
#
#
# Convention : Reuss Voigt Hill
#
# Bulk Modulus (GPa) = 23.42224 42.72338 33.07281
# Shear Modulus (GPa) = 18.52386 22.26202 20.39294
#
# Velocity S-wave (km/s) = 3.48887 3.82474 3.66066
# Velocity P-wave (km/s) = 5.62322 6.89774 6.29283
#
# Compressibility (1/GPa) = 0.04269447
#
# Stress axis : x y z
#
# Youngs Moduli (GPa) = 70.66236 51.21863 22.23541
#
# Poissons Ratio (x) = 0.46466 0.07755
# Poissons Ratio (y) = 0.64106 0.12046
# Poissons Ratio (z) = 0.24646 0.27748
#
# Static dielectric constant tensor:
#      x y z
#    x 3.285700 0.000000 0.000000 
#    y 0.000000 2.868600 0.000000 
#    z 0.000000 0.000000 2.813130 
# 
# 
# High freq. dielectric constant tensor:
#      x y z
#    x 1.576200 0.000000 0.000000 
#    y 0.000000 1.548810 0.000000 
#    z 0.000000 0.000000 1.578010 
# 
# From -- ./inp_files/8543.got.cif
#   From: 2010.06.25/outbox.cif.g09.slc.cpg/sg58_5_cif.got.tgz:8543.got - 2010.06.26 21:38:00.
