data_PCOD8235957
_publ_section_title
;
Structure prediction by ZEFSAII (Michael W. Deem and Ramdas Pophale) SiO2 
 PCOD8235957
Probable space group: P N N M
;
_chemical_formula_sum "Si O2"
_cell_formula_units_Z 64
_cell_length_a 19.382183
_cell_length_b 19.991583
_cell_length_c 9.517716
_cell_angle_alpha 90.000000
_cell_angle_beta 90.000000
_cell_angle_gamma 90.000000
_cell_volume 3687.929546
_symmetry_space_group_name_H-M "P N N M"
_symmetry_group_IT_number 58
_symmetry_cell_setting 'orthorhombic'
loop_
_space_group_symop_operation_xyz
x,y,z
-x,-y,z
1/2+x,1/2-y,1/2-z
1/2-x,1/2+y,1/2-z
-x,-y,-z
x,y,-z
1/2-x,1/2+y,1/2+z
1/2+x,1/2-y,1/2+z
loop_
_atom_site_type_symbol
_atom_site_label
_atom_site_fract_x
_atom_site_fract_y
_atom_site_fract_z
Si Si1 0.538922 0.569336 0.840270
Si Si2 0.250555 0.787053 0.834602
Si Si3 0.774216 0.860237 0.665587
Si Si4 0.599472 0.183388 0.832667
Si Si5 0.711862 0.980685 0.837159
Si Si6 0.066088 0.461005 0.332836
Si Si7 0.072038 0.171957 0.666669
Si Si8 0.329189 0.411569 0.337662
O O1 0.500000 0.500000 0.833124
O O2 0.489649 0.626478 0.772721
O O3 0.607750 0.561392 0.751690
O O4 0.558931 0.587248 0.000000
O O5 0.235707 0.709774 0.796800
O O6 0.323347 0.811255 0.769791
O O7 0.189801 0.836564 0.783481
O O8 0.258126 0.795347 0.000000
O O9 0.770816 0.875303 0.500000
O O10 0.734667 0.917386 0.747670
O O11 0.853543 0.855213 0.718374
O O12 0.563852 0.115641 0.775195
O O13 0.559122 0.250994 0.785404
O O14 0.602610 0.180629 0.000000
O O15 0.636255 0.002839 0.784091
O O16 0.763367 0.041864 0.811483
O O17 0.710452 0.959788 0.000000
O O18 0.063085 0.460253 0.500000
O O19 0.000000 0.500000 0.269978
O O20 0.072541 0.166386 0.500000
O O21 0.351214 0.411873 0.500000
#
# Coordination Sequence:
#
# PCOD8235957 Si02
#       8
#     8   8   8   8   8   8   8   8
#     4  10  20  33  47  69 103 132 159 202 249 289
#     4   8  14  28  49  69  89 120 163 200 227 275
#     4   9  17  31  53  74  93 126 166 197 234 290
#     4   8  12  24  46  66  86 118 161 196 224 273
#     4  10  19  31  48  74 103 124 152 201 250 284
#     4   9  16  27  44  67  95 124 152 190 241 288
#     4   8  15  28  47  69  91 123 166 202 231 271
#     4  10  19  32  51  71  96 131 167 201 239 288
#
# _framework density 17.353909999999999
#
# number of rings (size 3 to 8) (size 9 to 14) (size 15 to 20)
#    0.000    3.000    1.250    2.250    0.000    1.750 
#    2.250    1.250    0.000    0.375    0.000    0.875 
#    0.000    0.000    0.000    0.000    0.000    0.000 
#
# Total GULP energy -793140.746266 kJ/mol
# GULP energy per Si atom -12392.824160 kJ/mol
# Density = 1.731441 g / cm^3
# Si number density = 17.353910 Si / 1000 Ang^3
#
#
#
# Elastic Constant Matrix: (Units=GPa)
#
#
# Indices 1 2 3 4 5 6 
#
# 1 106.2539 55.5848 33.3377 0.0000 0.0000 0.0000
# 2 55.5848 131.4147 34.1850 0.0000 0.0000 0.0000
# 3 33.3377 34.1850 31.8082 0.0000 0.0000 0.0000
# 4 0.0000 0.0000 0.0000 17.7322 0.0000 0.0000
# 5 0.0000 0.0000 0.0000 0.0000 16.2645 0.0000
# 6 0.0000 0.0000 0.0000 0.0000 0.0000 30.0524
#
#
#
# Elastic Compliance Matrix: (Units=1/GPa)
#
#
# Indices 1 2 3 4 5 6 
#
# 1 0.014883 -0.003106 -0.012261 0.000000 0.000000 0.000000
# 2 -0.003106 0.011210 -0.008793 0.000000 0.000000 0.000000
# 3 -0.012261 -0.008793 0.053739 0.000000 0.000000 0.000000
# 4 0.000000 0.000000 0.000000 0.056395 0.000000 0.000000
# 5 0.000000 0.000000 0.000000 0.000000 0.061484 0.000000
# 6 0.000000 0.000000 0.000000 0.000000 0.000000 0.033275
#
#
# Mechanical properties :
#
#
# Convention : Reuss Voigt Hill
#
# Bulk Modulus (GPa) = 31.73282 57.29910 44.51596
# Shear Modulus (GPa) = 17.25267 22.56776 19.91022
#
# Velocity S-wave (km/s) = 3.15646 3.61008 3.39086
# Velocity P-wave (km/s) = 5.62225 7.10398 6.40610
#
# Compressibility (1/GPa) = 0.03151312
#
# Stress axis : x y z
#
# Youngs Moduli (GPa) = 67.19058 89.20231 18.60839
#
# Poissons Ratio (x) = 0.27703 0.22816
# Poissons Ratio (y) = 0.20867 0.16363
# Poissons Ratio (z) = 0.82382 0.78437
#
# Static dielectric constant tensor:
#      x y z
#    x 3.294150 0.000000 0.000000 
#    y 0.000000 3.542360 0.000000 
#    z 0.000000 0.000000 2.710320 
# 
# 
# High freq. dielectric constant tensor:
#      x y z
#    x 1.661330 0.000000 0.000000 
#    y 0.000000 1.690060 0.000000 
#    z 0.000000 0.000000 1.609670 
# 
# From -- ./inp_files/8284.got.cif
#   From: 2010.06.25/outbox.cif.g09.slc.cpg/sg58_5_cif.got.tgz:8284.got - 2010.06.26 21:38:00.
