data_PCOD8235199
_publ_section_title
;
Structure prediction by ZEFSAII (Michael W. Deem and Ramdas Pophale) SiO2 
 PCOD8235199
Probable space group: P N N M
;
_chemical_formula_sum "Si O2"
_cell_formula_units_Z 48
_cell_length_a 9.391685
_cell_length_b 31.542480
_cell_length_c 8.858766
_cell_angle_alpha 90.000000
_cell_angle_beta 90.000000
_cell_angle_gamma 90.000000
_cell_volume 2624.294585
_symmetry_space_group_name_H-M "P N N M"
_symmetry_group_IT_number 58
_symmetry_cell_setting 'orthorhombic'
loop_
_space_group_symop_operation_xyz
x,y,z
-x,-y,z
1/2+x,1/2-y,1/2-z
1/2-x,1/2+y,1/2-z
-x,-y,-z
x,y,-z
1/2-x,1/2+y,1/2+z
1/2+x,1/2-y,1/2+z
loop_
_atom_site_type_symbol
_atom_site_label
_atom_site_fract_x
_atom_site_fract_y
_atom_site_fract_z
Si Si1 0.682547 0.289925 0.175776
Si Si2 0.144217 0.958797 0.177949
Si Si3 0.147095 0.784226 0.674377
Si Si4 0.656156 0.632674 0.667583
Si Si5 0.182111 0.124945 0.169825
Si Si6 0.164447 0.040958 0.321413
O O1 0.772781 0.249862 0.225910
O O2 0.518534 0.281249 0.216770
O O3 0.742133 0.331868 0.257555
O O4 0.701565 0.297617 0.000000
O O5 0.224675 0.913619 0.205908
O O6 0.999392 0.957967 0.272978
O O7 0.234676 0.998845 0.242664
O O8 0.111298 0.964355 0.000000
O O9 0.177654 0.775328 0.500000
O O10 0.205484 0.831277 0.715331
O O11 0.702136 0.647394 0.500000
O O12 0.487604 0.626005 0.674262
O O13 0.239570 0.083978 0.261574
O O14 0.240280 0.121761 0.000000
O O15 0.181468 0.038207 0.500000
#
# Coordination Sequence:
#
# PCOD8235199 Si02
#       6
#     8   8   8   8   8   8
#     4  10  20  33  49  69  93 121 155 193 231 274
#     4   9  15  23  34  50  75 109 145 178 218 266
#     4  10  20  32  48  69  92 121 155 190 231 276
#     4   8  15  26  40  57  80 112 146 182 223 266
#     4   9  16  27  41  57  81 113 147 182 223 270
#     4  10  16  21  32  52  78 108 142 179 219 264
#
# _framework density 18.29063
#
# number of rings (size 3 to 8) (size 9 to 14) (size 15 to 20)
#    0.000    2.667    0.000    5.500    0.000    6.667 
#    0.000    0.000    0.000    0.000    0.000    0.000 
#    0.000    1.333    0.000   14.000    0.000   16.667 
#
# Total GULP energy -594819.452737 kJ/mol
# GULP energy per Si atom -12392.071932 kJ/mol
# Density = 1.824900 g / cm^3
# Si number density = 18.290630 Si / 1000 Ang^3
#
#
#
# Elastic Constant Matrix: (Units=GPa)
#
#
# Indices 1 2 3 4 5 6 
#
# 1 14.7626 28.6819 21.4329 0.0000 0.0000 0.0000
# 2 28.6819 194.3380 71.4140 0.0000 0.0000 0.0000
# 3 21.4329 71.4140 107.5886 0.0000 0.0000 0.0000
# 4 0.0000 0.0000 0.0000 40.9836 0.0000 0.0000
# 5 0.0000 0.0000 0.0000 0.0000 12.1726 0.0000
# 6 0.0000 0.0000 0.0000 0.0000 0.0000 12.7258
#
#
#
# Elastic Compliance Matrix: (Units=1/GPa)
#
#
# Indices 1 2 3 4 5 6 
#
# 1 0.110243 -0.010846 -0.014763 0.000000 0.000000 0.000000
# 2 -0.010846 0.007873 -0.003065 0.000000 0.000000 0.000000
# 3 -0.014763 -0.003065 0.014270 0.000000 0.000000 0.000000
# 4 0.000000 0.000000 0.000000 0.024400 0.000000 0.000000
# 5 0.000000 0.000000 0.000000 0.000000 0.082152 0.000000
# 6 0.000000 0.000000 0.000000 0.000000 0.000000 0.078581
#
#
# Mechanical properties :
#
#
# Convention : Reuss Voigt Hill
#
# Bulk Modulus (GPa) = 13.32637 62.19409 37.76023
# Shear Modulus (GPa) = 12.50379 26.18710 19.34544
#
# Velocity S-wave (km/s) = 2.61744 3.78792 3.25571
# Velocity P-wave (km/s) = 4.05418 7.29439 5.90104
#
# Compressibility (1/GPa) = 0.07503918
#
# Stress axis : x y z
#
# Youngs Moduli (GPa) = 9.07083 127.02164 70.07663
#
# Poissons Ratio (x) = 1.37763 1.03453
# Poissons Ratio (y) = 0.09838 0.21479
# Poissons Ratio (z) = 0.13391 0.38933
#
# Static dielectric constant tensor:
#      x y z
#    x 2.573590 0.000000 0.000000 
#    y 0.000000 4.252800 0.000000 
#    z 0.000000 0.000000 3.437870 
# 
# 
# High freq. dielectric constant tensor:
#      x y z
#    x 1.606700 0.000000 0.000000 
#    y 0.000000 1.743920 0.000000 
#    z 0.000000 0.000000 1.722030 
# 
# From -- ./inp_files/4503.got.cif
#   From: 2010.06.25/outbox.cif.g09.slc.cpg/sg58_3_cif.got.tgz:4503.got - 2010.06.26 21:38:00.
