data_PCOD8235029
_publ_section_title
;
Structure prediction by ZEFSAII (Michael W. Deem and Ramdas Pophale) SiO2 
 PCOD8235029
Probable space group: P B C M
;
_chemical_formula_sum "Si O2"
_cell_formula_units_Z 32
_cell_length_a 7.791773
_cell_length_b 26.529607
_cell_length_c 8.904023
_cell_angle_alpha 90.000000
_cell_angle_beta 90.000000
_cell_angle_gamma 90.000000
_cell_volume 1840.574417
_symmetry_space_group_name_H-M "P B C M"
_symmetry_group_IT_number 57
_symmetry_cell_setting 'orthorhombic'
loop_
_space_group_symop_operation_xyz
x,y,z
-x,-y,1/2+z
x,1/2-y,-z
-x,1/2+y,1/2-z
-x,-y,-z
x,y,1/2-z
-x,1/2+y,z
x,1/2-y,1/2+z
loop_
_atom_site_type_symbol
_atom_site_label
_atom_site_fract_x
_atom_site_fract_y
_atom_site_fract_z
Si Si1 0.797157 0.103919 0.919683
Si Si2 0.516768 0.945852 0.572931
Si Si3 0.000015 0.302199 0.419432
Si Si4 0.867293 0.607431 0.427181
O O1 0.781482 0.082674 0.750000
O O2 0.823462 0.164811 0.919339
O O3 0.628732 0.091348 0.012802
O O4 0.966844 0.079517 0.998533
O O5 0.498740 0.950763 0.750000
O O6 0.699122 0.922983 0.525370
O O7 0.500000 0.000000 0.500000
O O8 0.962717 0.250000 0.500000
O O9 0.063814 0.292249 0.250000
O O10 0.144689 0.335228 0.507294
O O11 0.891607 0.609897 0.250000
#
# Coordination Sequence:
#
# PCOD8235029 Si02
#       4
#     8   8   8   8
#     4   9  20  36  56  81 110 144 181 224 271 320
#     4  11  23  37  57  81 109 146 183 227 273 322
#     4   9  18  33  57  83 108 144 179 220 272 320
#     4   9  19  36  56  80 110 143 182 223 269 321
#
# _framework density 17.385876
#
# number of rings (size 3 to 8) (size 9 to 14) (size 15 to 20)
#    1.500    1.000    0.000    2.250    0.000    5.000 
#    0.000    1.250    0.000    3.000    0.000    0.000 
#    0.000    0.000    0.000    0.000    0.000    0.000 
#
# Total GULP energy -396495.470320 kJ/mol
# GULP energy per Si atom -12390.483447 kJ/mol
# Density = 1.734630 g / cm^3
# Si number density = 17.385876 Si / 1000 Ang^3
#
#
#
# Elastic Constant Matrix: (Units=GPa)
#
#
# Indices 1 2 3 4 5 6 
#
# 1 81.2101 13.3060 46.6201 0.0000 0.0000 0.0000
# 2 13.3060 69.9530 35.1002 0.0000 0.0000 0.0000
# 3 46.6201 35.1002 101.5435 0.0000 0.0000 0.0000
# 4 0.0000 0.0000 0.0000 27.7021 0.0000 0.0000
# 5 0.0000 0.0000 0.0000 0.0000 28.2414 0.0000
# 6 0.0000 0.0000 0.0000 0.0000 0.0000 24.8024
#
#
#
# Elastic Compliance Matrix: (Units=1/GPa)
#
#
# Indices 1 2 3 4 5 6 
#
# 1 0.016759 0.000814 -0.007976 0.000000 0.000000 0.000000
# 2 0.000814 0.017335 -0.006366 0.000000 0.000000 0.000000
# 3 -0.007976 -0.006366 0.015710 0.000000 0.000000 0.000000
# 4 0.000000 0.000000 0.000000 0.036098 0.000000 0.000000
# 5 0.000000 0.000000 0.000000 0.000000 0.035409 0.000000
# 6 0.000000 0.000000 0.000000 0.000000 0.000000 0.040319
#
#
# Mechanical properties :
#
#
# Convention : Reuss Voigt Hill
#
# Bulk Modulus (GPa) = 43.95779 49.19547 46.57663
# Shear Modulus (GPa) = 25.47546 26.66122 26.06834
#
# Velocity S-wave (km/s) = 3.83207 3.92024 3.87641
# Velocity P-wave (km/s) = 6.70210 6.98918 6.84715
#
# Compressibility (1/GPa) = 0.02274910
#
# Stress axis : x y z
#
# Youngs Moduli (GPa) = 59.66966 57.68811 63.65294
#
# Poissons Ratio (x) = -0.04697 0.50768
# Poissons Ratio (y) = -0.04858 0.40520
# Poissons Ratio (z) = 0.47591 0.36723
#
# Static dielectric constant tensor:
#      x y z
#    x 3.211990 0.000000 0.000000 
#    y 0.000000 3.039380 0.000000 
#    z 0.000000 0.000000 3.400980 
# 
# 
# High freq. dielectric constant tensor:
#      x y z
#    x 1.653210 0.000000 0.000000 
#    y 0.000000 1.657240 0.000000 
#    z 0.000000 0.000000 1.694700 
# 
# From -- ./inp_files/826.got.cif
#   From: 2010.03.12/outbox.cif.g09.slc.cpg/sg57_1_cif.got.tgz:826.got - 2010.04.16 15:48:40.
