data_PCOD8235228
_publ_section_title
;
Structure prediction by ZEFSAII (Michael W. Deem and Ramdas Pophale) SiO2 
 PCOD8235228
Probable space group: P N N M
;
_chemical_formula_sum "Si O2"
_cell_formula_units_Z 64
_cell_length_a 30.687383
_cell_length_b 14.408779
_cell_length_c 8.942589
_cell_angle_alpha 90.000000
_cell_angle_beta 90.000000
_cell_angle_gamma 90.000000
_cell_volume 3954.124187
_symmetry_space_group_name_H-M "P N N M"
_symmetry_group_IT_number 58
_symmetry_cell_setting 'orthorhombic'
loop_
_space_group_symop_operation_xyz
x,y,z
-x,-y,z
1/2+x,1/2-y,1/2-z
1/2-x,1/2+y,1/2-z
-x,-y,-z
x,y,-z
1/2-x,1/2+y,1/2+z
1/2+x,1/2-y,1/2+z
loop_
_atom_site_type_symbol
_atom_site_label
_atom_site_fract_x
_atom_site_fract_y
_atom_site_fract_z
Si Si1 0.636076 0.669895 0.168498
Si Si2 0.197990 0.330015 0.177027
Si Si3 0.547429 0.394405 0.177422
Si Si4 0.272264 0.009051 0.824997
Si Si5 0.283184 0.219180 0.178267
Si Si6 0.814474 0.984652 0.333187
Si Si7 0.633531 0.300739 0.174680
Si Si8 0.951755 0.103314 0.678437
O O1 0.673145 0.732893 0.248244
O O2 0.648698 0.562172 0.172625
O O3 0.587268 0.670238 0.241782
O O4 0.632866 0.707493 0.000000
O O5 0.198201 0.434697 0.239060
O O6 0.240018 0.272280 0.238278
O O7 0.153054 0.285213 0.234339
O O8 0.197717 0.332668 0.000000
O O9 0.584973 0.324710 0.236363
O O10 0.553462 0.498517 0.241693
O O11 0.499347 0.356815 0.224881
O O12 0.551537 0.399934 0.000000
O O13 0.222026 0.990045 0.787144
O O14 0.283885 0.112704 0.769059
O O15 0.280135 0.997729 0.000000
O O16 0.282791 0.228043 0.000000
O O17 0.793653 0.981993 0.500000
O O18 0.835837 0.887786 0.291160
O O19 0.632691 0.275723 0.000000
O O20 0.947562 0.099676 0.500000
#
# Coordination Sequence:
#
# PCOD8235228 Si02
#       8
#     8   8   8   8   8   8   8   8
#     4   9  14  24  41  63  89 122 153 179 217 268
#     4  11  21  34  48  65  89 121 156 190 225 271
#     4   8  13  21  35  63  98 122 144 183 226 264
#     4  11  21  33  45  63  89 119 152 192 230 263
#     4   9  18  29  43  62  88 116 146 184 226 263
#     4  10  17  26  44  67  92 123 154 182 216 264
#     4  10  18  28  44  69  97 125 154 186 224 268
#     4   8  12  19  36  63  94 122 148 180 222 270
#
# _framework density 16.185632999999999
#
# number of rings (size 3 to 8) (size 9 to 14) (size 15 to 20)
#    0.000    2.500    3.750    1.500    0.000    0.000 
#    0.000    0.000    0.000    0.000    0.000    3.500 
#    0.000    7.000    0.000    0.000    0.000    0.000 
#
# Total GULP energy -793020.894020 kJ/mol
# GULP energy per Si atom -12390.951469 kJ/mol
# Density = 1.614879 g / cm^3
# Si number density = 16.185633 Si / 1000 Ang^3
#
#
#
# Elastic Constant Matrix: (Units=GPa)
#
#
# Indices 1 2 3 4 5 6 
#
# 1 121.8302 33.6883 14.3306 0.0000 0.0000 0.0000
# 2 33.6883 68.1425 14.4584 0.0000 0.0000 0.0000
# 3 14.3306 14.4584 25.6094 0.0000 0.0000 0.0000
# 4 0.0000 0.0000 0.0000 16.6419 0.0000 0.0000
# 5 0.0000 0.0000 0.0000 0.0000 13.4492 0.0000
# 6 0.0000 0.0000 0.0000 0.0000 0.0000 23.4571
#
#
#
# Elastic Compliance Matrix: (Units=1/GPa)
#
#
# Indices 1 2 3 4 5 6 
#
# 1 0.009719 -0.004148 -0.003097 0.000000 0.000000 0.000000
# 2 -0.004148 0.018443 -0.008091 0.000000 0.000000 0.000000
# 3 -0.003097 -0.008091 0.045349 0.000000 0.000000 0.000000
# 4 0.000000 0.000000 0.000000 0.060089 0.000000 0.000000
# 5 0.000000 0.000000 0.000000 0.000000 0.074354 0.000000
# 6 0.000000 0.000000 0.000000 0.000000 0.000000 0.042631
#
#
# Mechanical properties :
#
#
# Convention : Reuss Voigt Hill
#
# Bulk Modulus (GPa) = 23.34314 37.83742 30.59028
# Shear Modulus (GPa) = 16.91836 20.91662 18.91749
#
# Velocity S-wave (km/s) = 3.23657 3.59875 3.42246
# Velocity P-wave (km/s) = 5.33110 6.37934 5.87863
#
# Compressibility (1/GPa) = 0.04283914
#
# Stress axis : x y z
#
# Youngs Moduli (GPa) = 102.88662 54.22238 22.05111
#
# Poissons Ratio (x) = 0.22491 0.06829
# Poissons Ratio (y) = 0.42677 0.17842
# Poissons Ratio (z) = 0.31864 0.43871
#
# Static dielectric constant tensor:
#      x y z
#    x 3.364640 0.000000 0.000000 
#    y 0.000000 2.984830 0.000000 
#    z 0.000000 0.000000 2.645690 
# 
# 
# High freq. dielectric constant tensor:
#      x y z
#    x 1.622950 0.000000 0.000000 
#    y 0.000000 1.598060 0.000000 
#    z 0.000000 0.000000 1.576300 
# 
# From -- ./inp_files/7180.got.cif
#   From: 2010.06.25/outbox.cif.g09.slc.cpg/sg58_4_cif.got.tgz:7180.got - 2010.06.26 21:38:00.
