data_PCOD8235292
_publ_section_title
;
Structure prediction by ZEFSAII (Michael W. Deem and Ramdas Pophale) SiO2 
 PCOD8235292
Probable space group: P N N M
;
_chemical_formula_sum "Si O2"
_cell_formula_units_Z 56
_cell_length_a 13.705480
_cell_length_b 21.584853
_cell_length_c 9.837944
_cell_angle_alpha 90.000000
_cell_angle_beta 90.000000
_cell_angle_gamma 90.000000
_cell_volume 2910.366560
_symmetry_space_group_name_H-M "P N N M"
_symmetry_group_IT_number 58
_symmetry_cell_setting 'orthorhombic'
loop_
_space_group_symop_operation_xyz
x,y,z
-x,-y,z
1/2+x,1/2-y,1/2-z
1/2-x,1/2+y,1/2-z
-x,-y,-z
x,y,-z
1/2-x,1/2+y,1/2+z
1/2+x,1/2-y,1/2+z
loop_
_atom_site_type_symbol
_atom_site_label
_atom_site_fract_x
_atom_site_fract_y
_atom_site_fract_z
Si Si1 0.397556 0.026168 0.847217
Si Si2 0.779642 0.395779 0.148059
Si Si3 0.084507 0.042556 0.284399
Si Si4 0.696200 0.263046 0.155901
Si Si5 0.010961 0.167078 0.654385
Si Si6 0.291744 0.447643 0.351632
Si Si7 0.794808 0.165432 0.342336
O O1 0.360749 0.082193 0.753920
O O2 0.500000 0.000000 0.790472
O O3 0.318114 0.972252 0.845017
O O4 0.412221 0.052037 0.000000
O O5 0.683143 0.439495 0.133817
O O6 0.752033 0.326284 0.191984
O O7 0.829050 0.395557 0.000000
O O8 0.033017 0.108327 0.245799
O O9 0.126530 0.002307 0.158200
O O10 0.000000 0.000000 0.357752
O O11 0.581625 0.275133 0.181615
O O12 0.722366 0.208913 0.259571
O O13 0.716422 0.242483 0.000000
O O14 0.027847 0.141683 0.500000
O O15 0.902868 0.193967 0.671440
O O16 0.307770 0.416053 0.500000
O O17 0.300767 0.401978 0.224656
O O18 0.761943 0.159983 0.500000
#
# Coordination Sequence:
#
# PCOD8235292 Si02
#       7
#     8   8   8   8   8   8   8
#     4   9  19  37  57  77 106 145 186 220 262 322
#     4   9  19  33  55  83 107 137 177 221 273 321
#     4  10  17  31  54  85 114 143 170 214 263 337
#     4   9  19  39  58  74 106 145 181 222 271 322
#     4   9  19  35  56  81 109 146 182 218 273 334
#     4  10  21  36  54  83 117 147 176 220 278 324
#     4  11  22  37  57  83 110 142 188 230 266 320
#
# _framework density 19.241562999999999
#
# number of rings (size 3 to 8) (size 9 to 14) (size 15 to 20)
#    0.000    2.429    1.429    1.714    0.000    5.143 
#    2.571    3.571    0.000    0.000    0.000    0.000 
#    0.000    0.000    0.000    0.000    0.000    0.000 
#
# Total GULP energy -693731.427795 kJ/mol
# GULP energy per Si atom -12388.061211 kJ/mol
# Density = 1.919777 g / cm^3
# Si number density = 19.241563 Si / 1000 Ang^3
#
#
#
# Elastic Constant Matrix: (Units=GPa)
#
#
# Indices 1 2 3 4 5 6 
#
# 1 73.1829 15.9454 18.2874 0.0000 0.0000 0.0000
# 2 15.9454 57.5812 34.3050 0.0000 0.0000 0.0000
# 3 18.2874 34.3050 94.2103 0.0000 0.0000 0.0000
# 4 0.0000 0.0000 0.0000 29.4147 0.0000 0.0000
# 5 0.0000 0.0000 0.0000 0.0000 17.7534 0.0000
# 6 0.0000 0.0000 0.0000 0.0000 0.0000 27.8599
#
#
#
# Elastic Compliance Matrix: (Units=1/GPa)
#
#
# Indices 1 2 3 4 5 6 
#
# 1 0.014767 -0.003041 -0.001759 0.000000 0.000000 0.000000
# 2 -0.003041 0.022804 -0.007713 0.000000 0.000000 0.000000
# 3 -0.001759 -0.007713 0.013765 0.000000 0.000000 0.000000
# 4 0.000000 0.000000 0.000000 0.033997 0.000000 0.000000
# 5 0.000000 0.000000 0.000000 0.000000 0.056327 0.000000
# 6 0.000000 0.000000 0.000000 0.000000 0.000000 0.035894
#
#
# Mechanical properties :
#
#
# Convention : Reuss Voigt Hill
#
# Bulk Modulus (GPa) = 38.01077 40.22779 39.11928
# Shear Modulus (GPa) = 23.65743 25.43472 24.54607
#
# Velocity S-wave (km/s) = 3.51022 3.63969 3.57554
# Velocity P-wave (km/s) = 6.01883 6.21411 6.11725
#
# Compressibility (1/GPa) = 0.02630833
#
# Stress axis : x y z
#
# Youngs Moduli (GPa) = 67.72048 43.85126 72.64959
#
# Poissons Ratio (x) = 0.13336 0.12779
# Poissons Ratio (y) = 0.20595 0.56038
# Poissons Ratio (z) = 0.11912 0.33824
#
# Static dielectric constant tensor:
#      x y z
#    x 3.627540 0.000000 0.000000 
#    y 0.000000 3.279760 0.000000 
#    z 0.000000 0.000000 3.454800 
# 
# 
# High freq. dielectric constant tensor:
#      x y z
#    x 1.751720 0.000000 0.000000 
#    y 0.000000 1.730230 0.000000 
#    z 0.000000 0.000000 1.731170 
# 
# From -- ./inp_files/6408.got.cif
#   From: 2010.06.25/outbox.cif.g09.slc.cpg/sg58_4_cif.got.tgz:6408.got - 2010.06.26 21:38:00.
