data_PCOD8235992
_publ_section_title
;
Structure prediction by ZEFSAII (Michael W. Deem and Ramdas Pophale) SiO2 
 PCOD8235992
Probable space group: P N N M
;
_chemical_formula_sum "Si O2"
_cell_formula_units_Z 48
_cell_length_a 16.329722
_cell_length_b 17.979145
_cell_length_c 9.649480
_cell_angle_alpha 90.000000
_cell_angle_beta 90.000000
_cell_angle_gamma 90.000000
_cell_volume 2833.033673
_symmetry_space_group_name_H-M "P N N M"
_symmetry_group_IT_number 58
_symmetry_cell_setting 'orthorhombic'
loop_
_space_group_symop_operation_xyz
x,y,z
-x,-y,z
1/2+x,1/2-y,1/2-z
1/2-x,1/2+y,1/2-z
-x,-y,-z
x,y,-z
1/2-x,1/2+y,1/2+z
1/2+x,1/2-y,1/2+z
loop_
_atom_site_type_symbol
_atom_site_label
_atom_site_fract_x
_atom_site_fract_y
_atom_site_fract_z
Si Si1 0.658069 0.163069 0.838319
Si Si2 0.252196 0.539223 0.841852
Si Si3 0.085885 0.465137 0.161924
Si Si4 0.178719 0.916472 0.842999
Si Si5 0.865493 0.831150 0.339572
Si Si6 0.002409 0.086268 0.158316
O O1 0.599481 0.109760 0.749298
O O2 0.752952 0.144739 0.807264
O O3 0.645676 0.247141 0.787662
O O4 0.636718 0.152634 0.000000
O O5 0.156883 0.525688 0.803292
O O6 0.311965 0.488685 0.751542
O O7 0.279657 0.624568 0.816105
O O8 0.267086 0.515806 0.000000
O O9 0.000000 0.500000 0.208750
O O10 0.084977 0.443990 0.000000
O O11 0.089203 0.880712 0.821196
O O12 0.188444 0.945137 0.000000
O O13 0.890413 0.833004 0.500000
O O14 0.938683 0.867752 0.255943
O O15 0.032331 0.095054 0.000000
O O16 0.000000 0.000000 0.201017
#
# Coordination Sequence:
#
# PCOD8235992 Si02
#       6
#     8   8   8   8   8   8
#     4   9  19  35  52  71  99 134 168 202 247 297
#     4   9  17  30  50  72  96 128 163 200 243 292
#     4   9  18  34  54  77  99 126 169 213 249 290
#     4   9  17  32  51  71  96 129 164 199 239 292
#     4  10  20  33  49  72 102 133 165 202 246 298
#     4  10  19  31  50  77 103 127 164 206 246 295
#
# _framework density 16.942969999999999
#
# number of rings (size 3 to 8) (size 9 to 14) (size 15 to 20)
#    0.000    2.667    1.667    0.000    0.000    2.000 
#    3.000    0.000    0.000    0.000    0.000    0.000 
#    0.000    0.000    0.000    0.000    0.000    0.000 
#
# Total GULP energy -595095.649803 kJ/mol
# GULP energy per Si atom -12397.826038 kJ/mol
# Density = 1.690441 g / cm^3
# Si number density = 16.942970 Si / 1000 Ang^3
#
#
#
# Elastic Constant Matrix: (Units=GPa)
#
#
# Indices 1 2 3 4 5 6 
#
# 1 112.5160 72.7170 46.1284 0.0000 0.0000 0.0000
# 2 72.7170 140.8207 58.6925 0.0000 0.0000 0.0000
# 3 46.1284 58.6925 56.7017 0.0000 0.0000 0.0000
# 4 0.0000 0.0000 0.0000 26.0779 0.0000 0.0000
# 5 0.0000 0.0000 0.0000 0.0000 27.7493 0.0000
# 6 0.0000 0.0000 0.0000 0.0000 0.0000 22.8078
#
#
#
# Elastic Compliance Matrix: (Units=1/GPa)
#
#
# Indices 1 2 3 4 5 6 
#
# 1 0.014880 -0.004640 -0.007302 0.000000 0.000000 0.000000
# 2 -0.004640 0.013937 -0.010651 0.000000 0.000000 0.000000
# 3 -0.007302 -0.010651 0.034601 0.000000 0.000000 0.000000
# 4 0.000000 0.000000 0.000000 0.038347 0.000000 0.000000
# 5 0.000000 0.000000 0.000000 0.000000 0.036037 0.000000
# 6 0.000000 0.000000 0.000000 0.000000 0.000000 0.043845
#
#
# Mechanical properties :
#
#
# Convention : Reuss Voigt Hill
#
# Bulk Modulus (GPa) = 54.85009 73.90159 64.37584
# Shear Modulus (GPa) = 21.46746 24.16036 22.81391
#
# Velocity S-wave (km/s) = 3.56342 3.78031 3.67347
# Velocity P-wave (km/s) = 7.02668 7.92256 7.48803
#
# Compressibility (1/GPa) = 0.01823151
#
# Stress axis : x y z
#
# Youngs Moduli (GPa) = 67.20263 71.75368 28.90055
#
# Poissons Ratio (x) = 0.33297 0.21104
# Poissons Ratio (y) = 0.31185 0.30781
# Poissons Ratio (z) = 0.49073 0.76423
#
# Static dielectric constant tensor:
#      x y z
#    x 3.305350 0.000000 0.000000 
#    y 0.000000 3.121100 0.000000 
#    z 0.000000 0.000000 3.179760 
# 
# 
# High freq. dielectric constant tensor:
#      x y z
#    x 1.657800 0.000000 0.000000 
#    y 0.000000 1.635910 0.000000 
#    z 0.000000 0.000000 1.653990 
# 
# From -- ./inp_files/7836.got.cif
#   From: 2010.06.25/outbox.cif.g09.slc.cpg/sg58_4_cif.got.tgz:7836.got - 2010.06.26 21:38:00.
