data_PCOD8235746
_publ_section_title
;
Structure prediction by ZEFSAII (Michael W. Deem and Ramdas Pophale) SiO2 
 PCOD8235746
Probable space group: P N N M
;
_chemical_formula_sum "Si O2"
_cell_formula_units_Z 56
_cell_length_a 21.068805
_cell_length_b 15.099482
_cell_length_c 8.988160
_cell_angle_alpha 90.000000
_cell_angle_beta 90.000000
_cell_angle_gamma 90.000000
_cell_volume 2859.385741
_symmetry_space_group_name_H-M "P N N M"
_symmetry_group_IT_number 58
_symmetry_cell_setting 'orthorhombic'
loop_
_space_group_symop_operation_xyz
x,y,z
-x,-y,z
1/2+x,1/2-y,1/2-z
1/2-x,1/2+y,1/2-z
-x,-y,-z
x,y,-z
1/2-x,1/2+y,1/2+z
1/2+x,1/2-y,1/2+z
loop_
_atom_site_type_symbol
_atom_site_label
_atom_site_fract_x
_atom_site_fract_y
_atom_site_fract_z
Si Si1 0.269369 0.487351 0.834739
Si Si2 0.629776 0.056420 0.334534
Si Si3 0.538794 0.747927 0.325949
Si Si4 0.446458 0.073344 0.833027
Si Si5 0.399465 0.753457 0.675501
Si Si6 0.835159 0.186212 0.676800
Si Si7 0.730198 0.328329 0.676686
O O1 0.204767 0.432027 0.845991
O O2 0.317327 0.413180 0.769271
O O3 0.260054 0.571923 0.731035
O O4 0.290281 0.518959 0.000000
O O5 0.601093 0.039112 0.500000
O O6 0.601685 0.146192 0.261652
O O7 0.616870 0.973425 0.226920
O O8 0.553265 0.739811 0.500000
O O9 0.535882 0.849799 0.279653
O O10 0.468124 0.708693 0.287012
O O11 0.593915 0.699205 0.236879
O O12 0.500000 0.000000 0.829192
O O13 0.434485 0.110040 0.000000
O O14 0.390294 0.761497 0.500000
O O15 0.339387 0.699704 0.740171
O O16 0.835911 0.190345 0.500000
O O17 0.786005 0.262172 0.736342
O O18 0.731057 0.328384 0.500000
#
# Coordination Sequence:
#
# PCOD8235746 Si02
#       7
#     8   8   8   8   8   8   8
#     4  10  21  37  59  86 113 147 189 236 286 339
#     4  10  18  34  58  79 106 146 191 231 274 333
#     4  11  22  36  57  82 111 148 193 237 278 334
#     4  11  22  33  48  78 117 149 179 221 282 345
#     4   9  18  35  58  81 106 145 191 232 276 326
#     4  10  21  39  60  83 118 153 183 229 294 346
#     4  10  20  38  62  84 110 150 193 236 282 334
#
# _framework density 19.584627000000001
#
# number of rings (size 3 to 8) (size 9 to 14) (size 15 to 20)
#    0.000    1.857    2.857    1.714    0.000    4.571 
#    0.000    2.857    0.000    4.286    0.000    0.000 
#    0.000    0.000    0.000    0.000    0.000    0.000 
#
# Total GULP energy -694026.807492 kJ/mol
# GULP energy per Si atom -12393.335848 kJ/mol
# Density = 1.954005 g / cm^3
# Si number density = 19.584627 Si / 1000 Ang^3
#
#
#
# Elastic Constant Matrix: (Units=GPa)
#
#
# Indices 1 2 3 4 5 6 
#
# 1 116.8029 29.2395 20.5614 0.0000 0.0000 0.0000
# 2 29.2395 68.8000 14.7450 0.0000 0.0000 0.0000
# 3 20.5614 14.7450 27.3151 0.0000 0.0000 0.0000
# 4 0.0000 0.0000 0.0000 11.4014 0.0000 0.0000
# 5 0.0000 0.0000 0.0000 0.0000 28.0853 0.0000
# 6 0.0000 0.0000 0.0000 0.0000 0.0000 31.2097
#
#
#
# Elastic Compliance Matrix: (Units=1/GPa)
#
#
# Indices 1 2 3 4 5 6 
#
# 1 0.010426 -0.003109 -0.006170 0.000000 0.000000 0.000000
# 2 -0.003109 0.017363 -0.007033 0.000000 0.000000 0.000000
# 3 -0.006170 -0.007033 0.045051 0.000000 0.000000 0.000000
# 4 0.000000 0.000000 0.000000 0.087709 0.000000 0.000000
# 5 0.000000 0.000000 0.000000 0.000000 0.035606 0.000000
# 6 0.000000 0.000000 0.000000 0.000000 0.000000 0.032041
#
#
# Mechanical properties :
#
#
# Convention : Reuss Voigt Hill
#
# Bulk Modulus (GPa) = 24.86523 38.00108 31.43315
# Shear Modulus (GPa) = 18.23328 24.03075 21.13201
#
# Velocity S-wave (km/s) = 3.05454 3.50669 3.28839
# Velocity P-wave (km/s) = 5.01639 5.98677 5.52293
#
# Compressibility (1/GPa) = 0.04021681
#
# Stress axis : x y z
#
# Youngs Moduli (GPa) = 95.91664 57.59284 22.19726
#
# Poissons Ratio (x) = 0.17903 0.13696
# Poissons Ratio (y) = 0.29816 0.15611
# Poissons Ratio (z) = 0.59180 0.40505
#
# Static dielectric constant tensor:
#      x y z
#    x 3.851520 0.000000 0.000000 
#    y 0.000000 3.421840 0.000000 
#    z 0.000000 0.000000 3.361240 
# 
# 
# High freq. dielectric constant tensor:
#      x y z
#    x 1.775060 0.000000 0.000000 
#    y 0.000000 1.746340 0.000000 
#    z 0.000000 0.000000 1.738770 
# 
# From -- ./inp_files/6351.got.cif
#   From: 2010.06.25/outbox.cif.g09.slc.cpg/sg58_4_cif.got.tgz:6351.got - 2010.06.26 21:38:00.
