data_PCOD8235016
_publ_section_title
;
Structure prediction by ZEFSAII (Michael W. Deem and Ramdas Pophale) SiO2 
 PCOD8235016
Probable space group: P B C M
;
_chemical_formula_sum "Si O2"
_cell_formula_units_Z 40
_cell_length_a 7.644664
_cell_length_b 13.376795
_cell_length_c 18.184760
_cell_angle_alpha 90.000000
_cell_angle_beta 90.000000
_cell_angle_gamma 90.000000
_cell_volume 1859.593619
_symmetry_space_group_name_H-M "P B C M"
_symmetry_group_IT_number 57
_symmetry_cell_setting 'orthorhombic'
loop_
_space_group_symop_operation_xyz
x,y,z
-x,-y,1/2+z
x,1/2-y,-z
-x,1/2+y,1/2-z
-x,-y,-z
x,y,1/2-z
-x,1/2+y,z
x,1/2-y,1/2+z
loop_
_atom_site_type_symbol
_atom_site_label
_atom_site_fract_x
_atom_site_fract_y
_atom_site_fract_z
Si Si1 0.204723 0.154233 0.042988
Si Si2 0.402680 0.799392 0.575479
Si Si3 0.603087 0.113221 0.665714
Si Si4 0.066940 0.027190 0.165753
Si Si5 0.729968 0.981236 0.408850
O O1 0.390187 0.184195 0.076761
O O2 0.081159 0.122745 0.111180
O O3 0.123462 0.250000 0.000000
O O4 0.220280 0.059857 0.988815
O O5 0.339296 0.750000 0.500000
O O6 0.351840 0.726260 0.642513
O O7 0.301449 0.901496 0.586177
O O8 0.546298 0.110789 0.750000
O O9 0.768869 0.043923 0.650872
O O10 0.441602 0.076095 0.617199
O O11 0.062361 0.064401 0.250000
O O12 0.890524 0.965433 0.147593
#
# Coordination Sequence:
#
# PCOD8235016 Si02
#       5
#     8   8   8   8   8
#     4  11  22  43  70 101 131 175 224 277 334 394
#     4  11  22  41  71  97 130 173 224 274 329 397
#     4  11  24  43  66  96 136 176 219 278 335 393
#     4  11  26  44  66 101 139 177 225 277 335 404
#     4  12  23  44  70  96 134 179 225 269 339 397
#
# _framework density 21.510076000000002
#
# number of rings (size 3 to 8) (size 9 to 14) (size 15 to 20)
#    0.000    0.800    6.000    3.000    0.000    4.800 
#    0.000    2.000    0.000    0.000    0.000    0.000 
#    0.000    0.000    0.000    0.000    0.000    0.000 
#
# Total GULP energy -496196.080746 kJ/mol
# GULP energy per Si atom -12404.902019 kJ/mol
# Density = 2.146112 g / cm^3
# Si number density = 21.510076 Si / 1000 Ang^3
#
#
#
# Elastic Constant Matrix: (Units=GPa)
#
#
# Indices 1 2 3 4 5 6 
#
# 1 79.8769 23.9090 32.2174 0.0000 0.0000 0.0000
# 2 23.9090 127.4580 53.2851 0.0000 0.0000 0.0000
# 3 32.2174 53.2851 99.8578 0.0000 0.0000 0.0000
# 4 0.0000 0.0000 0.0000 35.5149 0.0000 0.0000
# 5 0.0000 0.0000 0.0000 0.0000 -12.2627 0.0000
# 6 0.0000 0.0000 0.0000 0.0000 0.0000 6.9200
#
#
#
# Elastic Compliance Matrix: (Units=1/GPa)
#
#
# Indices 1 2 3 4 5 6 
#
# 1 0.014487 -0.000983 -0.004150 0.000000 0.000000 0.000000
# 2 -0.000983 0.010165 -0.005107 0.000000 0.000000 0.000000
# 3 -0.004150 -0.005107 0.014078 0.000000 0.000000 0.000000
# 4 0.000000 0.000000 0.000000 0.028157 0.000000 0.000000
# 5 0.000000 0.000000 0.000000 0.000000 -0.081548 0.000000
# 6 0.000000 0.000000 0.000000 0.000000 0.000000 0.144508
#
#
# Mechanical properties :
#
#
# Convention : Reuss Voigt Hill
#
# Bulk Modulus (GPa) = 54.79001 58.44618 56.61810
# Shear Modulus (GPa) = 31.96704 19.21984 25.59344
#
# Velocity S-wave (km/s) = 3.85923 2.99244 3.45314
# Velocity P-wave (km/s) = 6.73686 6.25860 6.50213
#
# Compressibility (1/GPa) = 0.01825150
#
# Stress axis : x y z
#
# Youngs Moduli (GPa) = 69.02675 98.37509 71.03137
#
# Poissons Ratio (x) = 0.09668 0.29475
# Poissons Ratio (y) = 0.06784 0.36277
# Poissons Ratio (z) = 0.28644 0.50242
#
# Static dielectric constant tensor:
#      x y z
#    x 3.883240 0.000000 0.000000 
#    y 0.000000 4.079520 0.000000 
#    z 0.000000 0.000000 3.929820 
# 
# 
# High freq. dielectric constant tensor:
#      x y z
#    x 1.847320 0.000000 0.000000 
#    y 0.000000 1.846990 0.000000 
#    z 0.000000 0.000000 1.847360 
# 
# From -- ./inp_files/20514.got.cif
#   From: 2010.03.12/outbox.cif.g09.slc.cpg/sg57_11_cif.got.tgz:20514.got - 2010.04.16 15:48:40.
