data_PCOD8235471
_publ_section_title
;
Structure prediction by ZEFSAII (Michael W. Deem and Ramdas Pophale) SiO2 
 PCOD8235471
Probable space group: P N N M
;
_chemical_formula_sum "Si O2"
_cell_formula_units_Z 64
_cell_length_a 23.993013
_cell_length_b 11.428225
_cell_length_c 13.281921
_cell_angle_alpha 90.000000
_cell_angle_beta 90.000000
_cell_angle_gamma 90.000000
_cell_volume 3641.870211
_symmetry_space_group_name_H-M "P N N M"
_symmetry_group_IT_number 58
_symmetry_cell_setting 'orthorhombic'
loop_
_space_group_symop_operation_xyz
x,y,z
-x,-y,z
1/2+x,1/2-y,1/2-z
1/2-x,1/2+y,1/2-z
-x,-y,-z
x,y,-z
1/2-x,1/2+y,1/2+z
1/2+x,1/2-y,1/2+z
loop_
_atom_site_type_symbol
_atom_site_label
_atom_site_fract_x
_atom_site_fract_y
_atom_site_fract_z
Si Si1 0.027507 0.115758 0.617591
Si Si2 0.719890 0.233469 0.615956
Si Si3 0.164780 0.370267 0.702193
Si Si4 0.063500 0.494661 0.383659
Si Si5 0.650417 0.369356 0.117357
Si Si6 0.420214 0.257279 0.114451
Si Si7 0.323166 0.390877 0.205542
Si Si8 0.767115 0.006124 0.882947
O O1 0.036925 0.095402 0.500000
O O2 0.088051 0.137808 0.665991
O O3 0.985914 0.224210 0.637886
O O4 0.000000 0.000000 0.665830
O O5 0.709217 0.202672 0.500000
O O6 0.674620 0.158714 0.679838
O O7 0.781610 0.195788 0.648274
O O8 0.714654 0.372182 0.634905
O O9 0.100476 0.406019 0.682703
O O10 0.181261 0.251352 0.643416
O O11 0.204903 0.472870 0.660949
O O12 0.064136 0.451696 0.500000
O O13 0.092390 0.621001 0.372830
O O14 0.000000 0.500000 0.343814
O O15 0.683535 0.479200 0.161163
O O16 0.648201 0.386973 0.000000
O O17 0.384385 0.336389 0.190686
O O18 0.406974 0.298781 0.000000
O O19 0.308870 0.405307 0.324036
O O20 0.769047 0.038867 0.000000
#
# Coordination Sequence:
#
# PCOD8235471 Si02
#       8
#     8   8   8   8   8   8   8   8
#     4   9  16  26  42  68 105 137 162 198 249 303
#     4  10  21  37  54  72  99 135 177 217 255 307
#     4  11  21  34  54  77 103 137 175 210 263 312
#     4  10  20  34  53  79 111 143 171 205 254 319
#     4  11  19  29  46  76 109 133 163 212 258 304
#     4  10  18  30  49  74 106 141 169 201 250 307
#     4  11  20  31  51  77  99 133 175 212 257 307
#     4  10  21  38  54  72 102 139 177 217 261 311
#
# _framework density 17.57339
#
# number of rings (size 3 to 8) (size 9 to 14) (size 15 to 20)
#    0.000    1.750    2.500    3.750    0.000    4.000 
#    0.000    0.000    0.000    0.375    0.000    4.375 
#    0.000    0.000    0.000    0.000    0.000    0.000 
#
# Total GULP energy -793461.185705 kJ/mol
# GULP energy per Si atom -12397.831027 kJ/mol
# Density = 1.753339 g / cm^3
# Si number density = 17.573390 Si / 1000 Ang^3
#
#
#
# Elastic Constant Matrix: (Units=GPa)
#
#
# Indices 1 2 3 4 5 6 
#
# 1 64.4438 12.6342 42.6380 0.0000 0.0000 0.0000
# 2 12.6342 65.9996 32.2919 0.0000 0.0000 0.0000
# 3 42.6380 32.2919 97.6482 0.0000 0.0000 0.0000
# 4 0.0000 0.0000 0.0000 25.1855 0.0000 0.0000
# 5 0.0000 0.0000 0.0000 0.0000 23.0526 0.0000
# 6 0.0000 0.0000 0.0000 0.0000 0.0000 27.5434
#
#
#
# Elastic Compliance Matrix: (Units=1/GPa)
#
#
# Indices 1 2 3 4 5 6 
#
# 1 0.021840 0.000579 -0.009728 0.000000 0.000000 0.000000
# 2 0.000579 0.018092 -0.006236 0.000000 0.000000 0.000000
# 3 -0.009728 -0.006236 0.016551 0.000000 0.000000 0.000000
# 4 0.000000 0.000000 0.000000 0.039705 0.000000 0.000000
# 5 0.000000 0.000000 0.000000 0.000000 0.043379 0.000000
# 6 0.000000 0.000000 0.000000 0.000000 0.000000 0.036306
#
#
# Mechanical properties :
#
#
# Convention : Reuss Voigt Hill
#
# Bulk Modulus (GPa) = 38.89067 44.80221 41.84644
# Shear Modulus (GPa) = 23.23273 24.52481 23.87877
#
# Velocity S-wave (km/s) = 3.63993 3.73978 3.69019
# Velocity P-wave (km/s) = 6.31221 6.64813 6.48234
#
# Compressibility (1/GPa) = 0.02571311
#
# Stress axis : x y z
#
# Youngs Moduli (GPa) = 45.78718 55.27391 60.42077
#
# Poissons Ratio (x) = -0.03199 0.58777
# Poissons Ratio (y) = -0.02650 0.37676
# Poissons Ratio (z) = 0.44541 0.34467
#
# Static dielectric constant tensor:
#      x y z
#    x 3.310920 0.000000 0.000000 
#    y 0.000000 3.371120 0.000000 
#    z 0.000000 0.000000 3.025620 
# 
# 
# High freq. dielectric constant tensor:
#      x y z
#    x 1.673040 0.000000 0.000000 
#    y 0.000000 1.697040 0.000000 
#    z 0.000000 0.000000 1.635720 
# 
# From -- ./inp_files/14845.got.cif
#   From: 2010.06.25/outbox.cif.g09.slc.cpg/sg58_8_cif.got.tgz:14845.got - 2010.06.26 21:38:00.
