data_PCOD8235639
_publ_section_title
;
Structure prediction by ZEFSAII (Michael W. Deem and Ramdas Pophale) SiO2 
 PCOD8235639
Probable space group: P N N M
;
_chemical_formula_sum "Si O2"
_cell_formula_units_Z 32
_cell_length_a 8.169328
_cell_length_b 15.769865
_cell_length_c 14.113812
_cell_angle_alpha 90.000000
_cell_angle_beta 90.000000
_cell_angle_gamma 90.000000
_cell_volume 1818.271105
_symmetry_space_group_name_H-M "P N N M"
_symmetry_group_IT_number 58
_symmetry_cell_setting 'orthorhombic'
loop_
_space_group_symop_operation_xyz
x,y,z
-x,-y,z
1/2+x,1/2-y,1/2-z
1/2-x,1/2+y,1/2-z
-x,-y,-z
x,y,-z
1/2-x,1/2+y,1/2+z
1/2+x,1/2-y,1/2+z
loop_
_atom_site_type_symbol
_atom_site_label
_atom_site_fract_x
_atom_site_fract_y
_atom_site_fract_z
Si Si1 0.806424 0.761708 0.000000
Si Si2 0.426453 0.592593 0.000000
Si Si3 0.554833 0.721003 0.848169
Si Si4 0.574678 0.592441 0.500000
Si Si5 0.223628 0.806641 0.153725
Si Si6 0.113678 0.676833 0.000000
O O1 0.697882 0.767347 0.906105
O O2 0.925949 0.841362 0.000000
O O3 0.914717 0.672759 0.000000
O O4 0.500000 0.500000 0.000000
O O5 0.487830 0.641216 0.093093
O O6 0.224677 0.590981 0.000000
O O7 0.416842 0.792447 0.828368
O O8 0.625288 0.685214 0.750863
O O9 0.500000 0.500000 0.500000
O O10 0.687956 0.607820 0.406921
O O11 0.161840 0.726545 0.094757
#
# Coordination Sequence:
#
# PCOD8235639 Si02
#       6
#     4   4   8   4   8   4
#     4   9  17  32  52  73  94 129 171 209 245 295
#     4   9  19  33  50  75 105 132 160 203 259 307
#     4  10  18  32  54  74  96 130 173 211 246 295
#     4  10  20  33  50  74 103 132 161 204 261 306
#     4   9  17  31  50  73  96 128 171 207 242 297
#     4   8  16  30  50  72  96 129 166 200 242 294
#
# _framework density 17.599136000000001
#
# number of rings (size 3 to 8) (size 9 to 14) (size 15 to 20)
#    0.000    3.000    0.000    5.250    0.000    1.000 
#    0.000    5.000    0.000    3.000    0.000    0.000 
#    0.000    0.000    0.000    0.000    0.000    0.000 
#
# Total GULP energy -396436.447809 kJ/mol
# GULP energy per Si atom -12388.638994 kJ/mol
# Density = 1.755908 g / cm^3
# Si number density = 17.599136 Si / 1000 Ang^3
#
#
#
# Elastic Constant Matrix: (Units=GPa)
#
#
# Indices 1 2 3 4 5 6 
#
# 1 139.5717 46.2339 50.5060 0.0000 0.0000 0.0000
# 2 46.2339 90.2352 27.3623 0.0000 0.0000 0.0000
# 3 50.5060 27.3623 135.3972 0.0000 0.0000 0.0000
# 4 0.0000 0.0000 0.0000 -7.1679 0.0000 0.0000
# 5 0.0000 0.0000 0.0000 0.0000 25.0545 0.0000
# 6 0.0000 0.0000 0.0000 0.0000 0.0000 26.5044
#
#
#
# Elastic Compliance Matrix: (Units=1/GPa)
#
#
# Indices 1 2 3 4 5 6 
#
# 1 0.009487 -0.004035 -0.002723 0.000000 0.000000 0.000000
# 2 -0.004035 0.013522 -0.001227 0.000000 0.000000 0.000000
# 3 -0.002723 -0.001227 0.008650 0.000000 0.000000 0.000000
# 4 0.000000 0.000000 0.000000 -0.139510 0.000000 0.000000
# 5 0.000000 0.000000 0.000000 0.000000 0.039913 0.000000
# 6 0.000000 0.000000 0.000000 0.000000 0.000000 0.037730
#
#
# Mechanical properties :
#
#
# Convention : Reuss Voigt Hill
#
# Bulk Modulus (GPa) = 63.74868 68.15649 65.95259
# Shear Modulus (GPa) = -555.02552 24.95166 -265.03693
#
# Velocity S-wave (km/s) = -17.77795 3.76942 -12.28509
# Velocity P-wave (km/s) = 19.62412 7.59974 12.79356
#
# Compressibility (1/GPa) = 0.01568660
#
# Stress axis : x y z
#
# Youngs Moduli (GPa) = 105.40879 73.95485 115.61213
#
# Poissons Ratio (x) = 0.29841 0.31486
# Poissons Ratio (y) = 0.42532 0.14191
# Poissons Ratio (z) = 0.28707 0.09078
#
# Static dielectric constant tensor:
#      x y z
#    x 3.859650 0.000000 0.000000 
#    y 0.000000 2.858560 0.000000 
#    z 0.000000 0.000000 3.400360 
# 
# 
# High freq. dielectric constant tensor:
#      x y z
#    x 1.701340 0.000000 0.000000 
#    y 0.000000 1.621770 0.000000 
#    z 0.000000 0.000000 1.693330 
# 
# From -- ./inp_files/19352.got.cif
#   From: 2010.06.25/outbox.cif.g09.slc.cpg/sg58_10_cif.got.tgz:19352.got - 2010.06.26 21:38:00.
