data_PCOD8235653
_publ_section_title
;
Structure prediction by ZEFSAII (Michael W. Deem and Ramdas Pophale) SiO2 
 PCOD8235653
Probable space group: P N N M
;
_chemical_formula_sum "Si O2"
_cell_formula_units_Z 64
_cell_length_a 19.539867
_cell_length_b 19.260233
_cell_length_c 8.886762
_cell_angle_alpha 90.000000
_cell_angle_beta 90.000000
_cell_angle_gamma 90.000000
_cell_volume 3344.465261
_symmetry_space_group_name_H-M "P N N M"
_symmetry_group_IT_number 58
_symmetry_cell_setting 'orthorhombic'
loop_
_space_group_symop_operation_xyz
x,y,z
-x,-y,z
1/2+x,1/2-y,1/2-z
1/2-x,1/2+y,1/2-z
-x,-y,-z
x,y,-z
1/2-x,1/2+y,1/2+z
1/2+x,1/2-y,1/2+z
loop_
_atom_site_type_symbol
_atom_site_label
_atom_site_fract_x
_atom_site_fract_y
_atom_site_fract_z
Si Si1 0.393508 0.533955 0.326568
Si Si2 0.355850 0.748560 0.175896
Si Si3 0.988909 0.240316 0.676758
Si Si4 0.851280 0.449783 0.325378
Si Si5 0.222375 0.116717 0.677577
Si Si6 0.964064 0.104929 0.827210
Si Si7 0.975909 0.381285 0.177888
Si Si8 0.619389 0.101286 0.826063
O O1 0.373269 0.547467 0.500000
O O2 0.333123 0.558378 0.218473
O O3 0.462402 0.574053 0.283284
O O4 0.405338 0.452073 0.298657
O O5 0.432622 0.733109 0.233468
O O6 0.302924 0.691862 0.243538
O O7 0.337151 0.828910 0.217170
O O8 0.354046 0.735748 0.000000
O O9 0.983568 0.252732 0.500000
O O10 0.948035 0.171187 0.723507
O O11 0.955154 0.305474 0.760537
O O12 0.856442 0.431306 0.500000
O O13 0.793738 0.401698 0.253477
O O14 0.923618 0.436475 0.246983
O O15 0.835080 0.532207 0.301618
O O16 0.233532 0.117735 0.500000
O O17 0.964041 0.128520 0.000000
O O18 0.051867 0.402957 0.225565
O O19 0.969860 0.382602 0.000000
O O20 0.595683 0.108004 0.000000
#
# Coordination Sequence:
#
# PCOD8235653 Si02
#       8
#     8   8   8   8   8   8   8   8
#     4   9  18  32  50  75 110 148 186 228 276 329
#     4   8  16  32  54  80 105 136 176 221 270 321
#     4  10  18  32  54  81 112 144 182 226 274 330
#     4  11  23  39  58  80 109 149 186 226 281 339
#     4  11  21  35  55  80 111 146 189 234 275 329
#     4   9  17  30  50  78 111 146 186 232 276 320
#     4  11  22  36  57  85 113 141 178 230 285 335
#     4   9  19  38  62  84 108 139 182 228 277 336
#
# _framework density 19.136092999999999
#
# number of rings (size 3 to 8) (size 9 to 14) (size 15 to 20)
#    0.000    2.250    1.250    4.125    0.000    3.000 
#    0.000    3.125    0.000    6.000    0.000    0.000 
#    0.000    0.000    0.000    0.000    0.000    0.000 
#
# Total GULP energy -793431.915447 kJ/mol
# GULP energy per Si atom -12397.373679 kJ/mol
# Density = 1.909254 g / cm^3
# Si number density = 19.136093 Si / 1000 Ang^3
#
#
#
# Elastic Constant Matrix: (Units=GPa)
#
#
# Indices 1 2 3 4 5 6 
#
# 1 55.5140 33.8450 27.4237 0.0000 0.0000 0.0000
# 2 33.8450 133.4598 42.8336 0.0000 0.0000 0.0000
# 3 27.4237 42.8336 92.2654 0.0000 0.0000 0.0000
# 4 0.0000 0.0000 0.0000 28.8386 0.0000 0.0000
# 5 0.0000 0.0000 0.0000 0.0000 29.0062 0.0000
# 6 0.0000 0.0000 0.0000 0.0000 0.0000 26.9051
#
#
#
# Elastic Compliance Matrix: (Units=1/GPa)
#
#
# Indices 1 2 3 4 5 6 
#
# 1 0.023021 -0.004280 -0.004856 0.000000 0.000000 0.000000
# 2 -0.004280 0.009600 -0.003185 0.000000 0.000000 0.000000
# 3 -0.004856 -0.003185 0.013760 0.000000 0.000000 0.000000
# 4 0.000000 0.000000 0.000000 0.034676 0.000000 0.000000
# 5 0.000000 0.000000 0.000000 0.000000 0.034475 0.000000
# 6 0.000000 0.000000 0.000000 0.000000 0.000000 0.037168
#
#
# Mechanical properties :
#
#
# Convention : Reuss Voigt Hill
#
# Bulk Modulus (GPa) = 45.99554 54.38265 50.18909
# Shear Modulus (GPa) = 27.08730 28.75912 27.92321
#
# Velocity S-wave (km/s) = 3.76641 3.88090 3.82408
# Velocity P-wave (km/s) = 6.55764 6.96867 6.76628
#
# Compressibility (1/GPa) = 0.02174124
#
# Stress axis : x y z
#
# Youngs Moduli (GPa) = 43.43787 104.16240 72.67389
#
# Poissons Ratio (x) = 0.44579 0.35288
# Poissons Ratio (y) = 0.18590 0.23146
# Poissons Ratio (z) = 0.21092 0.33174
#
# Static dielectric constant tensor:
#      x y z
#    x 3.186910 0.000000 0.000000 
#    y 0.000000 3.873410 0.000000 
#    z 0.000000 0.000000 3.341150 
# 
# 
# High freq. dielectric constant tensor:
#      x y z
#    x 1.705290 0.000000 0.000000 
#    y 0.000000 1.762760 0.000000 
#    z 0.000000 0.000000 1.734660 
# 
# From -- ./inp_files/9282.got.cif
#   From: 2010.06.25/outbox.cif.g09.slc.cpg/sg58_5_cif.got.tgz:9282.got - 2010.06.26 21:38:00.
