data_PCOD8235912
_publ_section_title
;
Structure prediction by ZEFSAII (Michael W. Deem and Ramdas Pophale) SiO2 
 PCOD8235912
Probable space group: P N N M
;
_chemical_formula_sum "Si O2"
_cell_formula_units_Z 56
_cell_length_a 21.242788
_cell_length_b 14.878442
_cell_length_c 8.968602
_cell_angle_alpha 90.000000
_cell_angle_beta 90.000000
_cell_angle_gamma 90.000000
_cell_volume 2834.612664
_symmetry_space_group_name_H-M "P N N M"
_symmetry_group_IT_number 58
_symmetry_cell_setting 'orthorhombic'
loop_
_space_group_symop_operation_xyz
x,y,z
-x,-y,z
1/2+x,1/2-y,1/2-z
1/2-x,1/2+y,1/2-z
-x,-y,-z
x,y,-z
1/2-x,1/2+y,1/2+z
1/2+x,1/2-y,1/2+z
loop_
_atom_site_type_symbol
_atom_site_label
_atom_site_fract_x
_atom_site_fract_y
_atom_site_fract_z
Si Si1 0.948766 0.923054 0.835188
Si Si2 0.031197 0.254142 0.674468
Si Si3 0.135651 0.923829 0.833560
Si Si4 0.768471 0.507856 0.668309
Si Si5 0.392650 0.249743 0.824858
Si Si6 0.732320 0.821285 0.676629
Si Si7 0.837260 0.678939 0.322334
O O1 0.963049 0.850379 0.711428
O O2 0.883513 0.973394 0.796466
O O3 0.946091 0.878240 0.000000
O O4 0.000000 0.000000 0.829614
O O5 0.035085 0.265085 0.500000
O O6 0.092400 0.303732 0.744493
O O7 0.961699 0.289776 0.724905
O O8 0.210619 0.922293 0.830408
O O9 0.107053 0.855394 0.714046
O O10 0.111068 0.897184 0.000000
O O11 0.781881 0.472793 0.500000
O O12 0.755587 0.423720 0.774346
O O13 0.822890 0.575779 0.726409
O O14 0.336995 0.202307 0.736133
O O15 0.381720 0.236702 0.000000
O O16 0.730304 0.816457 0.500000
O O17 0.786910 0.753848 0.738975
O O18 0.836409 0.686216 0.500000
#
# Coordination Sequence:
#
# PCOD8235912 Si02
#       7
#     8   8   8   8   8   8   8
#     4  10  19  30  49  78 113 148 182 223 282 350
#     4  10  21  36  55  81 113 150 193 237 283 338
#     4  10  19  34  55  80 113 151 187 228 286 345
#     4  10  20  37  60  84 111 146 190 238 286 339
#     4  11  22  35  55  83 114 148 190 235 279 336
#     4  11  22  39  62  86 114 151 192 237 289 341
#     4   9  19  38  61  83 113 151 188 233 290 341
#
# _framework density 19.755787000000002
#
# number of rings (size 3 to 8) (size 9 to 14) (size 15 to 20)
#    0.000    1.857    2.857    1.714    0.000    2.000 
#    0.000    2.143    0.000    4.286    0.000    0.000 
#    0.000    0.000    0.000    0.000    0.000    0.000 
#
# Total GULP energy -693876.868525 kJ/mol
# GULP energy per Si atom -12390.658367 kJ/mol
# Density = 1.971082 g / cm^3
# Si number density = 19.755787 Si / 1000 Ang^3
#
#
#
# Elastic Constant Matrix: (Units=GPa)
#
#
# Indices 1 2 3 4 5 6 
#
# 1 124.3874 25.7253 29.8387 0.0000 0.0000 0.0000
# 2 25.7253 59.7474 16.4571 0.0000 0.0000 0.0000
# 3 29.8387 16.4571 37.3194 0.0000 0.0000 0.0000
# 4 0.0000 0.0000 0.0000 29.5030 0.0000 0.0000
# 5 0.0000 0.0000 0.0000 0.0000 23.8974 0.0000
# 6 0.0000 0.0000 0.0000 0.0000 0.0000 25.9564
#
#
#
# Elastic Compliance Matrix: (Units=1/GPa)
#
#
# Indices 1 2 3 4 5 6 
#
# 1 0.010254 -0.002455 -0.007116 0.000000 0.000000 0.000000
# 2 -0.002455 0.019639 -0.006697 0.000000 0.000000 0.000000
# 3 -0.007116 -0.006697 0.035439 0.000000 0.000000 0.000000
# 4 0.000000 0.000000 0.000000 0.033895 0.000000 0.000000
# 5 0.000000 0.000000 0.000000 0.000000 0.041846 0.000000
# 6 0.000000 0.000000 0.000000 0.000000 0.000000 0.038526
#
#
# Mechanical properties :
#
#
# Convention : Reuss Voigt Hill
#
# Bulk Modulus (GPa) = 30.49265 40.61070 35.55168
# Shear Modulus (GPa) = 22.41476 25.83358 24.12417
#
# Velocity S-wave (km/s) = 3.37202 3.62006 3.49824
# Velocity P-wave (km/s) = 5.53435 6.17042 5.86102
#
# Compressibility (1/GPa) = 0.03279478
#
# Stress axis : x y z
#
# Youngs Moduli (GPa) = 97.52114 50.91915 28.21762
#
# Poissons Ratio (x) = 0.12501 0.20080
# Poissons Ratio (y) = 0.23942 0.18899
# Poissons Ratio (z) = 0.69397 0.34103
#
# Static dielectric constant tensor:
#      x y z
#    x 4.314290 0.000000 0.000000 
#    y 0.000000 3.621790 0.000000 
#    z 0.000000 0.000000 3.399780 
# 
# 
# High freq. dielectric constant tensor:
#      x y z
#    x 1.790770 0.000000 0.000000 
#    y 0.000000 1.748400 0.000000 
#    z 0.000000 0.000000 1.742380 
# 
# From -- ./inp_files/6354.got.cif
#   From: 2010.06.25/outbox.cif.g09.slc.cpg/sg58_4_cif.got.tgz:6354.got - 2010.06.26 21:38:00.
