data_PCOD8235457
_publ_section_title
;
Structure prediction by ZEFSAII (Michael W. Deem and Ramdas Pophale) SiO2 
 PCOD8235457
Probable space group: P N N M
;
_chemical_formula_sum "Si O2"
_cell_formula_units_Z 56
_cell_length_a 29.110847
_cell_length_b 13.547695
_cell_length_c 8.542540
_cell_angle_alpha 90.000000
_cell_angle_beta 90.000000
_cell_angle_gamma 90.000000
_cell_volume 3369.048582
_symmetry_space_group_name_H-M "P N N M"
_symmetry_group_IT_number 58
_symmetry_cell_setting 'orthorhombic'
loop_
_space_group_symop_operation_xyz
x,y,z
-x,-y,z
1/2+x,1/2-y,1/2-z
1/2-x,1/2+y,1/2-z
-x,-y,-z
x,y,-z
1/2-x,1/2+y,1/2+z
1/2+x,1/2-y,1/2+z
loop_
_atom_site_type_symbol
_atom_site_label
_atom_site_fract_x
_atom_site_fract_y
_atom_site_fract_z
Si Si1 0.409194 0.613915 0.816888
Si Si2 0.314881 0.710227 0.816026
Si Si3 0.230272 0.395019 0.184127
Si Si4 0.403541 0.388311 0.182033
Si Si5 0.502846 0.616958 0.675898
Si Si6 0.816207 0.207302 0.816349
Si Si7 0.771155 0.394927 0.316510
O O1 0.366426 0.681616 0.767528
O O2 0.399422 0.501861 0.762499
O O3 0.454440 0.660145 0.736406
O O4 0.418519 0.614828 0.000000
O O5 0.306294 0.823052 0.767451
O O6 0.280256 0.638800 0.724778
O O7 0.306685 0.695358 0.000000
O O8 0.281528 0.373958 0.246407
O O9 0.216169 0.505976 0.224150
O O10 0.228901 0.376028 0.000000
O O11 0.454556 0.346724 0.218112
O O12 0.367920 0.325133 0.282619
O O13 0.392191 0.375898 0.000000
O O14 0.500000 0.500000 0.687592
O O15 0.511285 0.653709 0.500000
O O16 0.807574 0.312523 0.735429
O O17 0.807306 0.217239 0.000000
O O18 0.775045 0.414689 0.500000
#
# Coordination Sequence:
#
# PCOD8235457 Si02
#       7
#     8   8   8   8   8   8   8
#     4   9  18  30  46  67  94 126 157 191 232 278
#     4  10  19  32  49  71  96 124 159 195 234 280
#     4  11  21  34  49  68  95 126 159 195 235 277
#     4  10  18  30  47  68  96 128 159 192 233 279
#     4   9  17  28  43  65  93 123 156 193 232 276
#     4  11  21  33  49  71  96 124 159 195 234 280
#     4  11  21  34  50  69  94 125 159 196 237 277
#
# _framework density 16.621903
#
# number of rings (size 3 to 8) (size 9 to 14) (size 15 to 20)
#    0.000    1.857    0.000    7.714    0.000    4.571 
#    0.000    0.000    0.000    0.000    0.000    1.000 
#    0.000    8.000    0.000    0.000    0.000    0.000 
#
# Total GULP energy -694555.029052 kJ/mol
# GULP energy per Si atom -12402.768376 kJ/mol
# Density = 1.658407 g / cm^3
# Si number density = 16.621903 Si / 1000 Ang^3
#
#
#
# Elastic Constant Matrix: (Units=GPa)
#
#
# Indices 1 2 3 4 5 6 
#
# 1 117.9824 37.4536 23.8002 0.0000 0.0000 0.0000
# 2 37.4536 70.5805 7.5823 0.0000 0.0000 0.0000
# 3 23.8002 7.5823 63.1161 0.0000 0.0000 0.0000
# 4 0.0000 0.0000 0.0000 21.7126 0.0000 0.0000
# 5 0.0000 0.0000 0.0000 0.0000 30.3069 0.0000
# 6 0.0000 0.0000 0.0000 0.0000 0.0000 20.5120
#
#
#
# Elastic Compliance Matrix: (Units=1/GPa)
#
#
# Indices 1 2 3 4 5 6 
#
# 1 0.010890 -0.005407 -0.003457 0.000000 0.000000 0.000000
# 2 -0.005407 0.017038 -0.000008 0.000000 0.000000 0.000000
# 3 -0.003457 -0.000008 0.017148 0.000000 0.000000 0.000000
# 4 0.000000 0.000000 0.000000 0.046056 0.000000 0.000000
# 5 0.000000 0.000000 0.000000 0.000000 0.032996 0.000000
# 6 0.000000 0.000000 0.000000 0.000000 0.000000 0.048752
#
#
# Mechanical properties :
#
#
# Convention : Reuss Voigt Hill
#
# Bulk Modulus (GPa) = 36.58635 43.26124 39.92379
# Shear Modulus (GPa) = 25.03317 26.69582 25.86449
#
# Velocity S-wave (km/s) = 3.88498 4.01192 3.94896
# Velocity P-wave (km/s) = 6.49483 6.89520 6.69801
#
# Compressibility (1/GPa) = 0.02733260
#
# Stress axis : x y z
#
# Youngs Moduli (GPa) = 91.82986 58.69077 58.31492
#
# Poissons Ratio (x) = 0.31736 0.20158
# Poissons Ratio (y) = 0.49655 0.00046
# Poissons Ratio (z) = 0.31743 0.00046
#
# Static dielectric constant tensor:
#      x y z
#    x 3.170750 0.000000 0.000000 
#    y 0.000000 2.936520 0.000000 
#    z 0.000000 0.000000 3.216800 
# 
# 
# High freq. dielectric constant tensor:
#      x y z
#    x 1.636360 0.000000 0.000000 
#    y 0.000000 1.606650 0.000000 
#    z 0.000000 0.000000 1.658220 
# 
# From -- ./inp_files/11096.got.cif
#   From: 2010.06.25/outbox.cif.g09.slc.cpg/sg58_6_cif.got.tgz:11096.got - 2010.06.26 21:38:00.
