data_PCOD8235079
_publ_section_title
;
Structure prediction by ZEFSAII (Michael W. Deem and Ramdas Pophale) SiO2 
 PCOD8235079
Probable space group: P B C M
;
_chemical_formula_sum "Si O2"
_cell_formula_units_Z 40
_cell_length_a 25.611850
_cell_length_b 8.897187
_cell_length_c 8.452655
_cell_angle_alpha 90.000000
_cell_angle_beta 90.000000
_cell_angle_gamma 90.000000
_cell_volume 1926.135393
_symmetry_space_group_name_H-M "P B C M"
_symmetry_group_IT_number 57
_symmetry_cell_setting 'orthorhombic'
loop_
_space_group_symop_operation_xyz
x,y,z
-x,-y,1/2+z
x,1/2-y,-z
-x,1/2+y,1/2-z
-x,-y,-z
x,y,1/2-z
-x,1/2+y,z
x,1/2-y,1/2+z
loop_
_atom_site_type_symbol
_atom_site_label
_atom_site_fract_x
_atom_site_fract_y
_atom_site_fract_z
Si Si1 0.654047 0.584815 0.937489
Si Si2 0.247893 0.585719 0.564104
Si Si3 0.549697 0.415263 0.564720
Si Si4 0.150012 0.084732 0.564245
Si Si5 0.050522 0.917540 0.064591
O O1 0.664318 0.580502 0.750000
O O2 0.602883 0.494281 0.988896
O O3 0.644583 0.750000 0.000000
O O4 0.702975 0.518594 0.030218
O O5 0.261091 0.750000 0.500000
O O6 0.235791 0.589053 0.750000
O O7 0.198265 0.523167 0.471183
O O8 0.550578 0.250000 0.500000
O O9 0.500000 0.500000 0.500000
O O10 0.544861 0.411607 0.750000
O O11 0.162629 0.250000 0.500000
O O12 0.139565 0.091603 0.750000
O O13 0.099632 0.018781 0.479223
O O14 0.045386 0.905161 0.250000
O O15 0.056737 0.750000 0.000000
O O16 0.000000 0.000000 0.000000
#
# Coordination Sequence:
#
# PCOD8235079 Si02
#       5
#     8   8   8   8   8
#     4  11  24  42  64  93 126 165 208 257 311 371
#     4  12  25  43  66  94 127 166 209 259 313 373
#     4  11  24  41  64  92 126 164 208 257 312 371
#     4  12  25  44  67  95 129 168 211 260 314 373
#     4  12  25  44  67  96 130 169 213 261 315 374
#
# _framework density 20.766971000000002
#
# number of rings (size 3 to 8) (size 9 to 14) (size 15 to 20)
#    0.000    0.400    0.000    9.600    0.000    6.400 
#    0.000    0.000    0.000    0.000    0.000    0.000 
#    0.000    0.000    0.000    0.000    0.000    0.000 
#
# Total GULP energy -496310.457254 kJ/mol
# GULP energy per Si atom -12407.761431 kJ/mol
# Density = 2.071970 g / cm^3
# Si number density = 20.766971 Si / 1000 Ang^3
#
#
#
# Elastic Constant Matrix: (Units=GPa)
#
#
# Indices 1 2 3 4 5 6 
#
# 1 137.8030 37.7666 30.1193 0.0000 0.0000 0.0000
# 2 37.7666 124.5085 29.5099 0.0000 0.0000 0.0000
# 3 30.1193 29.5099 110.6867 0.0000 0.0000 0.0000
# 4 0.0000 0.0000 0.0000 40.9397 0.0000 0.0000
# 5 0.0000 0.0000 0.0000 0.0000 34.7814 0.0000
# 6 0.0000 0.0000 0.0000 0.0000 0.0000 19.8439
#
#
#
# Elastic Compliance Matrix: (Units=1/GPa)
#
#
# Indices 1 2 3 4 5 6 
#
# 1 0.008195 -0.002089 -0.001673 0.000000 0.000000 0.000000
# 2 -0.002089 0.009106 -0.001859 0.000000 0.000000 0.000000
# 3 -0.001673 -0.001859 0.009985 0.000000 0.000000 0.000000
# 4 0.000000 0.000000 0.000000 0.024426 0.000000 0.000000
# 5 0.000000 0.000000 0.000000 0.000000 0.028751 0.000000
# 6 0.000000 0.000000 0.000000 0.000000 0.000000 0.050393
#
#
# Mechanical properties :
#
#
# Convention : Reuss Voigt Hill
#
# Bulk Modulus (GPa) = 62.33034 63.08776 62.70905
# Shear Modulus (GPa) = 33.91039 37.48650 35.69845
#
# Velocity S-wave (km/s) = 4.04530 4.25326 4.15058
# Velocity P-wave (km/s) = 7.20407 7.38682 7.29602
#
# Compressibility (1/GPa) = 0.01604355
#
# Stress axis : x y z
#
# Youngs Moduli (GPa) = 122.02611 109.81827 100.14607
#
# Poissons Ratio (x) = 0.22944 0.16754
# Poissons Ratio (y) = 0.25494 0.18619
# Poissons Ratio (z) = 0.20414 0.20417
#
# Static dielectric constant tensor:
#      x y z
#    x 3.937490 0.000000 0.000000 
#    y 0.000000 3.949250 0.000000 
#    z 0.000000 0.000000 4.048690 
# 
# 
# High freq. dielectric constant tensor:
#      x y z
#    x 1.834380 0.000000 0.000000 
#    y 0.000000 1.836270 0.000000 
#    z 0.000000 0.000000 1.834390 
# 
# From -- ./inp_files/8848.got.cif
#   From: 2010.03.12/outbox.cif.g09.slc.cpg/sg57_5_cif.got.tgz:8848.got - 2010.04.16 15:48:40.
