data_PCOD8235711
_publ_section_title
;
Structure prediction by ZEFSAII (Michael W. Deem and Ramdas Pophale) SiO2 
 PCOD8235711
Probable space group: P N N M
;
_chemical_formula_sum "Si O2"
_cell_formula_units_Z 56
_cell_length_a 11.699498
_cell_length_b 21.624987
_cell_length_c 12.875701
_cell_angle_alpha 90.000000
_cell_angle_beta 90.000000
_cell_angle_gamma 90.000000
_cell_volume 3257.571566
_symmetry_space_group_name_H-M "P N N M"
_symmetry_group_IT_number 58
_symmetry_cell_setting 'orthorhombic'
loop_
_space_group_symop_operation_xyz
x,y,z
-x,-y,z
1/2+x,1/2-y,1/2-z
1/2-x,1/2+y,1/2-z
-x,-y,-z
x,y,-z
1/2-x,1/2+y,1/2+z
1/2+x,1/2-y,1/2+z
loop_
_atom_site_type_symbol
_atom_site_label
_atom_site_fract_x
_atom_site_fract_y
_atom_site_fract_z
Si Si1 0.817764 0.223663 0.117466
Si Si2 0.201087 0.095209 0.882642
Si Si3 0.599028 0.144694 0.122311
Si Si4 0.621791 0.968107 0.382042
Si Si5 0.443269 0.399748 0.619071
Si Si6 0.735543 0.030542 0.197651
Si Si7 0.124405 0.655923 0.243553
O O1 0.697042 0.193943 0.152188
O O2 0.917038 0.172735 0.127227
O O3 0.854999 0.279606 0.188456
O O4 0.807556 0.247732 0.000000
O O5 0.264393 0.145933 0.814003
O O6 0.071376 0.087736 0.842347
O O7 0.266898 0.030063 0.874892
O O8 0.200795 0.119358 0.000000
O O9 0.638552 0.076053 0.154456
O O10 0.486236 0.162284 0.184404
O O11 0.573106 0.145443 0.000000
O O12 0.667216 0.965901 0.500000
O O13 0.610269 0.898536 0.339891
O O14 0.500000 0.000000 0.375286
O O15 0.710495 0.009258 0.315571
O O16 0.424058 0.422502 0.500000
O O17 0.359955 0.438117 0.694136
#
# Coordination Sequence:
#
# PCOD8235711 Si02
#       7
#     8   8   8   8   8   8   8
#     4   9  20  36  54  72  98 140 183 216 257 311
#     4  10  20  31  51  84 112 134 166 212 263 316
#     4  10  20  35  54  79 107 135 171 217 267 320
#     4  10  20  35  52  77 108 137 181 224 256 307
#     4   9  18  34  55  79 107 136 174 215 258 316
#     4  10  18  33  56  80 104 142 168 207 268 319
#     4  11  21  33  55  76 105 143 175 216 264 310
#
# _framework density 17.190719999999999
#
# number of rings (size 3 to 8) (size 9 to 14) (size 15 to 20)
#    0.000    2.143    1.429    3.429    2.000    1.143 
#    0.000    2.143    0.000   14.571    0.000    0.000 
#    0.000    0.000    0.000    0.000    0.000    0.000 
#
# Total GULP energy -694440.882864 kJ/mol
# GULP energy per Si atom -12400.730051 kJ/mol
# Density = 1.715159 g / cm^3
# Si number density = 17.190720 Si / 1000 Ang^3
#
#
#
# Elastic Constant Matrix: (Units=GPa)
#
#
# Indices 1 2 3 4 5 6 
#
# 1 94.1611 38.0504 58.4004 0.0000 0.0000 0.0000
# 2 38.0504 93.0824 52.6916 0.0000 0.0000 0.0000
# 3 58.4004 52.6916 108.1550 0.0000 0.0000 0.0000
# 4 0.0000 0.0000 0.0000 24.7110 0.0000 0.0000
# 5 0.0000 0.0000 0.0000 0.0000 -248.9512 0.0000
# 6 0.0000 0.0000 0.0000 0.0000 0.0000 21.1959
#
#
#
# Elastic Compliance Matrix: (Units=1/GPa)
#
#
# Indices 1 2 3 4 5 6 
#
# 1 0.016324 -0.002324 -0.007682 0.000000 0.000000 0.000000
# 2 -0.002324 0.015165 -0.006133 0.000000 0.000000 0.000000
# 3 -0.007682 -0.006133 0.016382 0.000000 0.000000 0.000000
# 4 0.000000 0.000000 0.000000 0.040468 0.000000 0.000000
# 5 0.000000 0.000000 0.000000 0.000000 -0.004017 0.000000
# 6 0.000000 0.000000 0.000000 0.000000 0.000000 0.047179
#
#
# Mechanical properties :
#
#
# Convention : Reuss Voigt Hill
#
# Bulk Modulus (GPa) = 64.13532 65.96481 65.05006
# Shear Modulus (GPa) = 29.58978 -30.85843 -0.63433
#
# Velocity S-wave (km/s) = 4.15331 -4.24142 -0.60811
# Velocity P-wave (km/s) = 7.77104 3.80388 6.11795
#
# Compressibility (1/GPa) = 0.01559203
#
# Stress axis : x y z
#
# Youngs Moduli (GPa) = 61.25996 65.94068 61.04242
#
# Poissons Ratio (x) = 0.15327 0.46893
# Poissons Ratio (y) = 0.14239 0.37439
# Poissons Ratio (z) = 0.47060 0.40443
#
# Static dielectric constant tensor:
#      x y z
#    x 3.258660 0.000000 0.000000 
#    y 0.000000 3.160760 0.000000 
#    z 0.000000 0.000000 3.191410 
# 
# 
# High freq. dielectric constant tensor:
#      x y z
#    x 1.667550 0.000000 0.000000 
#    y 0.000000 1.664500 0.000000 
#    z 0.000000 0.000000 1.652600 
# 
# From -- ./inp_files/14568.got.cif
#   From: 2010.06.25/outbox.cif.g09.slc.cpg/sg58_8_cif.got.tgz:14568.got - 2010.06.26 21:38:00.
