data_PCOD8235652
_publ_section_title
;
Structure prediction by ZEFSAII (Michael W. Deem and Ramdas Pophale) SiO2 
 PCOD8235652
Probable space group: P N N M
;
_chemical_formula_sum "Si O2"
_cell_formula_units_Z 64
_cell_length_a 9.455649
_cell_length_b 20.213974
_cell_length_c 17.182709
_cell_angle_alpha 90.000000
_cell_angle_beta 90.000000
_cell_angle_gamma 90.000000
_cell_volume 3284.238443
_symmetry_space_group_name_H-M "P N N M"
_symmetry_group_IT_number 58
_symmetry_cell_setting 'orthorhombic'
loop_
_space_group_symop_operation_xyz
x,y,z
-x,-y,z
1/2+x,1/2-y,1/2-z
1/2-x,1/2+y,1/2-z
-x,-y,-z
x,y,-z
1/2-x,1/2+y,1/2+z
1/2+x,1/2-y,1/2+z
loop_
_atom_site_type_symbol
_atom_site_label
_atom_site_fract_x
_atom_site_fract_y
_atom_site_fract_z
Si Si1 0.326207 0.133890 0.755255
Si Si2 0.769460 0.218790 0.794267
Si Si3 0.993170 0.766012 0.087621
Si Si4 0.192275 0.675519 0.415515
Si Si5 0.392556 0.862623 0.671521
Si Si6 0.813813 0.045100 0.588894
Si Si7 0.105293 0.089667 0.362003
Si Si8 0.941684 0.764608 0.585212
O O1 0.306030 0.212700 0.747382
O O2 0.340853 0.121914 0.848123
O O3 0.471376 0.108475 0.716872
O O4 0.187299 0.097975 0.720172
O O5 0.731054 0.164702 0.728913
O O6 0.631695 0.222784 0.847757
O O7 0.899789 0.199880 0.850756
O O8 0.857292 0.811327 0.088526
O O9 0.952581 0.692273 0.113212
O O10 0.057844 0.762587 0.000000
O O11 0.154004 0.644271 0.500000
O O12 0.107575 0.745787 0.406124
O O13 0.328967 0.922590 0.621380
O O14 0.840985 0.068636 0.500000
O O15 0.943042 0.066163 0.645808
O O16 0.805033 0.965101 0.589848
O O17 0.097634 0.158691 0.407158
O O18 0.886999 0.742938 0.500000
#
# Coordination Sequence:
#
# PCOD8235652 Si02
#       8
#     8   8   8   8   8   8   8   8
#     4  10  21  36  53  83 112 148 191 235 289 347
#     4  10  20  31  51  77 113 146 186 229 286 343
#     4  10  20  32  48  76 112 147 183 227 285 341
#     4  10  19  31  52  81 113 145 178 222 285 349
#     4  11  21  34  55  79 115 155 189 238 284 340
#     4  11  23  40  58  83 113 154 204 238 273 328
#     4  10  22  37  58  81 112 151 197 239 274 327
#     4  10  18  32  54  80 112 150 182 225 283 340
#
# _framework density 19.487015
#
# number of rings (size 3 to 8) (size 9 to 14) (size 15 to 20)
#    0.000    1.750    2.500    3.000    1.750    1.500 
#    0.000    3.750    0.000    0.000    0.000    5.250 
#    0.000    0.000    0.000    0.000    0.000    0.000 
#
# Total GULP energy -793028.927660 kJ/mol
# GULP energy per Si atom -12391.076995 kJ/mol
# Density = 1.944266 g / cm^3
# Si number density = 19.487015 Si / 1000 Ang^3
#
#
#
# Elastic Constant Matrix: (Units=GPa)
#
#
# Indices 1 2 3 4 5 6 
#
# 1 99.6270 23.0071 53.7851 0.0000 0.0000 0.0000
# 2 23.0071 41.4815 31.1223 0.0000 0.0000 0.0000
# 3 53.7851 31.1223 133.3913 0.0000 0.0000 0.0000
# 4 0.0000 0.0000 0.0000 17.9300 0.0000 0.0000
# 5 0.0000 0.0000 0.0000 0.0000 21.6003 0.0000
# 6 0.0000 0.0000 0.0000 0.0000 0.0000 21.4893
#
#
#
# Elastic Compliance Matrix: (Units=1/GPa)
#
#
# Indices 1 2 3 4 5 6 
#
# 1 0.013379 -0.004089 -0.004441 0.000000 0.000000 0.000000
# 2 -0.004089 0.030472 -0.005461 0.000000 0.000000 0.000000
# 3 -0.004441 -0.005461 0.010561 0.000000 0.000000 0.000000
# 4 0.000000 0.000000 0.000000 0.055772 0.000000 0.000000
# 5 0.000000 0.000000 0.000000 0.000000 0.046296 0.000000
# 6 0.000000 0.000000 0.000000 0.000000 0.000000 0.046535
#
#
# Mechanical properties :
#
#
# Convention : Reuss Voigt Hill
#
# Bulk Modulus (GPa) = 37.83331 54.48099 46.15715
# Shear Modulus (GPa) = 20.85013 23.30962 22.07987
#
# Velocity S-wave (km/s) = 3.27456 3.46231 3.36974
# Velocity P-wave (km/s) = 5.80980 6.63338 6.23520
#
# Compressibility (1/GPa) = 0.02643173
#
# Stress axis : x y z
#
# Youngs Moduli (GPa) = 74.74388 32.81685 94.68455
#
# Poissons Ratio (x) = 0.13418 0.42046
# Poissons Ratio (y) = 0.30562 0.51707
# Poissons Ratio (z) = 0.33191 0.17921
#
# Static dielectric constant tensor:
#      x y z
#    x 3.716430 0.000000 0.000000 
#    y 0.000000 3.150550 0.000000 
#    z 0.000000 0.000000 3.932310 
# 
# 
# High freq. dielectric constant tensor:
#      x y z
#    x 1.770200 0.000000 0.000000 
#    y 0.000000 1.696700 0.000000 
#    z 0.000000 0.000000 1.771650 
# 
# From -- ./inp_files/25668.got.cif
#   From: 2010.06.25/outbox.cif.g09.slc.cpg/sg58_13_cif.got.tgz:25668.got - 2010.06.26 21:38:00.
