data_PCOD8235329
_publ_section_title
;
Structure prediction by ZEFSAII (Michael W. Deem and Ramdas Pophale) SiO2 
 PCOD8235329
Probable space group: P N N M
;
_chemical_formula_sum "Si O2"
_cell_formula_units_Z 64
_cell_length_a 18.495173
_cell_length_b 26.219677
_cell_length_c 8.850420
_cell_angle_alpha 90.000000
_cell_angle_beta 90.000000
_cell_angle_gamma 90.000000
_cell_volume 4291.900213
_symmetry_space_group_name_H-M "P N N M"
_symmetry_group_IT_number 58
_symmetry_cell_setting 'orthorhombic'
loop_
_space_group_symop_operation_xyz
x,y,z
-x,-y,z
1/2+x,1/2-y,1/2-z
1/2-x,1/2+y,1/2-z
-x,-y,-z
x,y,-z
1/2-x,1/2+y,1/2+z
1/2+x,1/2-y,1/2+z
loop_
_atom_site_type_symbol
_atom_site_label
_atom_site_fract_x
_atom_site_fract_y
_atom_site_fract_z
Si Si1 0.580820 0.060384 0.825422
Si Si2 0.593967 0.757363 0.177443
Si Si3 0.585229 0.943478 0.826035
Si Si4 0.071076 0.256752 0.679177
Si Si5 0.197596 0.194492 0.335100
Si Si6 0.346011 0.847877 0.677739
Si Si7 0.716189 0.700935 0.667392
Si Si8 0.336041 0.146063 0.320081
O O1 0.497261 0.067379 0.779359
O O2 0.630234 0.095052 0.719445
O O3 0.604902 0.002257 0.798031
O O4 0.591739 0.075668 0.000000
O O5 0.511258 0.744018 0.216933
O O6 0.641389 0.711230 0.244520
O O7 0.610663 0.812293 0.248900
O O8 0.607743 0.761158 0.000000
O O9 0.638390 0.910134 0.723341
O O10 0.597105 0.928622 0.000000
O O11 0.084672 0.262596 0.500000
O O12 0.121351 0.209748 0.744667
O O13 0.094334 0.309618 0.754917
O O14 0.178774 0.172468 0.500000
O O15 0.241881 0.246556 0.346894
O O16 0.253148 0.154572 0.255976
O O17 0.343147 0.840633 0.500000
O O18 0.265643 0.839288 0.743043
O O19 0.699008 0.679323 0.500000
O O20 0.336330 0.153424 0.500000
#
# Coordination Sequence:
#
# PCOD8235329 Si02
#       8
#     8   8   8   8   8   8   8   8
#     4   9  18  32  45  57  78 110 142 172 212 254
#     4  10  18  27  42  63  84 108 142 177 204 239
#     4   9  18  31  45  59  78 107 143 178 209 247
#     4   9  17  29  43  58  82 115 143 168 203 246
#     4   7  13  26  40  54  74 105 138 161 191 239
#     4  11  20  28  42  63  84 108 142 178 207 243
#     4   9  17  30  44  57  80 111 138 168 209 251
#     4  10  18  27  41  59  82 112 141 170 208 249
#
# _framework density 14.911811
#
# number of rings (size 3 to 8) (size 9 to 14) (size 15 to 20)
#    0.000    2.750    0.000    5.250    0.000    5.000 
#    0.000    1.875    0.000    0.000    0.000    0.000 
#    0.000    1.000    0.000   11.500    0.000    2.875 
#
# Total GULP energy -793111.681855 kJ/mol
# GULP energy per Si atom -12392.370029 kJ/mol
# Density = 1.487787 g / cm^3
# Si number density = 14.911811 Si / 1000 Ang^3
#
#
#
# Elastic Constant Matrix: (Units=GPa)
#
#
# Indices 1 2 3 4 5 6 
#
# 1 110.5827 49.5477 44.6595 0.0000 0.0000 0.0000
# 2 49.5477 64.6072 30.3421 0.0000 0.0000 0.0000
# 3 44.6595 30.3421 72.2523 0.0000 0.0000 0.0000
# 4 0.0000 0.0000 0.0000 21.3444 0.0000 0.0000
# 5 0.0000 0.0000 0.0000 0.0000 21.3575 0.0000
# 6 0.0000 0.0000 0.0000 0.0000 0.0000 26.4460
#
#
#
# Elastic Compliance Matrix: (Units=1/GPa)
#
#
# Indices 1 2 3 4 5 6 
#
# 1 0.015457 -0.009177 -0.005700 0.000000 0.000000 0.000000
# 2 -0.009177 0.024729 -0.004713 0.000000 0.000000 0.000000
# 3 -0.005700 -0.004713 0.019343 0.000000 0.000000 0.000000
# 4 0.000000 0.000000 0.000000 0.046851 0.000000 0.000000
# 5 0.000000 0.000000 0.000000 0.000000 0.046822 0.000000
# 6 0.000000 0.000000 0.000000 0.000000 0.000000 0.037813
#
#
# Mechanical properties :
#
#
# Convention : Reuss Voigt Hill
#
# Bulk Modulus (GPa) = 49.14154 55.17121 52.15637
# Shear Modulus (GPa) = 21.09907 22.02242 21.56074
#
# Velocity S-wave (km/s) = 3.76563 3.84714 3.80660
# Velocity P-wave (km/s) = 7.20645 7.53742 7.37379
#
# Compressibility (1/GPa) = 0.02034938
#
# Stress axis : x y z
#
# Youngs Moduli (GPa) = 64.69604 40.43789 51.69906
#
# Poissons Ratio (x) = 0.37110 0.29469
# Poissons Ratio (y) = 0.59372 0.24364
# Poissons Ratio (z) = 0.36878 0.19057
#
# Static dielectric constant tensor:
#      x y z
#    x 3.100190 0.000000 0.000000 
#    y 0.000000 2.699110 0.000000 
#    z 0.000000 0.000000 2.860710 
# 
# 
# High freq. dielectric constant tensor:
#      x y z
#    x 1.565120 0.000000 0.000000 
#    y 0.000000 1.535890 0.000000 
#    z 0.000000 0.000000 1.568990 
# 
# From -- ./inp_files/8540.got.cif
#   From: 2010.06.25/outbox.cif.g09.slc.cpg/sg58_5_cif.got.tgz:8540.got - 2010.06.26 21:38:00.
