data_PCOD8235866
_publ_section_title
;
Structure prediction by ZEFSAII (Michael W. Deem and Ramdas Pophale) SiO2 
 PCOD8235866
Probable space group: P N N M
;
_chemical_formula_sum "Si O2"
_cell_formula_units_Z 56
_cell_length_a 17.477597
_cell_length_b 18.147011
_cell_length_c 9.542705
_cell_angle_alpha 90.000000
_cell_angle_beta 90.000000
_cell_angle_gamma 90.000000
_cell_volume 3026.622958
_symmetry_space_group_name_H-M "P N N M"
_symmetry_group_IT_number 58
_symmetry_cell_setting 'orthorhombic'
loop_
_space_group_symop_operation_xyz
x,y,z
-x,-y,z
1/2+x,1/2-y,1/2-z
1/2-x,1/2+y,1/2-z
-x,-y,-z
x,y,-z
1/2-x,1/2+y,1/2+z
1/2+x,1/2-y,1/2+z
loop_
_atom_site_type_symbol
_atom_site_label
_atom_site_fract_x
_atom_site_fract_y
_atom_site_fract_z
Si Si1 0.147922 0.551825 0.842896
Si Si2 0.144577 0.409012 0.661209
Si Si3 0.479895 0.086239 0.153815
Si Si4 0.716994 0.340533 0.841059
Si Si5 0.714961 0.690975 0.336302
Si Si6 0.915370 0.084212 0.165731
Si Si7 0.410265 0.583063 0.334026
O O1 0.159390 0.477409 0.759938
O O2 0.084524 0.604421 0.768627
O O3 0.230068 0.588531 0.842994
O O4 0.119066 0.535963 0.000000
O O5 0.151892 0.435712 0.500000
O O6 0.206550 0.349212 0.700545
O O7 0.060391 0.372982 0.687254
O O8 0.500000 0.000000 0.157877
O O9 0.449082 0.108901 0.000000
O O10 0.769244 0.273476 0.778741
O O11 0.643877 0.358807 0.745401
O O12 0.689443 0.321351 0.000000
O O13 0.698274 0.695748 0.500000
O O14 0.642958 0.645807 0.268800
O O15 0.002385 0.103726 0.207419
O O16 0.893732 0.001204 0.216150
O O17 0.907274 0.083498 0.000000
O O18 0.396938 0.591224 0.500000
#
# Coordination Sequence:
#
# PCOD8235866 Si02
#       7
#     8   8   8   8   8   8   8
#     4  10  19  30  46  70  99 130 161 196 240 292
#     4   9  17  31  53  74  90 122 169 209 239 275
#     4   8  15  28  46  70  94 117 156 200 234 274
#     4  10  21  34  47  70 104 137 165 194 245 311
#     4   9  17  32  51  70  98 134 167 197 241 304
#     4   8  15  30  55  81  99 124 168 216 253 293
#     4   9  17  32  56  82 100 121 167 221 258 288
#
# _framework density 18.502471
#
# number of rings (size 3 to 8) (size 9 to 14) (size 15 to 20)
#    0.000    3.000    0.000    3.000    0.000    4.857 
#    2.571    2.143    0.000    2.571    0.000    0.000 
#    0.000    0.000    0.000    0.000    0.000    0.000 
#
# Total GULP energy -693836.873947 kJ/mol
# GULP energy per Si atom -12389.944178 kJ/mol
# Density = 1.846036 g / cm^3
# Si number density = 18.502471 Si / 1000 Ang^3
#
#
#
# Elastic Constant Matrix: (Units=GPa)
#
#
# Indices 1 2 3 4 5 6 
#
# 1 91.0673 33.0501 31.1053 0.0000 0.0000 0.0000
# 2 33.0501 68.9485 25.3581 0.0000 0.0000 0.0000
# 3 31.1053 25.3581 64.3467 0.0000 0.0000 0.0000
# 4 0.0000 0.0000 0.0000 15.8299 0.0000 0.0000
# 5 0.0000 0.0000 0.0000 0.0000 24.2304 0.0000
# 6 0.0000 0.0000 0.0000 0.0000 0.0000 26.9228
#
#
#
# Elastic Compliance Matrix: (Units=1/GPa)
#
#
# Indices 1 2 3 4 5 6 
#
# 1 0.014556 -0.005134 -0.005013 0.000000 0.000000 0.000000
# 2 -0.005134 0.018773 -0.004916 0.000000 0.000000 0.000000
# 3 -0.005013 -0.004916 0.019902 0.000000 0.000000 0.000000
# 4 0.000000 0.000000 0.000000 0.063171 0.000000 0.000000
# 5 0.000000 0.000000 0.000000 0.000000 0.041270 0.000000
# 6 0.000000 0.000000 0.000000 0.000000 0.000000 0.037143
#
#
# Mechanical properties :
#
#
# Convention : Reuss Voigt Hill
#
# Bulk Modulus (GPa) = 43.28307 44.82105 44.05206
# Shear Modulus (GPa) = 21.49205 22.38656 21.93931
#
# Velocity S-wave (km/s) = 3.41189 3.48217 3.44721
# Velocity P-wave (km/s) = 6.24221 6.35958 6.30117
#
# Compressibility (1/GPa) = 0.02310372
#
# Stress axis : x y z
#
# Youngs Moduli (GPa) = 68.69816 53.26937 50.24672
#
# Poissons Ratio (x) = 0.27347 0.25191
# Poissons Ratio (y) = 0.35267 0.24703
# Poissons Ratio (z) = 0.34442 0.26189
#
# Static dielectric constant tensor:
#      x y z
#    x 3.863930 0.000000 0.000000 
#    y 0.000000 3.358720 0.000000 
#    z 0.000000 0.000000 3.186950 
# 
# 
# High freq. dielectric constant tensor:
#      x y z
#    x 1.731520 0.000000 0.000000 
#    y 0.000000 1.692830 0.000000 
#    z 0.000000 0.000000 1.682630 
# 
# From -- ./inp_files/8983.got.cif
#   From: 2010.06.25/outbox.cif.g09.slc.cpg/sg58_5_cif.got.tgz:8983.got - 2010.06.26 21:38:00.
