data_PCOD8235810
_publ_section_title
;
Structure prediction by ZEFSAII (Michael W. Deem and Ramdas Pophale) SiO2 
 PCOD8235810
Probable space group: P N N M
;
_chemical_formula_sum "Si O2"
_cell_formula_units_Z 48
_cell_length_a 16.979038
_cell_length_b 8.259103
_cell_length_c 15.556855
_cell_angle_alpha 90.000000
_cell_angle_beta 90.000000
_cell_angle_gamma 90.000000
_cell_volume 2181.563036
_symmetry_space_group_name_H-M "P N N M"
_symmetry_group_IT_number 58
_symmetry_cell_setting 'orthorhombic'
loop_
_space_group_symop_operation_xyz
x,y,z
-x,-y,z
1/2+x,1/2-y,1/2-z
1/2-x,1/2+y,1/2-z
-x,-y,-z
x,y,-z
1/2-x,1/2+y,1/2+z
1/2+x,1/2-y,1/2+z
loop_
_atom_site_type_symbol
_atom_site_label
_atom_site_fract_x
_atom_site_fract_y
_atom_site_fract_z
Si Si1 0.005115 0.692887 0.500000
Si Si2 0.220063 0.549325 0.334285
Si Si3 0.321861 0.249044 0.668869
Si Si4 0.786170 0.446997 0.000000
Si Si5 0.687746 0.746666 0.000000
Si Si6 0.938691 0.643596 0.329501
Si Si7 0.497066 0.689569 0.667915
Si Si8 0.559153 0.146853 0.500000
O O1 0.094003 0.751085 0.500000
O O2 0.000000 0.500000 0.500000
O O3 0.961079 0.751989 0.413465
O O4 0.298308 0.438521 0.330918
O O5 0.216211 0.658920 0.249795
O O6 0.223184 0.665847 0.416375
O O7 0.147934 0.425492 0.341354
O O8 0.289493 0.166627 0.582868
O O9 0.416102 0.232346 0.673585
O O10 0.853353 0.581652 0.000000
O O11 0.707462 0.555541 0.000000
O O12 0.000000 0.500000 0.316042
O O13 0.942578 0.757576 0.247061
O O14 0.500000 0.500000 0.667751
O O15 0.453206 0.743549 0.582621
O O16 0.500000 0.000000 0.500000
#
# Coordination Sequence:
#
# PCOD8235810 Si02
#       8
#     4   8   8   4   4   8   8   4
#     4  10  18  40  70  93 122 165 224 265 318 385
#     4  12  25  42  70  94 136 177 219 269 342 399
#     4  12  26  45  63 100 137 174 219 280 332 404
#     4  12  27  44  69  99 136 173 231 276 336 401
#     4  12  23  42  69  97 129 176 218 276 332 402
#     4  11  20  43  71  93 125 177 223 266 326 396
#     4  12  26  42  68  99 134 171 227 281 325 391
#     4  12  23  46  72  92 126 183 223 274 336 396
#
# _framework density 22.002573999999999
#
# number of rings (size 3 to 8) (size 9 to 14) (size 15 to 20)
#    0.000    0.333    6.667    3.250    4.667    0.000 
#    0.000    0.417    0.000    0.000    0.000    0.000 
#    0.000    0.000    0.000    0.000    0.000    0.000 
#
# Total GULP energy -595473.870147 kJ/mol
# GULP energy per Si atom -12405.705628 kJ/mol
# Density = 2.195250 g / cm^3
# Si number density = 22.002574 Si / 1000 Ang^3
#
#
#
# Elastic Constant Matrix: (Units=GPa)
#
#
# Indices 1 2 3 4 5 6 
#
# 1 38.6806 -7.8152 -0.8394 0.0000 0.0000 0.0000
# 2 -7.8152 86.8418 50.7465 0.0000 0.0000 0.0000
# 3 -0.8394 50.7465 205.9072 0.0000 0.0000 0.0000
# 4 0.0000 0.0000 0.0000 -33.0323 0.0000 0.0000
# 5 0.0000 0.0000 0.0000 0.0000 4.0186 0.0000
# 6 0.0000 0.0000 0.0000 0.0000 0.0000 36.6935
#
#
#
# Elastic Compliance Matrix: (Units=1/GPa)
#
#
# Indices 1 2 3 4 5 6 
#
# 1 0.026386 0.002701 -0.000558 0.000000 0.000000 0.000000
# 2 0.002701 0.013729 -0.003373 0.000000 0.000000 0.000000
# 3 -0.000558 -0.003373 0.005685 0.000000 0.000000 0.000000
# 4 0.000000 0.000000 0.000000 -0.030273 0.000000 0.000000
# 5 0.000000 0.000000 0.000000 0.000000 0.248844 0.000000
# 6 0.000000 0.000000 0.000000 0.000000 0.000000 0.027253
#
#
# Mechanical properties :
#
#
# Convention : Reuss Voigt Hill
#
# Bulk Modulus (GPa) = 23.07287 46.17926 34.62607
# Shear Modulus (GPa) = 16.20583 20.82513 18.51548
#
# Velocity S-wave (km/s) = 2.71688 3.07984 2.90403
# Velocity P-wave (km/s) = 4.51122 5.80352 5.19769
#
# Compressibility (1/GPa) = 0.04334094
#
# Stress axis : x y z
#
# Youngs Moduli (GPa) = 37.89850 72.83846 175.88727
#
# Poissons Ratio (x) = -0.19671 0.09815
# Poissons Ratio (y) = -0.10235 0.59319
# Poissons Ratio (z) = 0.02115 0.24565
#
# Static dielectric constant tensor:
#      x y z
#    x 4.178930 0.000000 0.000000 
#    y 0.000000 3.830990 0.000000 
#    z 0.000000 0.000000 4.645440 
# 
# 
# High freq. dielectric constant tensor:
#      x y z
#    x 1.868500 0.000000 0.000000 
#    y 0.000000 1.857940 0.000000 
#    z 0.000000 0.000000 1.890160 
# 
# From -- ./inp_files/22823.got.cif
#   From: 2010.06.25/outbox.cif.g09.slc.cpg/sg58_12_cif.got.tgz:22823.got - 2010.06.26 21:38:00.
