data_PCOD8235021
_publ_section_title
;
Structure prediction by ZEFSAII (Michael W. Deem and Ramdas Pophale) SiO2 
 PCOD8235021
Probable space group: P B C M
;
_chemical_formula_sum "Si O2"
_cell_formula_units_Z 56
_cell_length_a 14.152087
_cell_length_b 11.374628
_cell_length_c 16.188237
_cell_angle_alpha 90.000000
_cell_angle_beta 90.000000
_cell_angle_gamma 90.000000
_cell_volume 2605.897000
_symmetry_space_group_name_H-M "P B C M"
_symmetry_group_IT_number 57
_symmetry_cell_setting 'orthorhombic'
loop_
_space_group_symop_operation_xyz
x,y,z
-x,-y,1/2+z
x,1/2-y,-z
-x,1/2+y,1/2-z
-x,-y,-z
x,y,1/2-z
-x,1/2+y,z
x,1/2-y,1/2+z
loop_
_atom_site_type_symbol
_atom_site_label
_atom_site_fract_x
_atom_site_fract_y
_atom_site_fract_z
Si Si1 0.202421 0.607466 0.343693
Si Si2 0.288242 0.382793 0.414180
Si Si3 0.015888 0.624731 0.451239
Si Si4 0.156073 0.195821 0.157076
Si Si5 0.336473 0.714998 0.909111
Si Si6 0.539406 0.736790 0.154499
Si Si7 0.677962 0.941405 0.898632
O O1 0.169788 0.582473 0.250000
O O2 0.276187 0.511105 0.376385
O O3 0.262875 0.727336 0.345459
O O4 0.113196 0.611452 0.403134
O O5 0.193360 0.309781 0.392612
O O6 0.381960 0.329888 0.373620
O O7 0.300089 0.385075 0.512267
O O8 0.019503 0.750000 0.500000
O O9 0.932652 0.635776 0.385750
O O10 0.000000 0.500000 0.500000
O O11 0.128570 0.233954 0.250000
O O12 0.238723 0.099101 0.162042
O O13 0.444142 0.752073 0.896693
O O14 0.327236 0.578305 0.898192
O O15 0.303316 0.750000 0.000000
O O16 0.516234 0.755646 0.250000
O O17 0.578498 0.606414 0.135992
#
# Coordination Sequence:
#
# PCOD8235021 Si02
#       7
#     8   8   8   8   8   8   8
#     4  12  26  44  68 104 140 177 222 288 352 406
#     4  11  22  44  72  97 134 178 232 281 340 415
#     4  12  27  47  74 102 138 184 233 280 347 424
#     4  11  23  43  71 103 134 175 226 286 343 407
#     4  12  26  44  66  96 139 181 228 277 342 409
#     4  11  25  42  66 100 135 180 231 284 338 398
#     4  11  23  43  69  98 133 179 230 280 340 412
#
# _framework density 21.489722
#
# number of rings (size 3 to 8) (size 9 to 14) (size 15 to 20)
#    0.000    0.571    1.429    9.000    4.000    3.429 
#    0.000    1.429    0.000    0.000    0.000    0.000 
#    0.000    0.000    0.000    0.000    0.000    0.000 
#
# Total GULP energy -694474.872604 kJ/mol
# GULP energy per Si atom -12401.337011 kJ/mol
# Density = 2.144081 g / cm^3
# Si number density = 21.489722 Si / 1000 Ang^3
#
#
#
# Elastic Constant Matrix: (Units=GPa)
#
#
# Indices 1 2 3 4 5 6 
#
# 1 87.0783 43.4042 23.8627 0.0000 0.0000 0.0000
# 2 43.4042 104.6248 8.2870 0.0000 0.0000 0.0000
# 3 23.8627 8.2870 98.3791 0.0000 0.0000 0.0000
# 4 0.0000 0.0000 0.0000 20.9918 0.0000 0.0000
# 5 0.0000 0.0000 0.0000 0.0000 23.4816 0.0000
# 6 0.0000 0.0000 0.0000 0.0000 0.0000 17.7659
#
#
#
# Elastic Compliance Matrix: (Units=1/GPa)
#
#
# Indices 1 2 3 4 5 6 
#
# 1 0.015431 -0.006146 -0.003225 0.000000 0.000000 0.000000
# 2 -0.006146 0.012070 0.000474 0.000000 0.000000 0.000000
# 3 -0.003225 0.000474 0.010907 0.000000 0.000000 0.000000
# 4 0.000000 0.000000 0.000000 0.047638 0.000000 0.000000
# 5 0.000000 0.000000 0.000000 0.000000 0.042586 0.000000
# 6 0.000000 0.000000 0.000000 0.000000 0.000000 0.056287
#
#
# Mechanical properties :
#
#
# Convention : Reuss Voigt Hill
#
# Bulk Modulus (GPa) = 48.51126 49.02111 48.76618
# Shear Modulus (GPa) = 23.85648 26.74977 25.30312
#
# Velocity S-wave (km/s) = 3.33548 3.53196 3.43513
# Velocity P-wave (km/s) = 6.12022 6.28442 6.20286
#
# Compressibility (1/GPa) = 0.02061377
#
# Stress axis : x y z
#
# Youngs Moduli (GPa) = 64.80288 82.84825 91.68307
#
# Poissons Ratio (x) = 0.50921 0.29570
# Poissons Ratio (y) = 0.39830 -0.04347
# Poissons Ratio (z) = 0.20901 -0.03928
#
# Static dielectric constant tensor:
#      x y z
#    x -26.580400 0.000000 0.000000 
#    y 0.000000 4.217490 0.000000 
#    z 0.000000 0.000000 4.498530 
# 
# 
# High freq. dielectric constant tensor:
#      x y z
#    x 1.850370 0.000000 0.000000 
#    y 0.000000 1.855030 0.000000 
#    z 0.000000 0.000000 1.853790 
# 
# From -- ./inp_files/18492.got.cif
#   From: 2010.03.12/outbox.cif.g09.slc.cpg/sg57_10_cif.got.tgz:18492.got - 2010.04.16 15:48:40.
