data_PCOD8235205
_publ_section_title
;
Structure prediction by ZEFSAII (Michael W. Deem and Ramdas Pophale) SiO2 
 PCOD8235205
Probable space group: P N N M
;
_chemical_formula_sum "Si O2"
_cell_formula_units_Z 64
_cell_length_a 15.147695
_cell_length_b 11.060418
_cell_length_c 19.799231
_cell_angle_alpha 90.000000
_cell_angle_beta 90.000000
_cell_angle_gamma 90.000000
_cell_volume 3317.159963
_symmetry_space_group_name_H-M "P N N M"
_symmetry_group_IT_number 58
_symmetry_cell_setting 'orthorhombic'
loop_
_space_group_symop_operation_xyz
x,y,z
-x,-y,z
1/2+x,1/2-y,1/2-z
1/2-x,1/2+y,1/2-z
-x,-y,-z
x,y,-z
1/2-x,1/2+y,1/2+z
1/2+x,1/2-y,1/2+z
loop_
_atom_site_type_symbol
_atom_site_label
_atom_site_fract_x
_atom_site_fract_y
_atom_site_fract_z
Si Si1 0.863646 0.284821 0.680130
Si Si2 0.247156 0.853664 0.422370
Si Si3 0.662561 0.036139 0.236832
Si Si4 0.022920 0.871031 0.148047
Si Si5 0.206112 0.802389 0.177889
Si Si6 0.711322 0.426444 0.843816
Si Si7 0.938462 0.615684 0.135996
Si Si8 0.475814 0.629679 0.802951
O O1 0.793887 0.258436 0.619847
O O2 0.878786 0.426196 0.694271
O O3 0.824621 0.222759 0.746028
O O4 0.960185 0.229650 0.663546
O O5 0.232837 0.821990 0.500000
O O6 0.349840 0.880485 0.407997
O O7 0.194994 0.977710 0.403626
O O8 0.748500 0.996997 0.279757
O O9 0.701275 0.126521 0.180564
O O10 0.588422 0.099435 0.284547
O O11 0.986943 0.743088 0.118695
O O12 0.984294 0.872937 0.222774
O O13 0.128621 0.874496 0.141343
O O14 0.000000 0.000000 0.111448
O O15 0.218652 0.677620 0.136171
O O16 0.625445 0.350171 0.822501
O O17 0.000000 0.500000 0.115838
O O18 0.500000 0.500000 0.833878
#
# Coordination Sequence:
#
# PCOD8235205 Si02
#       8
#     8   8   8   8   8   8   8   8
#     4  10  19  33  50  79 110 143 188 227 284 347
#     4  11  23  38  56  76 110 157 199 238 278 336
#     4  10  19  31  54  80 116 149 177 227 293 356
#     4  10  20  29  51  87 120 147 173 223 297 353
#     4  10  18  31  52  81 113 145 172 229 290 347
#     4  10  18  32  51  76 109 141 184 232 285 340
#     4  11  21  37  55  84 118 152 194 233 288 349
#     4  10  16  28  48  77 112 138 170 226 282 336
#
# _framework density 19.293614000000002
#
# number of rings (size 3 to 8) (size 9 to 14) (size 15 to 20)
#    0.000    1.750    3.750    5.250    3.500    0.250 
#    0.000    1.250    0.000    1.125    0.000    0.000 
#    0.000   13.500    0.000    0.000    0.000    0.000 
#
# Total GULP energy -792878.792479 kJ/mol
# GULP energy per Si atom -12388.731132 kJ/mol
# Density = 1.924970 g / cm^3
# Si number density = 19.293614 Si / 1000 Ang^3
#
#
#
# Elastic Constant Matrix: (Units=GPa)
#
#
# Indices 1 2 3 4 5 6 
#
# 1 51.3907 15.9263 -0.5240 0.0000 0.0000 0.0000
# 2 15.9263 124.9275 9.5214 0.0000 0.0000 0.0000
# 3 -0.5240 9.5214 37.8316 0.0000 0.0000 0.0000
# 4 0.0000 0.0000 0.0000 11.3794 0.0000 0.0000
# 5 0.0000 0.0000 0.0000 0.0000 9.7406 0.0000
# 6 0.0000 0.0000 0.0000 0.0000 0.0000 31.2608
#
#
#
# Elastic Compliance Matrix: (Units=1/GPa)
#
#
# Indices 1 2 3 4 5 6 
#
# 1 0.020293 -0.002659 0.000950 0.000000 0.000000 0.000000
# 2 -0.002659 0.008510 -0.002179 0.000000 0.000000 0.000000
# 3 0.000950 -0.002179 0.026994 0.000000 0.000000 0.000000
# 4 0.000000 0.000000 0.000000 0.087878 0.000000 0.000000
# 5 0.000000 0.000000 0.000000 0.000000 0.102663 0.000000
# 6 0.000000 0.000000 0.000000 0.000000 0.000000 0.031989
#
#
# Mechanical properties :
#
#
# Convention : Reuss Voigt Hill
#
# Bulk Modulus (GPa) = 20.82397 29.33301 25.07849
# Shear Modulus (GPa) = 16.55033 23.09125 19.82079
#
# Velocity S-wave (km/s) = 2.93202 3.46328 3.20867
# Velocity P-wave (km/s) = 4.72006 5.58828 5.17242
#
# Compressibility (1/GPa) = 0.04802159
#
# Stress axis : x y z
#
# Youngs Moduli (GPa) = 49.27893 117.51277 37.04477
#
# Poissons Ratio (x) = 0.31252 -0.03521
# Poissons Ratio (y) = 0.13105 0.08070
# Poissons Ratio (z) = -0.04683 0.25601
#
# Static dielectric constant tensor:
#      x y z
#    x 3.722700 0.000000 0.000000 
#    y 0.000000 3.926730 0.000000 
#    z 0.000000 0.000000 2.839320 
# 
# 
# High freq. dielectric constant tensor:
#      x y z
#    x 1.762700 0.000000 0.000000 
#    y 0.000000 1.769120 0.000000 
#    z 0.000000 0.000000 1.657970 
# 
# From -- ./inp_files/27025.got.cif
#   From: 2010.06.25/outbox.cif.g09.slc.cpg/sg58_14_cif.got.tgz:27025.got - 2010.06.26 21:38:00.
