data_PCOD8235731
_publ_section_title
;
Structure prediction by ZEFSAII (Michael W. Deem and Ramdas Pophale) SiO2 
 PCOD8235731
Probable space group: P N N M
;
_chemical_formula_sum "Si O2"
_cell_formula_units_Z 56
_cell_length_a 13.988595
_cell_length_b 14.350630
_cell_length_c 14.501251
_cell_angle_alpha 90.000000
_cell_angle_beta 90.000000
_cell_angle_gamma 90.000000
_cell_volume 2911.055823
_symmetry_space_group_name_H-M "P N N M"
_symmetry_group_IT_number 58
_symmetry_cell_setting 'orthorhombic'
loop_
_space_group_symop_operation_xyz
x,y,z
-x,-y,z
1/2+x,1/2-y,1/2-z
1/2-x,1/2+y,1/2-z
-x,-y,-z
x,y,-z
1/2-x,1/2+y,1/2+z
1/2+x,1/2-y,1/2+z
loop_
_atom_site_type_symbol
_atom_site_label
_atom_site_fract_x
_atom_site_fract_y
_atom_site_fract_z
Si Si1 0.079340 0.422724 0.262212
Si Si2 0.576167 0.580066 0.893248
Si Si3 0.471479 0.710257 0.229167
Si Si4 0.042819 0.899119 0.104751
Si Si5 0.702829 0.325658 0.103783
Si Si6 0.754080 0.614517 0.396236
Si Si7 0.711552 0.013488 0.604871
O O1 0.029888 0.321907 0.267754
O O2 0.162242 0.432418 0.337856
O O3 0.128272 0.438222 0.163326
O O4 0.000000 0.500000 0.282913
O O5 0.500000 0.500000 0.864256
O O6 0.558995 0.673713 0.833706
O O7 0.683160 0.549384 0.869260
O O8 0.564534 0.605339 0.000000
O O9 0.482359 0.672277 0.332965
O O10 0.377579 0.667025 0.181676
O O11 0.150616 0.914378 0.141504
O O12 0.041889 0.860047 0.000000
O O13 0.000000 0.000000 0.111142
O O14 0.750056 0.225678 0.108808
O O15 0.785633 0.401892 0.122803
O O16 0.659442 0.344526 0.000000
O O17 0.770729 0.579064 0.500000
O O18 0.685491 0.037417 0.500000
#
# Coordination Sequence:
#
# PCOD8235731 Si02
#       7
#     8   8   8   8   8   8   8
#     4  11  26  41  55  85 122 163 207 238 284 355
#     4  10  18  33  62  97 119 137 184 251 313 353
#     4  11  21  35  58  85 118 157 187 245 290 348
#     4  10  22  38  59  89 117 152 198 240 292 352
#     4   9  18  34  60  89 113 149 193 239 296 352
#     4   9  20  40  62  84 117 157 201 243 286 347
#     4  10  21  38  61  89 122 151 190 249 305 353
#
# _framework density 19.237006000000001
#
# number of rings (size 3 to 8) (size 9 to 14) (size 15 to 20)
#    0.000    2.000    1.429    1.714    4.000    1.714 
#    0.000    0.000    0.000    3.429    0.000    0.000 
#    0.000    0.000    0.000    0.000    0.000    0.000 
#
# Total GULP energy -694306.872610 kJ/mol
# GULP energy per Si atom -12398.337011 kJ/mol
# Density = 1.919322 g / cm^3
# Si number density = 19.237006 Si / 1000 Ang^3
#
#
#
# Elastic Constant Matrix: (Units=GPa)
#
#
# Indices 1 2 3 4 5 6 
#
# 1 100.8124 52.7669 51.9906 0.0000 0.0000 0.0000
# 2 52.7669 99.6990 48.9357 0.0000 0.0000 0.0000
# 3 51.9906 48.9357 104.1377 0.0000 0.0000 0.0000
# 4 0.0000 0.0000 0.0000 21.6374 0.0000 0.0000
# 5 0.0000 0.0000 0.0000 0.0000 35.3700 0.0000
# 6 0.0000 0.0000 0.0000 0.0000 0.0000 24.7253
#
#
#
# Elastic Compliance Matrix: (Units=1/GPa)
#
#
# Indices 1 2 3 4 5 6 
#
# 1 0.015531 -0.005737 -0.005058 0.000000 0.000000 0.000000
# 2 -0.005737 0.015157 -0.004258 0.000000 0.000000 0.000000
# 3 -0.005058 -0.004258 0.014129 0.000000 0.000000 0.000000
# 4 0.000000 0.000000 0.000000 0.046216 0.000000 0.000000
# 5 0.000000 0.000000 0.000000 0.000000 0.028273 0.000000
# 6 0.000000 0.000000 0.000000 0.000000 0.000000 0.040444
#
#
# Mechanical properties :
#
#
# Convention : Reuss Voigt Hill
#
# Bulk Modulus (GPa) = 67.98063 68.00396 67.99229
# Shear Modulus (GPa) = 25.67281 26.41027 26.04154
#
# Velocity S-wave (km/s) = 3.65712 3.70927 3.68329
# Velocity P-wave (km/s) = 7.29711 7.33296 7.31506
#
# Compressibility (1/GPa) = 0.01471007
#
# Stress axis : x y z
#
# Youngs Moduli (GPa) = 64.38836 65.97726 70.77859
#
# Poissons Ratio (x) = 0.37854 0.35797
# Poissons Ratio (y) = 0.36942 0.30137
# Poissons Ratio (z) = 0.32565 0.28093
#
# Static dielectric constant tensor:
#      x y z
#    x 3.343560 0.000000 0.000000 
#    y 0.000000 3.488950 0.000000 
#    z 0.000000 0.000000 3.704200 
# 
# 
# High freq. dielectric constant tensor:
#      x y z
#    x 1.740250 0.000000 0.000000 
#    y 0.000000 1.740120 0.000000 
#    z 0.000000 0.000000 1.757020 
# 
# From -- ./inp_files/21245.got.cif
#   From: 2010.06.25/outbox.cif.g09.slc.cpg/sg58_11_cif.got.tgz:21245.got - 2010.06.26 21:38:00.
