data_PCOD8235547
_publ_section_title
;
Structure prediction by ZEFSAII (Michael W. Deem and Ramdas Pophale) SiO2 
 PCOD8235547
Probable space group: P N N M
;
_chemical_formula_sum "Si O2"
_cell_formula_units_Z 64
_cell_length_a 24.677481
_cell_length_b 14.643482
_cell_length_c 9.253840
_cell_angle_alpha 90.000000
_cell_angle_beta 90.000000
_cell_angle_gamma 90.000000
_cell_volume 3344.006940
_symmetry_space_group_name_H-M "P N N M"
_symmetry_group_IT_number 58
_symmetry_cell_setting 'orthorhombic'
loop_
_space_group_symop_operation_xyz
x,y,z
-x,-y,z
1/2+x,1/2-y,1/2-z
1/2-x,1/2+y,1/2-z
-x,-y,-z
x,y,-z
1/2-x,1/2+y,1/2+z
1/2+x,1/2-y,1/2+z
loop_
_atom_site_type_symbol
_atom_site_label
_atom_site_fract_x
_atom_site_fract_y
_atom_site_fract_z
Si Si1 0.263058 0.129868 0.167859
Si Si2 0.171700 0.992749 0.832110
Si Si3 0.913990 0.268188 0.663524
Si Si4 0.135735 0.568920 0.169269
Si Si5 0.954117 0.566074 0.168534
Si Si6 0.484410 0.736498 0.331820
Si Si7 0.300167 0.323007 0.161295
Si Si8 0.445069 0.543594 0.668388
O O1 0.203651 0.088179 0.192321
O O2 0.305710 0.068643 0.256435
O O3 0.265138 0.236073 0.219527
O O4 0.281158 0.127286 0.000000
O O5 0.111114 0.003717 0.765024
O O6 0.206684 0.912048 0.759746
O O7 0.168508 0.969152 0.000000
O O8 0.928720 0.297370 0.500000
O O9 0.903643 0.356633 0.760755
O O10 0.863011 0.202042 0.664049
O O11 0.962560 0.213277 0.738299
O O12 0.106448 0.471695 0.197268
O O13 0.142125 0.589959 0.000000
O O14 0.957791 0.669627 0.228250
O O15 0.000000 0.500000 0.239690
O O16 0.966393 0.570356 0.000000
O O17 0.500734 0.742962 0.500000
O O18 0.443402 0.652650 0.306498
O O19 0.280857 0.348594 0.000000
O O20 0.500000 0.500000 0.737959
O O21 0.444883 0.519266 0.500000
#
# Coordination Sequence:
#
# PCOD8235547 Si02
#       8
#     8   8   8   8   8   8   8   8
#     4   9  20  38  55  77 111 141 175 226 280 327
#     4  10  20  37  59  82 108 142 182 228 279 327
#     4  10  19  31  49  76 109 141 177 218 266 318
#     4  10  18  31  52  76 102 138 185 228 265 314
#     4   9  16  28  46  75 108 134 172 224 268 311
#     4  10  18  31  51  74 105 141 176 219 267 320
#     4   9  19  35  54  77 104 137 175 220 268 321
#     4   9  18  32  53  82 107 132 176 227 271 319
#
# _framework density 19.138715999999999
#
# number of rings (size 3 to 8) (size 9 to 14) (size 15 to 20)
#    0.000    2.500    1.250    2.250    0.000    4.000 
#    2.250    2.500    0.000    2.250    0.000    0.000 
#    0.000    0.000    0.000    0.000    0.000    0.000 
#
# Total GULP energy -793258.282567 kJ/mol
# GULP energy per Si atom -12394.660665 kJ/mol
# Density = 1.909516 g / cm^3
# Si number density = 19.138716 Si / 1000 Ang^3
#
#
#
# Elastic Constant Matrix: (Units=GPa)
#
#
# Indices 1 2 3 4 5 6 
#
# 1 86.0520 46.8527 28.5753 0.0000 0.0000 0.0000
# 2 46.8527 119.7596 26.9141 0.0000 0.0000 0.0000
# 3 28.5753 26.9141 56.9380 0.0000 0.0000 0.0000
# 4 0.0000 0.0000 0.0000 21.2596 0.0000 0.0000
# 5 0.0000 0.0000 0.0000 0.0000 19.8646 0.0000
# 6 0.0000 0.0000 0.0000 0.0000 0.0000 23.3458
#
#
#
# Elastic Compliance Matrix: (Units=1/GPa)
#
#
# Indices 1 2 3 4 5 6 
#
# 1 0.016307 -0.005080 -0.005783 0.000000 0.000000 0.000000
# 2 -0.005080 0.010925 -0.002615 0.000000 0.000000 0.000000
# 3 -0.005783 -0.002615 0.021701 0.000000 0.000000 0.000000
# 4 0.000000 0.000000 0.000000 0.047038 0.000000 0.000000
# 5 0.000000 0.000000 0.000000 0.000000 0.050341 0.000000
# 6 0.000000 0.000000 0.000000 0.000000 0.000000 0.042834
#
#
# Mechanical properties :
#
#
# Convention : Reuss Voigt Hill
#
# Bulk Modulus (GPa) = 45.49936 51.93710 48.71823
# Shear Modulus (GPa) = 22.37868 23.58784 22.98326
#
# Velocity S-wave (km/s) = 3.42320 3.51446 3.46913
# Velocity P-wave (km/s) = 6.28088 6.60793 6.44648
#
# Compressibility (1/GPa) = 0.02197833
#
# Stress axis : x y z
#
# Youngs Moduli (GPa) = 61.32292 91.53202 46.08072
#
# Poissons Ratio (x) = 0.46500 0.26647
# Poissons Ratio (y) = 0.31153 0.12049
# Poissons Ratio (z) = 0.35461 0.23933
#
# Static dielectric constant tensor:
#      x y z
#    x 3.435810 0.000000 0.000000 
#    y 0.000000 3.583010 0.000000 
#    z 0.000000 0.000000 3.288820 
# 
# 
# High freq. dielectric constant tensor:
#      x y z
#    x 1.731310 0.000000 0.000000 
#    y 0.000000 1.746440 0.000000 
#    z 0.000000 0.000000 1.711700 
# 
# From -- ./inp_files/10029.got.cif
#   From: 2010.06.25/outbox.cif.g09.slc.cpg/sg58_6_cif.got.tgz:10029.got - 2010.06.26 21:38:00.
