data_PCOD8235007
_publ_section_title
;
Structure prediction by ZEFSAII (Michael W. Deem and Ramdas Pophale) SiO2 
 PCOD8235007
Probable space group: P B C M
;
_chemical_formula_sum "Si O2"
_cell_formula_units_Z 40
_cell_length_a 23.845831
_cell_length_b 8.860833
_cell_length_c 8.978949
_cell_angle_alpha 90.000000
_cell_angle_beta 90.000000
_cell_angle_gamma 90.000000
_cell_volume 1897.197388
_symmetry_space_group_name_H-M "P B C M"
_symmetry_group_IT_number 57
_symmetry_cell_setting 'orthorhombic'
loop_
_space_group_symop_operation_xyz
x,y,z
-x,-y,1/2+z
x,1/2-y,-z
-x,1/2+y,1/2-z
-x,-y,-z
x,y,1/2-z
-x,1/2+y,z
x,1/2-y,1/2+z
loop_
_atom_site_type_symbol
_atom_site_label
_atom_site_fract_x
_atom_site_fract_y
_atom_site_fract_z
Si Si1 0.836916 0.912872 0.571082
Si Si2 0.575587 0.927901 0.750000
Si Si3 0.459046 0.422375 0.250000
Si Si4 0.052131 0.084763 0.569442
Si Si5 0.742749 0.093709 0.083236
Si Si6 0.380652 0.571631 0.476259
O O1 0.834055 0.750000 0.500000
O O2 0.842649 0.908248 0.750000
O O3 0.891075 0.994562 0.494767
O O4 0.779684 0.990508 0.523048
O O5 0.553651 0.756439 0.750000
O O6 0.525385 0.050453 0.750000
O O7 0.618343 0.967284 0.619842
O O8 0.433598 0.508077 0.389280
O O9 0.050125 0.250000 0.500000
O O10 0.051013 0.085579 0.750000
O O11 0.000000 0.000000 0.500000
O O12 0.768478 0.105300 0.250000
O O13 0.678972 0.035530 0.099974
O O14 0.740995 0.250000 0.000000
O O15 0.389409 0.750000 0.500000
#
# Coordination Sequence:
#
# PCOD8235007 Si02
#       6
#     8   4   4   8   8   8
#     4  11  23  41  65  95 132 173 218 269 328 386
#     4  12  26  40  70  92 132 166 217 264 331 392
#     4  12  24  46  62 100 126 170 213 270 321 400
#     4  11  22  40  64  94 132 174 223 274 332 389
#     4  11  24  43  67  94 128 167 215 267 327 392
#     4  11  24  43  67  92 129 169 214 267 331 393
#
# _framework density 21.083732000000001
#
# number of rings (size 3 to 8) (size 9 to 14) (size 15 to 20)
#    0.000    0.800    1.000    8.400    5.600    2.400 
#    0.000    4.000    0.000    0.000    0.000    0.000 
#    0.000    0.000    0.000    0.000    0.000    0.000 
#
# Total GULP energy -495677.744720 kJ/mol
# GULP energy per Si atom -12391.943618 kJ/mol
# Density = 2.103574 g / cm^3
# Si number density = 21.083732 Si / 1000 Ang^3
#
#
#
# Elastic Constant Matrix: (Units=GPa)
#
#
# Indices 1 2 3 4 5 6 
#
# 1 103.9580 44.0526 40.8069 0.0000 0.0000 0.0000
# 2 44.0526 89.6324 31.7879 0.0000 0.0000 0.0000
# 3 40.8069 31.7879 192.0773 0.0000 0.0000 0.0000
# 4 0.0000 0.0000 0.0000 27.9553 0.0000 0.0000
# 5 0.0000 0.0000 0.0000 0.0000 40.6838 0.0000
# 6 0.0000 0.0000 0.0000 0.0000 0.0000 38.9736
#
#
#
# Elastic Compliance Matrix: (Units=1/GPa)
#
#
# Indices 1 2 3 4 5 6 
#
# 1 0.012690 -0.005610 -0.001768 0.000000 0.000000 0.000000
# 2 -0.005610 0.014333 -0.001180 0.000000 0.000000 0.000000
# 3 -0.001768 -0.001180 0.005777 0.000000 0.000000 0.000000
# 4 0.000000 0.000000 0.000000 0.035771 0.000000 0.000000
# 5 0.000000 0.000000 0.000000 0.000000 0.024580 0.000000
# 6 0.000000 0.000000 0.000000 0.000000 0.000000 0.025658
#
#
# Mechanical properties :
#
#
# Convention : Reuss Voigt Hill
#
# Bulk Modulus (GPa) = 63.75848 68.77361 66.26604
# Shear Modulus (GPa) = 35.42241 39.45723 37.43982
#
# Velocity S-wave (km/s) = 4.10333 4.33072 4.21856
# Velocity P-wave (km/s) = 7.26333 7.59585 7.43145
#
# Compressibility (1/GPa) = 0.01568419
#
# Stress axis : x y z
#
# Youngs Moduli (GPa) = 78.79919 69.77142 173.09825
#
# Poissons Ratio (x) = 0.39143 0.30597
# Poissons Ratio (y) = 0.44208 0.20427
# Poissons Ratio (z) = 0.13929 0.08233
#
# Static dielectric constant tensor:
#      x y z
#    x 5.364270 0.000000 0.000000 
#    y 0.000000 3.622420 0.000000 
#    z 0.000000 0.000000 4.038910 
# 
# 
# High freq. dielectric constant tensor:
#      x y z
#    x 1.842450 0.000000 0.000000 
#    y 0.000000 1.815270 0.000000 
#    z 0.000000 0.000000 1.851830 
# 
# From -- ./inp_files/8994.got.cif
#   From: 2010.03.12/outbox.cif.g09.slc.cpg/sg57_5_cif.got.tgz:8994.got - 2010.04.16 15:48:40.
