data_PCOD8235917
_publ_section_title
;
Structure prediction by ZEFSAII (Michael W. Deem and Ramdas Pophale) SiO2 
 PCOD8235917
Probable space group: P N N M
;
_chemical_formula_sum "Si O2"
_cell_formula_units_Z 64
_cell_length_a 19.992294
_cell_length_b 18.962811
_cell_length_c 9.159400
_cell_angle_alpha 90.000000
_cell_angle_beta 90.000000
_cell_angle_gamma 90.000000
_cell_volume 3472.420982
_symmetry_space_group_name_H-M "P N N M"
_symmetry_group_IT_number 58
_symmetry_cell_setting 'orthorhombic'
loop_
_space_group_symop_operation_xyz
x,y,z
-x,-y,z
1/2+x,1/2-y,1/2-z
1/2-x,1/2+y,1/2-z
-x,-y,-z
x,y,-z
1/2-x,1/2+y,1/2+z
1/2+x,1/2-y,1/2+z
loop_
_atom_site_type_symbol
_atom_site_label
_atom_site_fract_x
_atom_site_fract_y
_atom_site_fract_z
Si Si1 0.524946 0.786439 0.326388
Si Si2 0.947369 0.442678 0.173758
Si Si3 0.596691 0.307092 0.672073
Si Si4 0.190433 0.946989 0.173700
Si Si5 0.295983 0.034630 0.327482
Si Si6 0.434391 0.536783 0.672614
Si Si7 0.154631 0.791697 0.826731
Si Si8 0.766015 0.816680 0.327952
O O1 0.530248 0.788031 0.500000
O O2 0.532377 0.865698 0.264135
O O3 0.454058 0.754132 0.277293
O O4 0.583982 0.736479 0.264253
O O5 0.872788 0.462475 0.226134
O O6 0.000000 0.500000 0.235269
O O7 0.949509 0.440858 0.000000
O O8 0.609548 0.305577 0.500000
O O9 0.565499 0.381900 0.719946
O O10 0.665904 0.294259 0.751790
O O11 0.170720 0.869618 0.231642
O O12 0.260304 0.969600 0.246810
O O13 0.132561 0.999353 0.230869
O O14 0.199087 0.949055 0.000000
O O15 0.292278 0.022949 0.500000
O O16 0.258488 0.106135 0.280018
O O17 0.500000 0.500000 0.741709
O O18 0.436662 0.527961 0.500000
O O19 0.211594 0.738864 0.772139
O O20 0.151214 0.793098 0.000000
O O21 0.776245 0.812644 0.500000
#
# Coordination Sequence:
#
# PCOD8235917 Si02
#       8
#     8   8   8   8   8   8   8   8
#     4   9  16  29  49  73  99 129 170 213 249 295
#     4   9  17  30  50  75 101 131 170 214 256 295
#     4  10  19  30  50  78 103 127 161 208 257 295
#     4  10  19  31  51  76 101 128 167 214 252 294
#     4  10  19  33  53  74 102 138 169 204 253 308
#     4   9  16  27  44  70 100 126 156 200 248 290
#     4   9  17  31  51  73  95 132 177 209 242 296
#     4  10  19  33  52  71  99 139 174 199 240 307
#
# _framework density 18.430945000000001
#
# number of rings (size 3 to 8) (size 9 to 14) (size 15 to 20)
#    0.000    2.500    2.500    0.750    0.000    4.000 
#    0.000    1.875    0.000    5.625    0.000    0.000 
#    0.000    0.000    0.000    0.000    0.000    0.000 
#
# Total GULP energy -793537.631448 kJ/mol
# GULP energy per Si atom -12399.025491 kJ/mol
# Density = 1.838900 g / cm^3
# Si number density = 18.430945 Si / 1000 Ang^3
#
#
#
# Elastic Constant Matrix: (Units=GPa)
#
#
# Indices 1 2 3 4 5 6 
#
# 1 163.9551 74.6008 24.3946 0.0000 0.0000 0.0000
# 2 74.6008 134.8870 18.6775 0.0000 0.0000 0.0000
# 3 24.3946 18.6775 13.8927 0.0000 0.0000 0.0000
# 4 0.0000 0.0000 0.0000 8.8143 0.0000 0.0000
# 5 0.0000 0.0000 0.0000 0.0000 25.4276 0.0000
# 6 0.0000 0.0000 0.0000 0.0000 0.0000 40.2864
#
#
#
# Elastic Compliance Matrix: (Units=1/GPa)
#
#
# Indices 1 2 3 4 5 6 
#
# 1 0.009506 -0.003620 -0.011825 0.000000 0.000000 0.000000
# 2 -0.003620 0.010488 -0.007744 0.000000 0.000000 0.000000
# 3 -0.011825 -0.007744 0.103155 0.000000 0.000000 0.000000
# 4 0.000000 0.000000 0.000000 0.113452 0.000000 0.000000
# 5 0.000000 0.000000 0.000000 0.000000 0.039327 0.000000
# 6 0.000000 0.000000 0.000000 0.000000 0.000000 0.024822
#
#
# Mechanical properties :
#
#
# Convention : Reuss Voigt Hill
#
# Bulk Modulus (GPa) = 13.02569 60.89785 36.96177
# Shear Modulus (GPa) = 13.41502 27.90979 20.66240
#
# Velocity S-wave (km/s) = 2.70080 3.89561 3.35187
# Velocity P-wave (km/s) = 4.09981 7.30392 5.92265
#
# Compressibility (1/GPa) = 0.07677139
#
# Stress axis : x y z
#
# Youngs Moduli (GPa) = 105.20006 95.34799 9.69419
#
# Poissons Ratio (x) = 0.34515 0.11463
# Poissons Ratio (y) = 0.38081 0.07507
# Poissons Ratio (z) = 1.24396 0.73835
#
# Static dielectric constant tensor:
#      x y z
#    x 3.549190 0.000000 0.000000 
#    y 0.000000 3.610930 0.000000 
#    z 0.000000 0.000000 2.771900 
# 
# 
# High freq. dielectric constant tensor:
#      x y z
#    x 1.729560 0.000000 0.000000 
#    y 0.000000 1.725360 0.000000 
#    z 0.000000 0.000000 1.648350 
# 
# From -- ./inp_files/16620.got.cif
#   From: 2010.06.25/outbox.cif.g09.slc.cpg/sg58_9_cif.got.tgz:16620.got - 2010.06.26 21:38:00.
