data_PCOD8235210
_publ_section_title
;
Structure prediction by ZEFSAII (Michael W. Deem and Ramdas Pophale) SiO2 
 PCOD8235210
Probable space group: P N N M
;
_chemical_formula_sum "Si O2"
_cell_formula_units_Z 64
_cell_length_a 23.637584
_cell_length_b 7.915754
_cell_length_c 21.399912
_cell_angle_alpha 90.000000
_cell_angle_beta 90.000000
_cell_angle_gamma 90.000000
_cell_volume 4004.122556
_symmetry_space_group_name_H-M "P N N M"
_symmetry_group_IT_number 58
_symmetry_cell_setting 'orthorhombic'
loop_
_space_group_symop_operation_xyz
x,y,z
-x,-y,z
1/2+x,1/2-y,1/2-z
1/2-x,1/2+y,1/2-z
-x,-y,-z
x,y,-z
1/2-x,1/2+y,1/2+z
1/2+x,1/2-y,1/2+z
loop_
_atom_site_type_symbol
_atom_site_label
_atom_site_fract_x
_atom_site_fract_y
_atom_site_fract_z
Si Si1 0.244303 0.397037 0.573395
Si Si2 0.652181 0.752813 0.759894
Si Si3 0.376890 0.814047 0.126577
Si Si4 0.516863 0.309888 0.068087
Si Si5 0.827209 0.872183 0.736060
Si Si6 0.281582 0.101055 0.348828
Si Si7 0.050680 0.607407 0.670363
Si Si8 0.258868 0.730874 0.348826
O O1 0.252013 0.413081 0.500000
O O2 0.181297 0.341571 0.590650
O O3 0.285004 0.246791 0.598469
O O4 0.261787 0.578565 0.601916
O O5 0.651006 0.555513 0.743466
O O6 0.666431 0.868307 0.699369
O O7 0.587765 0.794456 0.778763
O O8 0.697262 0.782005 0.815991
O O9 0.416794 0.692283 0.086169
O O10 0.372445 0.736779 0.196872
O O11 0.406771 0.993395 0.130969
O O12 0.500000 0.500000 0.061942
O O13 0.477417 0.229039 0.120112
O O14 0.508625 0.221681 0.000000
O O15 0.773557 0.878638 0.692166
O O16 0.809576 0.779101 0.799035
O O17 0.274485 0.913601 0.379749
O O18 0.000000 0.500000 0.703199
#
# Coordination Sequence:
#
# PCOD8235210 Si02
#       8
#     8   8   8   8   8   8   8   8
#     4  11  21  33  47  70 102 132 164 197 241 299
#     4  10  16  31  48  69  95 119 160 205 250 293
#     4  10  19  33  48  68  91 129 165 210 250 286
#     4  10  21  35  47  62  91 133 178 214 248 287
#     4   9  17  28  52  72  91 116 161 204 251 300
#     4   9  19  30  49  71  96 125 159 199 246 300
#     4  10  20  30  46  67  91 123 167 205 249 279
#     4  10  18  31  48  72  93 125 160 202 249 290
#
# _framework density 15.983525999999999
#
# number of rings (size 3 to 8) (size 9 to 14) (size 15 to 20)
#    0.000    2.125    2.500    1.875    3.500    3.250 
#    0.000    0.000    0.000    0.000    0.000    0.000 
#    0.000    0.500    0.000   11.375    0.000    3.250 
#
# Total GULP energy -793014.007566 kJ/mol
# GULP energy per Si atom -12390.843868 kJ/mol
# Density = 1.594715 g / cm^3
# Si number density = 15.983526 Si / 1000 Ang^3
#
#
#
# Elastic Constant Matrix: (Units=GPa)
#
#
# Indices 1 2 3 4 5 6 
#
# 1 65.6057 26.0264 40.2225 0.0000 0.0000 0.0000
# 2 26.0264 101.6654 50.9241 0.0000 0.0000 0.0000
# 3 40.2225 50.9241 80.0025 0.0000 0.0000 0.0000
# 4 0.0000 0.0000 0.0000 15.0313 0.0000 0.0000
# 5 0.0000 0.0000 0.0000 0.0000 15.6937 0.0000
# 6 0.0000 0.0000 0.0000 0.0000 0.0000 20.2491
#
#
#
# Elastic Compliance Matrix: (Units=1/GPa)
#
#
# Indices 1 2 3 4 5 6 
#
# 1 0.022036 -0.000135 -0.010993 0.000000 0.000000 0.000000
# 2 -0.000135 0.014441 -0.009124 0.000000 0.000000 0.000000
# 3 -0.010993 -0.009124 0.023835 0.000000 0.000000 0.000000
# 4 0.000000 0.000000 0.000000 0.066528 0.000000 0.000000
# 5 0.000000 0.000000 0.000000 0.000000 0.063720 0.000000
# 6 0.000000 0.000000 0.000000 0.000000 0.000000 0.049385
#
#
# Mechanical properties :
#
#
# Convention : Reuss Voigt Hill
#
# Bulk Modulus (GPa) = 50.48749 53.51329 52.00039
# Shear Modulus (GPa) = 17.41852 18.86821 18.14336
#
# Velocity S-wave (km/s) = 3.30476 3.43954 3.37282
# Velocity P-wave (km/s) = 6.79836 7.02331 6.91175
#
# Compressibility (1/GPa) = 0.01980689
#
# Stress axis : x y z
#
# Youngs Moduli (GPa) = 45.38063 69.24672 41.95585
#
# Poissons Ratio (x) = 0.00933 0.46122
# Poissons Ratio (y) = 0.00612 0.38282
# Poissons Ratio (z) = 0.49887 0.63184
#
# Static dielectric constant tensor:
#      x y z
#    x 3.219700 0.000000 0.000000 
#    y 0.000000 3.382470 0.000000 
#    z 0.000000 0.000000 3.046140 
# 
# 
# High freq. dielectric constant tensor:
#      x y z
#    x 1.587190 0.000000 0.000000 
#    y 0.000000 1.634980 0.000000 
#    z 0.000000 0.000000 1.583420 
# 
# From -- ./inp_files/27686.got.cif
#   From: 2010.06.25/outbox.cif.g09.slc.cpg/sg58_14_cif.got.tgz:27686.got - 2010.06.26 21:38:00.
