data_PCOD8235994
_publ_section_title
;
Structure prediction by ZEFSAII (Michael W. Deem and Ramdas Pophale) SiO2 
 PCOD8235994
Probable space group: P N N M
;
_chemical_formula_sum "Si O2"
_cell_formula_units_Z 64
_cell_length_a 19.592107
_cell_length_b 19.672771
_cell_length_c 9.238578
_cell_angle_alpha 90.000000
_cell_angle_beta 90.000000
_cell_angle_gamma 90.000000
_cell_volume 3560.834675
_symmetry_space_group_name_H-M "P N N M"
_symmetry_group_IT_number 58
_symmetry_cell_setting 'orthorhombic'
loop_
_space_group_symop_operation_xyz
x,y,z
-x,-y,z
1/2+x,1/2-y,1/2-z
1/2-x,1/2+y,1/2-z
-x,-y,-z
x,y,-z
1/2-x,1/2+y,1/2+z
1/2+x,1/2-y,1/2+z
loop_
_atom_site_type_symbol
_atom_site_label
_atom_site_fract_x
_atom_site_fract_y
_atom_site_fract_z
Si Si1 0.318587 0.102790 0.668217
Si Si2 0.065634 0.037642 0.330150
Si Si3 0.788826 0.640191 0.168137
Si Si4 0.026679 0.573134 0.167845
Si Si5 0.108219 0.183704 0.666403
Si Si6 0.256569 0.708156 0.667688
Si Si7 0.074165 0.334217 0.331011
Si Si8 0.288810 0.491773 0.828299
O O1 0.307666 0.118183 0.500000
O O2 0.393277 0.074173 0.699457
O O3 0.307878 0.172932 0.755256
O O4 0.264748 0.047691 0.728233
O O5 0.065759 0.023093 0.500000
O O6 0.060633 0.118627 0.298552
O O7 0.135879 0.006856 0.263783
O O8 0.000000 0.000000 0.259247
O O9 0.750930 0.711383 0.194700
O O10 0.858049 0.635319 0.258958
O O11 0.736768 0.582325 0.222396
O O12 0.808722 0.630211 0.000000
O O13 0.000000 0.500000 0.218943
O O14 0.991918 0.632028 0.261022
O O15 0.009570 0.586029 0.000000
O O16 0.133118 0.181090 0.500000
O O17 0.174513 0.178181 0.765107
O O18 0.067526 0.253237 0.697831
O O19 0.256025 0.689962 0.500000
O O20 0.076763 0.350964 0.500000
O O21 0.291291 0.495572 0.000000
#
# Coordination Sequence:
#
# PCOD8235994 Si02
#       8
#     8   8   8   8   8   8   8   8
#     4  10  19  33  55  76  99 135 175 216 258 307
#     4   9  16  28  51  80 101 124 168 222 260 292
#     4   9  18  33  53  77 103 137 178 215 251 300
#     4  10  21  37  56  76 100 138 184 221 257 312
#     4   9  17  33  54  76 102 136 175 209 251 311
#     4  10  19  31  50  77 105 134 168 212 259 304
#     4  10  20  33  52  79 109 140 169 212 267 313
#     4   9  16  30  53  77  99 128 172 219 254 292
#
# _framework density 17.973313999999998
#
# number of rings (size 3 to 8) (size 9 to 14) (size 15 to 20)
#    0.000    2.500    1.250    1.500    0.000    3.750 
#    2.250    1.875    0.000    0.375    0.000    0.000 
#    0.000    0.000    0.000    0.000    0.000    0.000 
#
# Total GULP energy -793584.305179 kJ/mol
# GULP energy per Si atom -12399.754768 kJ/mol
# Density = 1.793241 g / cm^3
# Si number density = 17.973314 Si / 1000 Ang^3
#
#
#
# Elastic Constant Matrix: (Units=GPa)
#
#
# Indices 1 2 3 4 5 6 
#
# 1 127.0968 77.0098 39.8427 0.0000 0.0000 0.0000
# 2 77.0098 128.6737 41.8684 0.0000 0.0000 0.0000
# 3 39.8427 41.8684 54.7308 0.0000 0.0000 0.0000
# 4 0.0000 0.0000 0.0000 24.8552 0.0000 0.0000
# 5 0.0000 0.0000 0.0000 0.0000 23.2007 0.0000
# 6 0.0000 0.0000 0.0000 0.0000 0.0000 33.8018
#
#
#
# Elastic Compliance Matrix: (Units=1/GPa)
#
#
# Indices 1 2 3 4 5 6 
#
# 1 0.013212 -0.006361 -0.004752 0.000000 0.000000 0.000000
# 2 -0.006361 0.013410 -0.005628 0.000000 0.000000 0.000000
# 3 -0.004752 -0.005628 0.026036 0.000000 0.000000 0.000000
# 4 0.000000 0.000000 0.000000 0.040233 0.000000 0.000000
# 5 0.000000 0.000000 0.000000 0.000000 0.043102 0.000000
# 6 0.000000 0.000000 0.000000 0.000000 0.000000 0.029584
#
#
# Mechanical properties :
#
#
# Convention : Reuss Voigt Hill
#
# Bulk Modulus (GPa) = 52.14793 69.77146 60.95970
# Shear Modulus (GPa) = 24.33688 26.49023 25.41355
#
# Velocity S-wave (km/s) = 3.68374 3.84326 3.76435
# Velocity P-wave (km/s) = 6.86807 7.65493 7.27215
#
# Compressibility (1/GPa) = 0.01917622
#
# Stress axis : x y z
#
# Youngs Moduli (GPa) = 75.68963 74.57285 38.40903
#
# Poissons Ratio (x) = 0.47436 0.18251
# Poissons Ratio (y) = 0.48146 0.21615
# Poissons Ratio (z) = 0.35967 0.41967
#
# Static dielectric constant tensor:
#      x y z
#    x 3.338490 0.000000 0.000000 
#    y 0.000000 3.538380 0.000000 
#    z 0.000000 0.000000 3.108070 
# 
# 
# High freq. dielectric constant tensor:
#      x y z
#    x 1.685160 0.000000 0.000000 
#    y 0.000000 1.708370 0.000000 
#    z 0.000000 0.000000 1.667070 
# 
# From -- ./inp_files/8421.got.cif
#   From: 2010.06.25/outbox.cif.g09.slc.cpg/sg58_5_cif.got.tgz:8421.got - 2010.06.26 21:38:00.
