data_PCOD8235266
_publ_section_title
;
Structure prediction by ZEFSAII (Michael W. Deem and Ramdas Pophale) SiO2 
 PCOD8235266
Probable space group: P N N M
;
_chemical_formula_sum "Si O2"
_cell_formula_units_Z 64
_cell_length_a 30.502143
_cell_length_b 14.285688
_cell_length_c 9.031262
_cell_angle_alpha 90.000000
_cell_angle_beta 90.000000
_cell_angle_gamma 90.000000
_cell_volume 3935.319116
_symmetry_space_group_name_H-M "P N N M"
_symmetry_group_IT_number 58
_symmetry_cell_setting 'orthorhombic'
loop_
_space_group_symop_operation_xyz
x,y,z
-x,-y,z
1/2+x,1/2-y,1/2-z
1/2-x,1/2+y,1/2-z
-x,-y,-z
x,y,-z
1/2-x,1/2+y,1/2+z
1/2+x,1/2-y,1/2+z
loop_
_atom_site_type_symbol
_atom_site_label
_atom_site_fract_x
_atom_site_fract_y
_atom_site_fract_z
Si Si1 0.133268 0.854174 0.673954
Si Si2 0.699242 0.170564 0.825562
Si Si3 0.449853 0.394343 0.325599
Si Si4 0.675636 0.484295 0.667402
Si Si5 0.771882 0.471653 0.673686
Si Si6 0.131069 0.210790 0.167359
Si Si7 0.283585 0.235381 0.176305
Si Si8 0.547243 0.393190 0.674841
O O1 0.128427 0.849048 0.500000
O O2 0.086066 0.828275 0.745363
O O3 0.172120 0.786583 0.730534
O O4 0.143104 0.959251 0.727278
O O5 0.652849 0.209611 0.768347
O O6 0.740848 0.218649 0.748579
O O7 0.697246 0.059480 0.786376
O O8 0.703611 0.187372 0.000000
O O9 0.441922 0.389582 0.500000
O O10 0.445847 0.501219 0.266057
O O11 0.498559 0.356485 0.284854
O O12 0.672394 0.524650 0.500000
O O13 0.723828 0.494297 0.738206
O O14 0.663975 0.375910 0.668172
O O15 0.765697 0.460325 0.500000
O O16 0.789461 0.371947 0.733069
O O17 0.084053 0.178704 0.236496
O O18 0.125557 0.249266 0.000000
O O19 0.278016 0.242997 0.000000
O O20 0.553909 0.399103 0.500000
#
# Coordination Sequence:
#
# PCOD8235266 Si02
#       8
#     8   8   8   8   8   8   8   8
#     4  11  21  29  44  71  98 122 154 196 240 269
#     4  11  21  31  47  71  93 117 155 198 233 265
#     4   9  16  30  49  67  91 122 160 191 220 276
#     4  10  17  29  49  65  88 129 163 185 218 273
#     4   9  18  33  48  62  87 125 162 188 221 267
#     4  10  18  31  49  68  92 125 158 184 224 278
#     4  10  20  35  49  63  89 128 163 188 222 277
#     4   8  15  28  49  70  87 122 164 188 212 275
#
# _framework density 16.262976999999999
#
# number of rings (size 3 to 8) (size 9 to 14) (size 15 to 20)
#    0.000    2.250    3.750    1.500    0.000    1.000 
#    0.000    3.125    0.000    0.000    0.000    0.875 
#    0.000    7.000    0.000    0.000    0.000    0.000 
#
# Total GULP energy -793183.478910 kJ/mol
# GULP energy per Si atom -12393.491858 kJ/mol
# Density = 1.622596 g / cm^3
# Si number density = 16.262977 Si / 1000 Ang^3
#
#
#
# Elastic Constant Matrix: (Units=GPa)
#
#
# Indices 1 2 3 4 5 6 
#
# 1 111.1856 29.4408 28.0595 0.0000 0.0000 0.0000
# 2 29.4408 66.6096 20.7491 0.0000 0.0000 0.0000
# 3 28.0595 20.7491 37.6017 0.0000 0.0000 0.0000
# 4 0.0000 0.0000 0.0000 17.8435 0.0000 0.0000
# 5 0.0000 0.0000 0.0000 0.0000 24.9454 0.0000
# 6 0.0000 0.0000 0.0000 0.0000 0.0000 26.6356
#
#
#
# Elastic Compliance Matrix: (Units=1/GPa)
#
#
# Indices 1 2 3 4 5 6 
#
# 1 0.011532 -0.002918 -0.006995 0.000000 0.000000 0.000000
# 2 -0.002918 0.018867 -0.008234 0.000000 0.000000 0.000000
# 3 -0.006995 -0.008234 0.036358 0.000000 0.000000 0.000000
# 4 0.000000 0.000000 0.000000 0.056043 0.000000 0.000000
# 5 0.000000 0.000000 0.000000 0.000000 0.040088 0.000000
# 6 0.000000 0.000000 0.000000 0.000000 0.000000 0.037544
#
#
# Mechanical properties :
#
#
# Convention : Reuss Voigt Hill
#
# Bulk Modulus (GPa) = 32.82632 41.32175 37.07404
# Shear Modulus (GPa) = 20.25272 23.02807 21.64039
#
# Velocity S-wave (km/s) = 3.53275 3.76703 3.65177
# Velocity P-wave (km/s) = 6.07198 6.66216 6.37390
#
# Compressibility (1/GPa) = 0.03046336
#
# Stress axis : x y z
#
# Youngs Moduli (GPa) = 86.71518 53.00142 27.50411
#
# Poissons Ratio (x) = 0.15466 0.19240
# Poissons Ratio (y) = 0.25303 0.22646
# Poissons Ratio (z) = 0.60660 0.43640
#
# Static dielectric constant tensor:
#      x y z
#    x 3.314660 0.000000 0.000000 
#    y 0.000000 3.025800 0.000000 
#    z 0.000000 0.000000 2.868210 
# 
# 
# High freq. dielectric constant tensor:
#      x y z
#    x 1.627770 0.000000 0.000000 
#    y 0.000000 1.595190 0.000000 
#    z 0.000000 0.000000 1.602620 
# 
# From -- ./inp_files/7157.got.cif
#   From: 2010.06.25/outbox.cif.g09.slc.cpg/sg58_4_cif.got.tgz:7157.got - 2010.06.26 21:38:00.
