data_PCOD8235119
_publ_section_title
;
Structure prediction by ZEFSAII (Michael W. Deem and Ramdas Pophale) SiO2 
 PCOD8235119
Probable space group: P B C M
;
_chemical_formula_sum "Si O2"
_cell_formula_units_Z 20
_cell_length_a 11.663695
_cell_length_b 4.983784
_cell_length_c 14.190463
_cell_angle_alpha 90.000000
_cell_angle_beta 90.000000
_cell_angle_gamma 90.000000
_cell_volume 824.882199
_symmetry_space_group_name_H-M "P B C M"
_symmetry_group_IT_number 57
_symmetry_cell_setting 'orthorhombic'
loop_
_space_group_symop_operation_xyz
x,y,z
-x,-y,1/2+z
x,1/2-y,-z
-x,1/2+y,1/2-z
-x,-y,-z
x,y,1/2-z
-x,1/2+y,z
x,1/2-y,1/2+z
loop_
_atom_site_type_symbol
_atom_site_label
_atom_site_fract_x
_atom_site_fract_y
_atom_site_fract_z
Si Si1 0.766395 0.886516 0.899829
Si Si2 0.423657 0.392933 0.750000
Si Si3 0.076855 0.136103 0.750000
Si Si4 0.083966 0.750000 0.500000
O O1 0.650252 0.944819 0.843738
O O2 0.848233 0.682299 0.843355
O O3 0.830697 0.174713 0.913165
O O4 0.738696 0.750000 0.000000
O O5 0.531914 0.589147 0.750000
O O6 0.967223 0.332787 0.750000
O O7 0.000000 0.500000 0.500000
#
# Coordination Sequence:
#
# PCOD8235119 Si02
#       4
#     8   4   4   4
#     4  11  27  46  75 107 148 191 253 300 366 442
#     4  11  30  53  76 104 146 191 254 323 376 418
#     4  11  26  41  64 104 152 193 230 285 358 440
#     4  12  24  40  70 108 148 186 230 284 358 446
#
# _framework density 24.245885000000001
#
# number of rings (size 3 to 8) (size 9 to 14) (size 15 to 20)
#    0.000    0.800    2.000    2.400   11.200    4.800 
#    0.000    0.000    0.000    0.000    0.000    0.000 
#    0.000    0.000    0.000    0.000    0.000    0.000 
#
# Total GULP energy -247867.018665 kJ/mol
# GULP energy per Si atom -12393.350933 kJ/mol
# Density = 2.419070 g / cm^3
# Si number density = 24.245885 Si / 1000 Ang^3
#
#
#
# Elastic Constant Matrix: (Units=GPa)
#
#
# Indices 1 2 3 4 5 6 
#
# 1 135.6498 39.8390 67.6974 0.0000 0.0000 0.0000
# 2 39.8390 115.1785 33.3113 0.0000 0.0000 0.0000
# 3 67.6974 33.3113 179.2377 0.0000 0.0000 0.0000
# 4 0.0000 0.0000 0.0000 32.3721 0.0000 0.0000
# 5 0.0000 0.0000 0.0000 0.0000 52.0254 0.0000
# 6 0.0000 0.0000 0.0000 0.0000 0.0000 43.9214
#
#
#
# Elastic Compliance Matrix: (Units=1/GPa)
#
#
# Indices 1 2 3 4 5 6 
#
# 1 0.009684 -0.002422 -0.003207 0.000000 0.000000 0.000000
# 2 -0.002422 0.009781 -0.000903 0.000000 0.000000 0.000000
# 3 -0.003207 -0.000903 0.006958 0.000000 0.000000 0.000000
# 4 0.000000 0.000000 0.000000 0.030891 0.000000 0.000000
# 5 0.000000 0.000000 0.000000 0.000000 0.019221 0.000000
# 6 0.000000 0.000000 0.000000 0.000000 0.000000 0.022768
#
#
# Mechanical properties :
#
#
# Convention : Reuss Voigt Hill
#
# Bulk Modulus (GPa) = 74.85832 79.08460 76.97146
# Shear Modulus (GPa) = 42.80039 44.94500 43.87270
#
# Velocity S-wave (km/s) = 4.20606 4.31015 4.25843
# Velocity P-wave (km/s) = 7.38442 7.58013 7.48292
#
# Compressibility (1/GPa) = 0.01335857
#
# Stress axis : x y z
#
# Youngs Moduli (GPa) = 103.26375 102.23831 143.70980
#
# Poissons Ratio (x) = 0.24761 0.46095
# Poissons Ratio (y) = 0.25010 0.12978
# Poissons Ratio (z) = 0.33122 0.09233
#
# Static dielectric constant tensor:
#      x y z
#    x 4.466720 0.000000 0.000000 
#    y 0.000000 4.208310 0.000000 
#    z 0.000000 0.000000 7.190040 
# 
# 
# High freq. dielectric constant tensor:
#      x y z
#    x 1.955610 0.000000 0.000000 
#    y 0.000000 1.974460 0.000000 
#    z 0.000000 0.000000 1.978390 
# 
# From -- ./inp_files/17088.got.cif
#   From: 2010.03.12/outbox.cif.g09.slc.cpg/sg57_9_cif.got.tgz:17088.got - 2010.04.16 15:48:40.
