data_PCOD8235098
_publ_section_title
;
Structure prediction by ZEFSAII (Michael W. Deem and Ramdas Pophale) SiO2 
 PCOD8235098
Probable space group: P B C M
;
_chemical_formula_sum "Si O2"
_cell_formula_units_Z 40
_cell_length_a 5.642706
_cell_length_b 13.717352
_cell_length_c 22.176228
_cell_angle_alpha 90.000000
_cell_angle_beta 90.000000
_cell_angle_gamma 90.000000
_cell_volume 1716.506231
_symmetry_space_group_name_H-M "P B C M"
_symmetry_group_IT_number 57
_symmetry_cell_setting 'orthorhombic'
loop_
_space_group_symop_operation_xyz
x,y,z
-x,-y,1/2+z
x,1/2-y,-z
-x,1/2+y,1/2-z
-x,-y,-z
x,y,1/2-z
-x,1/2+y,z
x,1/2-y,1/2+z
loop_
_atom_site_type_symbol
_atom_site_label
_atom_site_fract_x
_atom_site_fract_y
_atom_site_fract_z
Si Si1 0.868332 0.552486 0.882117
Si Si2 0.776776 0.599431 0.414745
Si Si3 0.403873 0.889789 0.819997
Si Si4 0.471581 0.348258 0.025009
Si Si5 0.869995 0.232782 0.894723
O O1 0.765291 0.483708 0.829499
O O2 0.658087 0.597664 0.921161
O O3 0.042565 0.489513 0.924696
O O4 0.014629 0.644565 0.855610
O O5 0.662077 0.590800 0.348231
O O6 0.559383 0.586463 0.463504
O O7 0.922209 0.699713 0.420856
O O8 0.434393 0.868927 0.750000
O O9 0.303783 0.792670 0.851608
O O10 0.732599 0.317118 0.048313
O O11 0.345420 0.250000 0.000000
#
# Coordination Sequence:
#
# PCOD8235098 Si02
#       5
#     8   8   8   8   8
#     4  11  25  43  70 105 139 184 227 281 354 412
#     4  11  25  44  70 104 141 181 228 284 346 411
#     4  11  26  48  69  97 138 182 240 291 334 409
#     4  12  23  42  71 103 145 178 221 282 344 424
#     4  11  24  44  70 104 139 182 225 278 351 411
#
# _framework density 23.303149999999999
#
# number of rings (size 3 to 8) (size 9 to 14) (size 15 to 20)
#    0.000    0.800    4.000    1.800    2.800    7.200 
#    0.000    7.000    0.000    0.000    0.000    0.000 
#    0.000    0.000    0.000    0.000    0.000    0.000 
#
# Total GULP energy -495537.140773 kJ/mol
# GULP energy per Si atom -12388.428519 kJ/mol
# Density = 2.325011 g / cm^3
# Si number density = 23.303150 Si / 1000 Ang^3
#
#
#
# Elastic Constant Matrix: (Units=GPa)
#
#
# Indices 1 2 3 4 5 6 
#
# 1 110.6657 54.7140 44.9533 0.0000 0.0000 0.0000
# 2 54.7140 100.2761 -1.6372 0.0000 0.0000 0.0000
# 3 44.9533 -1.6372 102.1265 0.0000 0.0000 0.0000
# 4 0.0000 0.0000 0.0000 18.4280 0.0000 0.0000
# 5 0.0000 0.0000 0.0000 0.0000 23.0018 0.0000
# 6 0.0000 0.0000 0.0000 0.0000 0.0000 50.5795
#
#
#
# Elastic Compliance Matrix: (Units=1/GPa)
#
#
# Indices 1 2 3 4 5 6 
#
# 1 0.016604 -0.009182 -0.007456 0.000000 0.000000 0.000000
# 2 -0.009182 0.015052 0.004283 0.000000 0.000000 0.000000
# 3 -0.007456 0.004283 0.013142 0.000000 0.000000 0.000000
# 4 0.000000 0.000000 0.000000 0.054265 0.000000 0.000000
# 5 0.000000 0.000000 0.000000 0.000000 0.043475 0.000000
# 6 0.000000 0.000000 0.000000 0.000000 0.000000 0.019771
#
#
# Mechanical properties :
#
#
# Convention : Reuss Voigt Hill
#
# Bulk Modulus (GPa) = 49.77771 56.56982 53.17376
# Shear Modulus (GPa) = 25.81102 32.73777 29.27440
#
# Velocity S-wave (km/s) = 3.33170 3.75222 3.54820
# Velocity P-wave (km/s) = 6.01728 6.56510 6.29715
#
# Compressibility (1/GPa) = 0.02008931
#
# Stress axis : x y z
#
# Youngs Moduli (GPa) = 60.22518 66.43552 76.08992
#
# Poissons Ratio (x) = 0.60999 0.56732
# Poissons Ratio (y) = 0.55296 -0.32588
# Poissons Ratio (z) = 0.44904 -0.28453
#
# Static dielectric constant tensor:
#      x y z
#    x 4.244970 0.000000 0.000000 
#    y 0.000000 4.732110 0.000000 
#    z 0.000000 0.000000 3.705550 
# 
# 
# High freq. dielectric constant tensor:
#      x y z
#    x 1.932460 0.000000 0.000000 
#    y 0.000000 1.951060 0.000000 
#    z 0.000000 0.000000 1.873630 
# 
# From -- ./inp_files/26097.got.cif
#   From: 2010.03.12/outbox.cif.g09.slc.cpg/sg57_14_cif.got.tgz:26097.got - 2010.04.16 15:48:40.
