data_PCOD8235311
_publ_section_title
;
Structure prediction by ZEFSAII (Michael W. Deem and Ramdas Pophale) SiO2 
 PCOD8235311
Probable space group: P N N M
;
_chemical_formula_sum "Si O2"
_cell_formula_units_Z 52
_cell_length_a 9.135041
_cell_length_b 10.434532
_cell_length_c 28.103633
_cell_angle_alpha 90.000000
_cell_angle_beta 90.000000
_cell_angle_gamma 90.000000
_cell_volume 2678.834859
_symmetry_space_group_name_H-M "P N N M"
_symmetry_group_IT_number 58
_symmetry_cell_setting 'orthorhombic'
loop_
_space_group_symop_operation_xyz
x,y,z
-x,-y,z
1/2+x,1/2-y,1/2-z
1/2-x,1/2+y,1/2-z
-x,-y,-z
x,y,-z
1/2-x,1/2+y,1/2+z
1/2+x,1/2-y,1/2+z
loop_
_atom_site_type_symbol
_atom_site_label
_atom_site_fract_x
_atom_site_fract_y
_atom_site_fract_z
Si Si1 0.064524 0.680260 0.388302
Si Si2 0.000000 0.000000 0.925279
Si Si3 0.774542 0.562585 0.631430
Si Si4 0.426254 0.359095 0.703942
Si Si5 0.674217 0.256975 0.552209
Si Si6 0.098014 0.876268 0.689346
Si Si7 0.413000 0.869003 0.351097
O O1 0.174951 0.583707 0.360502
O O2 0.152409 0.722639 0.435522
O O3 0.026032 0.788301 0.350529
O O4 0.904276 0.624536 0.400625
O O5 0.088664 0.107696 0.954409
O O6 0.880776 0.076378 0.894560
O O7 0.739581 0.629334 0.682146
O O8 0.500000 0.500000 0.698728
O O9 0.407371 0.313731 0.758203
O O10 0.516122 0.249871 0.676528
O O11 0.667602 0.190076 0.500000
O O12 0.605499 0.168829 0.593296
O O13 0.262631 0.905727 0.674228
O O14 0.000000 0.000000 0.690461
O O15 0.500000 0.000000 0.348712
#
# Coordination Sequence:
#
# PCOD8235311 Si02
#       7
#     8   4   8   8   8   8   8
#     4   9  21  37  56  84 114 158 199 240 302 360
#     4  10  17  34  60  94 114 148 192 252 305 356
#     4  10  18  35  60  81 119 153 189 250 301 353
#     4  11  21  38  62  85 122 158 201 249 299 354
#     4  10  20  39  62  85 119 155 199 252 308 360
#     4  10  24  38  57  85 122 163 202 245 298 359
#     4  11  25  40  61  93 124 159 206 252 302 363
#
# _framework density 19.411425000000001
#
# number of rings (size 3 to 8) (size 9 to 14) (size 15 to 20)
#    0.000    1.846    2.308    2.077    4.308    2.769 
#    0.000    6.923    0.000    7.385    0.000    0.000 
#    0.000    0.000    0.000    0.000    0.000    0.000 
#
# Total GULP energy -644198.518114 kJ/mol
# GULP energy per Si atom -12388.433041 kJ/mol
# Density = 1.936724 g / cm^3
# Si number density = 19.411425 Si / 1000 Ang^3
#
#
#
# Elastic Constant Matrix: (Units=GPa)
#
#
# Indices 1 2 3 4 5 6 
#
# 1 109.3766 28.8999 48.6742 0.0000 0.0000 0.0000
# 2 28.8999 73.7523 42.2700 0.0000 0.0000 0.0000
# 3 48.6742 42.2700 144.6937 0.0000 0.0000 0.0000
# 4 0.0000 0.0000 0.0000 9.2685 0.0000 0.0000
# 5 0.0000 0.0000 0.0000 0.0000 10.6662 0.0000
# 6 0.0000 0.0000 0.0000 0.0000 0.0000 25.3521
#
#
#
# Elastic Compliance Matrix: (Units=1/GPa)
#
#
# Indices 1 2 3 4 5 6 
#
# 1 0.011174 -0.002672 -0.002978 0.000000 0.000000 0.000000
# 2 -0.002672 0.016924 -0.004046 0.000000 0.000000 0.000000
# 3 -0.002978 -0.004046 0.009095 0.000000 0.000000 0.000000
# 4 0.000000 0.000000 0.000000 0.107893 0.000000 0.000000
# 5 0.000000 0.000000 0.000000 0.000000 0.093754 0.000000
# 6 0.000000 0.000000 0.000000 0.000000 0.000000 0.039444
#
#
# Mechanical properties :
#
#
# Convention : Reuss Voigt Hill
#
# Bulk Modulus (GPa) = 56.17224 63.05677 59.61451
# Shear Modulus (GPa) = 16.46849 22.92258 19.69554
#
# Velocity S-wave (km/s) = 2.91588 3.44012 3.18879
# Velocity P-wave (km/s) = 6.35114 6.95228 6.65850
#
# Compressibility (1/GPa) = 0.01780239
#
# Stress axis : x y z
#
# Youngs Moduli (GPa) = 89.49306 59.08645 109.95153
#
# Poissons Ratio (x) = 0.15785 0.32748
# Poissons Ratio (y) = 0.23908 0.44481
# Poissons Ratio (z) = 0.26655 0.23903
#
# Static dielectric constant tensor:
#      x y z
#    x 3.661680 0.000000 0.000000 
#    y 0.000000 3.458940 0.000000 
#    z 0.000000 0.000000 3.530430 
# 
# 
# High freq. dielectric constant tensor:
#      x y z
#    x 1.767220 0.000000 0.000000 
#    y 0.000000 1.742640 0.000000 
#    z 0.000000 0.000000 1.743730 
# 
# From -- ./inp_files/33274.got.cif
#   From: 2010.06.25/outbox.cif.g09.slc.cpg/sg58_17_cif.got.tgz:33274.got - 2010.06.26 21:38:00.
