data_PCOD8235451
_publ_section_title
;
Structure prediction by ZEFSAII (Michael W. Deem and Ramdas Pophale) SiO2 
 PCOD8235451
Probable space group: P N N M
;
_chemical_formula_sum "Si O2"
_cell_formula_units_Z 48
_cell_length_a 8.342228
_cell_length_b 8.784627
_cell_length_c 28.009021
_cell_angle_alpha 90.000000
_cell_angle_beta 90.000000
_cell_angle_gamma 90.000000
_cell_volume 2052.595206
_symmetry_space_group_name_H-M "P N N M"
_symmetry_group_IT_number 58
_symmetry_cell_setting 'orthorhombic'
loop_
_space_group_symop_operation_xyz
x,y,z
-x,-y,z
1/2+x,1/2-y,1/2-z
1/2-x,1/2+y,1/2-z
-x,-y,-z
x,y,-z
1/2-x,1/2+y,1/2+z
1/2+x,1/2-y,1/2+z
loop_
_atom_site_type_symbol
_atom_site_label
_atom_site_fract_x
_atom_site_fract_y
_atom_site_fract_z
Si Si1 0.184188 0.236093 0.397727
Si Si2 0.843180 0.325423 0.805609
Si Si3 0.671645 0.445792 0.401908
Si Si4 0.114501 0.262948 0.500000
Si Si5 0.193175 0.338447 0.228439
Si Si6 0.917883 0.337165 0.334237
Si Si7 0.730084 0.893221 0.000000
O O1 0.324617 0.165610 0.363816
O O2 0.207388 0.414047 0.407279
O O3 0.167571 0.167626 0.451805
O O4 0.021566 0.223628 0.367215
O O5 0.792408 0.483527 0.781258
O O6 0.711627 0.199050 0.785810
O O7 0.026619 0.279626 0.794234
O O8 0.500000 0.500000 0.384059
O O9 0.747960 0.342554 0.361609
O O10 0.662973 0.358330 0.452944
O O11 0.191619 0.428571 0.500000
O O12 0.923055 0.283193 0.500000
O O13 0.356926 0.249603 0.212918
O O14 0.000000 0.500000 0.321004
#
# Coordination Sequence:
#
# PCOD8235451 Si02
#       7
#     8   8   8   4   8   8   4
#     4  10  20  36  60  88 126 173 215 268 329 390
#     4  11  26  45  67  99 132 173 221 272 339 399
#     4  10  18  29  52  86 126 167 214 270 329 385
#     4   9  16  32  56  85 125 170 221 272 325 394
#     4  11  26  45  69  96 135 170 220 276 333 409
#     4  10  21  36  61  90 128 169 212 264 324 390
#     4   9  15  28  48  85 120 165 217 273 321 381
#
# _framework density 23.385027999999998
#
# number of rings (size 3 to 8) (size 9 to 14) (size 15 to 20)
#    0.000    1.833    1.667    2.250    7.000    2.667 
#    0.000    0.000    0.000    5.000    0.000    0.000 
#    0.000    0.000    0.000    0.000    0.000    0.000 
#
# Total GULP energy -594636.915540 kJ/mol
# GULP energy per Si atom -12388.269074 kJ/mol
# Density = 2.333180 g / cm^3
# Si number density = 23.385028 Si / 1000 Ang^3
#
#
#
# Elastic Constant Matrix: (Units=GPa)
#
#
# Indices 1 2 3 4 5 6 
#
# 1 106.7175 10.0573 38.8063 0.0000 0.0000 0.0000
# 2 10.0573 47.6741 31.3355 0.0000 0.0000 0.0000
# 3 38.8063 31.3355 152.8961 0.0000 0.0000 0.0000
# 4 0.0000 0.0000 0.0000 15.3235 0.0000 0.0000
# 5 0.0000 0.0000 0.0000 0.0000 32.5236 0.0000
# 6 0.0000 0.0000 0.0000 0.0000 0.0000 29.5419
#
#
#
# Elastic Compliance Matrix: (Units=1/GPa)
#
#
# Indices 1 2 3 4 5 6 
#
# 1 0.010335 -0.000527 -0.002515 0.000000 0.000000 0.000000
# 2 -0.000527 0.024268 -0.004840 0.000000 0.000000 0.000000
# 3 -0.002515 -0.004840 0.008171 0.000000 0.000000 0.000000
# 4 0.000000 0.000000 0.000000 0.065259 0.000000 0.000000
# 5 0.000000 0.000000 0.000000 0.000000 0.030747 0.000000
# 6 0.000000 0.000000 0.000000 0.000000 0.000000 0.033850
#
#
# Mechanical properties :
#
#
# Convention : Reuss Voigt Hill
#
# Bulk Modulus (GPa) = 37.02402 51.96509 44.49456
# Shear Modulus (GPa) = 25.32967 30.61705 27.97336
#
# Velocity S-wave (km/s) = 3.29471 3.62229 3.46238
# Velocity P-wave (km/s) = 5.50819 6.30591 5.92050
#
# Compressibility (1/GPa) = 0.02700949
#
# Stress axis : x y z
#
# Youngs Moduli (GPa) = 96.76080 41.20630 122.38953
#
# Poissons Ratio (x) = 0.02172 0.30781
# Poissons Ratio (y) = 0.05101 0.59235
# Poissons Ratio (z) = 0.24335 0.19943
#
# Static dielectric constant tensor:
#      x y z
#    x 4.108090 0.000000 0.000000 
#    y 0.000000 3.521940 0.000000 
#    z 0.000000 0.000000 4.915120 
# 
# 
# High freq. dielectric constant tensor:
#      x y z
#    x 1.929450 0.000000 0.000000 
#    y 0.000000 1.855860 0.000000 
#    z 0.000000 0.000000 1.957030 
# 
# From -- ./inp_files/34623.got.cif
#   From: 2010.06.25/outbox.cif.g09.slc.cpg/sg58_18_cif.got.tgz:34623.got - 2010.06.26 21:38:00.
