data_PCOD8235048
_publ_section_title
;
Structure prediction by ZEFSAII (Michael W. Deem and Ramdas Pophale) SiO2 
 PCOD8235048
Probable space group: P B C M
;
_chemical_formula_sum "Si O2"
_cell_formula_units_Z 48
_cell_length_a 8.440156
_cell_length_b 10.099201
_cell_length_c 27.048242
_cell_angle_alpha 90.000000
_cell_angle_beta 90.000000
_cell_angle_gamma 90.000000
_cell_volume 2305.560553
_symmetry_space_group_name_H-M "P B C M"
_symmetry_group_IT_number 57
_symmetry_cell_setting 'orthorhombic'
loop_
_space_group_symop_operation_xyz
x,y,z
-x,-y,1/2+z
x,1/2-y,-z
-x,1/2+y,1/2-z
-x,-y,-z
x,y,1/2-z
-x,1/2+y,z
x,1/2-y,1/2+z
loop_
_atom_site_type_symbol
_atom_site_label
_atom_site_fract_x
_atom_site_fract_y
_atom_site_fract_z
Si Si1 0.669584 0.478602 0.599215
Si Si2 0.145725 0.739645 0.945590
Si Si3 0.877648 0.728121 0.305134
Si Si4 0.843424 0.025788 0.196336
Si Si5 0.626571 0.989801 0.953974
Si Si6 0.197332 0.242898 0.089540
O O1 0.756202 0.370799 0.565772
O O2 0.704723 0.459898 0.656719
O O3 0.481217 0.467451 0.594363
O O4 0.719508 0.619655 0.576562
O O5 0.266693 0.617354 0.944302
O O6 0.992732 0.730229 0.910598
O O7 0.073646 0.750000 0.000000
O O8 0.801833 0.699037 0.250000
O O9 0.764405 0.699802 0.352904
O O10 0.031336 0.639959 0.312737
O O11 0.928173 0.882772 0.307919
O O12 0.763084 0.042338 0.250000
O O13 0.744712 0.862811 0.951880
O O14 0.500000 0.000000 0.000000
#
# Coordination Sequence:
#
# PCOD8235048 Si02
#       6
#     8   8   8   8   8   8
#     4  11  23  41  63  92 130 173 209 263 331 384
#     4  12  25  42  66  93 125 168 225 263 310 384
#     4   9  18  35  62  95 129 164 212 273 323 375
#     4   9  18  35  61  93 129 167 211 267 326 385
#     4  12  27  45  63  91 133 173 212 265 332 383
#     4  11  25  41  67  95 129 169 225 268 315 388
#
# _framework density 20.819230000000001
#
# number of rings (size 3 to 8) (size 9 to 14) (size 15 to 20)
#    0.000    1.333    3.333    2.000    4.667    1.333 
#    0.000    0.833    0.000    4.000    0.000    0.000 
#    0.000    0.000    0.000    0.000    0.000    0.000 
#
# Total GULP energy -594655.757282 kJ/mol
# GULP energy per Si atom -12388.661610 kJ/mol
# Density = 2.077184 g / cm^3
# Si number density = 20.819230 Si / 1000 Ang^3
#
#
#
# Elastic Constant Matrix: (Units=GPa)
#
#
# Indices 1 2 3 4 5 6 
#
# 1 88.7935 33.9799 27.9600 0.0000 0.0000 0.0000
# 2 33.9799 71.5321 66.6180 0.0000 0.0000 0.0000
# 3 27.9600 66.6180 97.6827 0.0000 0.0000 0.0000
# 4 0.0000 0.0000 0.0000 23.1237 0.0000 0.0000
# 5 0.0000 0.0000 0.0000 0.0000 26.1285 0.0000
# 6 0.0000 0.0000 0.0000 0.0000 0.0000 33.0163
#
#
#
# Elastic Compliance Matrix: (Units=1/GPa)
#
#
# Indices 1 2 3 4 5 6 
#
# 1 0.013837 -0.007905 0.001431 0.000000 0.000000 0.000000
# 2 -0.007905 0.042831 -0.026947 0.000000 0.000000 0.000000
# 3 0.001431 -0.026947 0.028205 0.000000 0.000000 0.000000
# 4 0.000000 0.000000 0.000000 0.043246 0.000000 0.000000
# 5 0.000000 0.000000 0.000000 0.000000 0.038272 0.000000
# 6 0.000000 0.000000 0.000000 0.000000 0.000000 0.030288
#
#
# Mechanical properties :
#
#
# Convention : Reuss Voigt Hill
#
# Bulk Modulus (GPa) = 55.46499 57.23601 56.35050
# Shear Modulus (GPa) = 18.55058 25.08372 21.81715
#
# Velocity S-wave (km/s) = 2.98825 3.47484 3.24069
# Velocity P-wave (km/s) = 6.21331 6.60688 6.41312
#
# Compressibility (1/GPa) = 0.01802939
#
# Stress axis : x y z
#
# Youngs Moduli (GPa) = 72.27092 23.34746 35.45426
#
# Poissons Ratio (x) = 0.18457 -0.05073
# Poissons Ratio (y) = 0.57133 0.95540
# Poissons Ratio (z) = -0.10341 0.62915
#
# Static dielectric constant tensor:
#      x y z
#    x 3.562370 0.000000 0.000000 
#    y 0.000000 3.917650 0.000000 
#    z 0.000000 0.000000 4.373200 
# 
# 
# High freq. dielectric constant tensor:
#      x y z
#    x 1.783220 0.000000 0.000000 
#    y 0.000000 1.829720 0.000000 
#    z 0.000000 0.000000 1.834570 
# 
# From -- ./inp_files/29461.got.cif
#   From: 2010.03.12/outbox.cif.g09.slc.cpg/sg57_15_cif.got.tgz:29461.got - 2010.04.16 15:48:40.
