data_PCOD8235289
_publ_section_title
;
Structure prediction by ZEFSAII (Michael W. Deem and Ramdas Pophale) SiO2 
 PCOD8235289
Probable space group: P N N M
;
_chemical_formula_sum "Si O2"
_cell_formula_units_Z 44
_cell_length_a 11.377340
_cell_length_b 11.689150
_cell_length_c 19.994203
_cell_angle_alpha 90.000000
_cell_angle_beta 90.000000
_cell_angle_gamma 90.000000
_cell_volume 2659.057726
_symmetry_space_group_name_H-M "P N N M"
_symmetry_group_IT_number 58
_symmetry_cell_setting 'orthorhombic'
loop_
_space_group_symop_operation_xyz
x,y,z
-x,-y,z
1/2+x,1/2-y,1/2-z
1/2-x,1/2+y,1/2-z
-x,-y,-z
x,y,-z
1/2-x,1/2+y,1/2+z
1/2+x,1/2-y,1/2+z
loop_
_atom_site_type_symbol
_atom_site_label
_atom_site_fract_x
_atom_site_fract_y
_atom_site_fract_z
Si Si1 0.631269 0.528450 0.850489
Si Si2 0.322018 0.835389 0.578599
Si Si3 0.000000 0.500000 0.153841
Si Si4 0.887253 0.117207 0.201229
Si Si5 0.649458 0.375621 0.332246
Si Si6 0.294503 0.145283 0.703480
O O1 0.500000 0.500000 0.874682
O O2 0.694314 0.613604 0.902349
O O3 0.641085 0.582153 0.776977
O O4 0.700247 0.408068 0.847599
O O5 0.336377 0.833246 0.500000
O O6 0.426180 0.912601 0.608328
O O7 0.331038 0.703837 0.603377
O O8 0.085528 0.572011 0.201855
O O9 0.812682 0.225722 0.177909
O O10 0.023599 0.151553 0.200591
O O11 0.852459 0.012304 0.151404
O O12 0.751954 0.348686 0.279749
#
# Coordination Sequence:
#
# PCOD8235289 Si02
#       6
#     8   8   4   8   8   8
#     4  10  19  33  52  78 103 134 173 219 263 307
#     4  11  22  35  51  72 106 143 177 210 249 317
#     4  10  21  34  54  78 103 134 178 220 266 296
#     4  10  17  31  52  79 109 127 162 225 269 302
#     4  10  19  31  51  78 107 134 164 210 266 307
#     4  10  18  31  55  82 105 130 170 222 272 301
#
# _framework density 16.547214
#
# number of rings (size 3 to 8) (size 9 to 14) (size 15 to 20)
#    0.000    1.818    7.273    0.273    0.000    0.364 
#    0.000    1.818    0.000    0.000    0.000    4.455 
#    0.000    0.000    0.000    0.000    0.000    0.000 
#
# Total GULP energy -545411.185800 kJ/mol
# GULP energy per Si atom -12395.708768 kJ/mol
# Density = 1.650955 g / cm^3
# Si number density = 16.547214 Si / 1000 Ang^3
#
#
#
# Elastic Constant Matrix: (Units=GPa)
#
#
# Indices 1 2 3 4 5 6 
#
# 1 110.6894 62.9364 30.3940 0.0000 0.0000 0.0000
# 2 62.9364 138.0769 40.5979 0.0000 0.0000 0.0000
# 3 30.3940 40.5979 67.0876 0.0000 0.0000 0.0000
# 4 0.0000 0.0000 0.0000 17.3250 0.0000 0.0000
# 5 0.0000 0.0000 0.0000 0.0000 13.1138 0.0000
# 6 0.0000 0.0000 0.0000 0.0000 0.0000 23.7774
#
#
#
# Elastic Compliance Matrix: (Units=1/GPa)
#
#
# Indices 1 2 3 4 5 6 
#
# 1 0.012588 -0.004940 -0.002714 0.000000 0.000000 0.000000
# 2 -0.004940 0.010748 -0.004266 0.000000 0.000000 0.000000
# 3 -0.002714 -0.004266 0.018717 0.000000 0.000000 0.000000
# 4 0.000000 0.000000 0.000000 0.057720 0.000000 0.000000
# 5 0.000000 0.000000 0.000000 0.000000 0.076256 0.000000
# 6 0.000000 0.000000 0.000000 0.000000 0.000000 0.042057
#
#
# Mechanical properties :
#
#
# Convention : Reuss Voigt Hill
#
# Bulk Modulus (GPa) = 54.90348 64.85673 59.88010
# Shear Modulus (GPa) = 20.16149 22.97160 21.56655
#
# Velocity S-wave (km/s) = 3.49438 3.72996 3.61409
# Velocity P-wave (km/s) = 7.03796 7.60461 7.32677
#
# Compressibility (1/GPa) = 0.01821378
#
# Stress axis : x y z
#
# Youngs Moduli (GPa) = 79.43958 93.03725 53.42706
#
# Poissons Ratio (x) = 0.45959 0.14499
# Poissons Ratio (y) = 0.39242 0.22794
# Poissons Ratio (z) = 0.21558 0.39693
#
# Static dielectric constant tensor:
#      x y z
#    x 3.274850 0.000000 0.000000 
#    y 0.000000 3.526760 0.000000 
#    z 0.000000 0.000000 2.675630 
# 
# 
# High freq. dielectric constant tensor:
#      x y z
#    x 1.647190 0.000000 0.000000 
#    y 0.000000 1.653880 0.000000 
#    z 0.000000 0.000000 1.586610 
# 
# From -- ./inp_files/26094.got.cif
#   From: 2010.06.25/outbox.cif.g09.slc.cpg/sg58_14_cif.got.tgz:26094.got - 2010.06.26 21:38:00.
