data_PCOD8235267
_publ_section_title
;
Structure prediction by ZEFSAII (Michael W. Deem and Ramdas Pophale) SiO2 
 PCOD8235267
Probable space group: P N N M
;
_chemical_formula_sum "Si O2"
_cell_formula_units_Z 64
_cell_length_a 30.494231
_cell_length_b 14.603651
_cell_length_c 8.859211
_cell_angle_alpha 90.000000
_cell_angle_beta 90.000000
_cell_angle_gamma 90.000000
_cell_volume 3945.246805
_symmetry_space_group_name_H-M "P N N M"
_symmetry_group_IT_number 58
_symmetry_cell_setting 'orthorhombic'
loop_
_space_group_symop_operation_xyz
x,y,z
-x,-y,z
1/2+x,1/2-y,1/2-z
1/2-x,1/2+y,1/2-z
-x,-y,-z
x,y,-z
1/2-x,1/2+y,1/2+z
1/2+x,1/2-y,1/2+z
loop_
_atom_site_type_symbol
_atom_site_label
_atom_site_fract_x
_atom_site_fract_y
_atom_site_fract_z
Si Si1 0.636367 0.677341 0.177031
Si Si2 0.211980 0.288630 0.178105
Si Si3 0.549375 0.398526 0.179227
Si Si4 0.277098 0.979298 0.831039
Si Si5 0.295487 0.176075 0.177588
Si Si6 0.825173 0.004920 0.168722
Si Si7 0.639798 0.330779 0.176828
Si Si8 0.953704 0.104071 0.678342
O O1 0.658246 0.774963 0.216274
O O2 0.662932 0.604597 0.273033
O O3 0.584952 0.674558 0.226077
O O4 0.641686 0.654510 0.000000
O O5 0.212625 0.394241 0.224869
O O6 0.254053 0.233461 0.245907
O O7 0.166398 0.246167 0.234619
O O8 0.212767 0.283511 0.000000
O O9 0.588546 0.330645 0.230908
O O10 0.557499 0.502214 0.240747
O O11 0.501663 0.363303 0.239074
O O12 0.549933 0.402745 0.000000
O O13 0.226466 0.003102 0.837477
O O14 0.298968 0.071942 0.761062
O O15 0.294695 0.957665 0.000000
O O16 0.287488 0.170436 0.000000
O O17 0.842448 0.931277 0.286985
O O18 0.844327 0.988386 0.000000
O O19 0.644571 0.311689 0.000000
O O20 0.956814 0.098767 0.500000
#
# Coordination Sequence:
#
# PCOD8235267 Si02
#       8
#     8   8   8   8   8   8   8   8
#     4  10  17  29  49  70  91 125 163 193 232 286
#     4  11  21  34  49  70  96 122 155 198 234 270
#     4   8  14  24  41  67  96 121 151 195 233 274
#     4  10  20  35  47  63  93 128 157 189 230 272
#     4   9  18  31  47  67  93 120 153 193 233 272
#     4  11  20  29  44  67  98 129 158 197 233 266
#     4  11  20  31  48  69  93 129 166 190 229 286
#     4   8  13  23  42  69  95 118 152 195 235 274
#
# _framework density 16.222052999999999
#
# number of rings (size 3 to 8) (size 9 to 14) (size 15 to 20)
#    0.000    2.250    3.750    1.875    0.000    0.500 
#    0.000    0.625    0.000    2.250    0.000    0.875 
#    0.000    7.000    0.000    0.000    0.000    0.000 
#
# Total GULP energy -793056.010459 kJ/mol
# GULP energy per Si atom -12391.500163 kJ/mol
# Density = 1.618513 g / cm^3
# Si number density = 16.222053 Si / 1000 Ang^3
#
#
#
# Elastic Constant Matrix: (Units=GPa)
#
#
# Indices 1 2 3 4 5 6 
#
# 1 105.6742 38.3302 16.1131 0.0000 0.0000 0.0000
# 2 38.3302 83.0618 15.8318 0.0000 0.0000 0.0000
# 3 16.1131 15.8318 33.6389 0.0000 0.0000 0.0000
# 4 0.0000 0.0000 0.0000 20.1106 0.0000 0.0000
# 5 0.0000 0.0000 0.0000 0.0000 11.7284 0.0000
# 6 0.0000 0.0000 0.0000 0.0000 0.0000 22.0036
#
#
#
# Elastic Compliance Matrix: (Units=1/GPa)
#
#
# Indices 1 2 3 4 5 6 
#
# 1 0.011702 -0.004759 -0.003366 0.000000 0.000000 0.000000
# 2 -0.004759 0.015161 -0.004856 0.000000 0.000000 0.000000
# 3 -0.003366 -0.004856 0.033625 0.000000 0.000000 0.000000
# 4 0.000000 0.000000 0.000000 0.049725 0.000000 0.000000
# 5 0.000000 0.000000 0.000000 0.000000 0.085263 0.000000
# 6 0.000000 0.000000 0.000000 0.000000 0.000000 0.045447
#
#
# Mechanical properties :
#
#
# Convention : Reuss Voigt Hill
#
# Bulk Modulus (GPa) = 28.96242 40.32500 34.64371
# Shear Modulus (GPa) = 17.96019 20.90850 19.43435
#
# Velocity S-wave (km/s) = 3.33099 3.59401 3.46500
# Velocity P-wave (km/s) = 5.71721 6.49112 6.11642
#
# Compressibility (1/GPa) = 0.03452750
#
# Stress axis : x y z
#
# Youngs Moduli (GPa) = 85.45299 65.95989 29.73970
#
# Poissons Ratio (x) = 0.31388 0.10010
# Poissons Ratio (y) = 0.40664 0.14441
# Poissons Ratio (z) = 0.28762 0.32029
#
# Static dielectric constant tensor:
#      x y z
#    x 3.455280 0.000000 0.000000 
#    y 0.000000 3.009540 0.000000 
#    z 0.000000 0.000000 2.866080 
# 
# 
# High freq. dielectric constant tensor:
#      x y z
#    x 1.622410 0.000000 0.000000 
#    y 0.000000 1.598090 0.000000 
#    z 0.000000 0.000000 1.597940 
# 
# From -- ./inp_files/11129.got.cif
#   From: 2010.06.25/outbox.cif.g09.slc.cpg/sg58_6_cif.got.tgz:11129.got - 2010.06.26 21:38:00.
