data_PCOD8235318
_publ_section_title
;
Structure prediction by ZEFSAII (Michael W. Deem and Ramdas Pophale) SiO2 
 PCOD8235318
Probable space group: P N N M
;
_chemical_formula_sum "Si O2"
_cell_formula_units_Z 36
_cell_length_a 8.074273
_cell_length_b 16.724681
_cell_length_c 13.755630
_cell_angle_alpha 90.000000
_cell_angle_beta 90.000000
_cell_angle_gamma 90.000000
_cell_volume 1857.555326
_symmetry_space_group_name_H-M "P N N M"
_symmetry_group_IT_number 58
_symmetry_cell_setting 'orthorhombic'
loop_
_space_group_symop_operation_xyz
x,y,z
-x,-y,z
1/2+x,1/2-y,1/2-z
1/2-x,1/2+y,1/2-z
-x,-y,-z
x,y,-z
1/2-x,1/2+y,1/2+z
1/2+x,1/2-y,1/2+z
loop_
_atom_site_type_symbol
_atom_site_label
_atom_site_fract_x
_atom_site_fract_y
_atom_site_fract_z
Si Si1 0.587443 0.359647 0.798061
Si Si2 0.167684 0.905201 0.000000
Si Si3 0.000000 0.000000 0.838016
Si Si4 0.793824 0.255690 0.337933
Si Si5 0.795528 0.845921 0.500000
Si Si6 0.507623 0.181953 0.000000
Si Si7 0.966889 0.739425 0.000000
O O1 0.590088 0.434854 0.727722
O O2 0.722119 0.295616 0.759475
O O3 0.406039 0.319153 0.804707
O O4 0.647891 0.392292 0.902948
O O5 0.363767 0.890180 0.000000
O O6 0.050726 0.827078 0.000000
O O7 0.136482 0.957311 0.095676
O O8 0.896270 0.320140 0.402466
O O9 0.641474 0.225581 0.403595
O O10 0.599849 0.831444 0.500000
O O11 0.890274 0.762745 0.500000
#
# Coordination Sequence:
#
# PCOD8235318 Si02
#       7
#     8   4   4   8   4   4   4
#     4  11  22  38  59  89 118 164 201 242 296 357
#     4  10  20  40  61  93 123 154 184 246 325 367
#     4  11  24  37  62  88 130 159 186 239 322 368
#     4  10  20  34  63  91 116 156 208 244 291 350
#     4   9  20  36  58  85 113 157 206 253 280 337
#     4   8  19  35  62  92 116 146 201 254 290 347
#     4  10  17  38  65  87 118 147 206 264 287 347
#
# _framework density 19.380313000000001
#
# number of rings (size 3 to 8) (size 9 to 14) (size 15 to 20)
#    0.000    2.000    2.222    2.000    6.222    0.444 
#    0.000    2.222    0.000    1.333    0.000    0.000 
#    0.000    0.000    0.000    0.000    0.000    0.000 
#
# Total GULP energy -446399.169744 kJ/mol
# GULP energy per Si atom -12399.976937 kJ/mol
# Density = 1.933620 g / cm^3
# Si number density = 19.380313 Si / 1000 Ang^3
#
#
#
# Elastic Constant Matrix: (Units=GPa)
#
#
# Indices 1 2 3 4 5 6 
#
# 1 112.2098 30.6584 42.1348 0.0000 0.0000 0.0000
# 2 30.6584 65.0676 33.9672 0.0000 0.0000 0.0000
# 3 42.1348 33.9672 135.8231 0.0000 0.0000 0.0000
# 4 0.0000 0.0000 0.0000 28.3003 0.0000 0.0000
# 5 0.0000 0.0000 0.0000 0.0000 32.2915 0.0000
# 6 0.0000 0.0000 0.0000 0.0000 0.0000 19.5858
#
#
#
# Elastic Compliance Matrix: (Units=1/GPa)
#
#
# Indices 1 2 3 4 5 6 
#
# 1 0.010872 -0.003867 -0.002406 0.000000 0.000000 0.000000
# 2 -0.003867 0.019052 -0.003565 0.000000 0.000000 0.000000
# 3 -0.002406 -0.003565 0.009000 0.000000 0.000000 0.000000
# 4 0.000000 0.000000 0.000000 0.035335 0.000000 0.000000
# 5 0.000000 0.000000 0.000000 0.000000 0.030968 0.000000
# 6 0.000000 0.000000 0.000000 0.000000 0.000000 0.051057
#
#
# Mechanical properties :
#
#
# Convention : Reuss Voigt Hill
#
# Bulk Modulus (GPa) = 51.95072 58.51350 55.23211
# Shear Modulus (GPa) = 27.41603 29.79151 28.60377
#
# Velocity S-wave (km/s) = 3.76524 3.92497 3.84594
# Velocity P-wave (km/s) = 6.76512 7.12730 6.94857
#
# Compressibility (1/GPa) = 0.01924901
#
# Stress axis : x y z
#
# Youngs Moduli (GPa) = 91.98236 52.48913 111.10712
#
# Poissons Ratio (x) = 0.20296 0.26728
# Poissons Ratio (y) = 0.35567 0.39609
# Poissons Ratio (z) = 0.22127 0.18712
#
# Static dielectric constant tensor:
#      x y z
#    x 3.727820 0.000000 0.000000 
#    y 0.000000 3.157040 0.000000 
#    z 0.000000 0.000000 3.990090 
# 
# 
# High freq. dielectric constant tensor:
#      x y z
#    x 1.761420 0.000000 0.000000 
#    y 0.000000 1.707900 0.000000 
#    z 0.000000 0.000000 1.777460 
# 
# From -- ./inp_files/19433.got.cif
#   From: 2010.06.25/outbox.cif.g09.slc.cpg/sg58_10_cif.got.tgz:19433.got - 2010.06.26 21:38:00.
