data_PCOD8235124
_publ_section_title
;
Structure prediction by ZEFSAII (Michael W. Deem and Ramdas Pophale) SiO2 
 PCOD8235124
Probable space group: P B C M
;
_chemical_formula_sum "Si O2"
_cell_formula_units_Z 40
_cell_length_a 5.206536
_cell_length_b 17.645918
_cell_length_c 18.165698
_cell_angle_alpha 90.000000
_cell_angle_beta 90.000000
_cell_angle_gamma 90.000000
_cell_volume 1668.957288
_symmetry_space_group_name_H-M "P B C M"
_symmetry_group_IT_number 57
_symmetry_cell_setting 'orthorhombic'
loop_
_space_group_symop_operation_xyz
x,y,z
-x,-y,1/2+z
x,1/2-y,-z
-x,1/2+y,1/2-z
-x,-y,-z
x,y,1/2-z
-x,1/2+y,z
x,1/2-y,1/2+z
loop_
_atom_site_type_symbol
_atom_site_label
_atom_site_fract_x
_atom_site_fract_y
_atom_site_fract_z
Si Si1 0.885228 0.216631 0.662457
Si Si2 0.631119 0.698852 0.120490
Si Si3 0.267939 0.091559 0.250000
Si Si4 0.989384 0.439787 0.387477
Si Si5 0.704464 0.941213 0.531492
Si Si6 0.231906 0.007723 0.750000
O O1 0.932227 0.223186 0.750000
O O2 0.645074 0.267442 0.638996
O O3 0.142464 0.238088 0.615131
O O4 0.814229 0.130507 0.639540
O O5 0.746372 0.645933 0.181797
O O6 0.592154 0.642333 0.050664
O O7 0.523231 0.043088 0.250000
O O8 0.027665 0.038319 0.250000
O O9 0.087499 0.423735 0.469350
O O10 0.219300 0.445183 0.326585
O O11 0.825667 0.518142 0.395219
O O12 0.500000 0.000000 0.500000
#
# Coordination Sequence:
#
# PCOD8235124 Si02
#       6
#     8   8   4   8   8   4
#     4  12  26  48  73 114 149 193 241 307 373 439
#     4  12  26  46  75 104 154 188 244 301 369 446
#     4  12  22  40  72 110 138 187 245 302 360 430
#     4  11  27  47  74 108 149 189 254 310 364 445
#     4  11  27  50  73 107 143 201 252 302 367 444
#     4  12  24  42  78 108 134 193 247 312 362 412
#
# _framework density 23.967061000000001
#
# number of rings (size 3 to 8) (size 9 to 14) (size 15 to 20)
#    0.000    0.400    5.000    2.400    8.400    0.800 
#    0.000    0.000    0.000    0.000    0.000    0.000 
#    0.000    0.000    0.000    0.000    0.000    0.000 
#
# Total GULP energy -495751.341449 kJ/mol
# GULP energy per Si atom -12393.783536 kJ/mol
# Density = 2.391251 g / cm^3
# Si number density = 23.967061 Si / 1000 Ang^3
#
#
#
# Elastic Constant Matrix: (Units=GPa)
#
#
# Indices 1 2 3 4 5 6 
#
# 1 106.3822 27.6219 10.8131 0.0000 0.0000 0.0000
# 2 27.6219 112.4729 32.4150 0.0000 0.0000 0.0000
# 3 10.8131 32.4150 81.1157 0.0000 0.0000 0.0000
# 4 0.0000 0.0000 0.0000 72.1133 0.0000 0.0000
# 5 0.0000 0.0000 0.0000 0.0000 29.8957 0.0000
# 6 0.0000 0.0000 0.0000 0.0000 0.0000 40.8383
#
#
#
# Elastic Compliance Matrix: (Units=1/GPa)
#
#
# Indices 1 2 3 4 5 6 
#
# 1 0.010052 -0.002353 -0.000399 0.000000 0.000000 0.000000
# 2 -0.002353 0.010599 -0.003922 0.000000 0.000000 0.000000
# 3 -0.000399 -0.003922 0.013949 0.000000 0.000000 0.000000
# 4 0.000000 0.000000 0.000000 0.013867 0.000000 0.000000
# 5 0.000000 0.000000 0.000000 0.000000 0.033450 0.000000
# 6 0.000000 0.000000 0.000000 0.000000 0.000000 0.024487
#
#
# Mechanical properties :
#
#
# Convention : Reuss Voigt Hill
#
# Bulk Modulus (GPa) = 47.05891 49.07453 48.06672
# Shear Modulus (GPa) = 39.42094 43.84417 41.63255
#
# Velocity S-wave (km/s) = 4.06001 4.28173 4.17234
# Velocity P-wave (km/s) = 6.45412 6.70556 6.58104
#
# Compressibility (1/GPa) = 0.02124996
#
# Stress axis : x y z
#
# Youngs Moduli (GPa) = 99.48530 94.34576 71.69190
#
# Poissons Ratio (x) = 0.22204 0.02864
# Poissons Ratio (y) = 0.23413 0.28117
# Poissons Ratio (z) = 0.03974 0.37002
#
# Static dielectric constant tensor:
#      x y z
#    x 4.041910 0.000000 0.000000 
#    y 0.000000 4.728900 0.000000 
#    z 0.000000 0.000000 4.433040 
# 
# 
# High freq. dielectric constant tensor:
#      x y z
#    x 1.938950 0.000000 0.000000 
#    y 0.000000 1.967160 0.000000 
#    z 0.000000 0.000000 1.962990 
# 
# From -- ./inp_files/20039.got.cif
#   From: 2010.03.12/outbox.cif.g09.slc.cpg/sg57_11_cif.got.tgz:20039.got - 2010.04.16 15:48:40.
