data_PCOD8235645
_publ_section_title
;
Structure prediction by ZEFSAII (Michael W. Deem and Ramdas Pophale) SiO2 
 PCOD8235645
Probable space group: P N N M
;
_chemical_formula_sum "Si O2"
_cell_formula_units_Z 64
_cell_length_a 24.627911
_cell_length_b 11.780250
_cell_length_c 12.351985
_cell_angle_alpha 90.000000
_cell_angle_beta 90.000000
_cell_angle_gamma 90.000000
_cell_volume 3583.594309
_symmetry_space_group_name_H-M "P N N M"
_symmetry_group_IT_number 58
_symmetry_cell_setting 'orthorhombic'
loop_
_space_group_symop_operation_xyz
x,y,z
-x,-y,z
1/2+x,1/2-y,1/2-z
1/2-x,1/2+y,1/2-z
-x,-y,-z
x,y,-z
1/2-x,1/2+y,1/2+z
1/2+x,1/2-y,1/2+z
loop_
_atom_site_type_symbol
_atom_site_label
_atom_site_fract_x
_atom_site_fract_y
_atom_site_fract_z
Si Si1 0.175252 0.992640 0.762966
Si Si2 0.920610 0.945279 0.624010
Si Si3 0.549200 0.923555 0.876950
Si Si4 0.848086 0.407439 0.235147
Si Si5 0.895617 0.196807 0.874203
Si Si6 0.273616 0.915936 0.624107
Si Si7 0.526588 0.672162 0.186309
Si Si8 0.750446 0.835349 0.877224
O O1 0.146986 0.894947 0.831900
O O2 0.215655 0.941692 0.675259
O O3 0.133556 0.069338 0.694189
O O4 0.206857 0.067807 0.849277
O O5 0.911826 0.906043 0.500000
O O6 0.963986 0.864349 0.683550
O O7 0.938672 0.077048 0.623093
O O8 0.603179 0.951145 0.810002
O O9 0.534163 0.791064 0.873625
O O10 0.500000 0.000000 0.829649
O O11 0.560719 0.959542 0.000000
O O12 0.870824 0.321726 0.144577
O O13 0.822933 0.518588 0.180546
O O14 0.803139 0.340085 0.303950
O O15 0.952496 0.182403 0.810099
O O16 0.907951 0.178641 0.000000
O O17 0.271351 0.954076 0.500000
O O18 0.282869 0.782051 0.638264
O O19 0.730574 0.850699 0.000000
#
# Coordination Sequence:
#
# PCOD8235645 Si02
#       8
#     8   8   8   8   8   8   8   8
#     4  10  20  33  51  80 107 135 173 216 262 317
#     4  10  18  32  54  77 104 133 170 219 265 305
#     4  10  20  34  54  78 105 137 172 214 265 312
#     4  10  20  35  55  78 105 139 177 218 256 312
#     4  10  19  34  54  77 104 138 173 216 261 307
#     4  10  20  35  54  77 106 141 177 214 259 311
#     4   9  19  33  51  77 103 135 172 215 258 316
#     4  10  20  35  54  76 106 141 174 212 259 314
#
# _framework density 17.859164
#
# number of rings (size 3 to 8) (size 9 to 14) (size 15 to 20)
#    0.000    2.125    1.250    3.000    0.000    1.000 
#    0.000    5.625    0.000   10.875    0.000    0.000 
#    0.000    0.000    0.000    0.000    0.000    0.000 
#
# Total GULP energy -793667.933780 kJ/mol
# GULP energy per Si atom -12401.061465 kJ/mol
# Density = 1.781852 g / cm^3
# Si number density = 17.859164 Si / 1000 Ang^3
#
#
#
# Elastic Constant Matrix: (Units=GPa)
#
#
# Indices 1 2 3 4 5 6 
#
# 1 77.9951 25.3338 44.0076 0.0000 0.0000 0.0000
# 2 25.3338 63.3566 35.4784 0.0000 0.0000 0.0000
# 3 44.0076 35.4784 115.0613 0.0000 0.0000 0.0000
# 4 0.0000 0.0000 0.0000 19.7637 0.0000 0.0000
# 5 0.0000 0.0000 0.0000 0.0000 21.5308 0.0000
# 6 0.0000 0.0000 0.0000 0.0000 0.0000 24.3761
#
#
#
# Elastic Compliance Matrix: (Units=1/GPa)
#
#
# Indices 1 2 3 4 5 6 
#
# 1 0.017087 -0.003835 -0.005353 0.000000 0.000000 0.000000
# 2 -0.003835 0.019938 -0.004681 0.000000 0.000000 0.000000
# 3 -0.005353 -0.004681 0.012182 0.000000 0.000000 0.000000
# 4 0.000000 0.000000 0.000000 0.050598 0.000000 0.000000
# 5 0.000000 0.000000 0.000000 0.000000 0.046445 0.000000
# 6 0.000000 0.000000 0.000000 0.000000 0.000000 0.041024
#
#
# Mechanical properties :
#
#
# Convention : Reuss Voigt Hill
#
# Bulk Modulus (GPa) = 46.57782 51.78362 49.18072
# Shear Modulus (GPa) = 22.50544 23.24035 22.87289
#
# Velocity S-wave (km/s) = 3.55373 3.61128 3.58262
# Velocity P-wave (km/s) = 6.55560 6.81520 6.68666
#
# Compressibility (1/GPa) = 0.02146945
#
# Stress axis : x y z
#
# Youngs Moduli (GPa) = 58.52315 50.15427 82.09016
#
# Poissons Ratio (x) = 0.19234 0.43942
# Poissons Ratio (y) = 0.22444 0.38427
# Poissons Ratio (z) = 0.31327 0.23478
#
# Static dielectric constant tensor:
#      x y z
#    x 3.319630 0.000000 0.000000 
#    y 0.000000 3.303720 0.000000 
#    z 0.000000 0.000000 3.281160 
# 
# 
# High freq. dielectric constant tensor:
#      x y z
#    x 1.689190 0.000000 0.000000 
#    y 0.000000 1.689500 0.000000 
#    z 0.000000 0.000000 1.691300 
# 
# From -- ./inp_files/17549.got.cif
#   From: 2010.06.25/outbox.cif.g09.slc.cpg/sg58_9_cif.got.tgz:17549.got - 2010.06.26 21:38:00.
