data_PCOD8235227
_publ_section_title
;
Structure prediction by ZEFSAII (Michael W. Deem and Ramdas Pophale) SiO2 
 PCOD8235227
Probable space group: P N N M
;
_chemical_formula_sum "Si O2"
_cell_formula_units_Z 56
_cell_length_a 17.671170
_cell_length_b 21.909607
_cell_length_c 9.026573
_cell_angle_alpha 90.000000
_cell_angle_beta 90.000000
_cell_angle_gamma 90.000000
_cell_volume 3494.803735
_symmetry_space_group_name_H-M "P N N M"
_symmetry_group_IT_number 58
_symmetry_cell_setting 'orthorhombic'
loop_
_space_group_symop_operation_xyz
x,y,z
-x,-y,z
1/2+x,1/2-y,1/2-z
1/2-x,1/2+y,1/2-z
-x,-y,-z
x,y,-z
1/2-x,1/2+y,1/2+z
1/2+x,1/2-y,1/2+z
loop_
_atom_site_type_symbol
_atom_site_label
_atom_site_fract_x
_atom_site_fract_y
_atom_site_fract_z
Si Si1 0.869975 0.150057 0.173582
Si Si2 0.513106 0.569965 0.172713
Si Si3 0.792142 0.683169 0.670048
Si Si4 0.417581 0.225633 0.830039
Si Si5 0.564477 0.208154 0.330640
Si Si6 0.254780 0.200168 0.167448
Si Si7 0.896315 0.849743 0.166376
O O1 0.780065 0.139254 0.202377
O O2 0.902412 0.209296 0.255203
O O3 0.913656 0.091451 0.235851
O O4 0.886693 0.158469 0.000000
O O5 0.500000 0.500000 0.213222
O O6 0.438346 0.607575 0.217378
O O7 0.528461 0.579754 0.000000
O O8 0.816623 0.680576 0.500000
O O9 0.866357 0.667240 0.766426
O O10 0.762711 0.750416 0.707954
O O11 0.487038 0.190956 0.752884
O O12 0.343125 0.181859 0.815855
O O13 0.438507 0.238032 0.000000
O O14 0.554140 0.190320 0.500000
O O15 0.581790 0.279401 0.305837
O O16 0.195292 0.144306 0.188951
O O17 0.241441 0.227342 0.000000
O O18 0.919667 0.869338 0.000000
#
# Coordination Sequence:
#
# PCOD8235227 Si02
#       7
#     8   8   8   8   8   8   8
#     4  10  19  31  45  61  83 113 147 184 222 261
#     4  11  23  34  45  63  85 113 152 192 226 261
#     4   9  17  27  41  61  83 110 145 177 212 259
#     4  10  17  26  43  64  88 117 145 175 213 256
#     4  10  18  27  41  63  90 117 146 176 210 256
#     4   8  16  28  41  60  84 111 142 175 213 258
#     4   9  17  30  45  59  82 113 145 182 219 256
#
# _framework density 16.023789000000001
#
# number of rings (size 3 to 8) (size 9 to 14) (size 15 to 20)
#    0.000    2.429    1.429    3.000    0.000    5.714 
#    0.000    0.000    0.000    0.000    0.000    0.000 
#    0.000    1.143    0.000   12.857    0.000    6.429 
#
# Total GULP energy -694002.792688 kJ/mol
# GULP energy per Si atom -12392.907012 kJ/mol
# Density = 1.598732 g / cm^3
# Si number density = 16.023789 Si / 1000 Ang^3
#
#
#
# Elastic Constant Matrix: (Units=GPa)
#
#
# Indices 1 2 3 4 5 6 
#
# 1 134.6006 23.4298 51.2426 0.0000 0.0000 0.0000
# 2 23.4298 30.8735 19.3197 0.0000 0.0000 0.0000
# 3 51.2426 19.3197 89.7472 0.0000 0.0000 0.0000
# 4 0.0000 0.0000 0.0000 15.1138 0.0000 0.0000
# 5 0.0000 0.0000 0.0000 0.0000 29.5362 0.0000
# 6 0.0000 0.0000 0.0000 0.0000 0.0000 11.6287
#
#
#
# Elastic Compliance Matrix: (Units=1/GPa)
#
#
# Indices 1 2 3 4 5 6 
#
# 1 0.010041 -0.004660 -0.004730 0.000000 0.000000 0.000000
# 2 -0.004660 0.039596 -0.005863 0.000000 0.000000 0.000000
# 3 -0.004730 -0.005863 0.015105 0.000000 0.000000 0.000000
# 4 0.000000 0.000000 0.000000 0.066165 0.000000 0.000000
# 5 0.000000 0.000000 0.000000 0.000000 0.033857 0.000000
# 6 0.000000 0.000000 0.000000 0.000000 0.000000 0.085994
#
#
# Mechanical properties :
#
#
# Convention : Reuss Voigt Hill
#
# Bulk Modulus (GPa) = 29.20914 49.24505 39.22710
# Shear Modulus (GPa) = 17.08370 22.00434 19.54402
#
# Velocity S-wave (km/s) = 3.26873 3.70973 3.49619
# Velocity P-wave (km/s) = 5.70213 7.01061 6.38995
#
# Compressibility (1/GPa) = 0.03423586
#
# Stress axis : x y z
#
# Youngs Moduli (GPa) = 99.58808 25.25523 66.20253
#
# Poissons Ratio (x) = 0.11770 0.31314
# Poissons Ratio (y) = 0.46413 0.38813
# Poissons Ratio (z) = 0.47106 0.14806
#
# Static dielectric constant tensor:
#      x y z
#    x 3.609320 0.000000 0.000000 
#    y 0.000000 2.455440 0.000000 
#    z 0.000000 0.000000 3.158770 
# 
# 
# High freq. dielectric constant tensor:
#      x y z
#    x 1.640210 0.000000 0.000000 
#    y 0.000000 1.527630 0.000000 
#    z 0.000000 0.000000 1.633530 
# 
# From -- ./inp_files/8141.got.cif
#   From: 2010.06.25/outbox.cif.g09.slc.cpg/sg58_5_cif.got.tgz:8141.got - 2010.06.26 21:38:00.
