data_PCOD8235945
_publ_section_title
;
Structure prediction by ZEFSAII (Michael W. Deem and Ramdas Pophale) SiO2 
 PCOD8235945
Probable space group: P N N M
;
_chemical_formula_sum "Si O2"
_cell_formula_units_Z 52
_cell_length_a 14.201398
_cell_length_b 12.260578
_cell_length_c 18.417164
_cell_angle_alpha 90.000000
_cell_angle_beta 90.000000
_cell_angle_gamma 90.000000
_cell_volume 3206.747751
_symmetry_space_group_name_H-M "P N N M"
_symmetry_group_IT_number 58
_symmetry_cell_setting 'orthorhombic'
loop_
_space_group_symop_operation_xyz
x,y,z
-x,-y,z
1/2+x,1/2-y,1/2-z
1/2-x,1/2+y,1/2-z
-x,-y,-z
x,y,-z
1/2-x,1/2+y,1/2+z
1/2+x,1/2-y,1/2+z
loop_
_atom_site_type_symbol
_atom_site_label
_atom_site_fract_x
_atom_site_fract_y
_atom_site_fract_z
Si Si1 0.742017 0.370641 0.343043
Si Si2 0.300821 0.126176 0.000000
Si Si3 0.394978 0.250498 0.756580
Si Si4 0.000000 0.876293 0.363298
Si Si5 0.000000 0.276306 0.500000
Si Si6 0.242017 0.870641 0.843043
Si Si7 0.105023 0.249502 0.743420
Si Si8 0.699179 0.126176 0.000000
O O1 0.756226 0.326746 0.425560
O O2 0.832259 0.345104 0.292056
O O3 0.723672 0.500000 0.340330
O O4 0.652537 0.302905 0.314349
O O5 0.280632 0.000000 0.000000
O O6 0.411633 0.144663 0.000000
O O7 0.406965 0.348286 0.815626
O O8 0.347463 0.302905 0.685652
O O9 0.500000 0.204054 0.736938
O O10 0.000000 0.800486 0.431824
O O11 0.906965 0.848286 0.315626
O O12 0.000000 0.000000 0.388834
O O13 0.088367 0.355337 0.500000
O O14 0.332259 0.845104 0.792056
O O15 0.256226 0.826747 0.925560
#
# Coordination Sequence:
#
# PCOD8235945 Si02
#       8
#     8   4   8   8   4   8   8   4
#     4  10  19  32  52  75 100 129 164 202 247 294
#     4  10  19  31  48  72 102 128 157 203 250 297
#     4   9  19  34  50  72 100 129 164 203 245 289
#     4  10  19  31  49  69  97 130 161 200 243 294
#     4  12  18  32  44  76  98 134 158 198 250 306
#     4  10  19  32  52  75 100 129 164 202 247 294
#     4   9  19  34  50  72 100 129 164 203 245 289
#     4  10  19  31  48  72 102 128 157 203 250 297
#
# _framework density 16.215807000000002
#
# number of rings (size 3 to 8) (size 9 to 14) (size 15 to 20)
#    0.923    1.231    3.077    1.385    0.000    0.615 
#    0.000    0.769    0.000    2.769    0.000    0.000 
#    0.000    5.538    0.000    0.000    0.000    0.000 
#
# Total GULP energy -644255.956906 kJ/mol
# GULP energy per Si atom -12389.537633 kJ/mol
# Density = 1.617890 g / cm^3
# Si number density = 16.215807 Si / 1000 Ang^3
#
#
#
# Elastic Constant Matrix: (Units=GPa)
#
#
# Indices 1 2 3 4 5 6 
#
# 1 86.1948 5.7625 47.6369 0.0000 0.0000 0.0000
# 2 5.7625 29.1630 18.6595 0.0000 0.0000 0.0000
# 3 47.6369 18.6595 125.5489 0.0000 0.0000 0.0000
# 4 0.0000 0.0000 0.0000 28.3140 0.0000 0.0000
# 5 0.0000 0.0000 0.0000 0.0000 27.7663 0.0000
# 6 0.0000 0.0000 0.0000 0.0000 0.0000 18.7138
#
#
#
# Elastic Compliance Matrix: (Units=1/GPa)
#
#
# Indices 1 2 3 4 5 6 
#
# 1 0.014694 0.000734 -0.005684 0.000000 0.000000 0.000000
# 2 0.000734 0.037930 -0.005916 0.000000 0.000000 0.000000
# 3 -0.005684 -0.005916 0.011001 0.000000 0.000000 0.000000
# 4 0.000000 0.000000 0.000000 0.035318 0.000000 0.000000
# 5 0.000000 0.000000 0.000000 0.000000 0.036015 0.000000
# 6 0.000000 0.000000 0.000000 0.000000 0.000000 0.053436
#
#
# Mechanical properties :
#
#
# Convention : Reuss Voigt Hill
#
# Bulk Modulus (GPa) = 23.87070 42.78050 33.32560
# Shear Modulus (GPa) = 22.31227 26.21534 24.26381
#
# Velocity S-wave (km/s) = 3.71342 4.02513 3.87241
# Velocity P-wave (km/s) = 5.75661 6.93119 6.37103
#
# Compressibility (1/GPa) = 0.04189237
#
# Stress axis : x y z
#
# Youngs Moduli (GPa) = 68.05421 26.36428 90.90031
#
# Poissons Ratio (x) = -0.01934 0.51672
# Poissons Ratio (y) = -0.04992 0.53773
# Poissons Ratio (z) = 0.38685 0.15596
#
# Static dielectric constant tensor:
#      x y z
#    x 3.062080 0.000000 0.000000 
#    y 0.000000 2.792920 0.000000 
#    z 0.000000 0.000000 3.575710 
# 
# 
# High freq. dielectric constant tensor:
#      x y z
#    x 1.614530 0.000000 0.000000 
#    y 0.000000 1.604570 0.000000 
#    z 0.000000 0.000000 1.629760 
# 
# From -- ./inp_files/26952.got.cif
#   From: 2010.06.25/outbox.cif.g09.slc.cpg/sg58_14_cif.got.tgz:26952.got - 2010.06.26 21:38:00.
