data_PCOD8235523
_publ_section_title
;
Structure prediction by ZEFSAII (Michael W. Deem and Ramdas Pophale) SiO2 
 PCOD8235523
Probable space group: P N N M
;
_chemical_formula_sum "Si O2"
_cell_formula_units_Z 60
_cell_length_a 25.440278
_cell_length_b 5.279819
_cell_length_c 27.964884
_cell_angle_alpha 90.000000
_cell_angle_beta 90.000000
_cell_angle_gamma 90.000000
_cell_volume 3756.244985
_symmetry_space_group_name_H-M "P N N M"
_symmetry_group_IT_number 58
_symmetry_cell_setting 'orthorhombic'
loop_
_space_group_symop_operation_xyz
x,y,z
-x,-y,z
1/2+x,1/2-y,1/2-z
1/2-x,1/2+y,1/2-z
-x,-y,-z
x,y,-z
1/2-x,1/2+y,1/2+z
1/2+x,1/2-y,1/2+z
loop_
_atom_site_type_symbol
_atom_site_label
_atom_site_fract_x
_atom_site_fract_y
_atom_site_fract_z
Si Si1 0.800397 0.808377 0.792493
Si Si2 0.128278 0.410878 0.446142
Si Si3 0.743649 0.212292 0.946659
Si Si4 0.353649 0.273626 0.142223
Si Si5 0.059855 0.993909 0.410933
Si Si6 0.465244 0.243213 0.000000
Si Si7 0.758651 0.694563 0.890592
Si Si8 0.818580 0.313105 0.742879
O O1 0.800595 0.771862 0.849880
O O2 0.831824 0.568985 0.771391
O O3 0.741522 0.818282 0.773122
O O4 0.829434 0.067662 0.776385
O O5 0.121439 0.541835 0.500000
O O6 0.180786 0.234968 0.448581
O O7 0.137279 0.568698 0.398404
O O8 0.075700 0.244826 0.439779
O O9 0.774273 0.438691 0.918984
O O10 0.753823 0.935084 0.924923
O O11 0.766996 0.209412 0.000000
O O12 0.401115 0.473052 0.134380
O O13 0.295882 0.389436 0.134899
O O14 0.357065 0.179619 0.196829
O O15 0.067330 0.758789 0.449374
O O16 0.000000 0.000000 0.392294
O O17 0.500000 0.500000 0.000000
O O18 0.500000 0.000000 0.000000
#
# Coordination Sequence:
#
# PCOD8235523 Si02
#       8
#     8   8   8   8   8   4   8   8
#     4   9  17  29  47  65  83 103 130 164 210 262
#     4  10  21  33  45  62  80 109 143 181 224 273
#     4  10  19  30  44  64  91 116 144 170 210 253
#     4  10  22  30  47  59  84 105 135 177 225 273
#     4  11  23  33  46  60  79 107 140 182 228 269
#     4  10  24  38  48  60  76 102 140 184 226 268
#     4  10  18  31  46  65  86 111 139 173 210 255
#     4   9  18  30  45  65  83 102 127 165 217 268
#
# _framework density 15.973399000000001
#
# number of rings (size 3 to 8) (size 9 to 14) (size 15 to 20)
#    0.000    2.133    2.000    1.200    6.533    3.733 
#    0.000    0.000    0.000    0.000    0.000    0.000 
#    0.000    0.000    0.000    0.000    0.000    0.000 
#
# Total GULP energy -743386.011244 kJ/mol
# GULP energy per Si atom -12389.766854 kJ/mol
# Density = 1.593704 g / cm^3
# Si number density = 15.973399 Si / 1000 Ang^3
#
#
#
# Elastic Constant Matrix: (Units=GPa)
#
#
# Indices 1 2 3 4 5 6 
#
# 1 26.2825 12.8040 32.1981 0.0000 0.0000 0.0000
# 2 12.8040 87.6622 35.4748 0.0000 0.0000 0.0000
# 3 32.1981 35.4748 104.7749 0.0000 0.0000 0.0000
# 4 0.0000 0.0000 0.0000 26.9477 0.0000 0.0000
# 5 0.0000 0.0000 0.0000 0.0000 22.7909 0.0000
# 6 0.0000 0.0000 0.0000 0.0000 0.0000 13.7937
#
#
#
# Elastic Compliance Matrix: (Units=1/GPa)
#
#
# Indices 1 2 3 4 5 6 
#
# 1 0.061200 -0.001539 -0.018286 0.000000 0.000000 0.000000
# 2 -0.001539 0.013257 -0.004016 0.000000 0.000000 0.000000
# 3 -0.018286 -0.004016 0.016523 0.000000 0.000000 0.000000
# 4 0.000000 0.000000 0.000000 0.037109 0.000000 0.000000
# 5 0.000000 0.000000 0.000000 0.000000 0.043877 0.000000
# 6 0.000000 0.000000 0.000000 0.000000 0.000000 0.072497
#
#
# Mechanical properties :
#
#
# Convention : Reuss Voigt Hill
#
# Bulk Modulus (GPa) = 23.09532 42.18595 32.64064
# Shear Modulus (GPa) = 16.30907 21.92262 19.11585
#
# Velocity S-wave (km/s) = 3.19880 3.70867 3.46313
# Velocity P-wave (km/s) = 5.30406 6.69376 6.03902
#
# Compressibility (1/GPa) = 0.04329882
#
# Stress axis : x y z
#
# Youngs Moduli (GPa) = 16.33997 75.43029 60.52036
#
# Poissons Ratio (x) = 0.11608 1.10668
# Poissons Ratio (y) = 0.02515 0.24303
# Poissons Ratio (z) = 0.29879 0.30291
#
# Static dielectric constant tensor:
#      x y z
#    x 2.719050 0.000000 0.000000 
#    y 0.000000 3.171980 0.000000 
#    z 0.000000 0.000000 3.254360 
# 
# 
# High freq. dielectric constant tensor:
#      x y z
#    x 1.538010 0.000000 0.000000 
#    y 0.000000 1.632050 0.000000 
#    z 0.000000 0.000000 1.612730 
# 
# From -- ./inp_files/32510.got.cif
#   From: 2010.06.25/outbox.cif.g09.slc.cpg/sg58_17_cif.got.tgz:32510.got - 2010.06.26 21:38:00.
