data_PCOD8235310
_publ_section_title
;
Structure prediction by ZEFSAII (Michael W. Deem and Ramdas Pophale) SiO2 
 PCOD8235310
Probable space group: P N N M
;
_chemical_formula_sum "Si O2"
_cell_formula_units_Z 64
_cell_length_a 15.588677
_cell_length_b 12.673057
_cell_length_c 16.949015
_cell_angle_alpha 90.000000
_cell_angle_beta 90.000000
_cell_angle_gamma 90.000000
_cell_volume 3348.382865
_symmetry_space_group_name_H-M "P N N M"
_symmetry_group_IT_number 58
_symmetry_cell_setting 'orthorhombic'
loop_
_space_group_symop_operation_xyz
x,y,z
-x,-y,z
1/2+x,1/2-y,1/2-z
1/2-x,1/2+y,1/2-z
-x,-y,-z
x,y,-z
1/2-x,1/2+y,1/2+z
1/2+x,1/2-y,1/2+z
loop_
_atom_site_type_symbol
_atom_site_label
_atom_site_fract_x
_atom_site_fract_y
_atom_site_fract_z
Si Si1 0.749939 0.458658 0.411630
Si Si2 0.416182 0.051632 0.197323
Si Si3 0.971409 0.880380 0.411059
Si Si4 0.692265 0.073763 0.695593
Si Si5 0.850439 0.797642 0.821502
Si Si6 0.466262 0.280891 0.754636
Si Si7 0.715678 0.367953 0.156110
Si Si8 0.196041 0.840236 0.163420
O O1 0.780173 0.439728 0.500000
O O2 0.836129 0.439776 0.361186
O O3 0.674066 0.375911 0.391700
O O4 0.705926 0.573835 0.405623
O O5 0.437557 0.161670 0.237649
O O6 0.500000 0.000000 0.154763
O O7 0.395105 0.977334 0.272113
O O8 0.989709 0.836876 0.500000
O O9 0.870855 0.865338 0.394106
O O10 0.026379 0.820055 0.345160
O O11 0.000000 0.000000 0.405446
O O12 0.672631 0.179845 0.646177
O O13 0.738817 0.118982 0.771669
O O14 0.744919 0.985684 0.646451
O O15 0.795461 0.842244 0.748188
O O16 0.948634 0.799296 0.795555
O O17 0.396653 0.344528 0.704212
O O18 0.779502 0.274730 0.126766
#
# Coordination Sequence:
#
# PCOD8235310 Si02
#       8
#     8   8   8   8   8   8   8   8
#     4  11  25  42  58  85 127 164 198 238 301 371
#     4  11  20  37  60  94 121 145 195 249 306 351
#     4  10  23  37  53  86 125 159 194 241 309 370
#     4  10  17  34  58  85 114 147 199 252 285 345
#     4  10  20  35  59  86 113 158 204 247 290 344
#     4  11  21  35  62  90 118 151 199 256 294 349
#     4  10  18  35  59  80 117 160 200 244 284 357
#     4  10  20  35  57  85 114 161 208 239 292 346
#
# _framework density 19.113703999999998
#
# number of rings (size 3 to 8) (size 9 to 14) (size 15 to 20)
#    0.000    1.625    5.000    1.500    3.500    1.250 
#    0.000    3.125    0.000    0.000    0.000    0.875 
#    0.000    0.000    0.000    0.000    0.000    0.000 
#
# Total GULP energy -793043.616062 kJ/mol
# GULP energy per Si atom -12391.306501 kJ/mol
# Density = 1.907020 g / cm^3
# Si number density = 19.113704 Si / 1000 Ang^3
#
#
#
# Elastic Constant Matrix: (Units=GPa)
#
#
# Indices 1 2 3 4 5 6 
#
# 1 99.1775 37.5022 36.0035 0.0000 0.0000 0.0000
# 2 37.5022 110.6543 19.9987 0.0000 0.0000 0.0000
# 3 36.0035 19.9987 47.2363 0.0000 0.0000 0.0000
# 4 0.0000 0.0000 0.0000 -0.3233 0.0000 0.0000
# 5 0.0000 0.0000 0.0000 0.0000 -7.8875 0.0000
# 6 0.0000 0.0000 0.0000 0.0000 0.0000 38.5683
#
#
#
# Elastic Compliance Matrix: (Units=1/GPa)
#
#
# Indices 1 2 3 4 5 6 
#
# 1 0.014951 -0.003257 -0.010017 0.000000 0.000000 0.000000
# 2 -0.003257 0.010495 -0.001961 0.000000 0.000000 0.000000
# 3 -0.010017 -0.001961 0.029635 0.000000 0.000000 0.000000
# 4 0.000000 0.000000 0.000000 -3.092692 0.000000 0.000000
# 5 0.000000 0.000000 0.000000 0.000000 -0.126782 0.000000
# 6 0.000000 0.000000 0.000000 0.000000 0.000000 0.025928
#
#
# Mechanical properties :
#
#
# Convention : Reuss Voigt Hill
#
# Bulk Modulus (GPa) = 40.63036 49.34187 44.98611
# Shear Modulus (GPa) = -1.61301 16.97574 7.68137
#
# Velocity S-wave (km/s) = -0.91964 2.98341 2.00686
# Velocity P-wave (km/s) = 4.49174 6.14318 5.38118
#
# Compressibility (1/GPa) = 0.02461214
#
# Stress axis : x y z
#
# Youngs Moduli (GPa) = 66.88700 95.28047 33.74374
#
# Poissons Ratio (x) = 0.31029 0.33800
# Poissons Ratio (y) = 0.21783 0.06618
# Poissons Ratio (z) = 0.66998 0.18687
#
# Static dielectric constant tensor:
#      x y z
#    x 3.919100 0.000000 0.000000 
#    y 0.000000 4.206480 0.000000 
#    z 0.000000 0.000000 3.179630 
# 
# 
# High freq. dielectric constant tensor:
#      x y z
#    x 1.747770 0.000000 0.000000 
#    y 0.000000 1.765520 0.000000 
#    z 0.000000 0.000000 1.693170 
# 
# From -- ./inp_files/26345.got.cif
#   From: 2010.06.25/outbox.cif.g09.slc.cpg/sg58_14_cif.got.tgz:26345.got - 2010.06.26 21:38:00.
