data_PCOD8235081
_publ_section_title
;
Structure prediction by ZEFSAII (Michael W. Deem and Ramdas Pophale) SiO2 
 PCOD8235081
Probable space group: P B C M
;
_chemical_formula_sum "Si O2"
_cell_formula_units_Z 64
_cell_length_a 11.663483
_cell_length_b 8.508022
_cell_length_c 29.617353
_cell_angle_alpha 90.000000
_cell_angle_beta 90.000000
_cell_angle_gamma 90.000000
_cell_volume 2939.023824
_symmetry_space_group_name_H-M "P B C M"
_symmetry_group_IT_number 57
_symmetry_cell_setting 'orthorhombic'
loop_
_space_group_symop_operation_xyz
x,y,z
-x,-y,1/2+z
x,1/2-y,-z
-x,1/2+y,1/2-z
-x,-y,-z
x,y,1/2-z
-x,1/2+y,z
x,1/2-y,1/2+z
loop_
_atom_site_type_symbol
_atom_site_label
_atom_site_fract_x
_atom_site_fract_y
_atom_site_fract_z
Si Si1 0.704527 0.941057 0.300774
Si Si2 0.688770 0.669790 0.045529
Si Si3 0.536409 0.144618 0.410133
Si Si4 0.918668 0.092052 0.625755
Si Si5 0.247360 0.698373 0.696907
Si Si6 0.156379 0.262416 0.125664
Si Si7 0.752689 0.309294 0.450835
Si Si8 0.524390 0.107048 0.655740
O O1 0.741354 0.903243 0.250000
O O2 0.770629 0.815319 0.331207
O O3 0.567567 0.920913 0.305231
O O4 0.730467 0.119715 0.313653
O O5 0.554203 0.701688 0.052556
O O6 0.759529 0.762074 0.083308
O O7 0.702247 0.482915 0.044457
O O8 0.730703 0.750000 0.000000
O O9 0.661988 0.183340 0.430099
O O10 0.519170 0.212304 0.359498
O O11 0.506409 0.967357 0.394027
O O12 0.873175 0.162442 0.672962
O O13 0.858997 0.178675 0.583290
O O14 0.053909 0.113891 0.619519
O O15 0.898022 0.908013 0.630021
O O16 0.238752 0.663563 0.750000
O O17 0.346009 0.583823 0.675123
O O18 0.794155 0.250000 0.500000
#
# Coordination Sequence:
#
# PCOD8235081 Si02
#       8
#     8   8   8   8   8   8   8   8
#     4  11  24  41  65  97 129 169 214 261 320 385
#     4  11  25  41  63  98 131 169 217 267 326 388
#     4  12  22  39  66  93 134 174 212 257 320 378
#     4  11  24  46  67  93 123 167 215 269 327 383
#     4  11  24  42  65  96 132 169 214 265 321 386
#     4  11  25  45  69  92 126 166 217 269 326 387
#     4  11  25  42  64  95 131 171 217 267 324 388
#     4  12  21  40  65  94 132 172 209 257 316 380
#
# _framework density 21.775935
#
# number of rings (size 3 to 8) (size 9 to 14) (size 15 to 20)
#    0.000    0.750    5.000    2.250    1.750    4.500 
#    0.000    2.500    0.000    0.000    0.000    0.000 
#    0.000    0.000    0.000    0.000    0.000    0.000 
#
# Total GULP energy -793259.839063 kJ/mol
# GULP energy per Si atom -12394.684985 kJ/mol
# Density = 2.172637 g / cm^3
# Si number density = 21.775935 Si / 1000 Ang^3
#
#
#
# Elastic Constant Matrix: (Units=GPa)
#
#
# Indices 1 2 3 4 5 6 
#
# 1 93.3879 25.0691 33.6571 0.0000 0.0000 0.0000
# 2 25.0691 49.6564 49.4137 0.0000 0.0000 0.0000
# 3 33.6571 49.4137 126.3864 0.0000 0.0000 0.0000
# 4 0.0000 0.0000 0.0000 37.2080 0.0000 0.0000
# 5 0.0000 0.0000 0.0000 0.0000 10.0345 0.0000
# 6 0.0000 0.0000 0.0000 0.0000 0.0000 31.2997
#
#
#
# Elastic Compliance Matrix: (Units=1/GPa)
#
#
# Indices 1 2 3 4 5 6 
#
# 1 0.012539 -0.004923 -0.001415 0.000000 0.000000 0.000000
# 2 -0.004923 0.034896 -0.012332 0.000000 0.000000 0.000000
# 3 -0.001415 -0.012332 0.013111 0.000000 0.000000 0.000000
# 4 0.000000 0.000000 0.000000 0.026876 0.000000 0.000000
# 5 0.000000 0.000000 0.000000 0.000000 0.099656 0.000000
# 6 0.000000 0.000000 0.000000 0.000000 0.000000 0.031949
#
#
# Mechanical properties :
#
#
# Convention : Reuss Voigt Hill
#
# Bulk Modulus (GPa) = 43.09201 53.96781 48.52991
# Shear Modulus (GPa) = 18.93212 26.46116 22.69664
#
# Velocity S-wave (km/s) = 2.95177 3.48969 3.23194
# Velocity P-wave (km/s) = 5.60794 6.40892 6.02177
#
# Compressibility (1/GPa) = 0.02320616
#
# Stress axis : x y z
#
# Youngs Moduli (GPa) = 79.74907 28.65679 76.27444
#
# Poissons Ratio (x) = 0.14107 0.10789
# Poissons Ratio (y) = 0.39259 0.94064
# Poissons Ratio (z) = 0.11281 0.35340
#
# Static dielectric constant tensor:
#      x y z
#    x 3.856140 0.000000 0.000000 
#    y 0.000000 3.953980 0.000000 
#    z 0.000000 0.000000 3.997010 
# 
# 
# High freq. dielectric constant tensor:
#      x y z
#    x 1.846840 0.000000 0.000000 
#    y 0.000000 1.868930 0.000000 
#    z 0.000000 0.000000 1.858790 
# 
# From -- ./inp_files/29763.got.cif
#   From: 2010.03.12/outbox.cif.g09.slc.cpg/sg57_15_cif.got.tgz:29763.got - 2010.04.16 15:48:40.
