data_PCOD8235849
_publ_section_title
;
Structure prediction by ZEFSAII (Michael W. Deem and Ramdas Pophale) SiO2 
 PCOD8235849
Probable space group: P N N M
;
_chemical_formula_sum "Si O2"
_cell_formula_units_Z 56
_cell_length_a 18.289534
_cell_length_b 20.295724
_cell_length_c 9.306585
_cell_angle_alpha 90.000000
_cell_angle_beta 90.000000
_cell_angle_gamma 90.000000
_cell_volume 3454.598155
_symmetry_space_group_name_H-M "P N N M"
_symmetry_group_IT_number 58
_symmetry_cell_setting 'orthorhombic'
loop_
_space_group_symop_operation_xyz
x,y,z
-x,-y,z
1/2+x,1/2-y,1/2-z
1/2-x,1/2+y,1/2-z
-x,-y,-z
x,y,-z
1/2-x,1/2+y,1/2+z
1/2+x,1/2-y,1/2+z
loop_
_atom_site_type_symbol
_atom_site_label
_atom_site_fract_x
_atom_site_fract_y
_atom_site_fract_z
Si Si1 0.345351 0.873151 0.164592
Si Si2 0.722253 0.682258 0.160577
Si Si3 0.085407 0.491242 0.832050
Si Si4 0.918280 0.252622 0.671052
Si Si5 0.078974 0.232417 0.337005
Si Si6 0.700089 0.322430 0.341950
Si Si7 0.153108 0.613001 0.329602
O O1 0.263798 0.866824 0.231034
O O2 0.391908 0.923781 0.256938
O O3 0.387196 0.804533 0.175315
O O4 0.338381 0.896950 0.000000
O O5 0.640079 0.696569 0.218813
O O6 0.763198 0.751352 0.153993
O O7 0.720696 0.651188 0.000000
O O8 0.129384 0.549971 0.759050
O O9 0.000000 0.500000 0.805339
O O10 0.104767 0.488336 0.000000
O O11 0.919546 0.256360 0.500000
O O12 0.894793 0.325018 0.726085
O O13 0.997947 0.233922 0.733253
O O14 0.073584 0.208913 0.500000
O O15 0.129258 0.177957 0.259779
O O16 0.671985 0.341504 0.500000
O O17 0.761466 0.374586 0.291676
O O18 0.142535 0.601489 0.500000
#
# Coordination Sequence:
#
# PCOD8235849 Si02
#       7
#     8   8   8   8   8   8   8
#     4  10  19  30  45  64  88 119 152 182 212 253
#     4   8  14  27  45  62  85 115 145 179 217 257
#     4  11  23  34  44  63  90 118 149 183 217 253
#     4   8  14  26  45  67  89 116 147 178 217 261
#     4   9  16  26  43  67  91 115 146 181 215 256
#     4   8  15  27  43  63  86 114 145 177 218 261
#     4   9  17  31  48  63  85 119 154 182 211 255
#
# _framework density 16.210279
#
# number of rings (size 3 to 8) (size 9 to 14) (size 15 to 20)
#    0.000    3.000    0.000    3.429    0.000    3.429 
#    0.000    3.571    0.000    0.000    0.000    1.000 
#    0.000    8.000    0.000    0.000    0.000    0.000 
#
# Total GULP energy -694094.722036 kJ/mol
# GULP energy per Si atom -12394.548608 kJ/mol
# Density = 1.617338 g / cm^3
# Si number density = 16.210279 Si / 1000 Ang^3
#
#
#
# Elastic Constant Matrix: (Units=GPa)
#
#
# Indices 1 2 3 4 5 6 
#
# 1 106.9284 20.0502 43.8584 0.0000 0.0000 0.0000
# 2 20.0502 33.4809 28.2553 0.0000 0.0000 0.0000
# 3 43.8584 28.2553 75.0769 0.0000 0.0000 0.0000
# 4 0.0000 0.0000 0.0000 22.5321 0.0000 0.0000
# 5 0.0000 0.0000 0.0000 0.0000 23.9739 0.0000
# 6 0.0000 0.0000 0.0000 0.0000 0.0000 25.2580
#
#
#
# Elastic Compliance Matrix: (Units=1/GPa)
#
#
# Indices 1 2 3 4 5 6 
#
# 1 0.012383 -0.001921 -0.006511 0.000000 0.000000 0.000000
# 2 -0.001921 0.044067 -0.015463 0.000000 0.000000 0.000000
# 3 -0.006511 -0.015463 0.022943 0.000000 0.000000 0.000000
# 4 0.000000 0.000000 0.000000 0.044381 0.000000 0.000000
# 5 0.000000 0.000000 0.000000 0.000000 0.041712 0.000000
# 6 0.000000 0.000000 0.000000 0.000000 0.000000 0.039591
#
#
# Mechanical properties :
#
#
# Convention : Reuss Voigt Hill
#
# Bulk Modulus (GPa) = 31.64158 44.42378 38.03268
# Shear Modulus (GPa) = 18.98248 22.57428 20.77838
#
# Velocity S-wave (km/s) = 3.42572 3.73579 3.58411
# Velocity P-wave (km/s) = 5.93374 6.78766 6.37501
#
# Compressibility (1/GPa) = 0.03160398
#
# Stress axis : x y z
#
# Youngs Moduli (GPa) = 80.75740 22.69250 43.58706
#
# Poissons Ratio (x) = 0.04359 0.28379
# Poissons Ratio (y) = 0.15512 0.67397
# Poissons Ratio (z) = 0.52580 0.35089
#
# Static dielectric constant tensor:
#      x y z
#    x 3.413610 0.000000 0.000000 
#    y 0.000000 2.756260 0.000000 
#    z 0.000000 0.000000 3.114390 
# 
# 
# High freq. dielectric constant tensor:
#      x y z
#    x 1.628680 0.000000 0.000000 
#    y 0.000000 1.582890 0.000000 
#    z 0.000000 0.000000 1.614260 
# 
# From -- ./inp_files/8134.got.cif
#   From: 2010.06.25/outbox.cif.g09.slc.cpg/sg58_5_cif.got.tgz:8134.got - 2010.06.26 21:38:00.
