data_PCOD8235919
_publ_section_title
;
Structure prediction by ZEFSAII (Michael W. Deem and Ramdas Pophale) SiO2 
 PCOD8235919
Probable space group: P N N M
;
_chemical_formula_sum "Si O2"
_cell_formula_units_Z 64
_cell_length_a 15.211337
_cell_length_b 24.928447
_cell_length_c 9.108815
_cell_angle_alpha 90.000000
_cell_angle_beta 90.000000
_cell_angle_gamma 90.000000
_cell_volume 3454.017179
_symmetry_space_group_name_H-M "P N N M"
_symmetry_group_IT_number 58
_symmetry_cell_setting 'orthorhombic'
loop_
_space_group_symop_operation_xyz
x,y,z
-x,-y,z
1/2+x,1/2-y,1/2-z
1/2-x,1/2+y,1/2-z
-x,-y,-z
x,y,-z
1/2-x,1/2+y,1/2+z
1/2+x,1/2-y,1/2+z
loop_
_atom_site_type_symbol
_atom_site_label
_atom_site_fract_x
_atom_site_fract_y
_atom_site_fract_z
Si Si1 0.187273 0.933459 0.174451
Si Si2 0.800549 0.356140 0.325171
Si Si3 0.831382 0.638100 0.174077
Si Si4 0.533733 0.718165 0.830025
Si Si5 0.997713 0.339755 0.329627
Si Si6 0.498636 0.385247 0.673114
Si Si7 0.773258 0.239626 0.326307
Si Si8 0.669792 0.445359 0.325648
O O1 0.267706 0.905390 0.255007
O O2 0.095496 0.907360 0.225474
O O3 0.187325 0.994772 0.230167
O O4 0.199672 0.929006 0.000000
O O5 0.797803 0.356058 0.500000
O O6 0.757290 0.300163 0.266437
O O7 0.745171 0.405885 0.260894
O O8 0.902181 0.359922 0.274726
O O9 0.929425 0.629082 0.234744
O O10 0.801497 0.698020 0.223802
O O11 0.829737 0.631064 0.000000
O O12 0.491354 0.776237 0.802848
O O13 0.481044 0.673138 0.740480
O O14 0.633248 0.718151 0.768053
O O15 0.531007 0.702485 0.000000
O O16 0.011578 0.353826 0.500000
O O17 0.502630 0.379280 0.500000
O O18 0.574060 0.425886 0.728644
O O19 0.780156 0.242721 0.500000
O O20 0.672511 0.444179 0.500000
#
# Coordination Sequence:
#
# PCOD8235919 Si02
#       8
#     8   8   8   8   8   8   8   8
#     4  10  20  35  52  76 110 141 174 221 266 309
#     4   8  15  31  53  75  99 132 175 220 259 303
#     4  11  21  33  54  79 105 140 178 215 260 317
#     4   9  17  32  50  72 107 141 167 201 255 319
#     4   9  19  34  53  76 105 136 170 218 267 309
#     4  10  19  30  50  80 110 137 171 216 263 309
#     4   8  15  28  47  72 101 132 166 206 251 305
#     4   9  18  32  53  77 102 137 181 222 264 311
#
# _framework density 18.529150000000001
#
# number of rings (size 3 to 8) (size 9 to 14) (size 15 to 20)
#    0.000    2.750    1.250    2.250    1.750    2.000 
#    0.000    1.250    0.000    6.750    0.000    0.000 
#    0.000    0.000    0.000    0.000    0.000    0.000 
#
# Total GULP energy -793346.744009 kJ/mol
# GULP energy per Si atom -12396.042875 kJ/mol
# Density = 1.848698 g / cm^3
# Si number density = 18.529150 Si / 1000 Ang^3
#
#
#
# Elastic Constant Matrix: (Units=GPa)
#
#
# Indices 1 2 3 4 5 6 
#
# 1 104.1059 62.8193 25.4362 0.0000 0.0000 0.0000
# 2 62.8193 116.4655 29.1975 0.0000 0.0000 0.0000
# 3 25.4362 29.1975 27.3480 0.0000 0.0000 0.0000
# 4 0.0000 0.0000 0.0000 22.8837 0.0000 0.0000
# 5 0.0000 0.0000 0.0000 0.0000 14.9530 0.0000
# 6 0.0000 0.0000 0.0000 0.0000 0.0000 28.3860
#
#
#
# Elastic Compliance Matrix: (Units=1/GPa)
#
#
# Indices 1 2 3 4 5 6 
#
# 1 0.015259 -0.006380 -0.007381 0.000000 0.000000 0.000000
# 2 -0.006380 0.014392 -0.009431 0.000000 0.000000 0.000000
# 3 -0.007381 -0.009431 0.053499 0.000000 0.000000 0.000000
# 4 0.000000 0.000000 0.000000 0.043699 0.000000 0.000000
# 5 0.000000 0.000000 0.000000 0.000000 0.066876 0.000000
# 6 0.000000 0.000000 0.000000 0.000000 0.000000 0.035229
#
#
# Mechanical properties :
#
#
# Convention : Reuss Voigt Hill
#
# Bulk Modulus (GPa) = 27.19869 53.64726 40.42298
# Shear Modulus (GPa) = 17.38570 21.94231 19.66401
#
# Velocity S-wave (km/s) = 3.06647 3.44496 3.26121
# Velocity P-wave (km/s) = 5.22000 6.69623 6.00366
#
# Compressibility (1/GPa) = 0.03676647
#
# Stress axis : x y z
#
# Youngs Moduli (GPa) = 65.53647 69.48392 18.69182
#
# Poissons Ratio (x) = 0.44330 0.13796
# Poissons Ratio (y) = 0.41812 0.17629
# Poissons Ratio (z) = 0.48370 0.65531
#
# Static dielectric constant tensor:
#      x y z
#    x 3.478160 0.000000 0.000000 
#    y 0.000000 3.613310 0.000000 
#    z 0.000000 0.000000 2.922900 
# 
# 
# High freq. dielectric constant tensor:
#      x y z
#    x 1.722720 0.000000 0.000000 
#    y 0.000000 1.716830 0.000000 
#    z 0.000000 0.000000 1.672940 
# 
# From -- ./inp_files/6754.got.cif
#   From: 2010.06.25/outbox.cif.g09.slc.cpg/sg58_4_cif.got.tgz:6754.got - 2010.06.26 21:38:00.
