data_PCOD8235392
_publ_section_title
;
Structure prediction by ZEFSAII (Michael W. Deem and Ramdas Pophale) SiO2 
 PCOD8235392
Probable space group: P N N M
;
_chemical_formula_sum "Si O2"
_cell_formula_units_Z 56
_cell_length_a 19.115269
_cell_length_b 19.239609
_cell_length_c 9.126495
_cell_angle_alpha 90.000000
_cell_angle_beta 90.000000
_cell_angle_gamma 90.000000
_cell_volume 3356.453818
_symmetry_space_group_name_H-M "P N N M"
_symmetry_group_IT_number 58
_symmetry_cell_setting 'orthorhombic'
loop_
_space_group_symop_operation_xyz
x,y,z
-x,-y,z
1/2+x,1/2-y,1/2-z
1/2-x,1/2+y,1/2-z
-x,-y,-z
x,y,-z
1/2-x,1/2+y,1/2+z
1/2+x,1/2-y,1/2+z
loop_
_atom_site_type_symbol
_atom_site_label
_atom_site_fract_x
_atom_site_fract_y
_atom_site_fract_z
Si Si1 0.143920 0.232627 0.669817
Si Si2 0.260912 0.336411 0.673551
Si Si3 0.792203 0.517559 0.673847
Si Si4 0.521778 0.203608 0.326550
Si Si5 0.564863 0.049321 0.671210
Si Si6 0.752851 0.382732 0.169816
Si Si7 0.632933 0.772501 0.674012
O O1 0.126916 0.244716 0.500000
O O2 0.194879 0.292622 0.732487
O O3 0.072115 0.237511 0.759925
O O4 0.179988 0.157874 0.694412
O O5 0.259685 0.330085 0.500000
O O6 0.253397 0.415693 0.725620
O O7 0.332892 0.300442 0.730511
O O8 0.798449 0.514151 0.500000
O O9 0.869564 0.520716 0.739512
O O10 0.750183 0.451598 0.733059
O O11 0.521783 0.210750 0.500000
O O12 0.546153 0.127066 0.277331
O O13 0.444460 0.217819 0.260948
O O14 0.583402 0.046577 0.500000
O O15 0.500000 0.000000 0.708168
O O16 0.817891 0.336046 0.224563
O O17 0.762397 0.402744 0.000000
O O18 0.629703 0.772880 0.500000
#
# Coordination Sequence:
#
# PCOD8235392 Si02
#       7
#     8   8   8   8   8   8   8
#     4   9  17  32  51  68  92 128 163 195 238 294
#     4   8  15  29  48  68  91 124 161 194 234 287
#     4  11  20  30  48  73  99 125 156 203 251 284
#     4  10  18  28  48  74  95 120 157 206 241 271
#     4  10  20  32  46  68 101 137 165 188 229 296
#     4   9  18  33  52  69  92 130 168 196 231 290
#     4   8  15  30  50  69  91 124 165 197 230 283
#
# _framework density 16.684275
#
# number of rings (size 3 to 8) (size 9 to 14) (size 15 to 20)
#    0.000    2.714    1.429    3.000    0.000    3.143 
#    0.000    2.143    0.000    3.429    0.000    6.000 
#    0.000    0.000    0.000    0.000    0.000    0.000 
#
# Total GULP energy -694221.301201 kJ/mol
# GULP energy per Si atom -12396.808950 kJ/mol
# Density = 1.664630 g / cm^3
# Si number density = 16.684275 Si / 1000 Ang^3
#
#
#
# Elastic Constant Matrix: (Units=GPa)
#
#
# Indices 1 2 3 4 5 6 
#
# 1 71.2208 46.0293 16.6830 0.0000 0.0000 0.0000
# 2 46.0293 114.4679 32.2960 0.0000 0.0000 0.0000
# 3 16.6830 32.2960 31.5941 0.0000 0.0000 0.0000
# 4 0.0000 0.0000 0.0000 20.7942 0.0000 0.0000
# 5 0.0000 0.0000 0.0000 0.0000 23.0620 0.0000
# 6 0.0000 0.0000 0.0000 0.0000 0.0000 24.8374
#
#
#
# Elastic Compliance Matrix: (Units=1/GPa)
#
#
# Indices 1 2 3 4 5 6 
#
# 1 0.019192 -0.006827 -0.003155 0.000000 0.000000 0.000000
# 2 -0.006827 0.014705 -0.011427 0.000000 0.000000 0.000000
# 3 -0.003155 -0.011427 0.044999 0.000000 0.000000 0.000000
# 4 0.000000 0.000000 0.000000 0.048090 0.000000 0.000000
# 5 0.000000 0.000000 0.000000 0.000000 0.043361 0.000000
# 6 0.000000 0.000000 0.000000 0.000000 0.000000 0.040262
#
#
# Mechanical properties :
#
#
# Convention : Reuss Voigt Hill
#
# Bulk Modulus (GPa) = 27.71856 45.25549 36.48702
# Shear Modulus (GPa) = 18.83555 21.89034 20.36294
#
# Velocity S-wave (km/s) = 3.36362 3.62613 3.49734
# Velocity P-wave (km/s) = 5.63337 6.68695 6.18264
#
# Compressibility (1/GPa) = 0.03607691
#
# Stress axis : x y z
#
# Youngs Moduli (GPa) = 52.10400 68.00192 22.22290
#
# Poissons Ratio (x) = 0.46427 0.07012
# Poissons Ratio (y) = 0.35573 0.25394
# Poissons Ratio (z) = 0.16441 0.77706
#
# Static dielectric constant tensor:
#      x y z
#    x 3.254820 0.000000 0.000000 
#    y 0.000000 3.253410 0.000000 
#    z 0.000000 0.000000 2.822810 
# 
# 
# High freq. dielectric constant tensor:
#      x y z
#    x 1.635980 0.000000 0.000000 
#    y 0.000000 1.639770 0.000000 
#    z 0.000000 0.000000 1.614690 
# 
# From -- ./inp_files/8113.got.cif
#   From: 2010.06.25/outbox.cif.g09.slc.cpg/sg58_5_cif.got.tgz:8113.got - 2010.06.26 21:38:00.
