data_PCOD8235134
_publ_section_title
;
Structure prediction by ZEFSAII (Michael W. Deem and Ramdas Pophale) SiO2 
 PCOD8235134
Probable space group: P B C M
;
_chemical_formula_sum "Si O2"
_cell_formula_units_Z 36
_cell_length_a 6.679456
_cell_length_b 10.018729
_cell_length_c 23.549840
_cell_angle_alpha 90.000000
_cell_angle_beta 90.000000
_cell_angle_gamma 90.000000
_cell_volume 1575.947275
_symmetry_space_group_name_H-M "P B C M"
_symmetry_group_IT_number 57
_symmetry_cell_setting 'orthorhombic'
loop_
_space_group_symop_operation_xyz
x,y,z
-x,-y,1/2+z
x,1/2-y,-z
-x,1/2+y,1/2-z
-x,-y,-z
x,y,1/2-z
-x,1/2+y,z
x,1/2-y,1/2+z
loop_
_atom_site_type_symbol
_atom_site_label
_atom_site_fract_x
_atom_site_fract_y
_atom_site_fract_z
Si Si1 0.767249 0.096417 0.813725
Si Si2 0.135129 0.563734 0.452216
Si Si3 0.056867 0.177428 0.350191
Si Si4 0.448701 0.750000 0.000000
Si Si5 0.618916 0.855252 0.387483
O O1 0.681428 0.086700 0.750000
O O2 0.583419 0.091600 0.858160
O O3 0.887805 0.235922 0.818226
O O4 0.914781 0.970723 0.824577
O O5 0.316115 0.621556 0.488038
O O6 0.224532 0.471346 0.402368
O O7 0.000000 0.500000 0.500000
O O8 0.006790 0.672000 0.416920
O O9 0.269987 0.252856 0.345187
O O10 0.582010 0.778161 0.054218
#
# Coordination Sequence:
#
# PCOD8235134 Si02
#       5
#     8   8   8   4   8
#     4  12  28  49  76 105 144 198 253 312 369 436
#     4  12  23  43  71 106 150 193 236 296 371 445
#     4  12  25  51  71 107 147 190 250 305 369 442
#     4  12  22  40  70 108 144 192 230 298 366 438
#     4  12  25  46  72 110 150 188 250 299 374 447
#
# _framework density 22.843402999999999
#
# number of rings (size 3 to 8) (size 9 to 14) (size 15 to 20)
#    0.000    0.000    4.444    6.667    0.000    1.778 
#    0.000    0.000    0.000    0.000    0.000    0.000 
#    0.000    0.000    0.000    0.000    0.000    0.000 
#
# Total GULP energy -446429.349539 kJ/mol
# GULP energy per Si atom -12400.815265 kJ/mol
# Density = 2.279141 g / cm^3
# Si number density = 22.843403 Si / 1000 Ang^3
#
#
#
# Elastic Constant Matrix: (Units=GPa)
#
#
# Indices 1 2 3 4 5 6 
#
# 1 102.3567 40.9795 37.4351 0.0000 0.0000 0.0000
# 2 40.9795 100.7756 25.4034 0.0000 0.0000 0.0000
# 3 37.4351 25.4034 117.4555 0.0000 0.0000 0.0000
# 4 0.0000 0.0000 0.0000 25.6657 0.0000 0.0000
# 5 0.0000 0.0000 0.0000 0.0000 10.6889 0.0000
# 6 0.0000 0.0000 0.0000 0.0000 0.0000 34.2347
#
#
#
# Elastic Compliance Matrix: (Units=1/GPa)
#
#
# Indices 1 2 3 4 5 6 
#
# 1 0.012646 -0.004364 -0.003087 0.000000 0.000000 0.000000
# 2 -0.004364 0.012001 -0.001205 0.000000 0.000000 0.000000
# 3 -0.003087 -0.001205 0.009758 0.000000 0.000000 0.000000
# 4 0.000000 0.000000 0.000000 0.038962 0.000000 0.000000
# 5 0.000000 0.000000 0.000000 0.000000 0.093555 0.000000
# 6 0.000000 0.000000 0.000000 0.000000 0.000000 0.029210
#
#
# Mechanical properties :
#
#
# Convention : Reuss Voigt Hill
#
# Bulk Modulus (GPa) = 58.49878 58.69154 58.59516
# Shear Modulus (GPa) = 22.81623 28.56918 25.69270
#
# Velocity S-wave (km/s) = 3.16382 3.54029 3.35734
# Velocity P-wave (km/s) = 6.24585 6.51616 6.38243
#
# Compressibility (1/GPa) = 0.01709438
#
# Stress axis : x y z
#
# Youngs Moduli (GPa) = 79.07709 83.32345 102.47835
#
# Poissons Ratio (x) = 0.36365 0.31630
# Poissons Ratio (y) = 0.34512 0.12346
# Poissons Ratio (z) = 0.24408 0.10038
#
# Static dielectric constant tensor:
#      x y z
#    x 3.889890 0.000000 0.000000 
#    y 0.000000 4.265100 0.000000 
#    z 0.000000 0.000000 4.033190 
# 
# 
# High freq. dielectric constant tensor:
#      x y z
#    x 1.911960 0.000000 0.000000 
#    y 0.000000 1.910360 0.000000 
#    z 0.000000 0.000000 1.898080 
# 
# From -- ./inp_files/26028.got.cif
#   From: 2010.03.12/outbox.cif.g09.slc.cpg/sg57_14_cif.got.tgz:26028.got - 2010.04.16 15:48:40.
