data_PCOD8235510
_publ_section_title
;
Structure prediction by ZEFSAII (Michael W. Deem and Ramdas Pophale) SiO2 
 PCOD8235510
Probable space group: P N N M
;
_chemical_formula_sum "Si O2"
_cell_formula_units_Z 56
_cell_length_a 10.738019
_cell_length_b 12.128452
_cell_length_c 25.353798
_cell_angle_alpha 90.000000
_cell_angle_beta 90.000000
_cell_angle_gamma 90.000000
_cell_volume 3301.965777
_symmetry_space_group_name_H-M "P N N M"
_symmetry_group_IT_number 58
_symmetry_cell_setting 'orthorhombic'
loop_
_space_group_symop_operation_xyz
x,y,z
-x,-y,z
1/2+x,1/2-y,1/2-z
1/2-x,1/2+y,1/2-z
-x,-y,-z
x,y,-z
1/2-x,1/2+y,1/2+z
1/2+x,1/2-y,1/2+z
loop_
_atom_site_type_symbol
_atom_site_label
_atom_site_fract_x
_atom_site_fract_y
_atom_site_fract_z
Si Si1 0.258012 0.350242 0.673764
Si Si2 0.147439 0.524573 0.500000
Si Si3 0.711881 0.288109 0.330690
Si Si4 0.362681 0.043497 0.884466
Si Si5 0.514760 0.631983 0.389295
Si Si6 0.888574 0.846965 0.283683
Si Si7 0.168502 0.909671 0.286668
Si Si8 0.598208 0.599764 0.500000
O O1 0.220877 0.437351 0.628763
O O2 0.395318 0.314519 0.655045
O O3 0.165126 0.245851 0.676970
O O4 0.264505 0.409595 0.730090
O O5 0.168038 0.586569 0.555758
O O6 0.253541 0.428475 0.500000
O O7 0.000000 0.500000 0.500000
O O8 0.836985 0.356726 0.344453
O O9 0.617359 0.310135 0.378600
O O10 0.660251 0.331193 0.275297
O O11 0.746151 0.158821 0.327592
O O12 0.500000 0.000000 0.876404
O O13 0.500000 0.500000 0.382373
O O14 0.565280 0.667501 0.446991
O O15 0.037404 0.845641 0.282681
O O16 0.843152 0.965205 0.306114
O O17 0.500000 0.500000 0.500000
#
# Coordination Sequence:
#
# PCOD8235510 Si02
#       8
#     8   4   8   8   8   8   8   4
#     4  11  19  31  51  72 101 138 170 207 258 306
#     4  10  20  32  48  76 112 139 170 221 276 320
#     4  11  20  32  51  75 103 139 172 216 258 308
#     4  11  20  32  49  76 107 134 171 217 263 312
#     4  11  18  32  53  76 107 137 168 212 262 313
#     4  10  20  34  51  71  99 143 176 209 250 313
#     4  10  20  35  50  70 102 139 178 210 254 303
#     4  10  18  30  52  78 103 142 178 209 267 330
#
# _framework density 16.959593999999999
#
# number of rings (size 3 to 8) (size 9 to 14) (size 15 to 20)
#    0.000    1.429    5.714    1.714    0.000    0.000 
#    0.000    0.714    0.000    0.000    0.000    5.000 
#    0.000   12.571    0.000    0.000    0.000    0.000 
#
# Total GULP energy -693860.819044 kJ/mol
# GULP energy per Si atom -12390.371769 kJ/mol
# Density = 1.692099 g / cm^3
# Si number density = 16.959594 Si / 1000 Ang^3
#
#
#
# Elastic Constant Matrix: (Units=GPa)
#
#
# Indices 1 2 3 4 5 6 
#
# 1 73.4654 18.0668 22.1305 0.0000 0.0000 0.0000
# 2 18.0668 61.9067 22.5650 0.0000 0.0000 0.0000
# 3 22.1305 22.5650 73.5222 0.0000 0.0000 0.0000
# 4 0.0000 0.0000 0.0000 14.4457 0.0000 0.0000
# 5 0.0000 0.0000 0.0000 0.0000 18.6947 0.0000
# 6 0.0000 0.0000 0.0000 0.0000 0.0000 28.7679
#
#
#
# Elastic Compliance Matrix: (Units=1/GPa)
#
#
# Indices 1 2 3 4 5 6 
#
# 1 0.015506 -0.003180 -0.003691 0.000000 0.000000 0.000000
# 2 -0.003180 0.018840 -0.004825 0.000000 0.000000 0.000000
# 3 -0.003691 -0.004825 0.016193 0.000000 0.000000 0.000000
# 4 0.000000 0.000000 0.000000 0.069225 0.000000 0.000000
# 5 0.000000 0.000000 0.000000 0.000000 0.053491 0.000000
# 6 0.000000 0.000000 0.000000 0.000000 0.000000 0.034761
#
#
# Mechanical properties :
#
#
# Convention : Reuss Voigt Hill
#
# Bulk Modulus (GPa) = 36.83691 37.15766 36.99728
# Shear Modulus (GPa) = 20.79370 22.12380 21.45875
#
# Velocity S-wave (km/s) = 3.50533 3.61571 3.56095
# Velocity P-wave (km/s) = 6.17662 6.27600 6.22651
#
# Compressibility (1/GPa) = 0.02714668
#
# Stress axis : x y z
#
# Youngs Moduli (GPa) = 64.49204 53.07829 61.75365
#
# Poissons Ratio (x) = 0.16877 0.22796
# Poissons Ratio (y) = 0.20506 0.29797
# Poissons Ratio (z) = 0.23807 0.25611
#
# Static dielectric constant tensor:
#      x y z
#    x 3.952970 0.000000 0.000000 
#    y 0.000000 2.951250 0.000000 
#    z 0.000000 0.000000 3.307710 
# 
# 
# High freq. dielectric constant tensor:
#      x y z
#    x 1.676040 0.000000 0.000000 
#    y 0.000000 1.608710 0.000000 
#    z 0.000000 0.000000 1.646630 
# 
# From -- ./inp_files/32045.got.cif
#   From: 2010.06.25/outbox.cif.g09.slc.cpg/sg58_17_cif.got.tgz:32045.got - 2010.06.26 21:38:00.
