data_PCOD8235814
_publ_section_title
;
Structure prediction by ZEFSAII (Michael W. Deem and Ramdas Pophale) SiO2 
 PCOD8235814
Probable space group: P N N M
;
_chemical_formula_sum "Si O2"
_cell_formula_units_Z 64
_cell_length_a 34.269494
_cell_length_b 13.480409
_cell_length_c 8.931367
_cell_angle_alpha 90.000000
_cell_angle_beta 90.000000
_cell_angle_gamma 90.000000
_cell_volume 4125.994991
_symmetry_space_group_name_H-M "P N N M"
_symmetry_group_IT_number 58
_symmetry_cell_setting 'orthorhombic'
loop_
_space_group_symop_operation_xyz
x,y,z
-x,-y,z
1/2+x,1/2-y,1/2-z
1/2-x,1/2+y,1/2-z
-x,-y,-z
x,y,-z
1/2-x,1/2+y,1/2+z
1/2+x,1/2-y,1/2+z
loop_
_atom_site_type_symbol
_atom_site_label
_atom_site_fract_x
_atom_site_fract_y
_atom_site_fract_z
Si Si1 0.457836 0.117991 0.332231
Si Si2 0.809093 0.298937 0.830169
Si Si3 0.271424 0.602046 0.176619
Si Si4 0.806774 0.710493 0.178225
Si Si5 0.618606 0.887958 0.174502
Si Si6 0.043032 0.382453 0.169566
Si Si7 0.263686 0.398552 0.674522
Si Si8 0.379873 0.883855 0.175934
O O1 0.451459 0.156641 0.500000
O O2 0.421782 0.158736 0.235537
O O3 0.500367 0.156431 0.274519
O O4 0.457712 0.000242 0.327125
O O5 0.773483 0.371562 0.788970
O O6 0.845390 0.321195 0.725288
O O7 0.796089 0.185942 0.804560
O O8 0.822299 0.316978 0.000000
O O9 0.280811 0.495223 0.245246
O O10 0.299389 0.679969 0.258347
O O11 0.280035 0.605031 0.000000
O O12 0.776559 0.632174 0.247475
O O13 0.849775 0.679640 0.227899
O O14 0.802898 0.709854 0.000000
O O15 0.624926 0.001521 0.225666
O O16 0.615400 0.881903 0.000000
O O17 0.076947 0.344176 0.280258
O O18 0.051141 0.345656 0.000000
O O19 0.255011 0.418527 0.500000
O O20 0.372834 0.868488 0.000000
#
# Coordination Sequence:
#
# PCOD8235814 Si02
#       8
#     8   8   8   8   8   8   8   8
#     4   8  14  25  40  56  80 112 144 176 212 256
#     4   9  19  32  45  62  86 114 144 177 214 257
#     4  10  20  34  50  67  87 114 146 182 224 267
#     4  11  21  32  47  66  88 117 150 184 219 259
#     4  10  19  27  40  62  87 115 148 183 217 253
#     4   8  14  25  40  58  79 110 147 177 210 258
#     4  10  20  34  49  66  88 114 146 184 223 265
#     4  10  19  29  41  61  89 118 147 185 223 257
#
# _framework density 15.51141
#
# number of rings (size 3 to 8) (size 9 to 14) (size 15 to 20)
#    0.000    2.500    0.000    4.875    0.000    7.000 
#    0.000    2.500    0.000    0.000    0.000    0.000 
#    0.000    1.000    0.000   10.500    0.000    5.500 
#
# Total GULP energy -793456.399951 kJ/mol
# GULP energy per Si atom -12397.756249 kJ/mol
# Density = 1.547610 g / cm^3
# Si number density = 15.511410 Si / 1000 Ang^3
#
#
#
# Elastic Constant Matrix: (Units=GPa)
#
#
# Indices 1 2 3 4 5 6 
#
# 1 112.8563 29.9664 46.1332 0.0000 0.0000 0.0000
# 2 29.9664 56.1275 27.2054 0.0000 0.0000 0.0000
# 3 46.1332 27.2054 76.5847 0.0000 0.0000 0.0000
# 4 0.0000 0.0000 0.0000 22.6453 0.0000 0.0000
# 5 0.0000 0.0000 0.0000 0.0000 29.4399 0.0000
# 6 0.0000 0.0000 0.0000 0.0000 0.0000 13.5552
#
#
#
# Elastic Compliance Matrix: (Units=1/GPa)
#
#
# Indices 1 2 3 4 5 6 
#
# 1 0.012331 -0.003603 -0.006148 0.000000 0.000000 0.000000
# 2 -0.003603 0.022575 -0.005849 0.000000 0.000000 0.000000
# 3 -0.006148 -0.005849 0.018838 0.000000 0.000000 0.000000
# 4 0.000000 0.000000 0.000000 0.044159 0.000000 0.000000
# 5 0.000000 0.000000 0.000000 0.000000 0.033967 0.000000
# 6 0.000000 0.000000 0.000000 0.000000 0.000000 0.073773
#
#
# Mechanical properties :
#
#
# Convention : Reuss Voigt Hill
#
# Bulk Modulus (GPa) = 44.35685 50.24207 47.29946
# Shear Modulus (GPa) = 20.46170 22.61231 21.53700
#
# Velocity S-wave (km/s) = 3.63594 3.82224 3.73025
# Velocity P-wave (km/s) = 6.80331 7.20694 7.00803
#
# Compressibility (1/GPa) = 0.02254443
#
# Stress axis : x y z
#
# Youngs Moduli (GPa) = 81.09841 44.29584 53.08300
#
# Poissons Ratio (x) = 0.15962 0.32634
# Poissons Ratio (y) = 0.29224 0.31048
# Poissons Ratio (z) = 0.49857 0.25908
#
# Static dielectric constant tensor:
#      x y z
#    x 3.182590 0.000000 0.000000 
#    y 0.000000 2.695890 0.000000 
#    z 0.000000 0.000000 3.042440 
# 
# 
# High freq. dielectric constant tensor:
#      x y z
#    x 1.596610 0.000000 0.000000 
#    y 0.000000 1.548020 0.000000 
#    z 0.000000 0.000000 1.606610 
# 
# From -- ./inp_files/11144.got.cif
#   From: 2010.06.25/outbox.cif.g09.slc.cpg/sg58_6_cif.got.tgz:11144.got - 2010.06.26 21:38:00.
