data_PCOD8235189
_publ_section_title
;
Structure prediction by ZEFSAII (Michael W. Deem and Ramdas Pophale) SiO2 
 PCOD8235189
Probable space group: P B C M
;
_chemical_formula_sum "Si O2"
_cell_formula_units_Z 48
_cell_length_a 9.000000
_cell_length_b 30.000000
_cell_length_c 9.000000
_cell_angle_alpha 90.000000
_cell_angle_beta 90.000000
_cell_angle_gamma 90.000000
_cell_volume 2430.000000
_symmetry_space_group_name_H-M "P B C M"
_symmetry_group_IT_number 57
_symmetry_cell_setting 'orthorhombic'
loop_
_space_group_symop_operation_xyz
x,y,z
-x,-y,1/2+z
x,1/2-y,-z
-x,1/2+y,1/2-z
-x,-y,-z
x,y,1/2-z
-x,1/2+y,z
x,1/2-y,1/2+z
loop_
_atom_site_type_symbol
_atom_site_label
_atom_site_fract_x
_atom_site_fract_y
_atom_site_fract_z
Si Si1 0.909613 0.794645 0.921758
Si Si2 0.425099 0.203771 0.425945
Si Si3 0.906475 0.119352 0.425200
Si Si4 0.594919 0.374517 0.426272
Si Si5 0.925764 0.541769 0.576392
Si Si6 0.578807 0.539795 0.580362
O O1 0.904495 0.783527 0.750000
O O2 0.743715 0.809133 0.972733
O O3 0.028830 0.832108 0.960343
O O4 0.964769 0.750000 0.000000
O O5 0.469231 0.250000 0.500000
O O6 0.445813 0.206397 0.250000
O O7 0.541470 0.169410 0.491937
O O8 0.882033 0.111461 0.250000
O O9 0.755929 0.112139 0.514404
O O10 0.025840 0.085281 0.488440
O O11 0.598778 0.367094 0.250000
O O12 0.482361 0.413118 0.476998
O O13 0.968921 0.544679 0.750000
O O14 0.752034 0.537064 0.552258
O O15 0.000000 0.500000 0.500000
O O16 0.500000 0.500000 0.500000
O O17 0.535199 0.534440 0.750000
#
# Coordination Sequence:
#
# PCOD8235189 Si02
#       6
#     8   8   8   8   8   8
#     4   9  20  37  59  85 114 148 190 236 286 339
#     4  10  20  37  60  86 114 149 190 236 286 340
#     4  11  23  39  58  85 118 153 192 238 288 342
#     4  11  23  39  58  84 116 153 193 236 284 339
#     4  11  23  40  61  87 116 150 190 236 287 343
#     4  10  23  40  60  85 115 149 189 234 284 339
#
# _framework density 19.753086
#
# number of rings (size 3 to 8) (size 9 to 14) (size 15 to 20)
#    0.000    1.667    0.000    4.000    0.000    8.000 
#    0.000    1.667    0.000    0.000    0.000    0.000 
#    0.000    0.000    0.000    0.000    0.000    0.000 
#
# Total GULP energy -595363.394138 kJ/mol
# GULP energy per Si atom -12403.404045 kJ/mol
# Density = 1.970813 g / cm^3
# Si number density = 19.753086 Si / 1000 Ang^3
#
#
#
# Elastic Constant Matrix: (Units=GPa)
#
#
# Indices 1 2 3 4 5 6 
#
# 1 44.9795 39.0368 34.2535 0.0000 0.0000 0.0000
# 2 39.0368 109.3709 63.2507 0.0000 0.0000 0.0000
# 3 34.2535 63.2507 82.2080 0.0000 0.0000 0.0000
# 4 0.0000 0.0000 0.0000 39.2339 0.0000 0.0000
# 5 0.0000 0.0000 0.0000 0.0000 33.5988 0.0000
# 6 0.0000 0.0000 0.0000 0.0000 0.0000 30.7343
#
#
#
# Elastic Compliance Matrix: (Units=1/GPa)
#
#
# Indices 1 2 3 4 5 6 
#
# 1 0.035641 -0.007446 -0.009122 0.000000 0.000000 0.000000
# 2 -0.007446 0.018028 -0.010769 0.000000 0.000000 0.000000
# 3 -0.009122 -0.010769 0.024250 0.000000 0.000000 0.000000
# 4 0.000000 0.000000 0.000000 0.025488 0.000000 0.000000
# 5 0.000000 0.000000 0.000000 0.000000 0.029763 0.000000
# 6 0.000000 0.000000 0.000000 0.000000 0.000000 0.032537
#
#
# Mechanical properties :
#
#
# Convention : Reuss Voigt Hill
#
# Bulk Modulus (GPa) = 43.01535 56.62671 49.82103
# Shear Modulus (GPa) = 21.91743 27.38123 24.64933
#
# Velocity S-wave (km/s) = 3.33463 3.72718 3.53636
# Velocity P-wave (km/s) = 6.05394 6.87401 6.47696
#
# Compressibility (1/GPa) = 0.02324752
#
# Stress axis : x y z
#
# Youngs Moduli (GPa) = 28.05762 55.46809 41.23666
#
# Poissons Ratio (x) = 0.41301 0.37615
# Poissons Ratio (y) = 0.20891 0.44406
# Poissons Ratio (z) = 0.25593 0.59731
#
# Static dielectric constant tensor:
#      x y z
#    x 3.591060 0.000000 0.000000 
#    y 0.000000 3.506970 0.000000 
#    z 0.000000 0.000000 3.703780 
# 
# 
# High freq. dielectric constant tensor:
#      x y z
#    x 1.776160 0.000000 0.000000 
#    y 0.000000 1.776300 0.000000 
#    z 0.000000 0.000000 1.779120 
# 
# From -- ./inp_files/1969.got.cif
#   From: 2010.03.12/outbox.ucp.g09.slc.cvg/sg57_1_cif.got.tgz:1969.got - 2010.05.04 19:26:41.
