data_PCOD8235417
_publ_section_title
;
Structure prediction by ZEFSAII (Michael W. Deem and Ramdas Pophale) SiO2 
 PCOD8235417
Probable space group: P N N M
;
_chemical_formula_sum "Si O2"
_cell_formula_units_Z 64
_cell_length_a 18.907384
_cell_length_b 21.448337
_cell_length_c 9.268118
_cell_angle_alpha 90.000000
_cell_angle_beta 90.000000
_cell_angle_gamma 90.000000
_cell_volume 3758.517908
_symmetry_space_group_name_H-M "P N N M"
_symmetry_group_IT_number 58
_symmetry_cell_setting 'orthorhombic'
loop_
_space_group_symop_operation_xyz
x,y,z
-x,-y,z
1/2+x,1/2-y,1/2-z
1/2-x,1/2+y,1/2-z
-x,-y,-z
x,y,-z
1/2-x,1/2+y,1/2+z
1/2+x,1/2-y,1/2+z
loop_
_atom_site_type_symbol
_atom_site_label
_atom_site_fract_x
_atom_site_fract_y
_atom_site_fract_z
Si Si1 0.324109 0.115967 0.329102
Si Si2 0.373385 0.245123 0.660986
Si Si3 0.969962 0.691829 0.159197
Si Si4 0.168703 0.084788 0.668444
Si Si5 0.580104 0.517261 0.330093
Si Si6 0.029463 0.565007 0.827418
Si Si7 0.929236 0.802592 0.664994
Si Si8 0.419816 0.356675 0.169920
O O1 0.330837 0.119219 0.500000
O O2 0.326693 0.187989 0.275472
O O3 0.250576 0.084531 0.283177
O O4 0.390447 0.075827 0.268415
O O5 0.348453 0.265502 0.500000
O O6 0.453076 0.221460 0.651969
O O7 0.367515 0.303056 0.770444
O O8 0.919770 0.736922 0.252551
O O9 0.978091 0.621719 0.224178
O O10 0.936221 0.688391 0.000000
O O11 0.158715 0.066572 0.500000
O O12 0.137818 0.153769 0.696496
O O13 0.130268 0.036463 0.770966
O O14 0.500000 0.500000 0.292113
O O15 0.591804 0.525362 0.500000
O O16 0.601557 0.580181 0.249450
O O17 0.000000 0.500000 0.763998
O O18 0.030124 0.564058 0.000000
O O19 0.935382 0.783443 0.500000
O O20 0.999428 0.840400 0.711090
O O21 0.408478 0.364678 0.000000
#
# Coordination Sequence:
#
# PCOD8235417 Si02
#       8
#     8   8   8   8   8   8   8   8
#     4   8  15  28  48  71  94 127 164 195 239 299
#     4   8  14  27  46  68  91 116 152 193 233 282
#     4   8  14  24  42  67  91 114 145 187 232 275
#     4  10  19  32  49  68  94 131 168 200 241 295
#     4  11  22  33  47  70  98 130 168 207 247 288
#     4   8  13  24  46  75  99 120 154 199 240 280
#     4   9  17  27  42  65  91 119 153 193 236 278
#     4  10  18  29  47  70  94 121 158 202 242 279
#
# _framework density 17.027989000000002
#
# number of rings (size 3 to 8) (size 9 to 14) (size 15 to 20)
#    0.000    3.000    1.250    2.250    0.000    1.500 
#    0.000    0.625    2.750    1.125    0.000    0.000 
#    0.000    0.000    0.000    0.000    0.000    0.000 
#
# Total GULP energy -793219.164215 kJ/mol
# GULP energy per Si atom -12394.049441 kJ/mol
# Density = 1.698923 g / cm^3
# Si number density = 17.027989 Si / 1000 Ang^3
#
#
#
# Elastic Constant Matrix: (Units=GPa)
#
#
# Indices 1 2 3 4 5 6 
#
# 1 71.4044 47.4471 25.6836 0.0000 0.0000 0.0000
# 2 47.4471 134.7236 48.5052 0.0000 0.0000 0.0000
# 3 25.6836 48.5052 54.3888 0.0000 0.0000 0.0000
# 4 0.0000 0.0000 0.0000 19.6357 0.0000 0.0000
# 5 0.0000 0.0000 0.0000 0.0000 10.2023 0.0000
# 6 0.0000 0.0000 0.0000 0.0000 0.0000 21.6280
#
#
#
# Elastic Compliance Matrix: (Units=1/GPa)
#
#
# Indices 1 2 3 4 5 6 
#
# 1 0.018979 -0.005092 -0.004421 0.000000 0.000000 0.000000
# 2 -0.005092 0.012299 -0.008564 0.000000 0.000000 0.000000
# 3 -0.004421 -0.008564 0.028111 0.000000 0.000000 0.000000
# 4 0.000000 0.000000 0.000000 0.050928 0.000000 0.000000
# 5 0.000000 0.000000 0.000000 0.000000 0.098017 0.000000
# 6 0.000000 0.000000 0.000000 0.000000 0.000000 0.046236
#
#
# Mechanical properties :
#
#
# Convention : Reuss Voigt Hill
#
# Bulk Modulus (GPa) = 43.03839 55.97652 49.50746
# Shear Modulus (GPa) = 16.75211 19.55194 18.15203
#
# Velocity S-wave (km/s) = 3.13996 3.39222 3.26852
# Velocity P-wave (km/s) = 6.20288 6.94892 6.58647
#
# Compressibility (1/GPa) = 0.02323507
#
# Stress axis : x y z
#
# Youngs Moduli (GPa) = 52.69096 81.30456 35.57264
#
# Poissons Ratio (x) = 0.41403 0.15726
# Poissons Ratio (y) = 0.26832 0.30465
# Poissons Ratio (z) = 0.23293 0.69631
#
# Static dielectric constant tensor:
#      x y z
#    x 3.108900 0.000000 0.000000 
#    y 0.000000 3.415670 0.000000 
#    z 0.000000 0.000000 3.045210 
# 
# 
# High freq. dielectric constant tensor:
#      x y z
#    x 1.621220 0.000000 0.000000 
#    y 0.000000 1.663560 0.000000 
#    z 0.000000 0.000000 1.631260 
# 
# From -- ./inp_files/9408.got.cif
#   From: 2010.06.25/outbox.cif.g09.slc.cpg/sg58_5_cif.got.tgz:9408.got - 2010.06.26 21:38:00.
