data_PCOD8235962
_publ_section_title
;
Structure prediction by ZEFSAII (Michael W. Deem and Ramdas Pophale) SiO2 
 PCOD8235962
Probable space group: P N N M
;
_chemical_formula_sum "Si O2"
_cell_formula_units_Z 56
_cell_length_a 17.587064
_cell_length_b 5.023001
_cell_length_c 33.137263
_cell_angle_alpha 90.000000
_cell_angle_beta 90.000000
_cell_angle_gamma 90.000000
_cell_volume 2927.340513
_symmetry_space_group_name_H-M "P N N M"
_symmetry_group_IT_number 58
_symmetry_cell_setting 'orthorhombic'
loop_
_space_group_symop_operation_xyz
x,y,z
-x,-y,z
1/2+x,1/2-y,1/2-z
1/2-x,1/2+y,1/2-z
-x,-y,-z
x,y,-z
1/2-x,1/2+y,1/2+z
1/2+x,1/2-y,1/2+z
loop_
_atom_site_type_symbol
_atom_site_label
_atom_site_fract_x
_atom_site_fract_y
_atom_site_fract_z
Si Si1 0.340013 0.044315 0.582214
Si Si2 0.821594 0.953738 0.452732
Si Si3 0.414242 0.545267 0.452999
Si Si4 0.279560 0.563251 0.229930
Si Si5 0.847539 0.540095 0.175639
Si Si6 0.911730 0.039959 0.780791
Si Si7 0.416555 0.034488 0.952902
O O1 0.358308 0.347949 0.570798
O O2 0.358963 0.000347 0.628652
O O3 0.252656 0.979748 0.572993
O O4 0.392595 0.848860 0.556051
O O5 0.799228 0.943085 0.500000
O O6 0.885561 0.173438 0.444160
O O7 0.856612 0.679558 0.435861
O O8 0.500000 0.500000 0.438258
O O9 0.405108 0.485137 0.500000
O O10 0.233308 0.375829 0.261676
O O11 0.243043 0.492741 0.186268
O O12 0.368668 0.494701 0.237238
O O13 0.877739 0.831657 0.187000
O O14 0.897715 0.331400 0.201062
O O15 0.000000 0.000000 0.772530
O O16 0.500000 0.000000 0.932812
O O17 0.424221 0.972204 0.000000
#
# Coordination Sequence:
#
# PCOD8235962 Si02
#       7
#     8   8   8   8   8   8   8
#     4  12  23  36  55  78 105 140 181 230 277 318
#     4  10  19  31  49  72  97 129 171 213 251 306
#     4  11  24  40  55  72 101 144 189 231 278 328
#     4   8  16  32  51  73 102 134 161 192 244 307
#     4  10  21  34  51  78 110 138 168 214 268 313
#     4  10  19  33  55  80 105 135 174 213 250 306
#     4   9  17  30  49  72  95 119 153 204 261 307
#
# _framework density 19.129989999999999
#
# number of rings (size 3 to 8) (size 9 to 14) (size 15 to 20)
#    0.000    2.000    0.000    4.286    0.000    7.429 
#    0.000    0.000    0.000    1.714    0.000    0.000 
#    0.000    0.000    0.000    0.000    0.000    0.000 
#
# Total GULP energy -694297.355275 kJ/mol
# GULP energy per Si atom -12398.167058 kJ/mol
# Density = 1.908645 g / cm^3
# Si number density = 19.129990 Si / 1000 Ang^3
#
#
#
# Elastic Constant Matrix: (Units=GPa)
#
#
# Indices 1 2 3 4 5 6 
#
# 1 121.4514 6.2519 29.1677 0.0000 0.0000 0.0000
# 2 6.2519 76.9104 5.8488 0.0000 0.0000 0.0000
# 3 29.1677 5.8488 41.3071 0.0000 0.0000 0.0000
# 4 0.0000 0.0000 0.0000 18.5535 0.0000 0.0000
# 5 0.0000 0.0000 0.0000 0.0000 7.2423 0.0000
# 6 0.0000 0.0000 0.0000 0.0000 0.0000 30.3503
#
#
#
# Elastic Compliance Matrix: (Units=1/GPa)
#
#
# Indices 1 2 3 4 5 6 
#
# 1 0.009921 -0.000277 -0.006966 0.000000 0.000000 0.000000
# 2 -0.000277 0.013151 -0.001667 0.000000 0.000000 0.000000
# 3 -0.006966 -0.001667 0.029364 0.000000 0.000000 0.000000
# 4 0.000000 0.000000 0.000000 0.053898 0.000000 0.000000
# 5 0.000000 0.000000 0.000000 0.000000 0.138078 0.000000
# 6 0.000000 0.000000 0.000000 0.000000 0.000000 0.032949
#
#
# Mechanical properties :
#
#
# Convention : Reuss Voigt Hill
#
# Bulk Modulus (GPa) = 28.88761 35.80063 32.34412
# Shear Modulus (GPa) = 16.30156 24.45593 20.37874
#
# Velocity S-wave (km/s) = 2.92232 3.57936 3.26740
# Velocity P-wave (km/s) = 5.14977 5.98644 5.58380
#
# Compressibility (1/GPa) = 0.03461691
#
# Stress axis : x y z
#
# Youngs Moduli (GPa) = 100.79634 76.03763 34.05544
#
# Poissons Ratio (x) = 0.02104 0.23724
# Poissons Ratio (y) = 0.02789 0.05676
# Poissons Ratio (z) = 0.70217 0.12674
#
# Static dielectric constant tensor:
#      x y z
#    x 3.619440 0.000000 0.000000 
#    y 0.000000 3.643320 0.000000 
#    z 0.000000 0.000000 3.142760 
# 
# 
# High freq. dielectric constant tensor:
#      x y z
#    x 1.748010 0.000000 0.000000 
#    y 0.000000 1.766800 0.000000 
#    z 0.000000 0.000000 1.693350 
# 
# From -- ./inp_files/35044.got.cif
#   From: 2010.06.25/outbox.cif.g09.slc.cpg/sg58_18_cif.got.tgz:35044.got - 2010.06.26 21:38:00.
