data_PCOD8235513
_publ_section_title
;
Structure prediction by ZEFSAII (Michael W. Deem and Ramdas Pophale) SiO2 
 PCOD8235513
Probable space group: P N N M
;
_chemical_formula_sum "Si O2"
_cell_formula_units_Z 56
_cell_length_a 11.381667
_cell_length_b 20.072346
_cell_length_c 13.883771
_cell_angle_alpha 90.000000
_cell_angle_beta 90.000000
_cell_angle_gamma 90.000000
_cell_volume 3171.841313
_symmetry_space_group_name_H-M "P N N M"
_symmetry_group_IT_number 58
_symmetry_cell_setting 'orthorhombic'
loop_
_space_group_symop_operation_xyz
x,y,z
-x,-y,z
1/2+x,1/2-y,1/2-z
1/2-x,1/2+y,1/2-z
-x,-y,-z
x,y,-z
1/2-x,1/2+y,1/2+z
1/2+x,1/2-y,1/2+z
loop_
_atom_site_type_symbol
_atom_site_label
_atom_site_fract_x
_atom_site_fract_y
_atom_site_fract_z
Si Si1 0.977627 0.074783 0.111035
Si Si2 0.143205 0.191688 0.892327
Si Si3 0.689373 0.024405 0.606766
Si Si4 0.946687 0.397758 0.892593
Si Si5 0.703688 0.626330 0.237312
Si Si6 0.885516 0.247054 0.609940
Si Si7 0.944469 0.697313 0.247207
O O1 0.875121 0.111653 0.169954
O O2 0.099134 0.116006 0.123574
O O3 0.936563 0.073062 0.000000
O O4 0.000000 0.000000 0.149224
O O5 0.283455 0.197305 0.881203
O O6 0.082912 0.238063 0.814653
O O7 0.107417 0.216115 0.000000
O O8 0.745610 0.022182 0.500000
O O9 0.573258 0.068569 0.602840
O O10 0.782428 0.056808 0.679631
O O11 0.654196 0.949852 0.639886
O O12 0.953147 0.340382 0.812808
O O13 0.917431 0.369942 0.000000
O O14 0.644905 0.680309 0.167859
O O15 0.831001 0.652749 0.270886
O O16 0.907871 0.226194 0.500000
O O17 0.003265 0.280305 0.650834
#
# Coordination Sequence:
#
# PCOD8235513 Si02
#       7
#     8   8   8   8   8   8   8
#     4  10  21  37  56  76  99 137 184 222 253 299
#     4   9  18  34  53  74 101 135 179 219 254 307
#     4   8  14  26  46  72 102 133 165 203 247 302
#     4   8  14  25  44  73 103 129 163 208 252 298
#     4  10  19  33  53  77 102 140 174 211 258 317
#     4  10  20  33  52  77 105 138 173 215 265 317
#     4  10  18  30  52  80 106 132 169 212 271 313
#
# _framework density 17.655360000000002
#
# number of rings (size 3 to 8) (size 9 to 14) (size 15 to 20)
#    0.000    2.714    1.429    1.714    0.000    5.143 
#    0.000    0.000    0.000    1.714    0.000    8.000 
#    0.000    0.000    0.000    0.000    0.000    0.000 
#
# Total GULP energy -694120.653994 kJ/mol
# GULP energy per Si atom -12395.011678 kJ/mol
# Density = 1.761518 g / cm^3
# Si number density = 17.655360 Si / 1000 Ang^3
#
#
#
# Elastic Constant Matrix: (Units=GPa)
#
#
# Indices 1 2 3 4 5 6 
#
# 1 67.1203 34.7991 51.1613 0.0000 0.0000 0.0000
# 2 34.7991 76.8423 41.5668 0.0000 0.0000 0.0000
# 3 51.1613 41.5668 95.2467 0.0000 0.0000 0.0000
# 4 0.0000 0.0000 0.0000 18.3084 0.0000 0.0000
# 5 0.0000 0.0000 0.0000 0.0000 27.8156 0.0000
# 6 0.0000 0.0000 0.0000 0.0000 0.0000 21.8174
#
#
#
# Elastic Compliance Matrix: (Units=1/GPa)
#
#
# Indices 1 2 3 4 5 6 
#
# 1 0.027035 -0.005744 -0.012015 0.000000 0.000000 0.000000
# 2 -0.005744 0.018255 -0.004882 0.000000 0.000000 0.000000
# 3 -0.012015 -0.004882 0.019083 0.000000 0.000000 0.000000
# 4 0.000000 0.000000 0.000000 0.054620 0.000000 0.000000
# 5 0.000000 0.000000 0.000000 0.000000 0.035951 0.000000
# 6 0.000000 0.000000 0.000000 0.000000 0.000000 0.045835
#
#
# Mechanical properties :
#
#
# Convention : Reuss Voigt Hill
#
# Bulk Modulus (GPa) = 52.37597 54.91818 53.64708
# Shear Modulus (GPa) = 19.80795 21.03376 20.42085
#
# Velocity S-wave (km/s) = 3.35315 3.45534 3.40463
# Velocity P-wave (km/s) = 6.68742 6.86239 6.77547
#
# Compressibility (1/GPa) = 0.01909272
#
# Stress axis : x y z
#
# Youngs Moduli (GPa) = 36.98959 54.77811 52.40203
#
# Poissons Ratio (x) = 0.31463 0.62961
# Poissons Ratio (y) = 0.21246 0.25581
# Poissons Ratio (z) = 0.44443 0.26741
#
# Static dielectric constant tensor:
#      x y z
#    x 3.046600 0.000000 0.000000 
#    y 0.000000 3.353370 0.000000 
#    z 0.000000 0.000000 3.318570 
# 
# 
# High freq. dielectric constant tensor:
#      x y z
#    x 1.655260 0.000000 0.000000 
#    y 0.000000 1.679910 0.000000 
#    z 0.000000 0.000000 1.679930 
# 
# From -- ./inp_files/14610.got.cif
#   From: 2010.06.25/outbox.cif.g09.slc.cpg/sg58_8_cif.got.tgz:14610.got - 2010.06.26 21:38:00.
