data_PCOD8235416
_publ_section_title
;
Structure prediction by ZEFSAII (Michael W. Deem and Ramdas Pophale) SiO2 
 PCOD8235416
Probable space group: P N N M
;
_chemical_formula_sum "Si O2"
_cell_formula_units_Z 48
_cell_length_a 15.154557
_cell_length_b 20.128617
_cell_length_c 9.093033
_cell_angle_alpha 90.000000
_cell_angle_beta 90.000000
_cell_angle_gamma 90.000000
_cell_volume 2773.741275
_symmetry_space_group_name_H-M "P N N M"
_symmetry_group_IT_number 58
_symmetry_cell_setting 'orthorhombic'
loop_
_space_group_symop_operation_xyz
x,y,z
-x,-y,z
1/2+x,1/2-y,1/2-z
1/2-x,1/2+y,1/2-z
-x,-y,-z
x,y,-z
1/2-x,1/2+y,1/2+z
1/2+x,1/2-y,1/2+z
loop_
_atom_site_type_symbol
_atom_site_label
_atom_site_fract_x
_atom_site_fract_y
_atom_site_fract_z
Si Si1 0.803985 0.835180 0.674111
Si Si2 0.005069 0.198733 0.674722
Si Si3 0.610425 0.809309 0.673288
Si Si4 0.436882 0.442119 0.825251
Si Si5 0.918478 0.459716 0.174347
Si Si6 0.272442 0.518645 0.174936
O O1 0.803712 0.840039 0.500000
O O2 0.892130 0.796480 0.726309
O O3 0.712931 0.799107 0.723668
O O4 0.806990 0.910442 0.736294
O O5 0.996979 0.202912 0.500000
O O6 0.951587 0.258571 0.743449
O O7 0.964481 0.129712 0.736159
O O8 0.600318 0.798286 0.500000
O O9 0.578592 0.882695 0.720493
O O10 0.500000 0.500000 0.762683
O O11 0.337127 0.459540 0.772224
O O12 0.444574 0.440796 0.000000
O O13 0.827437 0.493533 0.231554
O O14 0.000000 0.500000 0.246044
O O15 0.922578 0.464855 0.000000
O O16 0.272700 0.522303 0.000000
#
# Coordination Sequence:
#
# PCOD8235416 Si02
#       6
#     8   8   8   8   8   8
#     4   8  14  27  46  63  85 123 157 175 212 277
#     4  10  18  29  47  70  93 118 151 191 228 265
#     4   9  18  32  47  65  92 125 154 181 222 276
#     4   9  14  22  40  67  90 107 140 190 230 256
#     4   8  14  26  44  63  84 114 151 186 220 262
#     4   8  12  21  39  62  85 109 142 184 223 259
#
# _framework density 17.305147000000002
#
# number of rings (size 3 to 8) (size 9 to 14) (size 15 to 20)
#    0.000    3.333    1.667    2.000    0.000    0.000 
#    3.000    0.833    0.000    1.000    0.000    1.167 
#    0.000    0.000    0.000    0.000    0.000    0.000 
#
# Total GULP energy -594652.592587 kJ/mol
# GULP energy per Si atom -12388.595679 kJ/mol
# Density = 1.726576 g / cm^3
# Si number density = 17.305147 Si / 1000 Ang^3
#
#
#
# Elastic Constant Matrix: (Units=GPa)
#
#
# Indices 1 2 3 4 5 6 
#
# 1 193.1393 95.4660 21.8560 0.0000 0.0000 0.0000
# 2 95.4660 103.3693 17.5102 0.0000 0.0000 0.0000
# 3 21.8560 17.5102 11.6353 0.0000 0.0000 0.0000
# 4 0.0000 0.0000 0.0000 18.8186 0.0000 0.0000
# 5 0.0000 0.0000 0.0000 0.0000 16.1760 0.0000
# 6 0.0000 0.0000 0.0000 0.0000 0.0000 35.7082
#
#
#
# Elastic Compliance Matrix: (Units=1/GPa)
#
#
# Indices 1 2 3 4 5 6 
#
# 1 0.009877 -0.008025 -0.006477 0.000000 0.000000 0.000000
# 2 -0.008025 0.019504 -0.014278 0.000000 0.000000 0.000000
# 3 -0.006477 -0.014278 0.119598 0.000000 0.000000 0.000000
# 4 0.000000 0.000000 0.000000 0.053139 0.000000 0.000000
# 5 0.000000 0.000000 0.000000 0.000000 0.061820 0.000000
# 6 0.000000 0.000000 0.000000 0.000000 0.000000 0.028005
#
#
# Mechanical properties :
#
#
# Convention : Reuss Voigt Hill
#
# Bulk Modulus (GPa) = 10.93849 64.20095 37.56972
# Shear Modulus (GPa) = 13.15880 25.69468 19.42674
#
# Velocity S-wave (km/s) = 2.76052 3.85749 3.35416
# Velocity P-wave (km/s) = 4.06144 7.55117 6.06282
#
# Compressibility (1/GPa) = 0.09142031
#
# Stress axis : x y z
#
# Youngs Moduli (GPa) = 101.24474 51.27190 8.36136
#
# Poissons Ratio (x) = 0.41145 0.05415
# Poissons Ratio (y) = 0.81247 0.11938
# Poissons Ratio (z) = 0.65572 0.73205
#
# Static dielectric constant tensor:
#      x y z
#    x 3.890090 0.000000 0.000000 
#    y 0.000000 3.190970 0.000000 
#    z 0.000000 0.000000 2.515970 
# 
# 
# High freq. dielectric constant tensor:
#      x y z
#    x 1.690280 0.000000 0.000000 
#    y 0.000000 1.654710 0.000000 
#    z 0.000000 0.000000 1.591830 
# 
# From -- ./inp_files/6036.got.cif
#   From: 2010.06.25/outbox.cif.g09.slc.cpg/sg58_4_cif.got.tgz:6036.got - 2010.06.26 21:38:00.
