data_PCOD8235582
_publ_section_title
;
Structure prediction by ZEFSAII (Michael W. Deem and Ramdas Pophale) SiO2 
 PCOD8235582
Probable space group: P N N M
;
_chemical_formula_sum "Si O2"
_cell_formula_units_Z 64
_cell_length_a 16.913051
_cell_length_b 22.253672
_cell_length_c 8.607173
_cell_angle_alpha 90.000000
_cell_angle_beta 90.000000
_cell_angle_gamma 90.000000
_cell_volume 3239.546165
_symmetry_space_group_name_H-M "P N N M"
_symmetry_group_IT_number 58
_symmetry_cell_setting 'orthorhombic'
loop_
_space_group_symop_operation_xyz
x,y,z
-x,-y,z
1/2+x,1/2-y,1/2-z
1/2-x,1/2+y,1/2-z
-x,-y,-z
x,y,-z
1/2-x,1/2+y,1/2+z
1/2+x,1/2-y,1/2+z
loop_
_atom_site_type_symbol
_atom_site_label
_atom_site_fract_x
_atom_site_fract_y
_atom_site_fract_z
Si Si1 0.925173 0.112197 0.820315
Si Si2 0.538162 0.191356 0.685477
Si Si3 0.804458 0.025225 0.316166
Si Si4 0.420653 0.676213 0.684085
Si Si5 0.360307 0.171876 0.682212
Si Si6 0.821615 0.207894 0.674537
Si Si7 0.317420 0.878607 0.674633
Si Si8 0.728416 0.398064 0.682724
O O1 0.887268 0.058845 0.718548
O O2 0.877460 0.174042 0.796334
O O3 0.014278 0.126485 0.763910
O O4 0.921681 0.093326 0.000000
O O5 0.545890 0.193103 0.500000
O O6 0.558994 0.257682 0.753871
O O7 0.451293 0.169905 0.738095
O O8 0.599301 0.140882 0.753714
O O9 0.797462 0.015762 0.500000
O O10 0.731703 0.066362 0.248486
O O11 0.804142 0.963119 0.226508
O O12 0.424057 0.681144 0.500000
O O13 0.335553 0.651669 0.739549
O O14 0.355846 0.183147 0.500000
O O15 0.314763 0.223549 0.775098
O O16 0.312237 0.111973 0.729642
O O17 0.856285 0.201683 0.500000
O O18 0.733636 0.182084 0.678646
O O19 0.334502 0.899522 0.500000
O O20 0.742045 0.394463 0.500000
#
# Coordination Sequence:
#
# PCOD8235582 Si02
#       8
#     8   8   8   8   8   8   8   8
#     4  10  18  33  57  84 111 143 183 226 270 322
#     4   9  16  31  55  83 108 135 177 226 269 322
#     4  10  21  38  56  80 112 146 189 234 279 329
#     4   9  18  33  56  84 111 142 184 226 269 335
#     4  11  21  34  55  81 111 142 177 229 284 329
#     4  10  18  31  53  81 113 145 179 218 271 333
#     4   8  16  31  55  79 102 140 186 226 262 317
#     4  11  23  39  58  78 106 149 193 232 276 331
#
# _framework density 19.755852999999998
#
# number of rings (size 3 to 8) (size 9 to 14) (size 15 to 20)
#    0.000    2.250    1.250    3.375    0.000    2.500 
#    0.000    5.625    0.000   12.000    0.000    0.000 
#    0.000    0.000    0.000    0.000    0.000    0.000 
#
# Total GULP energy -793261.930848 kJ/mol
# GULP energy per Si atom -12394.717670 kJ/mol
# Density = 1.971089 g / cm^3
# Si number density = 19.755853 Si / 1000 Ang^3
#
#
#
# Elastic Constant Matrix: (Units=GPa)
#
#
# Indices 1 2 3 4 5 6 
#
# 1 128.6070 43.0802 26.8625 0.0000 0.0000 0.0000
# 2 43.0802 56.0588 5.2001 0.0000 0.0000 0.0000
# 3 26.8625 5.2001 38.9684 0.0000 0.0000 0.0000
# 4 0.0000 0.0000 0.0000 27.8480 0.0000 0.0000
# 5 0.0000 0.0000 0.0000 0.0000 22.8714 0.0000
# 6 0.0000 0.0000 0.0000 0.0000 0.0000 21.2800
#
#
#
# Elastic Compliance Matrix: (Units=1/GPa)
#
#
# Indices 1 2 3 4 5 6 
#
# 1 0.012208 -0.008709 -0.007253 0.000000 0.000000 0.000000
# 2 -0.008709 0.024275 0.002764 0.000000 0.000000 0.000000
# 3 -0.007253 0.002764 0.030293 0.000000 0.000000 0.000000
# 4 0.000000 0.000000 0.000000 0.035909 0.000000 0.000000
# 5 0.000000 0.000000 0.000000 0.000000 0.043723 0.000000
# 6 0.000000 0.000000 0.000000 0.000000 0.000000 0.046992
#
#
# Mechanical properties :
#
#
# Convention : Reuss Voigt Hill
#
# Bulk Modulus (GPa) = 24.76515 41.54665 33.15590
# Shear Modulus (GPa) = 21.43575 24.29932 22.86753
#
# Velocity S-wave (km/s) = 3.29756 3.51091 3.40591
# Velocity P-wave (km/s) = 5.20205 6.12463 5.68209
#
# Compressibility (1/GPa) = 0.04037932
#
# Stress axis : x y z
#
# Youngs Moduli (GPa) = 81.91467 41.19548 33.01103
#
# Poissons Ratio (x) = 0.35876 0.23944
# Poissons Ratio (y) = 0.71337 -0.09124
# Poissons Ratio (z) = 0.59414 -0.11386
#
# Static dielectric constant tensor:
#      x y z
#    x 3.786880 0.000000 0.000000 
#    y 0.000000 3.512560 0.000000 
#    z 0.000000 0.000000 3.235650 
# 
# 
# High freq. dielectric constant tensor:
#      x y z
#    x 1.775460 0.000000 0.000000 
#    y 0.000000 1.758140 0.000000 
#    z 0.000000 0.000000 1.736990 
# 
# From -- ./inp_files/6960.got.cif
#   From: 2010.06.25/outbox.cif.g09.slc.cpg/sg58_4_cif.got.tgz:6960.got - 2010.06.26 21:38:00.
