data_PCOD8235384
_publ_section_title
;
Structure prediction by ZEFSAII (Michael W. Deem and Ramdas Pophale) SiO2 
 PCOD8235384
Probable space group: P N N M
;
_chemical_formula_sum "Si O2"
_cell_formula_units_Z 64
_cell_length_a 14.742147
_cell_length_b 30.341617
_cell_length_c 8.656403
_cell_angle_alpha 90.000000
_cell_angle_beta 90.000000
_cell_angle_gamma 90.000000
_cell_volume 3872.014066
_symmetry_space_group_name_H-M "P N N M"
_symmetry_group_IT_number 58
_symmetry_cell_setting 'orthorhombic'
loop_
_space_group_symop_operation_xyz
x,y,z
-x,-y,z
1/2+x,1/2-y,1/2-z
1/2-x,1/2+y,1/2-z
-x,-y,-z
x,y,-z
1/2-x,1/2+y,1/2+z
1/2+x,1/2-y,1/2+z
loop_
_atom_site_type_symbol
_atom_site_label
_atom_site_fract_x
_atom_site_fract_y
_atom_site_fract_z
Si Si1 0.319338 0.136287 0.320508
Si Si2 0.682489 0.292463 0.185488
Si Si3 0.987507 0.222757 0.327310
Si Si4 0.322763 0.866951 0.180842
Si Si5 0.599113 0.951253 0.316529
Si Si6 0.711212 0.709064 0.183373
Si Si7 0.988574 0.325491 0.327529
Si Si8 0.893322 0.549239 0.182957
O O1 0.301207 0.131783 0.500000
O O2 0.235940 0.164389 0.249689
O O3 0.333254 0.086841 0.250125
O O4 0.410663 0.163579 0.293568
O O5 0.578964 0.297796 0.249063
O O6 0.728161 0.247748 0.245625
O O7 0.683809 0.289560 0.000000
O O8 0.980220 0.204019 0.500000
O O9 0.006660 0.274201 0.326942
O O10 0.891505 0.211638 0.245939
O O11 0.247727 0.839087 0.272204
O O12 0.420301 0.848538 0.229207
O O13 0.322437 0.917961 0.234148
O O14 0.302984 0.862889 0.000000
O O15 0.595496 0.949152 0.500000
O O16 0.496403 0.942121 0.258181
O O17 0.633939 0.999469 0.265671
O O18 0.710287 0.715765 0.000000
O O19 0.960884 0.341387 0.500000
O O20 0.885516 0.555287 0.000000
#
# Coordination Sequence:
#
# PCOD8235384 Si02
#       8
#     8   8   8   8   8   8   8   8
#     4  10  18  28  47  71  93 121 159 190 221 269
#     4  10  19  32  48  68  94 121 151 193 233 264
#     4   9  18  33  46  61  91 125 153 185 231 268
#     4  11  21  32  46  67  95 124 156 194 234 270
#     4   8  15  27  44  69  96 123 152 189 229 272
#     4  11  21  32  48  66  88 123 161 187 219 277
#     4  10  18  29  44  62  93 128 151 184 228 268
#     4   9  16  29  47  65  94 126 154 188 229 278
#
# _framework density 16.528865
#
# number of rings (size 3 to 8) (size 9 to 14) (size 15 to 20)
#    0.000    2.250    3.750    1.500    0.000    0.500 
#    0.000    3.125    0.000    0.000    0.000    0.875 
#    0.000    7.000    0.000    0.000    0.000    0.000 
#
# Total GULP energy -793041.158649 kJ/mol
# GULP energy per Si atom -12391.268104 kJ/mol
# Density = 1.649124 g / cm^3
# Si number density = 16.528865 Si / 1000 Ang^3
#
#
#
# Elastic Constant Matrix: (Units=GPa)
#
#
# Indices 1 2 3 4 5 6 
#
# 1 106.1987 53.2838 16.0684 0.0000 0.0000 0.0000
# 2 53.2838 107.6547 13.8372 0.0000 0.0000 0.0000
# 3 16.0684 13.8372 20.9805 0.0000 0.0000 0.0000
# 4 0.0000 0.0000 0.0000 18.0334 0.0000 0.0000
# 5 0.0000 0.0000 0.0000 0.0000 15.2562 0.0000
# 6 0.0000 0.0000 0.0000 0.0000 0.0000 25.2119
#
#
#
# Elastic Compliance Matrix: (Units=1/GPa)
#
#
# Indices 1 2 3 4 5 6 
#
# 1 0.013263 -0.005746 -0.006368 0.000000 0.000000 0.000000
# 2 -0.005746 0.012639 -0.003935 0.000000 0.000000 0.000000
# 3 -0.006368 -0.003935 0.055136 0.000000 0.000000 0.000000
# 4 0.000000 0.000000 0.000000 0.055453 0.000000 0.000000
# 5 0.000000 0.000000 0.000000 0.000000 0.065547 0.000000
# 6 0.000000 0.000000 0.000000 0.000000 0.000000 0.039664
#
#
# Mechanical properties :
#
#
# Convention : Reuss Voigt Hill
#
# Bulk Modulus (GPa) = 20.43347 44.57919 32.50633
# Shear Modulus (GPa) = 17.23478 21.80994 19.52236
#
# Velocity S-wave (km/s) = 3.23260 3.63644 3.44045
# Velocity P-wave (km/s) = 5.13051 6.68286 5.95746
#
# Compressibility (1/GPa) = 0.04893931
#
# Stress axis : x y z
#
# Youngs Moduli (GPa) = 75.39908 79.12218 18.13713
#
# Poissons Ratio (x) = 0.45463 0.11550
# Poissons Ratio (y) = 0.43324 0.07137
# Poissons Ratio (z) = 0.48014 0.31134
#
# Static dielectric constant tensor:
#      x y z
#    x 3.208960 0.000000 0.000000 
#    y 0.000000 3.382620 0.000000 
#    z 0.000000 0.000000 2.904640 
# 
# 
# High freq. dielectric constant tensor:
#      x y z
#    x 1.613800 0.000000 0.000000 
#    y 0.000000 1.633410 0.000000 
#    z 0.000000 0.000000 1.612500 
# 
# From -- ./inp_files/7162.got.cif
#   From: 2010.06.25/outbox.cif.g09.slc.cpg/sg58_4_cif.got.tgz:7162.got - 2010.06.26 21:38:00.
