data_PCOD8235117
_publ_section_title
;
Structure prediction by ZEFSAII (Michael W. Deem and Ramdas Pophale) SiO2 
 PCOD8235117
Probable space group: P B C M
;
_chemical_formula_sum "Si O2"
_cell_formula_units_Z 40
_cell_length_a 5.001455
_cell_length_b 22.143454
_cell_length_c 14.055474
_cell_angle_alpha 90.000000
_cell_angle_beta 90.000000
_cell_angle_gamma 90.000000
_cell_volume 1556.636559
_symmetry_space_group_name_H-M "P B C M"
_symmetry_group_IT_number 57
_symmetry_cell_setting 'orthorhombic'
loop_
_space_group_symop_operation_xyz
x,y,z
-x,-y,1/2+z
x,1/2-y,-z
-x,1/2+y,1/2-z
-x,-y,-z
x,y,1/2-z
-x,1/2+y,z
x,1/2-y,1/2+z
loop_
_atom_site_type_symbol
_atom_site_label
_atom_site_fract_x
_atom_site_fract_y
_atom_site_fract_z
Si Si1 0.715319 0.593190 0.141410
Si Si2 0.488673 0.222406 0.399523
Si Si3 0.478318 0.465268 0.358714
Si Si4 0.977582 0.089742 0.956581
Si Si5 0.000416 0.290002 0.149001
O O1 0.823715 0.600640 0.250000
O O2 0.542579 0.650445 0.107200
O O3 0.514819 0.536836 0.135095
O O4 0.963130 0.582124 0.069066
O O5 0.409426 0.250000 0.500000
O O6 0.792505 0.236819 0.373763
O O7 0.281755 0.257103 0.332071
O O8 0.517205 0.442459 0.250000
O O9 0.181277 0.449570 0.393276
O O10 0.680558 0.431754 0.430618
O O11 0.002253 0.160671 0.933917
O O12 0.926047 0.321440 0.250000
#
# Coordination Sequence:
#
# PCOD8235117 Si02
#       5
#     8   8   8   8   8
#     4  11  26  48  75 108 149 198 245 299 363 436
#     4  12  26  48  71 104 147 186 244 299 366 433
#     4  11  25  46  75 110 149 194 244 298 366 433
#     4  12  25  47  74 110 151 189 244 303 360 434
#     4  12  25  44  74 105 142 190 239 300 364 428
#
# _framework density 25.696428000000001
#
# number of rings (size 3 to 8) (size 9 to 14) (size 15 to 20)
#    0.000    0.400    2.000    6.600    0.000    1.600 
#    0.000    7.000    0.000    0.000    0.000    0.000 
#    0.000    0.000    0.000    0.000    0.000    0.000 
#
# Total GULP energy -496113.072086 kJ/mol
# GULP energy per Si atom -12402.826802 kJ/mol
# Density = 2.563794 g / cm^3
# Si number density = 25.696428 Si / 1000 Ang^3
#
#
#
# Elastic Constant Matrix: (Units=GPa)
#
#
# Indices 1 2 3 4 5 6 
#
# 1 69.0402 21.7435 10.9640 0.0000 0.0000 0.0000
# 2 21.7435 120.3788 26.9708 0.0000 0.0000 0.0000
# 3 10.9640 26.9708 167.1884 0.0000 0.0000 0.0000
# 4 0.0000 0.0000 0.0000 36.0964 0.0000 0.0000
# 5 0.0000 0.0000 0.0000 0.0000 3.1386 0.0000
# 6 0.0000 0.0000 0.0000 0.0000 0.0000 37.4790
#
#
#
# Elastic Compliance Matrix: (Units=1/GPa)
#
#
# Indices 1 2 3 4 5 6 
#
# 1 0.015412 -0.002653 -0.000583 0.000000 0.000000 0.000000
# 2 -0.002653 0.009075 -0.001290 0.000000 0.000000 0.000000
# 3 -0.000583 -0.001290 0.006228 0.000000 0.000000 0.000000
# 4 0.000000 0.000000 0.000000 0.027704 0.000000 0.000000
# 5 0.000000 0.000000 0.000000 0.000000 0.318618 0.000000
# 6 0.000000 0.000000 0.000000 0.000000 0.000000 0.026682
#
#
# Mechanical properties :
#
#
# Convention : Reuss Voigt Hill
#
# Bulk Modulus (GPa) = 46.16092 52.88489 49.52290
# Shear Modulus (GPa) = 11.90500 35.13807 23.52153
#
# Velocity S-wave (km/s) = 2.15476 3.70189 3.02878
# Velocity P-wave (km/s) = 4.91870 6.23677 5.61653
#
# Compressibility (1/GPa) = 0.02166335
#
# Stress axis : x y z
#
# Youngs Moduli (GPa) = 64.88246 110.18799 160.57558
#
# Poissons Ratio (x) = 0.29237 0.09357
# Poissons Ratio (y) = 0.17215 0.20715
# Poissons Ratio (z) = 0.03781 0.14215
#
# Static dielectric constant tensor:
#      x y z
#    x 4.334640 0.000000 0.000000 
#    y 0.000000 4.612990 0.000000 
#    z 0.000000 0.000000 5.156060 
# 
# 
# High freq. dielectric constant tensor:
#      x y z
#    x 2.019510 0.000000 0.000000 
#    y 0.000000 2.034790 0.000000 
#    z 0.000000 0.000000 2.050570 
# 
# From -- ./inp_files/14942.got.cif
#   From: 2010.03.12/outbox.cif.g09.slc.cpg/sg57_8_cif.got.tgz:14942.got - 2010.04.16 15:48:40.
