data_PCOD8235051
_publ_section_title
;
Structure prediction by ZEFSAII (Michael W. Deem and Ramdas Pophale) SiO2 
 PCOD8235051
Probable space group: P B C M
;
_chemical_formula_sum "Si O2"
_cell_formula_units_Z 64
_cell_length_a 13.401145
_cell_length_b 9.621912
_cell_length_c 23.308181
_cell_angle_alpha 90.000000
_cell_angle_beta 90.000000
_cell_angle_gamma 90.000000
_cell_volume 3005.464959
_symmetry_space_group_name_H-M "P B C M"
_symmetry_group_IT_number 57
_symmetry_cell_setting 'orthorhombic'
loop_
_space_group_symop_operation_xyz
x,y,z
-x,-y,1/2+z
x,1/2-y,-z
-x,1/2+y,1/2-z
-x,-y,-z
x,y,1/2-z
-x,1/2+y,z
x,1/2-y,1/2+z
loop_
_atom_site_type_symbol
_atom_site_label
_atom_site_fract_x
_atom_site_fract_y
_atom_site_fract_z
Si Si1 0.297711 0.229910 0.816821
Si Si2 0.298495 0.759016 0.183944
Si Si3 0.378781 0.010128 0.379077
Si Si4 0.688319 0.085311 0.500964
Si Si5 0.392058 0.519420 0.121990
Si Si6 0.089956 0.901618 0.517308
Si Si7 0.071153 0.318850 0.314211
Si Si8 0.905714 0.126538 0.147837
O O1 0.326640 0.251598 0.750000
O O2 0.355979 0.334361 0.858420
O O3 0.179861 0.243271 0.826289
O O4 0.325251 0.075946 0.836986
O O5 0.330602 0.760393 0.250000
O O6 0.377966 0.673917 0.146453
O O7 0.187503 0.699310 0.178244
O O8 0.305450 0.913883 0.158587
O O9 0.494269 0.974153 0.369675
O O10 0.363419 0.993492 0.446764
O O11 0.664712 0.250000 0.500000
O O12 0.645645 0.013331 0.443666
O O13 0.805989 0.059900 0.513148
O O14 0.052854 0.750000 0.500000
O O15 0.120555 0.913128 0.583377
O O16 0.000000 0.000000 0.500000
O O17 0.037313 0.283258 0.250000
O O18 0.064229 0.484886 0.320585
O O19 0.995823 0.236832 0.355264
#
# Coordination Sequence:
#
# PCOD8235051 Si02
#       8
#     8   8   8   8   8   8   8   8
#     4  11  26  45  65 102 146 174 223 294 345 409
#     4  12  24  44  71  98 137 188 232 284 357 425
#     4  12  27  43  71 101 134 180 237 290 348 414
#     4  11  23  47  71  98 139 177 231 293 349 417
#     4  12  24  47  71  98 135 187 231 289 350 415
#     4  11  23  41  67  97 131 173 220 278 342 401
#     4  11  24  42  66  97 134 175 218 273 336 408
#     4  12  24  44  69 100 135 179 228 277 346 419
#
# _framework density 21.294542
#
# number of rings (size 3 to 8) (size 9 to 14) (size 15 to 20)
#    0.000    0.500    3.750    4.500    3.500    3.500 
#    0.000    0.000    0.000    0.000    0.000    0.000 
#    0.000    0.000    0.000    0.000    0.000    0.000 
#
# Total GULP energy -793902.476251 kJ/mol
# GULP energy per Si atom -12404.726191 kJ/mol
# Density = 2.124607 g / cm^3
# Si number density = 21.294542 Si / 1000 Ang^3
#
#
#
# Elastic Constant Matrix: (Units=GPa)
#
#
# Indices 1 2 3 4 5 6 
#
# 1 97.6246 31.9854 30.0087 0.0000 0.0000 0.0000
# 2 31.9854 74.0736 22.6857 0.0000 0.0000 0.0000
# 3 30.0087 22.6857 109.5981 0.0000 0.0000 0.0000
# 4 0.0000 0.0000 0.0000 39.1912 0.0000 0.0000
# 5 0.0000 0.0000 0.0000 0.0000 24.2444 0.0000
# 6 0.0000 0.0000 0.0000 0.0000 0.0000 34.6767
#
#
#
# Elastic Compliance Matrix: (Units=1/GPa)
#
#
# Indices 1 2 3 4 5 6 
#
# 1 0.012526 -0.004653 -0.002467 0.000000 0.000000 0.000000
# 2 -0.004653 0.016143 -0.002067 0.000000 0.000000 0.000000
# 3 -0.002467 -0.002067 0.010227 0.000000 0.000000 0.000000
# 4 0.000000 0.000000 0.000000 0.025516 0.000000 0.000000
# 5 0.000000 0.000000 0.000000 0.000000 0.041247 0.000000
# 6 0.000000 0.000000 0.000000 0.000000 0.000000 0.028838
#
#
# Mechanical properties :
#
#
# Convention : Reuss Voigt Hill
#
# Bulk Modulus (GPa) = 48.72858 50.07286 49.40072
# Shear Modulus (GPa) = 31.30644 32.73023 32.01834
#
# Velocity S-wave (km/s) = 3.83843 3.92474 3.88183
# Velocity P-wave (km/s) = 6.52515 6.64105 6.58336
#
# Compressibility (1/GPa) = 0.02052184
#
# Stress axis : x y z
#
# Youngs Moduli (GPa) = 79.83300 61.94795 97.77570
#
# Poissons Ratio (x) = 0.28827 0.24117
# Poissons Ratio (y) = 0.37150 0.20212
# Poissons Ratio (z) = 0.19691 0.12806
#
# Static dielectric constant tensor:
#      x y z
#    x 3.831480 0.000000 0.000000 
#    y 0.000000 3.746580 0.000000 
#    z 0.000000 0.000000 3.896570 
# 
# 
# High freq. dielectric constant tensor:
#      x y z
#    x 1.843420 0.000000 0.000000 
#    y 0.000000 1.836250 0.000000 
#    z 0.000000 0.000000 1.846820 
# 
# From -- ./inp_files/27489.got.cif
#   From: 2010.03.12/outbox.cif.g09.slc.cpg/sg57_14_cif.got.tgz:27489.got - 2010.04.16 15:48:40.
