data_PCOD8235125
_publ_section_title
;
Structure prediction by ZEFSAII (Michael W. Deem and Ramdas Pophale) SiO2 
 PCOD8235125
Probable space group: P B C M
;
_chemical_formula_sum "Si O2"
_cell_formula_units_Z 20
_cell_length_a 7.210161
_cell_length_b 11.307280
_cell_length_c 9.623628
_cell_angle_alpha 90.000000
_cell_angle_beta 90.000000
_cell_angle_gamma 90.000000
_cell_volume 784.588496
_symmetry_space_group_name_H-M "P B C M"
_symmetry_group_IT_number 57
_symmetry_cell_setting 'orthorhombic'
loop_
_space_group_symop_operation_xyz
x,y,z
-x,-y,1/2+z
x,1/2-y,-z
-x,1/2+y,1/2-z
-x,-y,-z
x,y,1/2-z
-x,1/2+y,z
x,1/2-y,1/2+z
loop_
_atom_site_type_symbol
_atom_site_label
_atom_site_fract_x
_atom_site_fract_y
_atom_site_fract_z
Si Si1 0.747006 0.469482 0.750000
Si Si2 0.668820 0.951538 0.750000
Si Si3 0.813718 0.370190 0.468128
Si Si4 0.112181 0.291538 0.250000
O O1 0.544424 0.409783 0.750000
O O2 0.868821 0.428070 0.616909
O O3 0.723341 0.611288 0.750000
O O4 0.801046 0.838185 0.750000
O O5 0.699422 0.032061 0.614744
O O6 0.693213 0.250000 0.500000
O O7 0.991634 0.319123 0.386908
#
# Coordination Sequence:
#
# PCOD8235125 Si02
#       4
#     4   4   8   4
#     4  12  26  49  77 113 158 195 260 323 388 449
#     4  11  28  50  76 119 153 204 258 318 392 453
#     4  11  27  48  77 110 155 202 257 312 380 466
#     4  11  28  45  81 108 151 207 256 315 380 468
#
# _framework density 25.491067000000001
#
# number of rings (size 3 to 8) (size 9 to 14) (size 15 to 20)
#    0.000    0.800    0.000    4.800   22.400    0.000 
#    0.000    0.000    0.000    0.000    0.000    0.000 
#    0.000    0.000    0.000    0.000    0.000    0.000 
#
# Total GULP energy -247846.349823 kJ/mol
# GULP energy per Si atom -12392.317491 kJ/mol
# Density = 2.543305 g / cm^3
# Si number density = 25.491067 Si / 1000 Ang^3
#
#
#
# Elastic Constant Matrix: (Units=GPa)
#
#
# Indices 1 2 3 4 5 6 
#
# 1 119.2859 48.2677 46.8125 0.0000 0.0000 0.0000
# 2 48.2677 216.9024 79.0677 0.0000 0.0000 0.0000
# 3 46.8125 79.0677 229.7418 0.0000 0.0000 0.0000
# 4 0.0000 0.0000 0.0000 53.8227 0.0000 0.0000
# 5 0.0000 0.0000 0.0000 0.0000 7.3778 0.0000
# 6 0.0000 0.0000 0.0000 0.0000 0.0000 34.8444
#
#
#
# Elastic Compliance Matrix: (Units=1/GPa)
#
#
# Indices 1 2 3 4 5 6 
#
# 1 0.009588 -0.001625 -0.001394 0.000000 0.000000 0.000000
# 2 -0.001625 0.005547 -0.001578 0.000000 0.000000 0.000000
# 3 -0.001394 -0.001578 0.005180 0.000000 0.000000 0.000000
# 4 0.000000 0.000000 0.000000 0.018580 0.000000 0.000000
# 5 0.000000 0.000000 0.000000 0.000000 0.135542 0.000000
# 6 0.000000 0.000000 0.000000 0.000000 0.000000 0.028699
#
#
# Mechanical properties :
#
#
# Convention : Reuss Voigt Hill
#
# Bulk Modulus (GPa) = 89.92821 101.58066 95.75444
# Shear Modulus (GPa) = 23.14415 45.32779 34.23597
#
# Velocity S-wave (km/s) = 3.01646 4.22143 3.66875
# Velocity P-wave (km/s) = 6.89108 7.98102 7.45599
#
# Compressibility (1/GPa) = 0.01111998
#
# Stress axis : x y z
#
# Youngs Moduli (GPa) = 104.29602 180.26844 193.05462
#
# Poissons Ratio (x) = 0.29301 0.26917
# Poissons Ratio (y) = 0.16952 0.30463
# Poissons Ratio (z) = 0.14542 0.28446
#
# Static dielectric constant tensor:
#      x y z
#    x 3.928980 0.000000 0.000000 
#    y 0.000000 5.319290 0.000000 
#    z 0.000000 0.000000 5.031770 
# 
# 
# High freq. dielectric constant tensor:
#      x y z
#    x 1.971530 0.000000 0.000000 
#    y 0.000000 2.057510 0.000000 
#    z 0.000000 0.000000 2.043830 
# 
# From -- ./inp_files/897.got.cif
#   From: 2010.03.12/outbox.cif.g09.slc.cpg/sg57_1_cif.got.tgz:897.got - 2010.04.16 15:48:40.
