data_PCOD8235568
_publ_section_title
;
Structure prediction by ZEFSAII (Michael W. Deem and Ramdas Pophale) SiO2 
 PCOD8235568
Probable space group: P N N M
;
_chemical_formula_sum "Si O2"
_cell_formula_units_Z 56
_cell_length_a 16.836129
_cell_length_b 19.972395
_cell_length_c 8.902716
_cell_angle_alpha 90.000000
_cell_angle_beta 90.000000
_cell_angle_gamma 90.000000
_cell_volume 2993.607862
_symmetry_space_group_name_H-M "P N N M"
_symmetry_group_IT_number 58
_symmetry_cell_setting 'orthorhombic'
loop_
_space_group_symop_operation_xyz
x,y,z
-x,-y,z
1/2+x,1/2-y,1/2-z
1/2-x,1/2+y,1/2-z
-x,-y,-z
x,y,-z
1/2-x,1/2+y,1/2+z
1/2+x,1/2-y,1/2+z
loop_
_atom_site_type_symbol
_atom_site_label
_atom_site_fract_x
_atom_site_fract_y
_atom_site_fract_z
Si Si1 0.766189 0.256684 0.826153
Si Si2 0.064754 0.554313 0.177534
Si Si3 0.740403 0.982324 0.321064
Si Si4 0.080741 0.690082 0.322309
Si Si5 0.306597 0.376455 0.178306
Si Si6 0.645274 0.368438 0.174220
Si Si7 0.977102 0.167626 0.322423
O O1 0.831947 0.302395 0.746810
O O2 0.757223 0.183991 0.751446
O O3 0.683421 0.295238 0.804539
O O4 0.788960 0.248844 0.000000
O O5 0.151169 0.530807 0.236652
O O6 0.040050 0.623837 0.255639
O O7 0.000000 0.500000 0.227339
O O8 0.064729 0.565198 0.000000
O O9 0.741154 0.979717 0.500000
O O10 0.800401 0.926640 0.252212
O O11 0.769414 0.054535 0.263056
O O12 0.088629 0.684286 0.500000
O O13 0.028894 0.754586 0.274055
O O14 0.398718 0.372354 0.231372
O O15 0.300395 0.368842 0.000000
O O16 0.556913 0.365410 0.247975
O O17 0.637620 0.386460 0.000000
O O18 0.983699 0.163782 0.500000
#
# Coordination Sequence:
#
# PCOD8235568 Si02
#       7
#     8   8   8   8   8   8   8
#     4  10  18  31  53  74  97 133 172 207 249 306
#     4  10  20  34  52  75 104 139 176 210 252 307
#     4   9  17  31  50  74 102 135 171 209 250 301
#     4  10  19  33  52  74 102 130 166 214 262 304
#     4   9  18  32  50  73 104 132 163 210 259 300
#     4   9  16  28  50  75  98 127 170 211 246 299
#     4   8  16  29  46  74 101 125 160 210 258 294
#
# _framework density 18.706526
#
# number of rings (size 3 to 8) (size 9 to 14) (size 15 to 20)
#    0.000    2.714    1.429    1.714    0.000    2.000 
#    0.000    3.571    0.000    7.714    0.000    4.000 
#    0.000    0.000    0.000    0.000    0.000    0.000 
#
# Total GULP energy -694196.934065 kJ/mol
# GULP energy per Si atom -12396.373823 kJ/mol
# Density = 1.866395 g / cm^3
# Si number density = 18.706526 Si / 1000 Ang^3
#
#
#
# Elastic Constant Matrix: (Units=GPa)
#
#
# Indices 1 2 3 4 5 6 
#
# 1 103.6689 62.8613 13.7422 0.0000 0.0000 0.0000
# 2 62.8613 138.4317 23.0370 0.0000 0.0000 0.0000
# 3 13.7422 23.0370 31.9584 0.0000 0.0000 0.0000
# 4 0.0000 0.0000 0.0000 26.9789 0.0000 0.0000
# 5 0.0000 0.0000 0.0000 0.0000 13.1946 0.0000
# 6 0.0000 0.0000 0.0000 0.0000 0.0000 27.6859
#
#
#
# Elastic Compliance Matrix: (Units=1/GPa)
#
#
# Indices 1 2 3 4 5 6 
#
# 1 0.013380 -0.005816 -0.001561 0.000000 0.000000 0.000000
# 2 -0.005816 0.010736 -0.005238 0.000000 0.000000 0.000000
# 3 -0.001561 -0.005238 0.035738 0.000000 0.000000 0.000000
# 4 0.000000 0.000000 0.000000 0.037066 0.000000 0.000000
# 5 0.000000 0.000000 0.000000 0.000000 0.075789 0.000000
# 6 0.000000 0.000000 0.000000 0.000000 0.000000 0.036119
#
#
# Mechanical properties :
#
#
# Convention : Reuss Voigt Hill
#
# Bulk Modulus (GPa) = 28.88213 52.59332 40.73772
# Shear Modulus (GPa) = 20.35834 25.19980 22.77907
#
# Velocity S-wave (km/s) = 3.30252 3.67429 3.49335
# Velocity P-wave (km/s) = 5.47862 6.79533 6.17219
#
# Compressibility (1/GPa) = 0.03462349
#
# Stress axis : x y z
#
# Youngs Moduli (GPa) = 74.74106 93.14036 27.98145
#
# Poissons Ratio (x) = 0.54169 0.04368
# Poissons Ratio (y) = 0.43468 0.14658
# Poissons Ratio (z) = 0.11666 0.48792
#
# Static dielectric constant tensor:
#      x y z
#    x 3.635130 0.000000 0.000000 
#    y 0.000000 3.591210 0.000000 
#    z 0.000000 0.000000 3.024160 
# 
# 
# High freq. dielectric constant tensor:
#      x y z
#    x 1.725450 0.000000 0.000000 
#    y 0.000000 1.734110 0.000000 
#    z 0.000000 0.000000 1.680150 
# 
# From -- ./inp_files/6273.got.cif
#   From: 2010.06.25/outbox.cif.g09.slc.cpg/sg58_4_cif.got.tgz:6273.got - 2010.06.26 21:38:00.
