data_PCOD8235397
_publ_section_title
;
Structure prediction by ZEFSAII (Michael W. Deem and Ramdas Pophale) SiO2 
 PCOD8235397
Probable space group: P N N M
;
_chemical_formula_sum "Si O2"
_cell_formula_units_Z 52
_cell_length_a 19.807030
_cell_length_b 14.688184
_cell_length_c 9.249957
_cell_angle_alpha 90.000000
_cell_angle_beta 90.000000
_cell_angle_gamma 90.000000
_cell_volume 2691.083526
_symmetry_space_group_name_H-M "P N N M"
_symmetry_group_IT_number 58
_symmetry_cell_setting 'orthorhombic'
loop_
_space_group_symop_operation_xyz
x,y,z
-x,-y,z
1/2+x,1/2-y,1/2-z
1/2-x,1/2+y,1/2-z
-x,-y,-z
x,y,-z
1/2-x,1/2+y,1/2+z
1/2+x,1/2-y,1/2+z
loop_
_atom_site_type_symbol
_atom_site_label
_atom_site_fract_x
_atom_site_fract_y
_atom_site_fract_z
Si Si1 0.374048 0.103306 0.841639
Si Si2 0.443754 0.815000 0.337584
Si Si3 0.677182 0.608503 0.827930
Si Si4 0.420462 0.267952 0.327902
Si Si5 0.500000 0.000000 0.244963
Si Si6 0.772069 0.940286 0.166092
Si Si7 0.799817 0.733236 0.170604
O O1 0.377494 0.179299 0.717967
O O2 0.307967 0.042357 0.811298
O O3 0.439824 0.039706 0.852048
O O4 0.365325 0.150907 0.000000
O O5 0.433505 0.782188 0.500000
O O6 0.502618 0.750096 0.272514
O O7 0.371430 0.800050 0.259298
O O8 0.467636 0.919918 0.340670
O O9 0.608116 0.644325 0.754809
O O10 0.687385 0.506232 0.772139
O O11 0.738877 0.671046 0.769516
O O12 0.669637 0.608580 0.000000
O O13 0.415488 0.280111 0.500000
O O14 0.788656 0.837528 0.213923
O O15 0.793601 0.958205 0.000000
O O16 0.800230 0.719404 0.000000
#
# Coordination Sequence:
#
# PCOD8235397 Si02
#       7
#     8   8   8   8   4   8   8
#     4  10  19  33  51  77 113 149 180 219 278 338
#     4   9  18  32  52  79 111 144 183 232 282 332
#     4  11  21  36  58  82 109 145 185 229 284 337
#     4  10  20  34  54  79 107 141 181 225 272 327
#     4  10  18  28  50  82 115 144 183 228 283 350
#     4  10  20  35  55  79 108 143 188 232 272 329
#     4   9  18  35  56  78 109 147 184 226 278 333
#
# _framework density 19.323072
#
# number of rings (size 3 to 8) (size 9 to 14) (size 15 to 20)
#    0.000    2.154    1.538    2.308    0.000    1.231 
#    0.000    0.769    0.000   12.923    0.000    0.000 
#    0.000    0.000    0.000    0.000    0.000    0.000 
#
# Total GULP energy -644509.730817 kJ/mol
# GULP energy per Si atom -12394.417900 kJ/mol
# Density = 1.927909 g / cm^3
# Si number density = 19.323072 Si / 1000 Ang^3
#
#
#
# Elastic Constant Matrix: (Units=GPa)
#
#
# Indices 1 2 3 4 5 6 
#
# 1 95.4274 29.5504 13.8976 0.0000 0.0000 0.0000
# 2 29.5504 83.8184 14.4676 0.0000 0.0000 0.0000
# 3 13.8976 14.4676 59.2030 0.0000 0.0000 0.0000
# 4 0.0000 0.0000 0.0000 28.4763 0.0000 0.0000
# 5 0.0000 0.0000 0.0000 0.0000 20.8957 0.0000
# 6 0.0000 0.0000 0.0000 0.0000 0.0000 30.7727
#
#
#
# Elastic Compliance Matrix: (Units=1/GPa)
#
#
# Indices 1 2 3 4 5 6 
#
# 1 0.011955 -0.003895 -0.001855 0.000000 0.000000 0.000000
# 2 -0.003895 0.013725 -0.002440 0.000000 0.000000 0.000000
# 3 -0.001855 -0.002440 0.017923 0.000000 0.000000 0.000000
# 4 0.000000 0.000000 0.000000 0.035117 0.000000 0.000000
# 5 0.000000 0.000000 0.000000 0.000000 0.047857 0.000000
# 6 0.000000 0.000000 0.000000 0.000000 0.000000 0.032496
#
#
# Mechanical properties :
#
#
# Convention : Reuss Voigt Hill
#
# Bulk Modulus (GPa) = 36.73166 39.36443 38.04805
# Shear Modulus (GPa) = 27.09646 28.06447 27.58046
#
# Velocity S-wave (km/s) = 3.74877 3.81515 3.78211
# Velocity P-wave (km/s) = 6.14721 6.31055 6.22942
#
# Compressibility (1/GPa) = 0.02722447
#
# Stress axis : x y z
#
# Youngs Moduli (GPa) = 83.64458 72.86096 55.79544
#
# Poissons Ratio (x) = 0.28378 0.10348
# Poissons Ratio (y) = 0.32578 0.13612
# Poissons Ratio (z) = 0.15513 0.17776
#
# Static dielectric constant tensor:
#      x y z
#    x 3.944450 0.000000 0.000000 
#    y 0.000000 3.369380 0.000000 
#    z 0.000000 0.000000 3.215990 
# 
# 
# High freq. dielectric constant tensor:
#      x y z
#    x 1.762300 0.000000 0.000000 
#    y 0.000000 1.737550 0.000000 
#    z 0.000000 0.000000 1.723370 
# 
# From -- ./inp_files/6140.got.cif
#   From: 2010.06.25/outbox.cif.g09.slc.cpg/sg58_4_cif.got.tgz:6140.got - 2010.06.26 21:38:00.
