data_PCOD8235518
_publ_section_title
;
Structure prediction by ZEFSAII (Michael W. Deem and Ramdas Pophale) SiO2 
 PCOD8235518
Probable space group: P N N M
;
_chemical_formula_sum "Si O2"
_cell_formula_units_Z 52
_cell_length_a 14.617709
_cell_length_b 22.402251
_cell_length_c 7.748370
_cell_angle_alpha 90.000000
_cell_angle_beta 90.000000
_cell_angle_gamma 90.000000
_cell_volume 2537.355517
_symmetry_space_group_name_H-M "P N N M"
_symmetry_group_IT_number 58
_symmetry_cell_setting 'orthorhombic'
loop_
_space_group_symop_operation_xyz
x,y,z
-x,-y,z
1/2+x,1/2-y,1/2-z
1/2-x,1/2+y,1/2-z
-x,-y,-z
x,y,-z
1/2-x,1/2+y,1/2+z
1/2+x,1/2-y,1/2+z
loop_
_atom_site_type_symbol
_atom_site_label
_atom_site_fract_x
_atom_site_fract_y
_atom_site_fract_z
Si Si1 0.124363 0.143286 0.185760
Si Si2 0.130229 0.271036 0.301974
Si Si3 0.068426 0.691695 0.300502
Si Si4 0.558338 0.421983 0.000000
Si Si5 0.635464 0.602012 0.000000
Si Si6 0.314861 0.082385 0.197448
Si Si7 0.253714 0.508184 0.000000
Si Si8 0.669827 0.690137 0.695923
O O1 0.122741 0.214280 0.179915
O O2 0.058384 0.119073 0.331182
O O3 0.227321 0.123679 0.218884
O O4 0.089475 0.119617 0.000000
O O5 0.133312 0.249229 0.500000
O O6 0.222647 0.306157 0.256783
O O7 0.040301 0.310678 0.265314
O O8 0.092276 0.701310 0.500000
O O9 0.102865 0.625890 0.243024
O O10 0.119388 0.745662 0.203166
O O11 0.452511 0.444625 0.000000
O O12 0.643087 0.466409 0.000000
O O13 0.628024 0.643083 0.829904
O O14 0.728995 0.563037 0.000000
O O15 0.303691 0.026837 0.329323
O O16 0.327132 0.058594 0.000000
O O17 0.657493 0.666188 0.500000
#
# Coordination Sequence:
#
# PCOD8235518 Si02
#       8
#     8   8   8   4   4   8   4   8
#     4  10  18  30  52  83 118 150 183 232 288 344
#     4  10  20  33  53  82 120 158 186 226 293 357
#     4  10  19  35  58  87 119 149 191 238 291 350
#     4  10  21  38  58  82 114 152 201 243 282 341
#     4  12  25  42  57  82 119 159 200 237 295 352
#     4   9  19  35  58  84 111 145 193 245 285 334
#     4  10  23  40  63  82 109 159 203 247 286 336
#     4  11  24  38  56  85 124 160 187 234 294 354
#
# _framework density 20.493776
#
# number of rings (size 3 to 8) (size 9 to 14) (size 15 to 20)
#    0.000    1.846    3.077    1.154    2.154    3.077 
#    0.000    0.000    0.000    6.462    0.000    4.308 
#    0.000    0.000    0.000    0.000    0.000    0.000 
#
# Total GULP energy -644457.772101 kJ/mol
# GULP energy per Si atom -12393.418694 kJ/mol
# Density = 2.044713 g / cm^3
# Si number density = 20.493776 Si / 1000 Ang^3
#
#
#
# Elastic Constant Matrix: (Units=GPa)
#
#
# Indices 1 2 3 4 5 6 
#
# 1 93.6791 -5.8788 13.9872 0.0000 0.0000 0.0000
# 2 -5.8788 19.8712 6.3810 0.0000 0.0000 0.0000
# 3 13.9872 6.3810 92.2893 0.0000 0.0000 0.0000
# 4 0.0000 0.0000 0.0000 10.9722 0.0000 0.0000
# 5 0.0000 0.0000 0.0000 0.0000 36.8560 0.0000
# 6 0.0000 0.0000 0.0000 0.0000 0.0000 18.0607
#
#
#
# Elastic Compliance Matrix: (Units=1/GPa)
#
#
# Indices 1 2 3 4 5 6 
#
# 1 0.011217 0.003952 -0.001973 0.000000 0.000000 0.000000
# 2 0.003952 0.052859 -0.004254 0.000000 0.000000 0.000000
# 3 -0.001973 -0.004254 0.011429 0.000000 0.000000 0.000000
# 4 0.000000 0.000000 0.000000 0.091140 0.000000 0.000000
# 5 0.000000 0.000000 0.000000 0.000000 0.027133 0.000000
# 6 0.000000 0.000000 0.000000 0.000000 0.000000 0.055369
#
#
# Mechanical properties :
#
#
# Convention : Reuss Voigt Hill
#
# Bulk Modulus (GPa) = 14.09328 26.09094 20.09211
# Shear Modulus (GPa) = 18.02788 25.93444 21.98116
#
# Velocity S-wave (km/s) = 2.96915 3.56122 3.27858
# Velocity P-wave (km/s) = 4.31813 5.44688 4.91501
#
# Compressibility (1/GPa) = 0.07095579
#
# Stress axis : x y z
#
# Youngs Moduli (GPa) = 89.14719 18.91812 87.49914
#
# Poissons Ratio (x) = -0.07477 0.17267
# Poissons Ratio (y) = -0.35234 0.37220
# Poissons Ratio (z) = 0.17592 0.08047
#
# Static dielectric constant tensor:
#      x y z
#    x 3.799630 0.000000 0.000000 
#    y 0.000000 3.294670 0.000000 
#    z 0.000000 0.000000 3.881760 
# 
# 
# High freq. dielectric constant tensor:
#      x y z
#    x 1.802580 0.000000 0.000000 
#    y 0.000000 1.757320 0.000000 
#    z 0.000000 0.000000 1.809910 
# 
# From -- ./inp_files/6225.got.cif
#   From: 2010.06.25/outbox.cif.g09.slc.cpg/sg58_4_cif.got.tgz:6225.got - 2010.06.26 21:38:00.
