data_PCOD8235095
_publ_section_title
;
Structure prediction by ZEFSAII (Michael W. Deem and Ramdas Pophale) SiO2 
 PCOD8235095
Probable space group: P B C M
;
_chemical_formula_sum "Si O2"
_cell_formula_units_Z 24
_cell_length_a 4.910783
_cell_length_b 20.079705
_cell_length_c 10.473828
_cell_angle_alpha 90.000000
_cell_angle_beta 90.000000
_cell_angle_gamma 90.000000
_cell_volume 1032.793532
_symmetry_space_group_name_H-M "P B C M"
_symmetry_group_IT_number 57
_symmetry_cell_setting 'orthorhombic'
loop_
_space_group_symop_operation_xyz
x,y,z
-x,-y,1/2+z
x,1/2-y,-z
-x,1/2+y,1/2-z
-x,-y,-z
x,y,1/2-z
-x,1/2+y,z
x,1/2-y,1/2+z
loop_
_atom_site_type_symbol
_atom_site_label
_atom_site_fract_x
_atom_site_fract_y
_atom_site_fract_z
Si Si1 0.209458 0.513697 0.886532
Si Si2 0.025748 0.196794 0.394603
Si Si3 0.530870 0.389371 0.947210
O O1 0.060066 0.523375 0.750000
O O2 0.418119 0.452455 0.869030
O O3 0.378259 0.581679 0.914666
O O4 0.000000 0.500000 0.000000
O O5 0.923086 0.250000 0.500000
O O6 0.078581 0.225231 0.250000
O O7 0.796514 0.140391 0.378537
O O8 0.300913 0.167033 0.455310
#
# Coordination Sequence:
#
# PCOD8235095 Si02
#       3
#     8   8   8
#     4  11  24  43  73 107 141 181 229 284 350 414
#     4  12  26  46  71  98 136 183 231 284 341 406
#     4  11  25  45  69 102 140 181 223 280 347 411
#
# _framework density 23.237946000000001
#
# number of rings (size 3 to 8) (size 9 to 14) (size 15 to 20)
#    0.000    0.667    3.333    4.000    0.000    9.333 
#    0.000    0.000    0.000    0.000    0.000    0.000 
#    0.000    0.000    0.000    0.000    0.000    0.000 
#
# Total GULP energy -297355.584067 kJ/mol
# GULP energy per Si atom -12389.816003 kJ/mol
# Density = 2.318506 g / cm^3
# Si number density = 23.237946 Si / 1000 Ang^3
#
#
#
# Elastic Constant Matrix: (Units=GPa)
#
#
# Indices 1 2 3 4 5 6 
#
# 1 125.1552 24.3755 65.9068 0.0000 0.0000 0.0000
# 2 24.3755 83.0935 70.3053 0.0000 0.0000 0.0000
# 3 65.9068 70.3053 226.2414 0.0000 0.0000 0.0000
# 4 0.0000 0.0000 0.0000 -153.4852 0.0000 0.0000
# 5 0.0000 0.0000 0.0000 0.0000 0.7022 0.0000
# 6 0.0000 0.0000 0.0000 0.0000 0.0000 45.0591
#
#
#
# Elastic Compliance Matrix: (Units=1/GPa)
#
#
# Indices 1 2 3 4 5 6 
#
# 1 0.009460 -0.000602 -0.002569 0.000000 0.000000 0.000000
# 2 -0.000602 0.016366 -0.004911 0.000000 0.000000 0.000000
# 3 -0.002569 -0.004911 0.006694 0.000000 0.000000 0.000000
# 4 0.000000 0.000000 0.000000 -0.006515 0.000000 0.000000
# 5 0.000000 0.000000 0.000000 0.000000 1.424180 0.000000
# 6 0.000000 0.000000 0.000000 0.000000 0.000000 0.022193
#
#
# Mechanical properties :
#
#
# Convention : Reuss Voigt Hill
#
# Bulk Modulus (GPa) = 61.13091 83.96280 72.54685
# Shear Modulus (GPa) = 3.34674 -3.28461 0.03106
#
# Velocity S-wave (km/s) = 1.20139 -1.19018 0.11574
# Velocity P-wave (km/s) = 5.31865 5.85845 5.59507
#
# Compressibility (1/GPa) = 0.01635834
#
# Stress axis : x y z
#
# Youngs Moduli (GPa) = 105.70814 61.10270 149.37958
#
# Poissons Ratio (x) = 0.03676 0.38374
# Poissons Ratio (y) = 0.06359 0.73353
# Poissons Ratio (z) = 0.27155 0.30005
#
# Static dielectric constant tensor:
#      x y z
#    x 4.315750 0.000000 0.000000 
#    y 0.000000 4.211850 0.000000 
#    z 0.000000 0.000000 4.054040 
# 
# 
# High freq. dielectric constant tensor:
#      x y z
#    x 1.927910 0.000000 0.000000 
#    y 0.000000 1.905110 0.000000 
#    z 0.000000 0.000000 1.914820 
# 
# From -- ./inp_files/10523.got.cif
#   From: 2010.03.12/outbox.cif.g09.slc.cpg/sg57_6_cif.got.tgz:10523.got - 2010.04.16 15:48:40.
