data_PCOD8235701
_publ_section_title
;
Structure prediction by ZEFSAII (Michael W. Deem and Ramdas Pophale) SiO2 
 PCOD8235701
Probable space group: P N N M
;
_chemical_formula_sum "Si O2"
_cell_formula_units_Z 64
_cell_length_a 16.609695
_cell_length_b 14.975227
_cell_length_c 13.057688
_cell_angle_alpha 90.000000
_cell_angle_beta 90.000000
_cell_angle_gamma 90.000000
_cell_volume 3247.890354
_symmetry_space_group_name_H-M "P N N M"
_symmetry_group_IT_number 58
_symmetry_cell_setting 'orthorhombic'
loop_
_space_group_symop_operation_xyz
x,y,z
-x,-y,z
1/2+x,1/2-y,1/2-z
1/2-x,1/2+y,1/2-z
-x,-y,-z
x,y,-z
1/2-x,1/2+y,1/2+z
1/2+x,1/2-y,1/2+z
loop_
_atom_site_type_symbol
_atom_site_label
_atom_site_fract_x
_atom_site_fract_y
_atom_site_fract_z
Si Si1 0.834153 0.036445 0.116675
Si Si2 0.169681 0.547206 0.686714
Si Si3 0.922073 0.947524 0.298797
Si Si4 0.905682 0.615689 0.380973
Si Si5 0.246562 0.791711 0.816978
Si Si6 0.826646 0.258144 0.385683
Si Si7 0.002172 0.216767 0.383287
Si Si8 0.747381 0.408052 0.113921
O O1 0.824727 0.141948 0.144668
O O2 0.748183 0.989229 0.128213
O O3 0.901357 0.986369 0.186329
O O4 0.863983 0.027799 0.000000
O O5 0.091790 0.483211 0.669114
O O6 0.147661 0.640995 0.637560
O O7 0.187921 0.551488 0.807724
O O8 0.949928 0.843709 0.300976
O O9 0.840795 0.951431 0.366050
O O10 0.000000 0.000000 0.345501
O O11 0.889419 0.602720 0.500000
O O12 0.831505 0.663971 0.328662
O O13 0.982543 0.678043 0.358699
O O14 0.238386 0.775396 0.695271
O O15 0.248698 0.699149 0.878295
O O16 0.790540 0.249296 0.500000
O O17 0.907231 0.198751 0.374823
O O18 0.032339 0.195909 0.500000
O O19 0.773088 0.436104 0.000000
#
# Coordination Sequence:
#
# PCOD8235701 Si02
#       8
#     8   8   8   8   8   8   8   8
#     4  10  20  35  56  78 104 140 184 233 272 312
#     4   9  19  33  53  81 106 131 172 229 272 311
#     4  11  22  35  50  77 112 143 178 220 269 325
#     4  10  18  33  55  76 102 137 180 221 264 313
#     4  10  18  33  56  81 104 139 185 225 260 312
#     4  10  20  34  52  80 113 140 170 215 279 327
#     4  10  21  35  53  77 109 146 177 215 267 330
#     4  10  19  33  55  80 105 139 179 219 265 318
#
# _framework density 19.705100000000002
#
# number of rings (size 3 to 8) (size 9 to 14) (size 15 to 20)
#    0.000    2.000    1.250    4.125    0.000    1.750 
#    0.000   10.625    0.000    1.500    0.000    3.500 
#    0.000    0.000    0.000    0.000    0.000    0.000 
#
# Total GULP energy -793118.525559 kJ/mol
# GULP energy per Si atom -12392.476962 kJ/mol
# Density = 1.966025 g / cm^3
# Si number density = 19.705100 Si / 1000 Ang^3
#
#
#
# Elastic Constant Matrix: (Units=GPa)
#
#
# Indices 1 2 3 4 5 6 
#
# 1 30.3072 4.5196 16.8554 0.0000 0.0000 0.0000
# 2 4.5196 72.2208 30.5374 0.0000 0.0000 0.0000
# 3 16.8554 30.5374 128.9917 0.0000 0.0000 0.0000
# 4 0.0000 0.0000 0.0000 13.7541 0.0000 0.0000
# 5 0.0000 0.0000 0.0000 0.0000 18.5992 0.0000
# 6 0.0000 0.0000 0.0000 0.0000 0.0000 26.8074
#
#
#
# Elastic Compliance Matrix: (Units=1/GPa)
#
#
# Indices 1 2 3 4 5 6 
#
# 1 0.035587 -0.000290 -0.004582 0.000000 0.000000 0.000000
# 2 -0.000290 0.015389 -0.003605 0.000000 0.000000 0.000000
# 3 -0.004582 -0.003605 0.009205 0.000000 0.000000 0.000000
# 4 0.000000 0.000000 0.000000 0.072705 0.000000 0.000000
# 5 0.000000 0.000000 0.000000 0.000000 0.053766 0.000000
# 6 0.000000 0.000000 0.000000 0.000000 0.000000 0.037303
#
#
# Mechanical properties :
#
#
# Convention : Reuss Voigt Hill
#
# Bulk Modulus (GPa) = 23.13365 37.26050 30.19708
# Shear Modulus (GPa) = 19.58351 23.80597 21.69474
#
# Velocity S-wave (km/s) = 3.15593 3.47956 3.32169
# Velocity P-wave (km/s) = 5.00452 5.92396 5.48354
#
# Compressibility (1/GPa) = 0.04322707
#
# Stress axis : x y z
#
# Youngs Moduli (GPa) = 28.10039 64.98145 108.64099
#
# Poissons Ratio (x) = 0.01883 0.49774
# Poissons Ratio (y) = 0.00814 0.39169
# Poissons Ratio (z) = 0.12874 0.23428
#
# Static dielectric constant tensor:
#      x y z
#    x 3.379810 0.000000 0.000000 
#    y 0.000000 4.036340 0.000000 
#    z 0.000000 0.000000 3.510050 
# 
# 
# High freq. dielectric constant tensor:
#      x y z
#    x 1.743640 0.000000 0.000000 
#    y 0.000000 1.780380 0.000000 
#    z 0.000000 0.000000 1.754430 
# 
# From -- ./inp_files/16536.got.cif
#   From: 2010.06.25/outbox.cif.g09.slc.cpg/sg58_9_cif.got.tgz:16536.got - 2010.06.26 21:38:00.
