data_PCOD8235846
_publ_section_title
;
Structure prediction by ZEFSAII (Michael W. Deem and Ramdas Pophale) SiO2 
 PCOD8235846
Probable space group: P N N M
;
_chemical_formula_sum "Si O2"
_cell_formula_units_Z 64
_cell_length_a 9.795808
_cell_length_b 21.184714
_cell_length_c 19.133966
_cell_angle_alpha 90.000000
_cell_angle_beta 90.000000
_cell_angle_gamma 90.000000
_cell_volume 3970.707237
_symmetry_space_group_name_H-M "P N N M"
_symmetry_group_IT_number 58
_symmetry_cell_setting 'orthorhombic'
loop_
_space_group_symop_operation_xyz
x,y,z
-x,-y,z
1/2+x,1/2-y,1/2-z
1/2-x,1/2+y,1/2-z
-x,-y,-z
x,y,-z
1/2-x,1/2+y,1/2+z
1/2+x,1/2-y,1/2+z
loop_
_atom_site_type_symbol
_atom_site_label
_atom_site_fract_x
_atom_site_fract_y
_atom_site_fract_z
Si Si1 0.791499 0.219317 0.221926
Si Si2 0.691042 0.751420 0.424777
Si Si3 0.232300 0.112837 0.421321
Si Si4 0.477362 0.927051 0.577361
Si Si5 0.477510 0.572656 0.188158
Si Si6 0.907443 0.815826 0.218388
Si Si7 0.878721 0.753400 0.921372
Si Si8 0.747080 0.138776 0.345709
O O1 0.772420 0.204580 0.139081
O O2 0.720127 0.286007 0.239694
O O3 0.721609 0.163511 0.266525
O O4 0.954132 0.223085 0.237726
O O5 0.715196 0.717359 0.500000
O O6 0.791255 0.811795 0.419449
O O7 0.532641 0.774406 0.420658
O O8 0.214138 0.086161 0.500000
O O9 0.385042 0.103422 0.394054
O O10 0.135192 0.073239 0.371659
O O11 0.437761 0.899840 0.500000
O O12 0.361143 0.914280 0.634349
O O13 0.500000 0.000000 0.570733
O O14 0.500000 0.500000 0.211102
O O15 0.428012 0.611642 0.256905
O O16 0.605915 0.606173 0.150939
O O17 0.874776 0.811278 0.134917
O O18 0.772109 0.698739 0.897854
O O19 0.839672 0.776801 0.000000
#
# Coordination Sequence:
#
# PCOD8235846 Si02
#       8
#     8   8   8   8   8   8   8   8
#     4   9  17  29  47  66  88 113 146 193 233 270
#     4   9  15  27  47  67  86 112 146 184 229 270
#     4  10  19  30  44  62  86 123 161 185 214 261
#     4  10  19  31  46  64  88 120 160 193 213 251
#     4  11  22  33  44  63  99 135 157 181 223 279
#     4   9  18  31  47  69  90 116 155 189 231 276
#     4   9  16  29  52  73  88 110 146 199 243 269
#     4  10  19  30  45  70  93 117 153 189 231 272
#
# _framework density 16.118034999999999
#
# number of rings (size 3 to 8) (size 9 to 14) (size 15 to 20)
#    0.000    2.375    2.500    1.125    0.000    1.250 
#    0.000    0.000    0.000    0.375    0.000    0.000 
#    0.000    0.500    0.000    0.000    0.000   39.500 
#
# Total GULP energy -792882.129983 kJ/mol
# GULP energy per Si atom -12388.783281 kJ/mol
# Density = 1.608135 g / cm^3
# Si number density = 16.118035 Si / 1000 Ang^3
#
#
#
# Elastic Constant Matrix: (Units=GPa)
#
#
# Indices 1 2 3 4 5 6 
#
# 1 47.3264 23.3715 39.9831 0.0000 0.0000 0.0000
# 2 23.3715 54.0246 40.4000 0.0000 0.0000 0.0000
# 3 39.9831 40.4000 127.4314 0.0000 0.0000 0.0000
# 4 0.0000 0.0000 0.0000 20.8604 0.0000 0.0000
# 5 0.0000 0.0000 0.0000 0.0000 25.1241 0.0000
# 6 0.0000 0.0000 0.0000 0.0000 0.0000 17.2763
#
#
#
# Elastic Compliance Matrix: (Units=1/GPa)
#
#
# Indices 1 2 3 4 5 6 
#
# 1 0.031244 -0.008108 -0.007233 0.000000 0.000000 0.000000
# 2 -0.008108 0.026366 -0.005815 0.000000 0.000000 0.000000
# 3 -0.007233 -0.005815 0.011960 0.000000 0.000000 0.000000
# 4 0.000000 0.000000 0.000000 0.047938 0.000000 0.000000
# 5 0.000000 0.000000 0.000000 0.000000 0.039802 0.000000
# 6 0.000000 0.000000 0.000000 0.000000 0.000000 0.057883
#
#
# Mechanical properties :
#
#
# Convention : Reuss Voigt Hill
#
# Bulk Modulus (GPa) = 36.68452 48.47684 42.58068
# Shear Modulus (GPa) = 18.75528 20.98734 19.87131
#
# Velocity S-wave (km/s) = 3.41489 3.61238 3.51502
# Velocity P-wave (km/s) = 6.19338 6.89496 6.55357
#
# Compressibility (1/GPa) = 0.02725946
#
# Stress axis : x y z
#
# Youngs Moduli (GPa) = 32.00573 37.92745 83.60991
#
# Poissons Ratio (x) = 0.30751 0.60474
# Poissons Ratio (y) = 0.25950 0.48619
# Poissons Ratio (z) = 0.23149 0.22055
#
# Static dielectric constant tensor:
#      x y z
#    x 2.043490 0.000000 0.000000 
#    y 0.000000 2.916830 0.000000 
#    z 0.000000 0.000000 3.273860 
# 
# 
# High freq. dielectric constant tensor:
#      x y z
#    x 1.614280 0.000000 0.000000 
#    y 0.000000 1.581690 0.000000 
#    z 0.000000 0.000000 1.620770 
# 
# From -- ./inp_files/27674.got.cif
#   From: 2010.06.25/outbox.cif.g09.slc.cpg/sg58_14_cif.got.tgz:27674.got - 2010.06.26 21:38:00.
