data_PCOD8235492
_publ_section_title
;
Structure prediction by ZEFSAII (Michael W. Deem and Ramdas Pophale) SiO2 
 PCOD8235492
Probable space group: P N N M
;
_chemical_formula_sum "Si O2"
_cell_formula_units_Z 48
_cell_length_a 18.159042
_cell_length_b 15.324745
_cell_length_c 9.057993
_cell_angle_alpha 90.000000
_cell_angle_beta 90.000000
_cell_angle_gamma 90.000000
_cell_volume 2520.682641
_symmetry_space_group_name_H-M "P N N M"
_symmetry_group_IT_number 58
_symmetry_cell_setting 'orthorhombic'
loop_
_space_group_symop_operation_xyz
x,y,z
-x,-y,z
1/2+x,1/2-y,1/2-z
1/2-x,1/2+y,1/2-z
-x,-y,-z
x,y,-z
1/2-x,1/2+y,1/2+z
1/2+x,1/2-y,1/2+z
loop_
_atom_site_type_symbol
_atom_site_label
_atom_site_fract_x
_atom_site_fract_y
_atom_site_fract_z
Si Si1 0.177356 0.318974 0.334380
Si Si2 0.180965 0.512413 0.334713
Si Si3 0.542893 0.251840 0.326515
Si Si4 0.548492 0.917294 0.672674
Si Si5 0.964442 0.093328 0.669380
Si Si6 0.794196 0.087231 0.326521
O O1 0.192355 0.283978 0.500000
O O2 0.142168 0.416566 0.338924
O O3 0.121913 0.253972 0.252630
O O4 0.255023 0.326797 0.245226
O O5 0.198768 0.545638 0.500000
O O6 0.126451 0.580519 0.257019
O O7 0.257555 0.500941 0.243197
O O8 0.556961 0.252433 0.500000
O O9 0.492103 0.170835 0.279184
O O10 0.504023 0.339984 0.277415
O O11 0.565643 0.919562 0.500000
O O12 0.500000 0.000000 0.719807
O O13 0.973740 0.123874 0.500000
O O14 0.879376 0.088481 0.714600
O O15 0.000000 0.000000 0.695491
O O16 0.779761 0.086902 0.500000
#
# Coordination Sequence:
#
# PCOD8235492 Si02
#       6
#     8   8   8   8   8   8
#     4   9  18  32  54  83 115 147 182 226 279 341
#     4   9  18  29  50  80 111 148 183 222 275 332
#     4  11  22  35  57  88 117 151 192 235 286 341
#     4  10  18  30  50  79 117 150 179 219 272 342
#     4  10  23  43  63  82 109 150 196 243 292 337
#     4   9  17  34  59  81 108 147 189 234 287 341
#
# _framework density 19.042460999999999
#
# number of rings (size 3 to 8) (size 9 to 14) (size 15 to 20)
#    1.000    1.333    1.667    1.500    0.000    3.333 
#    0.000    1.667    0.000    2.000    0.000    0.000 
#    0.000    0.000    0.000    0.000    0.000    0.000 
#
# Total GULP energy -594955.608082 kJ/mol
# GULP energy per Si atom -12394.908502 kJ/mol
# Density = 1.899912 g / cm^3
# Si number density = 19.042461 Si / 1000 Ang^3
#
#
#
# Elastic Constant Matrix: (Units=GPa)
#
#
# Indices 1 2 3 4 5 6 
#
# 1 142.7164 37.7453 67.8902 0.0000 0.0000 0.0000
# 2 37.7453 57.7552 28.6480 0.0000 0.0000 0.0000
# 3 67.8902 28.6480 106.5116 0.0000 0.0000 0.0000
# 4 0.0000 0.0000 0.0000 27.0182 0.0000 0.0000
# 5 0.0000 0.0000 0.0000 0.0000 22.4577 0.0000
# 6 0.0000 0.0000 0.0000 0.0000 0.0000 20.6858
#
#
#
# Elastic Compliance Matrix: (Units=1/GPa)
#
#
# Indices 1 2 3 4 5 6 
#
# 1 0.010886 -0.004238 -0.005799 0.000000 0.000000 0.000000
# 2 -0.004238 0.021630 -0.003116 0.000000 0.000000 0.000000
# 3 -0.005799 -0.003116 0.013923 0.000000 0.000000 0.000000
# 4 0.000000 0.000000 0.000000 0.037012 0.000000 0.000000
# 5 0.000000 0.000000 0.000000 0.000000 0.044528 0.000000
# 6 0.000000 0.000000 0.000000 0.000000 0.000000 0.048342
#
#
# Mechanical properties :
#
#
# Convention : Reuss Voigt Hill
#
# Bulk Modulus (GPa) = 49.67103 63.94999 56.81051
# Shear Modulus (GPa) = 23.88457 25.54565 24.71511
#
# Velocity S-wave (km/s) = 3.54542 3.66664 3.60654
# Velocity P-wave (km/s) = 6.54989 7.18202 6.87322
#
# Compressibility (1/GPa) = 0.02013246
#
# Stress axis : x y z
#
# Youngs Moduli (GPa) = 91.85751 46.23188 71.82296
#
# Poissons Ratio (x) = 0.19594 0.41650
# Poissons Ratio (y) = 0.38931 0.22382
# Poissons Ratio (z) = 0.53268 0.14407
#
# Static dielectric constant tensor:
#      x y z
#    x 3.345040 0.000000 0.000000 
#    y 0.000000 3.110570 0.000000 
#    z 0.000000 0.000000 3.474450 
# 
# 
# High freq. dielectric constant tensor:
#      x y z
#    x 1.735590 0.000000 0.000000 
#    y 0.000000 1.703570 0.000000 
#    z 0.000000 0.000000 1.749730 
# 
# From -- ./inp_files/7729.got.cif
#   From: 2010.06.25/outbox.cif.g09.slc.cpg/sg58_4_cif.got.tgz:7729.got - 2010.06.26 21:38:00.
