data_PCOD8235987
_publ_section_title
;
Structure prediction by ZEFSAII (Michael W. Deem and Ramdas Pophale) SiO2 
 PCOD8235987
Probable space group: P N N M
;
_chemical_formula_sum "Si O2"
_cell_formula_units_Z 64
_cell_length_a 22.578878
_cell_length_b 17.483028
_cell_length_c 8.722615
_cell_angle_alpha 90.000000
_cell_angle_beta 90.000000
_cell_angle_gamma 90.000000
_cell_volume 3443.227467
_symmetry_space_group_name_H-M "P N N M"
_symmetry_group_IT_number 58
_symmetry_cell_setting 'orthorhombic'
loop_
_space_group_symop_operation_xyz
x,y,z
-x,-y,z
1/2+x,1/2-y,1/2-z
1/2-x,1/2+y,1/2-z
-x,-y,-z
x,y,-z
1/2-x,1/2+y,1/2+z
1/2+x,1/2-y,1/2+z
loop_
_atom_site_type_symbol
_atom_site_label
_atom_site_fract_x
_atom_site_fract_y
_atom_site_fract_z
Si Si1 0.606576 0.790858 0.820319
Si Si2 0.163143 0.563307 0.176770
Si Si3 0.512920 0.259549 0.318627
Si Si4 0.276431 0.925702 0.818802
Si Si5 0.884457 0.675816 0.668662
Si Si6 0.526757 0.576662 0.677797
Si Si7 0.849731 0.139167 0.177375
Si Si8 0.436600 0.981271 0.169366
O O1 0.651110 0.856493 0.760124
O O2 0.540279 0.793734 0.747744
O O3 0.639776 0.712535 0.781401
O O4 0.598958 0.799663 0.000000
O O5 0.215470 0.510754 0.248387
O O6 0.105362 0.512050 0.198493
O O7 0.177150 0.578969 0.000000
O O8 0.506651 0.255414 0.500000
O O9 0.580463 0.237134 0.272788
O O10 0.502465 0.345796 0.254869
O O11 0.323727 0.860771 0.759964
O O12 0.211245 0.899699 0.771623
O O13 0.286439 0.933650 0.000000
O O14 0.871232 0.711638 0.500000
O O15 0.931887 0.608802 0.651755
O O16 0.500000 0.500000 0.757444
O O17 0.510419 0.574409 0.500000
O O18 0.597590 0.578151 0.703995
O O19 0.847887 0.165166 0.000000
O O20 0.500000 0.000000 0.234084
O O21 0.425026 0.019262 0.000000
#
# Coordination Sequence:
#
# PCOD8235987 Si02
#       8
#     8   8   8   8   8   8   8   8
#     4  11  21  34  53  75 102 134 171 215 265 318
#     4  11  21  32  49  73 101 131 170 216 254 298
#     4  10  19  31  50  76 104 133 170 216 262 310
#     4   9  19  36  54  72 102 143 178 209 256 317
#     4   9  17  29  46  69 100 137 169 199 245 303
#     4   8  15  30  53  79 103 127 160 208 263 311
#     4   9  18  35  58  79 101 134 175 215 260 315
#     4   9  17  29  45  66  95 132 168 200 244 300
#
# _framework density 18.587211
#
# number of rings (size 3 to 8) (size 9 to 14) (size 15 to 20)
#    0.000    2.500    0.000    4.875    0.000    3.750 
#    0.000    1.250    0.000   10.875    0.000    0.000 
#    0.000    0.000    0.000    0.000    0.000    0.000 
#
# Total GULP energy -792933.537632 kJ/mol
# GULP energy per Si atom -12389.586526 kJ/mol
# Density = 1.854491 g / cm^3
# Si number density = 18.587211 Si / 1000 Ang^3
#
#
#
# Elastic Constant Matrix: (Units=GPa)
#
#
# Indices 1 2 3 4 5 6 
#
# 1 108.0065 52.6483 22.7222 0.0000 0.0000 0.0000
# 2 52.6483 96.0356 31.1917 0.0000 0.0000 0.0000
# 3 22.7222 31.1917 76.3898 0.0000 0.0000 0.0000
# 4 0.0000 0.0000 0.0000 22.2248 0.0000 0.0000
# 5 0.0000 0.0000 0.0000 0.0000 20.7421 0.0000
# 6 0.0000 0.0000 0.0000 0.0000 0.0000 29.0305
#
#
#
# Elastic Compliance Matrix: (Units=1/GPa)
#
#
# Indices 1 2 3 4 5 6 
#
# 1 0.012712 -0.006619 -0.001079 0.000000 0.000000 0.000000
# 2 -0.006619 0.015451 -0.004340 0.000000 0.000000 0.000000
# 3 -0.001079 -0.004340 0.015184 0.000000 0.000000 0.000000
# 4 0.000000 0.000000 0.000000 0.044995 0.000000 0.000000
# 5 0.000000 0.000000 0.000000 0.000000 0.048211 0.000000
# 6 0.000000 0.000000 0.000000 0.000000 0.000000 0.034447
#
#
# Mechanical properties :
#
#
# Convention : Reuss Voigt Hill
#
# Bulk Modulus (GPa) = 51.88960 54.83960 53.36460
# Shear Modulus (GPa) = 24.81417 25.99078 25.40248
#
# Velocity S-wave (km/s) = 3.65775 3.74346 3.70085
# Velocity P-wave (km/s) = 6.76877 6.94641 6.85817
#
# Compressibility (1/GPa) = 0.01927168
#
# Stress axis : x y z
#
# Youngs Moduli (GPa) = 78.66667 64.72122 65.85952
#
# Poissons Ratio (x) = 0.42836 0.07104
# Poissons Ratio (y) = 0.52066 0.28585
# Poissons Ratio (z) = 0.08485 0.28091
#
# Static dielectric constant tensor:
#      x y z
#    x 3.444920 0.000000 0.000000 
#    y 0.000000 3.589470 0.000000 
#    z 0.000000 0.000000 3.248620 
# 
# 
# High freq. dielectric constant tensor:
#      x y z
#    x 1.710340 0.000000 0.000000 
#    y 0.000000 1.712510 0.000000 
#    z 0.000000 0.000000 1.702580 
# 
# From -- ./inp_files/10163.got.cif
#   From: 2010.06.25/outbox.cif.g09.slc.cpg/sg58_6_cif.got.tgz:10163.got - 2010.06.26 21:38:00.
