data_PCOD8235401
_publ_section_title
;
Structure prediction by ZEFSAII (Michael W. Deem and Ramdas Pophale) SiO2 
 PCOD8235401
Probable space group: P N N M
;
_chemical_formula_sum "Si O2"
_cell_formula_units_Z 56
_cell_length_a 21.358009
_cell_length_b 17.747041
_cell_length_c 9.347529
_cell_angle_alpha 90.000000
_cell_angle_beta 90.000000
_cell_angle_gamma 90.000000
_cell_volume 3543.101053
_symmetry_space_group_name_H-M "P N N M"
_symmetry_group_IT_number 58
_symmetry_cell_setting 'orthorhombic'
loop_
_space_group_symop_operation_xyz
x,y,z
-x,-y,z
1/2+x,1/2-y,1/2-z
1/2-x,1/2+y,1/2-z
-x,-y,-z
x,y,-z
1/2-x,1/2+y,1/2+z
1/2+x,1/2-y,1/2+z
loop_
_atom_site_type_symbol
_atom_site_label
_atom_site_fract_x
_atom_site_fract_y
_atom_site_fract_z
Si Si1 0.824657 0.796845 0.657900
Si Si2 0.359010 0.865170 0.830305
Si Si3 0.294291 0.568984 0.337643
Si Si4 0.680269 0.751445 0.339299
Si Si5 0.778635 0.094703 0.829865
Si Si6 0.649830 0.888516 0.835470
Si Si7 0.926686 0.512023 0.164666
O O1 0.845589 0.821239 0.500000
O O2 0.864771 0.723952 0.706678
O O3 0.836349 0.869311 0.756906
O O4 0.752594 0.773590 0.657981
O O5 0.292211 0.895922 0.773727
O O6 0.411856 0.908695 0.741484
O O7 0.367414 0.879300 0.000000
O O8 0.316442 0.573426 0.500000
O O9 0.306740 0.484902 0.274539
O O10 0.220955 0.584977 0.322603
O O11 0.652391 0.758758 0.500000
O O12 0.677077 0.664696 0.282321
O O13 0.641959 0.805091 0.232240
O O14 0.774232 0.094508 0.000000
O O15 0.607001 0.944860 0.747566
O O16 0.627827 0.886171 0.000000
O O17 0.000000 0.500000 0.174580
O O18 0.903979 0.513425 0.000000
#
# Coordination Sequence:
#
# PCOD8235401 Si02
#       7
#     8   8   8   8   8   8   8
#     4   8  15  25  39  59  82 109 139 169 206 249
#     4   9  16  30  46  58  79 111 144 177 211 249
#     4   9  15  24  40  61  86 113 142 171 201 243
#     4   8  14  25  41  58  81 111 140 168 204 248
#     4   8  13  24  41  61  85 114 142 169 203 245
#     4  10  18  29  44  59  81 110 142 178 212 248
#     4  11  23  34  44  61  83 108 144 186 221 253
#
# _framework density 15.805362000000001
#
# number of rings (size 3 to 8) (size 9 to 14) (size 15 to 20)
#    0.000    3.000    1.429    2.571    0.000    2.286 
#    0.000    2.857    0.000    0.000    0.000    0.000 
#    0.000    1.143    0.000   12.857    0.000    6.429 
#
# Total GULP energy -693973.728078 kJ/mol
# GULP energy per Si atom -12392.388001 kJ/mol
# Density = 1.576939 g / cm^3
# Si number density = 15.805362 Si / 1000 Ang^3
#
#
#
# Elastic Constant Matrix: (Units=GPa)
#
#
# Indices 1 2 3 4 5 6 
#
# 1 18.5732 14.8574 20.5427 0.0000 0.0000 0.0000
# 2 14.8574 145.2467 61.6761 0.0000 0.0000 0.0000
# 3 20.5427 61.6761 86.5309 0.0000 0.0000 0.0000
# 4 0.0000 0.0000 0.0000 29.3033 0.0000 0.0000
# 5 0.0000 0.0000 0.0000 0.0000 11.9070 0.0000
# 6 0.0000 0.0000 0.0000 0.0000 0.0000 10.0508
#
#
#
# Elastic Compliance Matrix: (Units=1/GPa)
#
#
# Indices 1 2 3 4 5 6 
#
# 1 0.073015 -0.000155 -0.017223 0.000000 0.000000 0.000000
# 2 -0.000155 0.009873 -0.007000 0.000000 0.000000 0.000000
# 3 -0.017223 -0.007000 0.020635 0.000000 0.000000 0.000000
# 4 0.000000 0.000000 0.000000 0.034126 0.000000 0.000000
# 5 0.000000 0.000000 0.000000 0.000000 0.083984 0.000000
# 6 0.000000 0.000000 0.000000 0.000000 0.000000 0.099495
#
#
# Mechanical properties :
#
#
# Convention : Reuss Voigt Hill
#
# Bulk Modulus (GPa) = 18.25978 49.38925 33.82451
# Shear Modulus (GPa) = 12.88191 20.47053 16.67622
#
# Velocity S-wave (km/s) = 2.85798 3.60274 3.25175
# Velocity P-wave (km/s) = 4.74012 6.97299 5.96202
#
# Compressibility (1/GPa) = 0.05476519
#
# Stress axis : x y z
#
# Youngs Moduli (GPa) = 13.69586 101.28285 48.46110
#
# Poissons Ratio (x) = 0.01572 0.83466
# Poissons Ratio (y) = 0.00213 0.33925
# Poissons Ratio (z) = 0.23589 0.70903
#
# Static dielectric constant tensor:
#      x y z
#    x 2.462560 0.000000 0.000000 
#    y 0.000000 3.535450 0.000000 
#    z 0.000000 0.000000 3.055570 
# 
# 
# High freq. dielectric constant tensor:
#      x y z
#    x 1.533450 0.000000 0.000000 
#    y 0.000000 1.625940 0.000000 
#    z 0.000000 0.000000 1.599480 
# 
# From -- ./inp_files/8144.got.cif
#   From: 2010.06.25/outbox.cif.g09.slc.cpg/sg58_5_cif.got.tgz:8144.got - 2010.06.26 21:38:00.
