data_PCOD8235578
_publ_section_title
;
Structure prediction by ZEFSAII (Michael W. Deem and Ramdas Pophale) SiO2 
 PCOD8235578
Probable space group: P N N M
;
_chemical_formula_sum "Si O2"
_cell_formula_units_Z 64
_cell_length_a 14.406443
_cell_length_b 24.578796
_cell_length_c 9.303072
_cell_angle_alpha 90.000000
_cell_angle_beta 90.000000
_cell_angle_gamma 90.000000
_cell_volume 3294.152893
_symmetry_space_group_name_H-M "P N N M"
_symmetry_group_IT_number 58
_symmetry_cell_setting 'orthorhombic'
loop_
_space_group_symop_operation_xyz
x,y,z
-x,-y,z
1/2+x,1/2-y,1/2-z
1/2-x,1/2+y,1/2-z
-x,-y,-z
x,y,-z
1/2-x,1/2+y,1/2+z
1/2+x,1/2-y,1/2+z
loop_
_atom_site_type_symbol
_atom_site_label
_atom_site_fract_x
_atom_site_fract_y
_atom_site_fract_z
Si Si1 0.070712 0.453686 0.167534
Si Si2 0.746570 0.412171 0.162029
Si Si3 0.251364 0.482335 0.334969
Si Si4 0.046945 0.946358 0.164565
Si Si5 0.631664 0.759041 0.165788
Si Si6 0.022504 0.826523 0.165286
Si Si7 0.682081 0.313732 0.661970
Si Si8 0.938185 0.359190 0.839502
O O1 0.166575 0.454833 0.252706
O O2 0.000000 0.500000 0.224481
O O3 0.030673 0.393239 0.195284
O O4 0.091829 0.463998 0.000000
O O5 0.719226 0.460676 0.266198
O O6 0.696254 0.358715 0.217798
O O7 0.856967 0.403934 0.167247
O O8 0.713195 0.424443 0.000000
O O9 0.223146 0.491447 0.500000
O O10 0.341844 0.444781 0.319860
O O11 0.011243 0.888329 0.227338
O O12 0.014686 0.948428 0.000000
O O13 0.000000 0.000000 0.240366
O O14 0.601114 0.704550 0.245858
O O15 0.743079 0.765594 0.187907
O O16 0.576557 0.811221 0.226375
O O17 0.604777 0.753752 0.000000
O O18 0.924389 0.794034 0.179253
O O19 0.055546 0.828710 0.000000
O O20 0.697084 0.337250 0.500000
O O21 0.942579 0.333505 0.000000
#
# Coordination Sequence:
#
# PCOD8235578 Si02
#       8
#     8   8   8   8   8   8   8   8
#     4  10  19  35  54  77 113 154 193 231 280 344
#     4  10  18  31  53  80 110 145 188 230 273 331
#     4  11  21  32  51  82 116 148 187 232 284 336
#     4   9  19  37  60  84 111 147 190 235 280 341
#     4  10  21  37  57  85 116 138 178 242 289 324
#     4  10  20  39  64  84 111 152 193 227 280 352
#     4   9  19  36  59  84 107 140 187 236 280 326
#     4   9  18  34  55  76 105 149 194 228 270 336
#
# _framework density 19.428362
#
# number of rings (size 3 to 8) (size 9 to 14) (size 15 to 20)
#    0.000    2.250    1.250    1.875    0.000    4.250 
#    2.250    1.250    0.000    2.625    0.000    0.000 
#    0.000    0.000    0.000    0.000    0.000    0.000 
#
# Total GULP energy -793438.007768 kJ/mol
# GULP energy per Si atom -12397.468871 kJ/mol
# Density = 1.938414 g / cm^3
# Si number density = 19.428362 Si / 1000 Ang^3
#
#
#
# Elastic Constant Matrix: (Units=GPa)
#
#
# Indices 1 2 3 4 5 6 
#
# 1 95.5243 42.8919 41.4769 0.0000 0.0000 0.0000
# 2 42.8919 98.8319 39.2827 0.0000 0.0000 0.0000
# 3 41.4769 39.2827 86.2967 0.0000 0.0000 0.0000
# 4 0.0000 0.0000 0.0000 27.8809 0.0000 0.0000
# 5 0.0000 0.0000 0.0000 0.0000 23.4553 0.0000
# 6 0.0000 0.0000 0.0000 0.0000 0.0000 26.1062
#
#
#
# Elastic Compliance Matrix: (Units=1/GPa)
#
#
# Indices 1 2 3 4 5 6 
#
# 1 0.014606 -0.004332 -0.005048 0.000000 0.000000 0.000000
# 2 -0.004332 0.013638 -0.004126 0.000000 0.000000 0.000000
# 3 -0.005048 -0.004126 0.015892 0.000000 0.000000 0.000000
# 4 0.000000 0.000000 0.000000 0.035867 0.000000 0.000000
# 5 0.000000 0.000000 0.000000 0.000000 0.042634 0.000000
# 6 0.000000 0.000000 0.000000 0.000000 0.000000 0.038305
#
#
# Mechanical properties :
#
#
# Convention : Reuss Voigt Hill
#
# Bulk Modulus (GPa) = 58.39784 58.66177 58.52980
# Shear Modulus (GPa) = 25.81812 25.95526 25.88669
#
# Velocity S-wave (km/s) = 3.64935 3.65903 3.65419
# Velocity P-wave (km/s) = 6.91956 6.93619 6.92788
#
# Compressibility (1/GPa) = 0.01712392
#
# Stress axis : x y z
#
# Youngs Moduli (GPa) = 68.46700 73.32282 62.92375
#
# Poissons Ratio (x) = 0.31766 0.31763
# Poissons Ratio (y) = 0.29662 0.25962
# Poissons Ratio (z) = 0.34561 0.30253
#
# Static dielectric constant tensor:
#      x y z
#    x 3.573810 0.000000 0.000000 
#    y 0.000000 3.385630 0.000000 
#    z 0.000000 0.000000 3.454400 
# 
# 
# High freq. dielectric constant tensor:
#      x y z
#    x 1.756480 0.000000 0.000000 
#    y 0.000000 1.740860 0.000000 
#    z 0.000000 0.000000 1.743900 
# 
# From -- ./inp_files/6957.got.cif
#   From: 2010.06.25/outbox.cif.g09.slc.cpg/sg58_4_cif.got.tgz:6957.got - 2010.06.26 21:38:00.
