data_PCOD8235733
_publ_section_title
;
Structure prediction by ZEFSAII (Michael W. Deem and Ramdas Pophale) SiO2 
 PCOD8235733
Probable space group: P N N M
;
_chemical_formula_sum "Si O2"
_cell_formula_units_Z 48
_cell_length_a 18.318959
_cell_length_b 9.080469
_cell_length_c 17.631029
_cell_angle_alpha 90.000000
_cell_angle_beta 90.000000
_cell_angle_gamma 90.000000
_cell_volume 2932.828923
_symmetry_space_group_name_H-M "P N N M"
_symmetry_group_IT_number 58
_symmetry_cell_setting 'orthorhombic'
loop_
_space_group_symop_operation_xyz
x,y,z
-x,-y,z
1/2+x,1/2-y,1/2-z
1/2-x,1/2+y,1/2-z
-x,-y,-z
x,y,-z
1/2-x,1/2+y,1/2+z
1/2+x,1/2-y,1/2+z
loop_
_atom_site_type_symbol
_atom_site_label
_atom_site_fract_x
_atom_site_fract_y
_atom_site_fract_z
Si Si1 0.803113 0.782680 0.787741
Si Si2 0.559925 0.399098 0.782745
Si Si3 0.538640 0.857404 0.825384
Si Si4 0.216210 0.412887 0.085470
Si Si5 0.830507 0.461022 0.769323
Si Si6 0.889281 0.101589 0.585806
O O1 0.866731 0.897028 0.766661
O O2 0.806649 0.745336 0.878004
O O3 0.813361 0.628542 0.741260
O O4 0.725159 0.849129 0.769104
O O5 0.500000 0.500000 0.739447
O O6 0.528135 0.236711 0.792215
O O7 0.574385 0.473482 0.864502
O O8 0.588784 0.910667 0.754864
O O9 0.586834 0.763823 0.884715
O O10 0.500000 0.000000 0.864167
O O11 0.180414 0.541679 0.138371
O O12 0.303137 0.421803 0.089551
O O13 0.186508 0.427058 0.000000
O O14 0.917351 0.084766 0.500000
#
# Coordination Sequence:
#
# PCOD8235733 Si02
#       6
#     8   8   8   8   8   8
#     4  10  18  34  54  78 101 135 177 215 253 303
#     4  10  20  32  52  76 105 141 173 211 259 313
#     4  11  19  32  49  76 107 137 174 217 259 300
#     4   9  18  32  56  77 102 133 171 213 261 304
#     4  10  19  32  55  78 101 134 179 216 252 303
#     4  10  20  34  51  76 107 145 178 203 255 323
#
# _framework density 16.366451000000001
#
# number of rings (size 3 to 8) (size 9 to 14) (size 15 to 20)
#    1.000    1.000    5.000    0.000    2.333    3.333 
#    0.000    0.000    0.000    8.000    0.000    0.000 
#    0.000    0.000    0.000    0.000    0.000    0.000 
#
# Total GULP energy -594641.455102 kJ/mol
# GULP energy per Si atom -12388.363648 kJ/mol
# Density = 1.632920 g / cm^3
# Si number density = 16.366451 Si / 1000 Ang^3
#
#
#
# Elastic Constant Matrix: (Units=GPa)
#
#
# Indices 1 2 3 4 5 6 
#
# 1 71.8708 33.3996 42.2112 0.0000 0.0000 0.0000
# 2 33.3996 84.6731 23.9432 0.0000 0.0000 0.0000
# 3 42.2112 23.9432 90.3236 0.0000 0.0000 0.0000
# 4 0.0000 0.0000 0.0000 23.8525 0.0000 0.0000
# 5 0.0000 0.0000 0.0000 0.0000 20.4339 0.0000
# 6 0.0000 0.0000 0.0000 0.0000 0.0000 33.4763
#
#
#
# Elastic Compliance Matrix: (Units=1/GPa)
#
#
# Indices 1 2 3 4 5 6 
#
# 1 0.021812 -0.006185 -0.008554 0.000000 0.000000 0.000000
# 2 -0.006185 0.014521 -0.000959 0.000000 0.000000 0.000000
# 3 -0.008554 -0.000959 0.015323 0.000000 0.000000 0.000000
# 4 0.000000 0.000000 0.000000 0.041924 0.000000 0.000000
# 5 0.000000 0.000000 0.000000 0.000000 0.048938 0.000000
# 6 0.000000 0.000000 0.000000 0.000000 0.000000 0.029872
#
#
# Mechanical properties :
#
#
# Convention : Reuss Voigt Hill
#
# Bulk Modulus (GPa) = 49.35715 49.55284 49.45499
# Shear Modulus (GPa) = 23.74851 25.37343 24.56097
#
# Velocity S-wave (km/s) = 3.81339 3.94170 3.87808
# Velocity P-wave (km/s) = 7.04360 7.14554 7.09475
#
# Compressibility (1/GPa) = 0.02026049
#
# Stress axis : x y z
#
# Youngs Moduli (GPa) = 45.84620 68.86600 65.26138
#
# Poissons Ratio (x) = 0.42594 0.55824
# Poissons Ratio (y) = 0.28356 0.06257
# Poissons Ratio (z) = 0.39217 0.06603
#
# Static dielectric constant tensor:
#      x y z
#    x 3.132000 0.000000 0.000000 
#    y 0.000000 3.063590 0.000000 
#    z 0.000000 0.000000 2.941720 
# 
# 
# High freq. dielectric constant tensor:
#      x y z
#    x 1.642330 0.000000 0.000000 
#    y 0.000000 1.627410 0.000000 
#    z 0.000000 0.000000 1.594740 
# 
# From -- ./inp_files/27228.got.cif
#   From: 2010.06.25/outbox.cif.g09.slc.cpg/sg58_14_cif.got.tgz:27228.got - 2010.06.26 21:38:00.
