data_PCOD8235861
_publ_section_title
;
Structure prediction by ZEFSAII (Michael W. Deem and Ramdas Pophale) SiO2 
 PCOD8235861
Probable space group: P N N M
;
_chemical_formula_sum "Si O2"
_cell_formula_units_Z 64
_cell_length_a 27.580246
_cell_length_b 10.556807
_cell_length_c 13.402966
_cell_angle_alpha 90.000000
_cell_angle_beta 90.000000
_cell_angle_gamma 90.000000
_cell_volume 3902.398655
_symmetry_space_group_name_H-M "P N N M"
_symmetry_group_IT_number 58
_symmetry_cell_setting 'orthorhombic'
loop_
_space_group_symop_operation_xyz
x,y,z
-x,-y,z
1/2+x,1/2-y,1/2-z
1/2-x,1/2+y,1/2-z
-x,-y,-z
x,y,-z
1/2-x,1/2+y,1/2+z
1/2+x,1/2-y,1/2+z
loop_
_atom_site_type_symbol
_atom_site_label
_atom_site_fract_x
_atom_site_fract_y
_atom_site_fract_z
Si Si1 0.291638 0.423257 0.295127
Si Si2 0.005459 0.358554 0.618111
Si Si3 0.389669 0.776982 0.117016
Si Si4 0.678907 0.831524 0.754992
Si Si5 0.648877 0.498524 0.887320
Si Si6 0.276293 0.676232 0.385049
Si Si7 0.594147 0.748533 0.885675
Si Si8 0.314132 0.892515 0.739706
O O1 0.320951 0.292047 0.318878
O O2 0.305676 0.469604 0.183257
O O3 0.302728 0.539163 0.370507
O O4 0.235335 0.389160 0.302462
O O5 0.006253 0.364424 0.500000
O O6 0.055345 0.295405 0.655093
O O7 0.000000 0.500000 0.662493
O O8 0.960196 0.273290 0.654813
O O9 0.374387 0.634450 0.141446
O O10 0.356377 0.870105 0.180804
O O11 0.383850 0.809433 0.000000
O O12 0.726090 0.818373 0.825362
O O13 0.631339 0.832952 0.823022
O O14 0.679600 0.964499 0.694875
O O15 0.605862 0.600174 0.874116
O O16 0.669318 0.499015 0.000000
O O17 0.265173 0.699643 0.500000
O O18 0.312618 0.787183 0.347260
O O19 0.598637 0.793575 0.000000
#
# Coordination Sequence:
#
# PCOD8235861 Si02
#       8
#     8   8   8   8   8   8   8   8
#     4   9  18  32  47  65  92 121 159 199 233 279
#     4   9  17  27  40  63  97 129 159 194 229 275
#     4  10  19  30  46  68  97 132 163 194 234 283
#     4   9  18  30  48  67  93 121 158 195 235 280
#     4   9  17  30  48  68  93 128 162 195 237 284
#     4  10  19  32  48  66  92 126 160 195 239 283
#     4   9  16  27  44  66  94 129 161 188 229 283
#     4  10  19  30  47  67  93 123 159 201 234 280
#
# _framework density 16.400169000000002
#
# number of rings (size 3 to 8) (size 9 to 14) (size 15 to 20)
#    0.000    2.625    1.250    1.125    0.000    7.000 
#    0.000    3.125    0.000    0.000    0.000    0.000 
#    0.000   12.500    0.000    0.000    0.000    0.000 
#
# Total GULP energy -793156.914245 kJ/mol
# GULP energy per Si atom -12393.076785 kJ/mol
# Density = 1.636284 g / cm^3
# Si number density = 16.400169 Si / 1000 Ang^3
#
#
#
# Elastic Constant Matrix: (Units=GPa)
#
#
# Indices 1 2 3 4 5 6 
#
# 1 96.5315 28.7080 16.4286 0.0000 0.0000 0.0000
# 2 28.7080 120.2347 22.9102 0.0000 0.0000 0.0000
# 3 16.4286 22.9102 30.1247 0.0000 0.0000 0.0000
# 4 0.0000 0.0000 0.0000 13.4596 0.0000 0.0000
# 5 0.0000 0.0000 0.0000 0.0000 19.1782 0.0000
# 6 0.0000 0.0000 0.0000 0.0000 0.0000 23.1112
#
#
#
# Elastic Compliance Matrix: (Units=1/GPa)
#
#
# Indices 1 2 3 4 5 6 
#
# 1 0.011763 -0.001855 -0.005004 0.000000 0.000000 0.000000
# 2 -0.001855 0.010019 -0.006608 0.000000 0.000000 0.000000
# 3 -0.005004 -0.006608 0.040950 0.000000 0.000000 0.000000
# 4 0.000000 0.000000 0.000000 0.074296 0.000000 0.000000
# 5 0.000000 0.000000 0.000000 0.000000 0.052143 0.000000
# 6 0.000000 0.000000 0.000000 0.000000 0.000000 0.043269
#
#
# Mechanical properties :
#
#
# Convention : Reuss Voigt Hill
#
# Bulk Modulus (GPa) = 27.93495 42.55382 35.24438
# Shear Modulus (GPa) = 18.42937 23.07274 20.75105
#
# Velocity S-wave (km/s) = 3.35585 3.75488 3.56096
# Velocity P-wave (km/s) = 5.66444 6.69346 6.20033
#
# Compressibility (1/GPa) = 0.03579746
#
# Stress axis : x y z
#
# Youngs Moduli (GPa) = 85.01517 99.80922 24.42014
#
# Poissons Ratio (x) = 0.18515 0.12220
# Poissons Ratio (y) = 0.15771 0.16137
# Poissons Ratio (z) = 0.42542 0.65954
#
# Static dielectric constant tensor:
#      x y z
#    x 3.113300 0.000000 0.000000 
#    y 0.000000 3.550730 0.000000 
#    z 0.000000 0.000000 2.663470 
# 
# 
# High freq. dielectric constant tensor:
#      x y z
#    x 1.618800 0.000000 0.000000 
#    y 0.000000 1.658660 0.000000 
#    z 0.000000 0.000000 1.570760 
# 
# From -- ./inp_files/17829.got.cif
#   From: 2010.06.25/outbox.cif.g09.slc.cpg/sg58_9_cif.got.tgz:17829.got - 2010.06.26 21:38:00.
