data_PCOD8235923
_publ_section_title
;
Structure prediction by ZEFSAII (Michael W. Deem and Ramdas Pophale) SiO2 
 PCOD8235923
Probable space group: P N N M
;
_chemical_formula_sum "Si O2"
_cell_formula_units_Z 48
_cell_length_a 14.023564
_cell_length_b 20.414572
_cell_length_c 9.200862
_cell_angle_alpha 90.000000
_cell_angle_beta 90.000000
_cell_angle_gamma 90.000000
_cell_volume 2634.069302
_symmetry_space_group_name_H-M "P N N M"
_symmetry_group_IT_number 58
_symmetry_cell_setting 'orthorhombic'
loop_
_space_group_symop_operation_xyz
x,y,z
-x,-y,z
1/2+x,1/2-y,1/2-z
1/2-x,1/2+y,1/2-z
-x,-y,-z
x,y,-z
1/2-x,1/2+y,1/2+z
1/2+x,1/2-y,1/2+z
loop_
_atom_site_type_symbol
_atom_site_label
_atom_site_fract_x
_atom_site_fract_y
_atom_site_fract_z
Si Si1 0.564602 0.936968 0.161528
Si Si2 0.062837 0.059010 0.326906
Si Si3 0.743457 0.142621 0.327040
Si Si4 0.737407 0.991965 0.328244
Si Si5 0.047257 0.816070 0.327642
Si Si6 0.942015 0.685472 0.327543
O O1 0.650975 0.949678 0.268556
O O2 0.502377 0.877286 0.223012
O O3 0.500000 0.000000 0.155687
O O4 0.603201 0.920285 0.000000
O O5 0.058671 0.059252 0.500000
O O6 0.169816 0.046744 0.272113
O O7 0.020728 0.126721 0.264407
O O8 0.000000 0.000000 0.264579
O O9 0.732038 0.147161 0.500000
O O10 0.843935 0.173751 0.274196
O O11 0.660060 0.184394 0.251538
O O12 0.738257 0.067111 0.273056
O O13 0.731405 0.992355 0.500000
O O14 0.047286 0.819476 0.500000
O O15 0.002938 0.747824 0.273573
O O16 0.924272 0.686206 0.500000
#
# Coordination Sequence:
#
# PCOD8235923 Si02
#       6
#     8   8   8   8   8   8
#     4  10  20  34  50  70 101 140 176 205 242 300
#     4   9  15  28  51  79 104 126 161 209 257 303
#     4  10  19  33  54  78 102 131 168 214 261 300
#     4  10  19  30  53  83 103 126 168 219 260 293
#     4   9  18  33  53  76 104 136 169 206 255 312
#     4  10  21  36  53  74 103 141 175 204 248 308
#
# _framework density 18.222756
#
# number of rings (size 3 to 8) (size 9 to 14) (size 15 to 20)
#    0.000    2.333    3.333    0.000    0.000    2.333 
#    0.000    0.833    0.000    1.500    0.000    0.000 
#    0.000    0.000    0.000    0.000    0.000    0.000 
#
# Total GULP energy -595109.574357 kJ/mol
# GULP energy per Si atom -12398.116132 kJ/mol
# Density = 1.818128 g / cm^3
# Si number density = 18.222756 Si / 1000 Ang^3
#
#
#
# Elastic Constant Matrix: (Units=GPa)
#
#
# Indices 1 2 3 4 5 6 
#
# 1 159.4834 72.2192 30.1471 0.0000 0.0000 0.0000
# 2 72.2192 136.3929 17.5004 0.0000 0.0000 0.0000
# 3 30.1471 17.5004 17.8993 0.0000 0.0000 0.0000
# 4 0.0000 0.0000 0.0000 73.0302 0.0000 0.0000
# 5 0.0000 0.0000 0.0000 0.0000 -15.2144 0.0000
# 6 0.0000 0.0000 0.0000 0.0000 0.0000 36.0366
#
#
#
# Elastic Compliance Matrix: (Units=1/GPa)
#
#
# Indices 1 2 3 4 5 6 
#
# 1 0.010708 -0.003837 -0.014283 0.000000 0.000000 0.000000
# 2 -0.003837 0.009758 -0.003078 0.000000 0.000000 0.000000
# 3 -0.014283 -0.003078 0.082934 0.000000 0.000000 0.000000
# 4 0.000000 0.000000 0.000000 0.013693 0.000000 0.000000
# 5 0.000000 0.000000 0.000000 0.000000 -0.065727 0.000000
# 6 0.000000 0.000000 0.000000 0.000000 0.000000 0.027750
#
#
# Mechanical properties :
#
#
# Convention : Reuss Voigt Hill
#
# Bulk Modulus (GPa) = 16.39249 61.50099 38.94674
# Shear Modulus (GPa) = 35.24918 31.69774 33.47346
#
# Velocity S-wave (km/s) = 4.40290 4.17521 4.29056
# Velocity P-wave (km/s) = 5.90444 7.55420 6.77969
#
# Compressibility (1/GPa) = 0.06100353
#
# Stress axis : x y z
#
# Youngs Moduli (GPa) = 93.39086 102.47553 12.05773
#
# Poissons Ratio (x) = 0.39320 0.17222
# Poissons Ratio (y) = 0.35834 0.03712
# Poissons Ratio (z) = 1.33390 0.31546
#
# Static dielectric constant tensor:
#      x y z
#    x 3.360370 0.000000 0.000000 
#    y 0.000000 4.489230 0.000000 
#    z 0.000000 0.000000 2.947740 
# 
# 
# High freq. dielectric constant tensor:
#      x y z
#    x 1.719240 0.000000 0.000000 
#    y 0.000000 1.711200 0.000000 
#    z 0.000000 0.000000 1.659340 
# 
# From -- ./inp_files/5909.got.cif
#   From: 2010.06.25/outbox.cif.g09.slc.cpg/sg58_3_cif.got.tgz:5909.got - 2010.06.26 21:38:00.
