data_PCOD8235613
_publ_section_title
;
Structure prediction by ZEFSAII (Michael W. Deem and Ramdas Pophale) SiO2 
 PCOD8235613
Probable space group: P N N M
;
_chemical_formula_sum "Si O2"
_cell_formula_units_Z 64
_cell_length_a 18.068820
_cell_length_b 12.409178
_cell_length_c 16.610821
_cell_angle_alpha 90.000000
_cell_angle_beta 90.000000
_cell_angle_gamma 90.000000
_cell_volume 3724.465056
_symmetry_space_group_name_H-M "P N N M"
_symmetry_group_IT_number 58
_symmetry_cell_setting 'orthorhombic'
loop_
_space_group_symop_operation_xyz
x,y,z
-x,-y,z
1/2+x,1/2-y,1/2-z
1/2-x,1/2+y,1/2-z
-x,-y,-z
x,y,-z
1/2-x,1/2+y,1/2+z
1/2+x,1/2-y,1/2+z
loop_
_atom_site_type_symbol
_atom_site_label
_atom_site_fract_x
_atom_site_fract_y
_atom_site_fract_z
Si Si1 0.129391 0.263664 0.304053
Si Si2 0.735788 0.204198 0.669485
Si Si3 0.418051 0.526396 0.801631
Si Si4 0.722369 0.504656 0.909309
Si Si5 0.227280 0.565920 0.594146
Si Si6 0.671561 0.603252 0.311168
Si Si7 0.226980 0.720176 0.905649
Si Si8 0.921801 0.555174 0.410006
O O1 0.156862 0.288430 0.213569
O O2 0.084205 0.154416 0.293819
O O3 0.197382 0.263170 0.366636
O O4 0.076412 0.354589 0.340390
O O5 0.731420 0.115180 0.598760
O O6 0.761989 0.317354 0.633790
O O7 0.793811 0.154645 0.731686
O O8 0.500000 0.500000 0.832857
O O9 0.355633 0.490932 0.864176
O O10 0.401812 0.462469 0.716941
O O11 0.776651 0.406306 0.881127
O O12 0.699498 0.483170 0.000000
O O13 0.250928 0.567978 0.500000
O O14 0.275661 0.480745 0.643359
O O15 0.141807 0.533726 0.604630
O O16 0.658964 0.707206 0.370097
O O17 0.229150 0.739725 0.000000
O O18 0.912216 0.605302 0.500000
O O19 0.000000 0.500000 0.402214
#
# Coordination Sequence:
#
# PCOD8235613 Si02
#       8
#     8   8   8   8   8   8   8   8
#     4  10  18  32  51  71 103 140 177 215 268 318
#     4  10  19  31  52  76 106 136 178 228 265 302
#     4  10  21  35  50  75 107 143 175 216 266 323
#     4   9  19  33  50  79 109 137 173 213 263 324
#     4  11  20  33  54  80 106 139 180 224 269 316
#     4  10  19  31  53  76 100 133 183 223 258 308
#     4   9  16  29  52  76  99 131 172 215 259 310
#     4  10  21  34  51  79 114 147 178 214 264 331
#
# _framework density 17.183675000000001
#
# number of rings (size 3 to 8) (size 9 to 14) (size 15 to 20)
#    0.000    2.125    3.750    1.125    1.750    2.750 
#    0.000    1.250    0.000    1.500    0.000    0.000 
#    0.000    3.000    0.000    0.000    0.000    0.000 
#
# Total GULP energy -792837.837093 kJ/mol
# GULP energy per Si atom -12388.091205 kJ/mol
# Density = 1.714456 g / cm^3
# Si number density = 17.183675 Si / 1000 Ang^3
#
#
#
# Elastic Constant Matrix: (Units=GPa)
#
#
# Indices 1 2 3 4 5 6 
#
# 1 48.5804 48.5354 32.4683 0.0000 0.0000 0.0000
# 2 48.5354 148.7889 55.9436 0.0000 0.0000 0.0000
# 3 32.4683 55.9436 79.1541 0.0000 0.0000 0.0000
# 4 0.0000 0.0000 0.0000 32.1268 0.0000 0.0000
# 5 0.0000 0.0000 0.0000 0.0000 15.9693 0.0000
# 6 0.0000 0.0000 0.0000 0.0000 0.0000 16.7616
#
#
#
# Elastic Compliance Matrix: (Units=1/GPa)
#
#
# Indices 1 2 3 4 5 6 
#
# 1 0.034166 -0.008002 -0.008359 0.000000 0.000000 0.000000
# 2 -0.008002 0.011028 -0.004512 0.000000 0.000000 0.000000
# 3 -0.008359 -0.004512 0.019251 0.000000 0.000000 0.000000
# 4 0.000000 0.000000 0.000000 0.031127 0.000000 0.000000
# 5 0.000000 0.000000 0.000000 0.000000 0.062620 0.000000
# 6 0.000000 0.000000 0.000000 0.000000 0.000000 0.059660
#
#
# Mechanical properties :
#
#
# Convention : Reuss Voigt Hill
#
# Bulk Modulus (GPa) = 44.05439 61.15755 52.60597
# Shear Modulus (GPa) = 18.71522 22.27662 20.49592
#
# Velocity S-wave (km/s) = 3.30377 3.60444 3.45738
# Velocity P-wave (km/s) = 6.34399 7.27945 6.82776
#
# Compressibility (1/GPa) = 0.02269921
#
# Stress axis : x y z
#
# Youngs Moduli (GPa) = 29.26919 90.68210 51.94563
#
# Poissons Ratio (x) = 0.72564 0.43420
# Poissons Ratio (y) = 0.23421 0.23435
# Poissons Ratio (z) = 0.24466 0.40911
#
# Static dielectric constant tensor:
#      x y z
#    x 2.859320 0.000000 0.000000 
#    y 0.000000 3.926200 0.000000 
#    z 0.000000 0.000000 3.470630 
# 
# 
# High freq. dielectric constant tensor:
#      x y z
#    x 1.611270 0.000000 0.000000 
#    y 0.000000 1.686810 0.000000 
#    z 0.000000 0.000000 1.667330 
# 
# From -- ./inp_files/27392.got.cif
#   From: 2010.06.25/outbox.cif.g09.slc.cpg/sg58_14_cif.got.tgz:27392.got - 2010.06.26 21:38:00.
