data_PCOD8235862
_publ_section_title
;
Structure prediction by ZEFSAII (Michael W. Deem and Ramdas Pophale) SiO2 
 PCOD8235862
Probable space group: P N N M
;
_chemical_formula_sum "Si O2"
_cell_formula_units_Z 64
_cell_length_a 9.353092
_cell_length_b 14.155151
_cell_length_c 27.870117
_cell_angle_alpha 90.000000
_cell_angle_beta 90.000000
_cell_angle_gamma 90.000000
_cell_volume 3689.848242
_symmetry_space_group_name_H-M "P N N M"
_symmetry_group_IT_number 58
_symmetry_cell_setting 'orthorhombic'
loop_
_space_group_symop_operation_xyz
x,y,z
-x,-y,z
1/2+x,1/2-y,1/2-z
1/2-x,1/2+y,1/2-z
-x,-y,-z
x,y,-z
1/2-x,1/2+y,1/2+z
1/2+x,1/2-y,1/2+z
loop_
_atom_site_type_symbol
_atom_site_label
_atom_site_fract_x
_atom_site_fract_y
_atom_site_fract_z
Si Si1 0.155394 0.016395 0.714550
Si Si2 0.644964 0.556247 0.446658
Si Si3 0.587112 0.130985 0.161802
Si Si4 0.086109 0.584186 0.154345
Si Si5 0.397355 0.655256 0.696768
Si Si6 0.305899 0.057044 0.871472
Si Si7 0.131281 0.355178 0.232433
Si Si8 0.138838 0.787400 0.130270
O O1 0.254381 0.060732 0.672879
O O2 0.121018 0.082771 0.760032
O O3 0.226092 0.919029 0.733363
O O4 0.000000 0.000000 0.690342
O O5 0.500000 0.500000 0.449836
O O6 0.698794 0.583382 0.500000
O O7 0.766071 0.488933 0.422803
O O8 0.610571 0.651455 0.417178
O O9 0.447304 0.123300 0.127587
O O10 0.553209 0.158175 0.216355
O O11 0.691505 0.210288 0.140153
O O12 0.665824 0.029601 0.164620
O O13 0.091739 0.678457 0.121578
O O14 0.000000 0.500000 0.125789
O O15 0.991091 0.597527 0.201352
O O16 0.323235 0.618494 0.648425
O O17 0.323741 0.753122 0.712333
O O18 0.560315 0.671629 0.678346
#
# Coordination Sequence:
#
# PCOD8235862 Si02
#       8
#     8   8   8   8   8   8   8   8
#     4  11  21  30  46  70  98 138 182 225 239 289
#     4  10  20  36  59  83 106 129 163 212 265 322
#     4  10  19  30  46  69 101 139 172 211 253 297
#     4   9  20  35  49  68 103 141 174 216 257 293
#     4  11  20  31  49  69 101 137 183 220 240 298
#     4  10  20  32  49  72 101 136 171 216 259 302
#     4  10  20  32  45  68 100 143 180 213 254 282
#     4  10  20  34  52  75 100 136 171 209 265 314
#
# _framework density 17.344887
#
# number of rings (size 3 to 8) (size 9 to 14) (size 15 to 20)
#    0.000    1.875    2.500    2.250    5.250    4.000 
#    0.000    5.000    0.000    0.375    0.000    0.000 
#    0.000    0.500    0.000    0.250    0.000    0.000 
#
# Total GULP energy -793106.899595 kJ/mol
# GULP energy per Si atom -12392.295306 kJ/mol
# Density = 1.730541 g / cm^3
# Si number density = 17.344887 Si / 1000 Ang^3
#
#
#
# Elastic Constant Matrix: (Units=GPa)
#
#
# Indices 1 2 3 4 5 6 
#
# 1 96.8909 37.3887 19.2447 0.0000 0.0000 0.0000
# 2 37.3887 105.1439 40.7139 0.0000 0.0000 0.0000
# 3 19.2447 40.7139 74.4591 0.0000 0.0000 0.0000
# 4 0.0000 0.0000 0.0000 14.4807 0.0000 0.0000
# 5 0.0000 0.0000 0.0000 0.0000 14.2452 0.0000
# 6 0.0000 0.0000 0.0000 0.0000 0.0000 23.8511
#
#
#
# Elastic Compliance Matrix: (Units=1/GPa)
#
#
# Indices 1 2 3 4 5 6 
#
# 1 0.012018 -0.003896 -0.000976 0.000000 0.000000 0.000000
# 2 -0.003896 0.013328 -0.006281 0.000000 0.000000 0.000000
# 3 -0.000976 -0.006281 0.017117 0.000000 0.000000 0.000000
# 4 0.000000 0.000000 0.000000 0.069057 0.000000 0.000000
# 5 0.000000 0.000000 0.000000 0.000000 0.070199 0.000000
# 6 0.000000 0.000000 0.000000 0.000000 0.000000 0.041927
#
#
# Mechanical properties :
#
#
# Convention : Reuss Voigt Hill
#
# Bulk Modulus (GPa) = 49.60855 52.35428 50.98142
# Shear Modulus (GPa) = 19.78862 22.45851 21.12356
#
# Velocity S-wave (km/s) = 3.38137 3.60227 3.49356
# Velocity P-wave (km/s) = 6.62633 6.89576 6.76239
#
# Compressibility (1/GPa) = 0.02015781
#
# Stress axis : x y z
#
# Youngs Moduli (GPa) = 83.20855 75.02934 58.42199
#
# Poissons Ratio (x) = 0.29228 0.05702
# Poissons Ratio (y) = 0.32415 0.36694
# Poissons Ratio (z) = 0.08122 0.47125
#
# Static dielectric constant tensor:
#      x y z
#    x 3.477960 0.000000 0.000000 
#    y 0.000000 3.495570 0.000000 
#    z 0.000000 0.000000 2.929470 
# 
# 
# High freq. dielectric constant tensor:
#      x y z
#    x 1.681120 0.000000 0.000000 
#    y 0.000000 1.672050 0.000000 
#    z 0.000000 0.000000 1.612230 
# 
# From -- ./inp_files/34818.got.cif
#   From: 2010.06.25/outbox.cif.g09.slc.cpg/sg58_18_cif.got.tgz:34818.got - 2010.06.26 21:38:00.
