data_PCOD8235591
_publ_section_title
;
Structure prediction by ZEFSAII (Michael W. Deem and Ramdas Pophale) SiO2 
 PCOD8235591
Probable space group: P N N M
;
_chemical_formula_sum "Si O2"
_cell_formula_units_Z 64
_cell_length_a 15.466650
_cell_length_b 23.670522
_cell_length_c 9.406967
_cell_angle_alpha 90.000000
_cell_angle_beta 90.000000
_cell_angle_gamma 90.000000
_cell_volume 3443.925228
_symmetry_space_group_name_H-M "P N N M"
_symmetry_group_IT_number 58
_symmetry_cell_setting 'orthorhombic'
loop_
_space_group_symop_operation_xyz
x,y,z
-x,-y,z
1/2+x,1/2-y,1/2-z
1/2-x,1/2+y,1/2-z
-x,-y,-z
x,y,-z
1/2-x,1/2+y,1/2+z
1/2+x,1/2-y,1/2+z
loop_
_atom_site_type_symbol
_atom_site_label
_atom_site_fract_x
_atom_site_fract_y
_atom_site_fract_z
Si Si1 0.254719 0.177182 0.334562
Si Si2 0.598788 0.116316 0.831491
Si Si3 0.591674 0.876999 0.163663
Si Si4 0.335522 0.002603 0.163051
Si Si5 0.589125 0.387655 0.164998
Si Si6 0.666884 0.503540 0.835806
Si Si7 0.757709 0.191316 0.834957
Si Si8 0.398481 0.374318 0.169316
O O1 0.266262 0.162118 0.500000
O O2 0.340683 0.157616 0.255799
O O3 0.170747 0.145659 0.267391
O O4 0.240848 0.243175 0.309643
O O5 0.504688 0.137148 0.778006
O O6 0.618787 0.053355 0.774222
O O7 0.673044 0.158687 0.777121
O O8 0.594990 0.114942 0.000000
O O9 0.601126 0.944434 0.179553
O O10 0.603854 0.858602 0.000000
O O11 0.249932 0.015992 0.249852
O O12 0.308660 0.992765 0.000000
O O13 0.595183 0.455089 0.190004
O O14 0.496956 0.366411 0.225167
O O15 0.590169 0.373072 0.000000
O O16 0.631886 0.563504 0.782107
O O17 0.693140 0.506740 0.000000
O O18 0.840867 0.172653 0.745327
O O19 0.774598 0.177250 0.000000
O O20 0.391646 0.367262 0.000000
#
# Coordination Sequence:
#
# PCOD8235591 Si02
#       8
#     8   8   8   8   8   8   8   8
#     4  10  21  37  55  75 103 141 180 216 259 311
#     4   9  18  34  55  78 107 140 173 211 258 316
#     4  10  20  34  56  83 106 134 175 220 263 308
#     4  10  18  31  54  81 108 137 170 211 262 316
#     4   9  18  34  55  78 107 140 173 211 258 316
#     4  10  18  31  54  81 108 137 170 211 262 316
#     4  10  21  37  55  75 103 141 180 216 259 311
#     4  10  20  34  56  83 106 134 175 220 263 308
#
# _framework density 18.583447
#
# number of rings (size 3 to 8) (size 9 to 14) (size 15 to 20)
#    0.000    2.250    2.500    0.750    0.000    4.500 
#    0.000    5.000    0.000    3.000    0.000    0.000 
#    0.000    0.000    0.000    0.000    0.000    0.000 
#
# Total GULP energy -793531.831217 kJ/mol
# GULP energy per Si atom -12398.934863 kJ/mol
# Density = 1.854115 g / cm^3
# Si number density = 18.583447 Si / 1000 Ang^3
#
#
#
# Elastic Constant Matrix: (Units=GPa)
#
#
# Indices 1 2 3 4 5 6 
#
# 1 139.8355 32.9054 33.2672 0.0000 0.0000 0.0000
# 2 32.9054 79.9209 23.2582 0.0000 0.0000 0.0000
# 3 33.2672 23.2582 34.7792 0.0000 0.0000 0.0000
# 4 0.0000 0.0000 0.0000 25.9570 0.0000 0.0000
# 5 0.0000 0.0000 0.0000 0.0000 27.1548 0.0000
# 6 0.0000 0.0000 0.0000 0.0000 0.0000 19.3485
#
#
#
# Elastic Compliance Matrix: (Units=1/GPa)
#
#
# Indices 1 2 3 4 5 6 
#
# 1 0.009412 -0.001558 -0.007960 0.000000 0.000000 0.000000
# 2 -0.001558 0.015794 -0.009071 0.000000 0.000000 0.000000
# 3 -0.007960 -0.009071 0.042433 0.000000 0.000000 0.000000
# 4 0.000000 0.000000 0.000000 0.038525 0.000000 0.000000
# 5 0.000000 0.000000 0.000000 0.000000 0.036826 0.000000
# 6 0.000000 0.000000 0.000000 0.000000 0.000000 0.051684
#
#
# Mechanical properties :
#
#
# Convention : Reuss Voigt Hill
#
# Bulk Modulus (GPa) = 32.83122 48.15526 40.49324
# Shear Modulus (GPa) = 20.66056 25.49905 23.07980
#
# Velocity S-wave (km/s) = 3.33794 3.70826 3.52796
# Velocity P-wave (km/s) = 5.70623 6.65614 6.19940
#
# Compressibility (1/GPa) = 0.03045882
#
# Stress axis : x y z
#
# Youngs Moduli (GPa) = 106.24968 63.31556 23.56634
#
# Poissons Ratio (x) = 0.09868 0.18760
# Poissons Ratio (y) = 0.16559 0.21378
# Poissons Ratio (z) = 0.84579 0.57435
#
# Static dielectric constant tensor:
#      x y z
#    x 3.675590 0.000000 0.000000 
#    y 0.000000 3.437940 0.000000 
#    z 0.000000 0.000000 3.121590 
# 
# 
# High freq. dielectric constant tensor:
#      x y z
#    x 1.732570 0.000000 0.000000 
#    y 0.000000 1.724360 0.000000 
#    z 0.000000 0.000000 1.682820 
# 
# From -- ./inp_files/6908.got.cif
#   From: 2010.06.25/outbox.cif.g09.slc.cpg/sg58_4_cif.got.tgz:6908.got - 2010.06.26 21:38:00.
