data_PCOD8235801
_publ_section_title
;
Structure prediction by ZEFSAII (Michael W. Deem and Ramdas Pophale) SiO2 
 PCOD8235801
Probable space group: P N N M
;
_chemical_formula_sum "Si O2"
_cell_formula_units_Z 40
_cell_length_a 21.036920
_cell_length_b 13.294664
_cell_length_c 7.484086
_cell_angle_alpha 90.000000
_cell_angle_beta 90.000000
_cell_angle_gamma 90.000000
_cell_volume 2093.140064
_symmetry_space_group_name_H-M "P N N M"
_symmetry_group_IT_number 58
_symmetry_cell_setting 'orthorhombic'
loop_
_space_group_symop_operation_xyz
x,y,z
-x,-y,z
1/2+x,1/2-y,1/2-z
1/2-x,1/2+y,1/2-z
-x,-y,-z
x,y,-z
1/2-x,1/2+y,1/2+z
1/2+x,1/2-y,1/2+z
loop_
_atom_site_type_symbol
_atom_site_label
_atom_site_fract_x
_atom_site_fract_y
_atom_site_fract_z
Si Si1 0.888987 0.112359 0.500000
Si Si2 0.531141 0.694074 0.291403
Si Si3 0.967366 0.597671 0.203044
Si Si4 0.174318 0.377776 0.689251
Si Si5 0.055006 0.097749 0.500000
Si Si6 0.750081 0.521381 0.000000
Si Si7 0.806758 0.812440 0.500000
O O1 0.902705 0.174905 0.316915
O O2 0.942775 0.024022 0.500000
O O3 0.817722 0.074669 0.500000
O O4 0.535499 0.658544 0.500000
O O5 0.517511 0.812258 0.281070
O O6 0.475454 0.636717 0.185081
O O7 0.901432 0.626565 0.292965
O O8 0.000000 0.500000 0.293795
O O9 0.950518 0.571976 0.000000
O O10 0.188905 0.431434 0.500000
O O11 0.198197 0.260390 0.676149
O O12 0.210644 0.443137 0.831321
O O13 0.127308 0.130711 0.500000
O O14 0.746801 0.399751 0.000000
#
# Coordination Sequence:
#
# PCOD8235801 Si02
#       7
#     4   8   8   8   4   4   4
#     4  10  24  37  53  86 123 156 196 247 299 359
#     4  10  19  35  58  86 119 155 190 243 307 362
#     4  10  20  37  62  95 126 158 197 260 321 367
#     4  10  21  42  64  89 120 162 218 256 308 385
#     4  10  18  37  59  83 118 148 192 244 303 359
#     4  11  23  46  61  85 132 168 212 269 305 360
#     4   9  21  42  63  88 119 163 212 262 302 387
#
# _framework density 19.110045
#
# number of rings (size 3 to 8) (size 9 to 14) (size 15 to 20)
#    0.600    1.400    3.000    1.200    1.400    2.800 
#    5.400    2.000    0.000    0.000    0.000    0.000 
#    0.000    0.000    0.000    0.000    0.000    0.000 
#
# Total GULP energy -495550.682621 kJ/mol
# GULP energy per Si atom -12388.767066 kJ/mol
# Density = 1.906655 g / cm^3
# Si number density = 19.110045 Si / 1000 Ang^3
#
#
#
# Elastic Constant Matrix: (Units=GPa)
#
#
# Indices 1 2 3 4 5 6 
#
# 1 61.2527 36.8684 28.9007 0.0000 0.0000 0.0000
# 2 36.8684 128.4310 49.0839 0.0000 0.0000 0.0000
# 3 28.9007 49.0839 140.6248 0.0000 0.0000 0.0000
# 4 0.0000 0.0000 0.0000 33.0806 0.0000 0.0000
# 5 0.0000 0.0000 0.0000 0.0000 64.9332 0.0000
# 6 0.0000 0.0000 0.0000 0.0000 0.0000 29.2578
#
#
#
# Elastic Compliance Matrix: (Units=1/GPa)
#
#
# Indices 1 2 3 4 5 6 
#
# 1 0.020463 -0.004924 -0.002487 0.000000 0.000000 0.000000
# 2 -0.004924 0.010170 -0.002538 0.000000 0.000000 0.000000
# 3 -0.002487 -0.002538 0.008508 0.000000 0.000000 0.000000
# 4 0.000000 0.000000 0.000000 0.030229 0.000000 0.000000
# 5 0.000000 0.000000 0.000000 0.000000 0.015400 0.000000
# 6 0.000000 0.000000 0.000000 0.000000 0.000000 0.034179
#
#
# Mechanical properties :
#
#
# Convention : Reuss Voigt Hill
#
# Bulk Modulus (GPa) = 51.96494 62.22384 57.09439
# Shear Modulus (GPa) = 34.42101 39.81804 37.11952
#
# Velocity S-wave (km/s) = 4.24866 4.56962 4.41206
# Velocity P-wave (km/s) = 7.16377 7.77646 7.47640
#
# Compressibility (1/GPa) = 0.01924374
#
# Stress axis : x y z
#
# Youngs Moduli (GPa) = 48.86916 98.33228 117.53693
#
# Poissons Ratio (x) = 0.48417 0.29229
# Poissons Ratio (y) = 0.24062 0.29827
# Poissons Ratio (z) = 0.12153 0.24954
#
# Static dielectric constant tensor:
#      x y z
#    x 3.348210 0.000000 0.000000 
#    y 0.000000 3.704060 0.000000 
#    z 0.000000 0.000000 3.617570 
# 
# 
# High freq. dielectric constant tensor:
#      x y z
#    x 1.732190 0.000000 0.000000 
#    y 0.000000 1.747490 0.000000 
#    z 0.000000 0.000000 1.742840 
# 
# From -- ./inp_files/8810.got.cif
#   From: 2010.06.25/outbox.cif.g09.slc.cpg/sg58_5_cif.got.tgz:8810.got - 2010.06.26 21:38:00.
