data_PCOD8235583
_publ_section_title
;
Structure prediction by ZEFSAII (Michael W. Deem and Ramdas Pophale) SiO2 
 PCOD8235583
Probable space group: P N N M
;
_chemical_formula_sum "Si O2"
_cell_formula_units_Z 64
_cell_length_a 29.484495
_cell_length_b 11.908888
_cell_length_c 8.996380
_cell_angle_alpha 90.000000
_cell_angle_beta 90.000000
_cell_angle_gamma 90.000000
_cell_volume 3158.876856
_symmetry_space_group_name_H-M "P N N M"
_symmetry_group_IT_number 58
_symmetry_cell_setting 'orthorhombic'
loop_
_space_group_symop_operation_xyz
x,y,z
-x,-y,z
1/2+x,1/2-y,1/2-z
1/2-x,1/2+y,1/2-z
-x,-y,-z
x,y,-z
1/2-x,1/2+y,1/2+z
1/2+x,1/2-y,1/2+z
loop_
_atom_site_type_symbol
_atom_site_label
_atom_site_fract_x
_atom_site_fract_y
_atom_site_fract_z
Si Si1 0.430040 0.535688 0.831457
Si Si2 0.338082 0.249432 0.825149
Si Si3 0.842833 0.897035 0.173310
Si Si4 0.314959 0.999153 0.825872
Si Si5 0.061516 0.779545 0.332167
Si Si6 0.525928 0.262259 0.325693
Si Si7 0.119027 0.345864 0.170616
Si Si8 0.775921 0.046649 0.676917
O O1 0.381206 0.529895 0.753697
O O2 0.450259 0.411339 0.830016
O O3 0.463465 0.616910 0.743752
O O4 0.424317 0.579563 0.000000
O O5 0.389141 0.256756 0.758533
O O6 0.305128 0.347001 0.764070
O O7 0.316234 0.130306 0.784142
O O8 0.343094 0.266879 0.000000
O O9 0.851434 0.765769 0.199016
O O10 0.795476 0.932906 0.248667
O O11 0.842243 0.926825 0.000000
O O12 0.362440 0.943181 0.777242
O O13 0.275275 0.938723 0.733604
O O14 0.307210 0.981065 0.000000
O O15 0.059919 0.732485 0.500000
O O16 0.021927 0.717086 0.238640
O O17 0.521872 0.279549 0.500000
O O18 0.566438 0.175713 0.287345
O O19 0.123342 0.384105 0.000000
O O20 0.776285 0.036930 0.500000
#
# Coordination Sequence:
#
# PCOD8235583 Si02
#       8
#     8   8   8   8   8   8   8   8
#     4  10  18  31  53  82 117 157 195 236 289 355
#     4   9  21  42  62  84 120 158 191 242 302 352
#     4  10  20  35  57  86 119 154 192 241 292 343
#     4  11  24  41  63  89 115 151 203 251 293 352
#     4  10  19  35  57  82 114 157 200 238 294 358
#     4  10  21  35  54  84 120 157 196 245 302 350
#     4   9  21  41  59  80 119 161 195 240 300 350
#     4  11  22  40  63  87 119 157 192 235 302 365
#
# _framework density 20.260365
#
# number of rings (size 3 to 8) (size 9 to 14) (size 15 to 20)
#    0.000    2.000    1.250    3.000    1.750    5.500 
#    0.000    3.750    0.000    3.750    0.000    0.000 
#    0.000    0.000    0.000    0.000    0.000    0.000 
#
# Total GULP energy -793660.196465 kJ/mol
# GULP energy per Si atom -12400.940570 kJ/mol
# Density = 2.021425 g / cm^3
# Si number density = 20.260365 Si / 1000 Ang^3
#
#
#
# Elastic Constant Matrix: (Units=GPa)
#
#
# Indices 1 2 3 4 5 6 
#
# 1 136.4189 37.0298 46.3876 0.0000 0.0000 0.0000
# 2 37.0298 57.7887 29.2648 0.0000 0.0000 0.0000
# 3 46.3876 29.2648 93.8207 0.0000 0.0000 0.0000
# 4 0.0000 0.0000 0.0000 22.6321 0.0000 0.0000
# 5 0.0000 0.0000 0.0000 0.0000 37.7751 0.0000
# 6 0.0000 0.0000 0.0000 0.0000 0.0000 18.6605
#
#
#
# Elastic Compliance Matrix: (Units=1/GPa)
#
#
# Indices 1 2 3 4 5 6 
#
# 1 0.009706 -0.004500 -0.003395 0.000000 0.000000 0.000000
# 2 -0.004500 0.022637 -0.004836 0.000000 0.000000 0.000000
# 3 -0.003395 -0.004836 0.013846 0.000000 0.000000 0.000000
# 4 0.000000 0.000000 0.000000 0.044185 0.000000 0.000000
# 5 0.000000 0.000000 0.000000 0.000000 0.026472 0.000000
# 6 0.000000 0.000000 0.000000 0.000000 0.000000 0.053589
#
#
# Mechanical properties :
#
#
# Convention : Reuss Voigt Hill
#
# Bulk Modulus (GPa) = 48.24822 57.04363 52.64593
# Shear Modulus (GPa) = 24.65386 27.50328 26.07857
#
# Velocity S-wave (km/s) = 3.49212 3.68841 3.59161
# Velocity P-wave (km/s) = 6.33449 6.80849 6.57576
#
# Compressibility (1/GPa) = 0.02072615
#
# Stress axis : x y z
#
# Youngs Moduli (GPa) = 103.02384 44.17540 72.22365
#
# Poissons Ratio (x) = 0.19880 0.24523
# Poissons Ratio (y) = 0.46363 0.34927
# Poissons Ratio (z) = 0.34981 0.21363
#
# Static dielectric constant tensor:
#      x y z
#    x 3.821340 0.000000 0.000000 
#    y 0.000000 3.394170 0.000000 
#    z 0.000000 0.000000 3.553840 
# 
# 
# High freq. dielectric constant tensor:
#      x y z
#    x 1.804350 0.000000 0.000000 
#    y 0.000000 1.765400 0.000000 
#    z 0.000000 0.000000 1.783110 
# 
# From -- ./inp_files/10968.got.cif
#   From: 2010.06.25/outbox.cif.g09.slc.cpg/sg58_6_cif.got.tgz:10968.got - 2010.06.26 21:38:00.
