data_PCOD8235222
_publ_section_title
;
Structure prediction by ZEFSAII (Michael W. Deem and Ramdas Pophale) SiO2 
 PCOD8235222
Probable space group: P N N M
;
_chemical_formula_sum "Si O2"
_cell_formula_units_Z 64
_cell_length_a 26.266828
_cell_length_b 18.324173
_cell_length_c 9.139384
_cell_angle_alpha 90.000000
_cell_angle_beta 90.000000
_cell_angle_gamma 90.000000
_cell_volume 4398.949118
_symmetry_space_group_name_H-M "P N N M"
_symmetry_group_IT_number 58
_symmetry_cell_setting 'orthorhombic'
loop_
_space_group_symop_operation_xyz
x,y,z
-x,-y,z
1/2+x,1/2-y,1/2-z
1/2-x,1/2+y,1/2-z
-x,-y,-z
x,y,-z
1/2-x,1/2+y,1/2+z
1/2+x,1/2-y,1/2+z
loop_
_atom_site_type_symbol
_atom_site_label
_atom_site_fract_x
_atom_site_fract_y
_atom_site_fract_z
Si Si1 0.740571 0.418244 0.329111
Si Si2 0.747355 0.585516 0.670373
Si Si3 0.644946 0.667946 0.329159
Si Si4 0.556368 0.421266 0.172555
Si Si5 0.305146 0.211557 0.838407
Si Si6 0.652806 0.332676 0.174069
Si Si7 0.942547 0.084554 0.326798
Si Si8 0.801020 0.705032 0.164340
O O1 0.725033 0.410492 0.500000
O O2 0.751286 0.501295 0.285625
O O3 0.792656 0.372672 0.297357
O O4 0.694964 0.389284 0.229626
O O5 0.757318 0.599021 0.500000
O O6 0.691490 0.614835 0.714147
O O7 0.791624 0.627337 0.758337
O O8 0.634995 0.669886 0.500000
O O9 0.657001 0.750565 0.276385
O O10 0.594310 0.641144 0.251161
O O11 0.598190 0.363512 0.226501
O O12 0.500243 0.395191 0.221267
O O13 0.569142 0.502616 0.231215
O O14 0.556915 0.428176 0.000000
O O15 0.250989 0.250789 0.836800
O O16 0.329750 0.217140 0.000000
O O17 0.658116 0.252595 0.245172
O O18 0.657305 0.325766 0.000000
O O19 0.934746 0.091444 0.500000
O O20 0.821339 0.691925 0.000000
#
# Coordination Sequence:
#
# PCOD8235222 Si02
#       8
#     8   8   8   8   8   8   8   8
#     4   9  17  28  41  59  82 106 134 165 198 236
#     4   9  17  28  41  58  82 108 132 164 201 235
#     4  10  18  26  38  58  81 104 132 164 199 233
#     4   8  16  28  42  59  77 102 136 169 196 229
#     4   8  15  27  40  53  73 104 135 160 189 229
#     4  10  17  26  41  59  79 105 137 167 199 235
#     4   9  16  29  44  56  76 105 136 167 197 229
#     4   9  17  28  40  56  78 104 135 166 196 234
#
# _framework density 14.54893
#
# number of rings (size 3 to 8) (size 9 to 14) (size 15 to 20)
#    0.000    3.000    0.000    3.375    0.000    4.000 
#    0.000    3.125    0.000    0.000    0.000    0.000 
#    0.000    1.000    0.000   11.500    0.000    4.500 
#
# Total GULP energy -793324.122709 kJ/mol
# GULP energy per Si atom -12395.689417 kJ/mol
# Density = 1.451582 g / cm^3
# Si number density = 14.548930 Si / 1000 Ang^3
#
#
#
# Elastic Constant Matrix: (Units=GPa)
#
#
# Indices 1 2 3 4 5 6 
#
# 1 79.9660 52.4872 40.4517 0.0000 0.0000 0.0000
# 2 52.4872 102.1562 41.3894 0.0000 0.0000 0.0000
# 3 40.4517 41.3894 64.9572 0.0000 0.0000 0.0000
# 4 0.0000 0.0000 0.0000 19.9887 0.0000 0.0000
# 5 0.0000 0.0000 0.0000 0.0000 17.7688 0.0000
# 6 0.0000 0.0000 0.0000 0.0000 0.0000 25.1397
#
#
#
# Elastic Compliance Matrix: (Units=1/GPa)
#
#
# Indices 1 2 3 4 5 6 
#
# 1 0.022046 -0.007771 -0.008778 0.000000 0.000000 0.000000
# 2 -0.007771 0.015934 -0.005314 0.000000 0.000000 0.000000
# 3 -0.008778 -0.005314 0.024247 0.000000 0.000000 0.000000
# 4 0.000000 0.000000 0.000000 0.050028 0.000000 0.000000
# 5 0.000000 0.000000 0.000000 0.000000 0.056278 0.000000
# 6 0.000000 0.000000 0.000000 0.000000 0.000000 0.039778
#
#
# Mechanical properties :
#
#
# Convention : Reuss Voigt Hill
#
# Bulk Modulus (GPa) = 54.04609 57.30399 55.67504
# Shear Modulus (GPa) = 19.36451 20.09618 19.73034
#
# Velocity S-wave (km/s) = 3.65223 3.72059 3.68657
# Velocity P-wave (km/s) = 7.41711 7.61115 7.51476
#
# Compressibility (1/GPa) = 0.01850273
#
# Stress axis : x y z
#
# Youngs Moduli (GPa) = 45.35951 62.75694 41.24237
#
# Poissons Ratio (x) = 0.48767 0.36201
# Poissons Ratio (y) = 0.35248 0.21916
# Poissons Ratio (z) = 0.39815 0.33349
#
# Static dielectric constant tensor:
#      x y z
#    x 2.744240 0.000000 0.000000 
#    y 0.000000 2.972750 0.000000 
#    z 0.000000 0.000000 2.819070 
# 
# 
# High freq. dielectric constant tensor:
#      x y z
#    x 1.521570 0.000000 0.000000 
#    y 0.000000 1.547680 0.000000 
#    z 0.000000 0.000000 1.556190 
# 
# From -- ./inp_files/8544.got.cif
#   From: 2010.06.25/outbox.cif.g09.slc.cpg/sg58_5_cif.got.tgz:8544.got - 2010.06.26 21:38:00.
