data_PCOD8235379
_publ_section_title
;
Structure prediction by ZEFSAII (Michael W. Deem and Ramdas Pophale) SiO2 
 PCOD8235379
Probable space group: P N N M
;
_chemical_formula_sum "Si O2"
_cell_formula_units_Z 56
_cell_length_a 18.434178
_cell_length_b 20.938380
_cell_length_c 8.632185
_cell_angle_alpha 90.000000
_cell_angle_beta 90.000000
_cell_angle_gamma 90.000000
_cell_volume 3331.866511
_symmetry_space_group_name_H-M "P N N M"
_symmetry_group_IT_number 58
_symmetry_cell_setting 'orthorhombic'
loop_
_space_group_symop_operation_xyz
x,y,z
-x,-y,z
1/2+x,1/2-y,1/2-z
1/2-x,1/2+y,1/2-z
-x,-y,-z
x,y,-z
1/2-x,1/2+y,1/2+z
1/2+x,1/2-y,1/2+z
loop_
_atom_site_type_symbol
_atom_site_label
_atom_site_fract_x
_atom_site_fract_y
_atom_site_fract_z
Si Si1 0.425676 0.748485 0.317108
Si Si2 0.083834 0.004343 0.180695
Si Si3 0.705722 0.180298 0.669876
Si Si4 0.150144 0.128696 0.318905
Si Si5 0.910145 0.246240 0.180759
Si Si6 0.346853 0.379541 0.184806
Si Si7 0.785302 0.314709 0.671428
O O1 0.410955 0.743048 0.500000
O O2 0.371847 0.804452 0.247207
O O3 0.406869 0.679759 0.247022
O O4 0.507841 0.767487 0.280009
O O5 0.121155 0.058825 0.280963
O O6 0.121882 0.938112 0.220808
O O7 0.093098 0.019838 0.000000
O O8 0.000000 0.000000 0.227773
O O9 0.689578 0.152563 0.500000
O O10 0.763417 0.131542 0.747717
O O11 0.745641 0.247671 0.659428
O O12 0.155479 0.138801 0.500000
O O13 0.231286 0.134904 0.250814
O O14 0.894371 0.182765 0.278574
O O15 0.858819 0.305351 0.229282
O O16 0.900134 0.230748 0.000000
O O17 0.348719 0.391124 0.000000
O O18 0.805724 0.339755 0.500000
#
# Coordination Sequence:
#
# PCOD8235379 Si02
#       7
#     8   8   8   8   8   8   8
#     4   9  17  30  47  68  97 128 153 184 232 282
#     4  11  23  36  48  64  91 127 161 192 231 279
#     4   7  13  27  45  63  85 117 151 182 223 272
#     4  11  21  32  48  69  93 122 160 199 232 277
#     4  10  18  28  46  72  98 124 156 191 228 275
#     4  10  19  31  47  66  91 124 160 196 232 272
#     4   9  17  31  48  65  91 124 155 190 235 280
#
# _framework density 16.807396000000001
#
# number of rings (size 3 to 8) (size 9 to 14) (size 15 to 20)
#    0.000    2.429    0.000    5.571    0.000    5.714 
#    0.000    0.714    0.000    0.000    0.000    1.000 
#    0.000    8.000    0.000    0.000    0.000    0.000 
#
# Total GULP energy -693949.275315 kJ/mol
# GULP energy per Si atom -12391.951345 kJ/mol
# Density = 1.676914 g / cm^3
# Si number density = 16.807396 Si / 1000 Ang^3
#
#
#
# Elastic Constant Matrix: (Units=GPa)
#
#
# Indices 1 2 3 4 5 6 
#
# 1 139.7438 47.0714 28.9457 0.0000 0.0000 0.0000
# 2 47.0714 53.8843 10.0202 0.0000 0.0000 0.0000
# 3 28.9457 10.0202 51.3371 0.0000 0.0000 0.0000
# 4 0.0000 0.0000 0.0000 16.5406 0.0000 0.0000
# 5 0.0000 0.0000 0.0000 0.0000 24.8115 0.0000
# 6 0.0000 0.0000 0.0000 0.0000 0.0000 26.3645
#
#
#
# Elastic Compliance Matrix: (Units=1/GPa)
#
#
# Indices 1 2 3 4 5 6 
#
# 1 0.011064 -0.008825 -0.004516 0.000000 0.000000 0.000000
# 2 -0.008825 0.026297 -0.000157 0.000000 0.000000 0.000000
# 3 -0.004516 -0.000157 0.022056 0.000000 0.000000 0.000000
# 4 0.000000 0.000000 0.000000 0.060457 0.000000 0.000000
# 5 0.000000 0.000000 0.000000 0.000000 0.040304 0.000000
# 6 0.000000 0.000000 0.000000 0.000000 0.000000 0.037930
#
#
# Mechanical properties :
#
#
# Convention : Reuss Voigt Hill
#
# Bulk Modulus (GPa) = 30.84403 46.33778 38.59090
# Shear Modulus (GPa) = 21.19448 24.13853 22.66650
#
# Velocity S-wave (km/s) = 3.55494 3.79381 3.67632
# Velocity P-wave (km/s) = 5.93645 6.84255 6.40554
#
# Compressibility (1/GPa) = 0.03242118
#
# Stress axis : x y z
#
# Youngs Moduli (GPa) = 90.38239 38.02712 45.33955
#
# Poissons Ratio (x) = 0.33561 0.20474
# Poissons Ratio (y) = 0.79767 0.00710
# Poissons Ratio (z) = 0.40814 0.00596
#
# Static dielectric constant tensor:
#      x y z
#    x 3.588590 0.000000 0.000000 
#    y 0.000000 2.886750 0.000000 
#    z 0.000000 0.000000 3.156070 
# 
# 
# High freq. dielectric constant tensor:
#      x y z
#    x 1.657730 0.000000 0.000000 
#    y 0.000000 1.603840 0.000000 
#    z 0.000000 0.000000 1.647250 
# 
# From -- ./inp_files/8189.got.cif
#   From: 2010.06.25/outbox.cif.g09.slc.cpg/sg58_5_cif.got.tgz:8189.got - 2010.06.26 21:38:00.
