data_PCOD8235784
_publ_section_title
;
Structure prediction by ZEFSAII (Michael W. Deem and Ramdas Pophale) SiO2 
 PCOD8235784
Probable space group: P N N M
;
_chemical_formula_sum "Si O2"
_cell_formula_units_Z 48
_cell_length_a 17.789882
_cell_length_b 9.758203
_cell_length_c 13.857113
_cell_angle_alpha 90.000000
_cell_angle_beta 90.000000
_cell_angle_gamma 90.000000
_cell_volume 2405.557124
_symmetry_space_group_name_H-M "P N N M"
_symmetry_group_IT_number 58
_symmetry_cell_setting 'orthorhombic'
loop_
_space_group_symop_operation_xyz
x,y,z
-x,-y,z
1/2+x,1/2-y,1/2-z
1/2-x,1/2+y,1/2-z
-x,-y,-z
x,y,-z
1/2-x,1/2+y,1/2+z
1/2+x,1/2-y,1/2+z
loop_
_atom_site_type_symbol
_atom_site_label
_atom_site_fract_x
_atom_site_fract_y
_atom_site_fract_z
Si Si1 0.435076 0.898680 0.390902
Si Si2 0.088376 0.476666 0.606642
Si Si3 0.118794 0.746137 0.707827
Si Si4 0.817167 0.373707 0.891720
Si Si5 0.944024 0.781207 0.717969
Si Si6 0.654807 0.485764 0.887212
O O1 0.455939 0.857437 0.500000
O O2 0.431795 0.757544 0.330537
O O3 0.500000 0.000000 0.347734
O O4 0.357066 0.978636 0.383355
O O5 0.122835 0.468398 0.500000
O O6 0.132196 0.596431 0.662358
O O7 0.101941 0.332788 0.658104
O O8 0.000000 0.500000 0.603638
O O9 0.148230 0.738107 0.818185
O O10 0.032172 0.787863 0.697703
O O11 0.166145 0.857373 0.647111
O O12 0.730161 0.399918 0.870117
O O13 0.828968 0.315034 0.000000
O O14 0.908933 0.924595 0.684151
O O15 0.630364 0.481899 0.000000
#
# Coordination Sequence:
#
# PCOD8235784 Si02
#       6
#     8   8   8   8   8   8
#     4  10  18  35  63  90 114 150 206 259 297 343
#     4   9  17  30  53  82 112 148 199 248 282 336
#     4  11  21  37  61  88 118 157 205 253 301 359
#     4  10  22  40  61  86 118 159 206 253 304 357
#     4  11  20  36  59  91 119 157 203 247 304 361
#     4  11  26  41  58  87 130 170 195 241 317 380
#
# _framework density 19.953797999999999
#
# number of rings (size 3 to 8) (size 9 to 14) (size 15 to 20)
#    0.000    1.667    3.333    2.000    2.333    2.667 
#    0.000    0.833    0.000    3.000    0.000    0.000 
#    0.000    0.000    0.000    0.000    0.000    0.000 
#
# Total GULP energy -595160.568921 kJ/mol
# GULP energy per Si atom -12399.178519 kJ/mol
# Density = 1.990838 g / cm^3
# Si number density = 19.953798 Si / 1000 Ang^3
#
#
#
# Elastic Constant Matrix: (Units=GPa)
#
#
# Indices 1 2 3 4 5 6 
#
# 1 64.0563 16.2226 32.3932 0.0000 0.0000 0.0000
# 2 16.2226 78.4119 43.9108 0.0000 0.0000 0.0000
# 3 32.3932 43.9108 139.9601 0.0000 0.0000 0.0000
# 4 0.0000 0.0000 0.0000 33.2552 0.0000 0.0000
# 5 0.0000 0.0000 0.0000 0.0000 23.8865 0.0000
# 6 0.0000 0.0000 0.0000 0.0000 0.0000 22.8263
#
#
#
# Elastic Compliance Matrix: (Units=1/GPa)
#
#
# Indices 1 2 3 4 5 6 
#
# 1 0.017860 -0.001674 -0.003608 0.000000 0.000000 0.000000
# 2 -0.001674 0.015628 -0.004516 0.000000 0.000000 0.000000
# 3 -0.003608 -0.004516 0.009397 0.000000 0.000000 0.000000
# 4 0.000000 0.000000 0.000000 0.030070 0.000000 0.000000
# 5 0.000000 0.000000 0.000000 0.000000 0.041865 0.000000
# 6 0.000000 0.000000 0.000000 0.000000 0.000000 0.043809
#
#
# Mechanical properties :
#
#
# Convention : Reuss Voigt Hill
#
# Bulk Modulus (GPa) = 42.93985 51.94240 47.44112
# Shear Modulus (GPa) = 26.88331 28.65371 27.76851
#
# Velocity S-wave (km/s) = 3.67451 3.79357 3.73452
# Velocity P-wave (km/s) = 6.29039 6.72875 6.51326
#
# Compressibility (1/GPa) = 0.02328839
#
# Stress axis : x y z
#
# Youngs Moduli (GPa) = 55.99093 63.98620 106.41957
#
# Poissons Ratio (x) = 0.10714 0.38400
# Poissons Ratio (y) = 0.09375 0.48056
# Poissons Ratio (z) = 0.20203 0.28894
#
# Static dielectric constant tensor:
#      x y z
#    x 3.414830 0.000000 0.000000 
#    y 0.000000 3.424800 0.000000 
#    z 0.000000 0.000000 3.862530 
# 
# 
# High freq. dielectric constant tensor:
#      x y z
#    x 1.760640 0.000000 0.000000 
#    y 0.000000 1.753710 0.000000 
#    z 0.000000 0.000000 1.791250 
# 
# From -- ./inp_files/19833.got.cif
#   From: 2010.06.25/outbox.cif.g09.slc.cpg/sg58_10_cif.got.tgz:19833.got - 2010.06.26 21:38:00.
