data_PCOD8235692
_publ_section_title
;
Structure prediction by ZEFSAII (Michael W. Deem and Ramdas Pophale) SiO2 
 PCOD8235692
Probable space group: P N N M
;
_chemical_formula_sum "Si O2"
_cell_formula_units_Z 64
_cell_length_a 14.526742
_cell_length_b 30.265424
_cell_length_c 8.776021
_cell_angle_alpha 90.000000
_cell_angle_beta 90.000000
_cell_angle_gamma 90.000000
_cell_volume 3858.447893
_symmetry_space_group_name_H-M "P N N M"
_symmetry_group_IT_number 58
_symmetry_cell_setting 'orthorhombic'
loop_
_space_group_symop_operation_xyz
x,y,z
-x,-y,z
1/2+x,1/2-y,1/2-z
1/2-x,1/2+y,1/2-z
-x,-y,-z
x,y,-z
1/2-x,1/2+y,1/2+z
1/2+x,1/2-y,1/2+z
loop_
_atom_site_type_symbol
_atom_site_label
_atom_site_fract_x
_atom_site_fract_y
_atom_site_fract_z
Si Si1 0.180971 0.872118 0.680173
Si Si2 0.710404 0.788829 0.178951
Si Si3 0.004774 0.724053 0.319334
Si Si4 0.490754 0.320741 0.171502
Si Si5 0.898301 0.046163 0.819087
Si Si6 0.316229 0.634445 0.829406
Si Si7 0.820319 0.703002 0.179158
Si Si8 0.903696 0.953416 0.318906
O O1 0.173075 0.880875 0.500000
O O2 0.180344 0.919123 0.766535
O O3 0.269221 0.842600 0.721972
O O4 0.093557 0.845870 0.749904
O O5 0.605377 0.791084 0.239156
O O6 0.755099 0.835954 0.218669
O O7 0.766514 0.746473 0.247406
O O8 0.708705 0.782885 0.000000
O O9 0.995289 0.720192 0.500000
O O10 0.989744 0.773464 0.253014
O O11 0.922117 0.696069 0.246726
O O12 0.579235 0.350547 0.177185
O O13 0.457700 0.310409 0.000000
O O14 0.997909 0.059892 0.752913
O O15 0.867753 0.998938 0.752138
O O16 0.903936 0.043344 0.000000
O O17 0.324346 0.583024 0.780236
O O18 0.276223 0.639516 0.000000
O O19 0.827117 0.708935 0.000000
O O20 0.917483 0.957393 0.500000
#
# Coordination Sequence:
#
# PCOD8235692 Si02
#       8
#     8   8   8   8   8   8   8   8
#     4  10  18  33  51  67  95 135 171 199 238 294
#     4  10  20  32  48  71  99 131 164 202 248 290
#     4  10  19  33  49  66  97 135 166 200 245 289
#     4   9  15  27  47  68  92 128 168 199 230 278
#     4  11  21  31  46  73 103 126 158 206 250 286
#     4  10  19  31  50  72  94 129 170 203 235 283
#     4  10  20  32  49  72  96 127 170 210 239 279
#     4  10  19  33  51  69  95 134 169 194 239 300
#
# _framework density 16.586981000000002
#
# number of rings (size 3 to 8) (size 9 to 14) (size 15 to 20)
#    0.000    2.000    3.750    2.250    0.000    2.000 
#    0.000    0.625    0.000    0.000    0.000    0.875 
#    0.000    7.000    0.000    0.000    0.000    0.000 
#
# Total GULP energy -793221.965080 kJ/mol
# GULP energy per Si atom -12394.093204 kJ/mol
# Density = 1.654923 g / cm^3
# Si number density = 16.586981 Si / 1000 Ang^3
#
#
#
# Elastic Constant Matrix: (Units=GPa)
#
#
# Indices 1 2 3 4 5 6 
#
# 1 81.1839 38.2424 24.6590 0.0000 0.0000 0.0000
# 2 38.2424 104.6946 32.9801 0.0000 0.0000 0.0000
# 3 24.6590 32.9801 52.6737 0.0000 0.0000 0.0000
# 4 0.0000 0.0000 0.0000 23.8131 0.0000 0.0000
# 5 0.0000 0.0000 0.0000 0.0000 21.8132 0.0000
# 6 0.0000 0.0000 0.0000 0.0000 0.0000 22.2833
#
#
#
# Elastic Compliance Matrix: (Units=1/GPa)
#
#
# Indices 1 2 3 4 5 6 
#
# 1 0.015760 -0.004276 -0.004701 0.000000 0.000000 0.000000
# 2 -0.004276 0.013058 -0.006174 0.000000 0.000000 0.000000
# 3 -0.004701 -0.006174 0.025051 0.000000 0.000000 0.000000
# 4 0.000000 0.000000 0.000000 0.041994 0.000000 0.000000
# 5 0.000000 0.000000 0.000000 0.000000 0.045844 0.000000
# 6 0.000000 0.000000 0.000000 0.000000 0.000000 0.044877
#
#
# Mechanical properties :
#
#
# Convention : Reuss Voigt Hill
#
# Bulk Modulus (GPa) = 42.43114 47.81281 45.12198
# Shear Modulus (GPa) = 22.24781 23.09332 22.67057
#
# Velocity S-wave (km/s) = 3.66632 3.73534 3.70099
# Velocity P-wave (km/s) = 6.59993 6.89143 6.74725
#
# Compressibility (1/GPa) = 0.02356760
#
# Stress axis : x y z
#
# Youngs Moduli (GPa) = 63.45299 76.57851 39.91803
#
# Poissons Ratio (x) = 0.32744 0.18764
# Poissons Ratio (y) = 0.27132 0.24647
# Poissons Ratio (z) = 0.29827 0.47283
#
# Static dielectric constant tensor:
#      x y z
#    x 2.972300 0.000000 0.000000 
#    y 0.000000 3.259210 0.000000 
#    z 0.000000 0.000000 2.948170 
# 
# 
# High freq. dielectric constant tensor:
#      x y z
#    x 1.611300 0.000000 0.000000 
#    y 0.000000 1.638110 0.000000 
#    z 0.000000 0.000000 1.623070 
# 
# From -- ./inp_files/7139.got.cif
#   From: 2010.06.25/outbox.cif.g09.slc.cpg/sg58_4_cif.got.tgz:7139.got - 2010.06.26 21:38:00.
