data_PCOD8235658
_publ_section_title
;
Structure prediction by ZEFSAII (Michael W. Deem and Ramdas Pophale) SiO2 
 PCOD8235658
Probable space group: P N N M
;
_chemical_formula_sum "Si O2"
_cell_formula_units_Z 64
_cell_length_a 15.277174
_cell_length_b 24.398150
_cell_length_c 9.315877
_cell_angle_alpha 90.000000
_cell_angle_beta 90.000000
_cell_angle_gamma 90.000000
_cell_volume 3472.351390
_symmetry_space_group_name_H-M "P N N M"
_symmetry_group_IT_number 58
_symmetry_cell_setting 'orthorhombic'
loop_
_space_group_symop_operation_xyz
x,y,z
-x,-y,z
1/2+x,1/2-y,1/2-z
1/2-x,1/2+y,1/2-z
-x,-y,-z
x,y,-z
1/2-x,1/2+y,1/2+z
1/2+x,1/2-y,1/2+z
loop_
_atom_site_type_symbol
_atom_site_label
_atom_site_fract_x
_atom_site_fract_y
_atom_site_fract_z
Si Si1 0.912651 0.763197 0.168066
Si Si2 0.249759 0.428106 0.670634
Si Si3 0.731430 0.196847 0.829108
Si Si4 0.597890 0.993230 0.828907
Si Si5 0.646274 0.874765 0.839168
Si Si6 0.349014 0.623820 0.660935
Si Si7 0.607141 0.771929 0.334961
Si Si8 0.401158 0.507470 0.328608
O O1 0.856925 0.718161 0.254291
O O2 0.893911 0.823566 0.234418
O O3 0.015432 0.757256 0.191540
O O4 0.886609 0.759167 0.000000
O O5 0.250220 0.429864 0.500000
O O6 0.248515 0.365414 0.724175
O O7 0.163045 0.459500 0.729416
O O8 0.337146 0.459187 0.728783
O O9 0.814538 0.233061 0.778321
O O10 0.718799 0.198981 0.000000
O O11 0.500000 0.000000 0.768269
O O12 0.630644 0.934573 0.772085
O O13 0.599381 0.994663 0.000000
O O14 0.747835 0.862471 0.838900
O O15 0.598959 0.829193 0.746052
O O16 0.607355 0.871886 0.000000
O O17 0.386452 0.619128 0.500000
O O18 0.369393 0.565862 0.737151
O O19 0.623905 0.785456 0.500000
O O20 0.500000 0.500000 0.273652
O O21 0.395573 0.507985 0.500000
#
# Coordination Sequence:
#
# PCOD8235658 Si02
#       8
#     8   8   8   8   8   8   8   8
#     4  10  21  36  53  73 103 140 172 207 253 303
#     4   9  17  29  43  68 103 129 155 200 254 300
#     4  10  21  35  52  76 106 136 169 210 255 302
#     4   9  17  28  45  72 100 124 156 207 259 292
#     4  10  18  32  55  76  97 131 175 213 246 298
#     4   9  16  29  48  71  97 128 168 208 244 292
#     4  10  22  36  50  74 108 139 167 209 261 302
#     4   9  16  25  43  71 101 130 159 198 252 306
#
# _framework density 18.431314
#
# number of rings (size 3 to 8) (size 9 to 14) (size 15 to 20)
#    0.000    2.500    2.500    0.000    3.500    0.500 
#    0.000    0.000    0.000    1.125    0.000    0.000 
#    0.000    2.500    0.000    0.000    0.000    0.000 
#
# Total GULP energy -793297.827984 kJ/mol
# GULP energy per Si atom -12395.278562 kJ/mol
# Density = 1.838936 g / cm^3
# Si number density = 18.431314 Si / 1000 Ang^3
#
#
#
# Elastic Constant Matrix: (Units=GPa)
#
#
# Indices 1 2 3 4 5 6 
#
# 1 96.7805 35.4875 16.0762 0.0000 0.0000 0.0000
# 2 35.4875 137.1949 22.7705 0.0000 0.0000 0.0000
# 3 16.0762 22.7705 19.4182 0.0000 0.0000 0.0000
# 4 0.0000 0.0000 0.0000 20.2632 0.0000 0.0000
# 5 0.0000 0.0000 0.0000 0.0000 16.9824 0.0000
# 6 0.0000 0.0000 0.0000 0.0000 0.0000 34.4554
#
#
#
# Elastic Compliance Matrix: (Units=1/GPa)
#
#
# Indices 1 2 3 4 5 6 
#
# 1 0.012351 -0.001860 -0.008045 0.000000 0.000000 0.000000
# 2 -0.001860 0.009330 -0.009402 0.000000 0.000000 0.000000
# 3 -0.008045 -0.009402 0.069183 0.000000 0.000000 0.000000
# 4 0.000000 0.000000 0.000000 0.049351 0.000000 0.000000
# 5 0.000000 0.000000 0.000000 0.000000 0.058884 0.000000
# 6 0.000000 0.000000 0.000000 0.000000 0.000000 0.029023
#
#
# Mechanical properties :
#
#
# Convention : Reuss Voigt Hill
#
# Bulk Modulus (GPa) = 19.13784 44.67354 31.90569
# Shear Modulus (GPa) = 17.59629 26.27749 21.93689
#
# Velocity S-wave (km/s) = 3.09317 3.77994 3.45367
# Velocity P-wave (km/s) = 4.81277 6.58339 5.76645
#
# Compressibility (1/GPa) = 0.05225250
#
# Stress axis : x y z
#
# Youngs Moduli (GPa) = 80.96637 107.17787 14.45447
#
# Poissons Ratio (x) = 0.19930 0.11628
# Poissons Ratio (y) = 0.15056 0.13589
# Poissons Ratio (z) = 0.65134 1.00763
#
# Static dielectric constant tensor:
#      x y z
#    x 3.476000 0.000000 0.000000 
#    y 0.000000 3.689040 0.000000 
#    z 0.000000 0.000000 2.835730 
# 
# 
# High freq. dielectric constant tensor:
#      x y z
#    x 1.724810 0.000000 0.000000 
#    y 0.000000 1.734120 0.000000 
#    z 0.000000 0.000000 1.642080 
# 
# From -- ./inp_files/6788.got.cif
#   From: 2010.06.25/outbox.cif.g09.slc.cpg/sg58_4_cif.got.tgz:6788.got - 2010.06.26 21:38:00.
