data_PCOD8235431
_publ_section_title
;
Structure prediction by ZEFSAII (Michael W. Deem and Ramdas Pophale) SiO2 
 PCOD8235431
Probable space group: P N N M
;
_chemical_formula_sum "Si O2"
_cell_formula_units_Z 64
_cell_length_a 18.858387
_cell_length_b 20.916350
_cell_length_c 9.035356
_cell_angle_alpha 90.000000
_cell_angle_beta 90.000000
_cell_angle_gamma 90.000000
_cell_volume 3563.983732
_symmetry_space_group_name_H-M "P N N M"
_symmetry_group_IT_number 58
_symmetry_cell_setting 'orthorhombic'
loop_
_space_group_symop_operation_xyz
x,y,z
-x,-y,z
1/2+x,1/2-y,1/2-z
1/2-x,1/2+y,1/2-z
-x,-y,-z
x,y,-z
1/2-x,1/2+y,1/2+z
1/2+x,1/2-y,1/2+z
loop_
_atom_site_type_symbol
_atom_site_label
_atom_site_fract_x
_atom_site_fract_y
_atom_site_fract_z
Si Si1 0.834490 0.492502 0.337814
Si Si2 0.175384 0.865634 0.822331
Si Si3 0.823191 0.861247 0.177269
Si Si4 0.166600 0.002230 0.161462
Si Si5 0.420719 0.755091 0.675528
Si Si6 0.336072 0.865766 0.174706
Si Si7 0.419741 0.250898 0.675022
Si Si8 0.325882 0.132545 0.674199
O O1 0.867026 0.476824 0.500000
O O2 0.750766 0.496761 0.354711
O O3 0.860836 0.562128 0.282736
O O4 0.855807 0.436592 0.224019
O O5 0.255783 0.852007 0.769928
O O6 0.124808 0.810369 0.758244
O O7 0.147382 0.934873 0.757818
O O8 0.174595 0.869671 0.000000
O O9 0.854218 0.929970 0.238344
O O10 0.876381 0.806261 0.229534
O O11 0.746779 0.847526 0.246684
O O12 0.814747 0.864245 0.000000
O O13 0.130287 0.001458 0.000000
O O14 0.419560 0.761201 0.500000
O O15 0.388820 0.819079 0.742048
O O16 0.500455 0.746871 0.736628
O O17 0.341730 0.854588 0.000000
O O18 0.419752 0.257997 0.500000
O O19 0.384015 0.184500 0.722528
O O20 0.312497 0.131984 0.500000
#
# Coordination Sequence:
#
# PCOD8235431 Si02
#       8
#     8   8   8   8   8   8   8   8
#     4   8  15  29  48  70  95 117 143 187 239 283
#     4   8  13  25  47  69  89 115 149 189 228 267
#     4   9  17  30  47  68  95 123 152 189 233 276
#     4   7  11  22  42  66  88 111 141 180 224 265
#     4  10  20  32  45  64  95 129 155 187 231 275
#     4   9  17  31  52  73  91 117 154 195 234 274
#     4   9  18  30  42  63  95 125 153 188 231 273
#     4  10  18  29  49  72  92 118 155 196 232 273
#
# _framework density 17.957433999999999
#
# number of rings (size 3 to 8) (size 9 to 14) (size 15 to 20)
#    0.000    3.250    0.000    3.375    0.000    2.000 
#    0.000    2.500    0.000    8.250    0.000    0.000 
#    0.000   10.000    0.000    0.000    0.000    0.000 
#
# Total GULP energy -792908.255987 kJ/mol
# GULP energy per Si atom -12389.191500 kJ/mol
# Density = 1.791656 g / cm^3
# Si number density = 17.957434 Si / 1000 Ang^3
#
#
#
# Elastic Constant Matrix: (Units=GPa)
#
#
# Indices 1 2 3 4 5 6 
#
# 1 90.2400 65.5905 18.7474 0.0000 0.0000 0.0000
# 2 65.5905 165.6704 28.0597 0.0000 0.0000 0.0000
# 3 18.7474 28.0597 24.9050 0.0000 0.0000 0.0000
# 4 0.0000 0.0000 0.0000 23.5917 0.0000 0.0000
# 5 0.0000 0.0000 0.0000 0.0000 16.6406 0.0000
# 6 0.0000 0.0000 0.0000 0.0000 0.0000 5.8895
#
#
#
# Elastic Compliance Matrix: (Units=1/GPa)
#
#
# Indices 1 2 3 4 5 6 
#
# 1 0.016293 -0.005405 -0.006175 0.000000 0.000000 0.000000
# 2 -0.005405 0.009252 -0.006356 0.000000 0.000000 0.000000
# 3 -0.006175 -0.006356 0.051962 0.000000 0.000000 0.000000
# 4 0.000000 0.000000 0.000000 0.042388 0.000000 0.000000
# 5 0.000000 0.000000 0.000000 0.000000 0.060094 0.000000
# 6 0.000000 0.000000 0.000000 0.000000 0.000000 0.169795
#
#
# Mechanical properties :
#
#
# Convention : Reuss Voigt Hill
#
# Bulk Modulus (GPa) = 24.01795 56.17896 40.09846
# Shear Modulus (GPa) = 12.51458 20.45220 16.48339
#
# Velocity S-wave (km/s) = 2.64275 3.37846 3.03300
# Velocity P-wave (km/s) = 4.76615 6.82430 5.88588
#
# Compressibility (1/GPa) = 0.04163553
#
# Stress axis : x y z
#
# Youngs Moduli (GPa) = 61.37705 108.08102 19.24476
#
# Poissons Ratio (x) = 0.58413 0.11884
# Poissons Ratio (y) = 0.33171 0.12232
# Poissons Ratio (z) = 0.37902 0.68697
#
# Static dielectric constant tensor:
#      x y z
#    x 3.132290 0.000000 0.000000 
#    y 0.000000 3.934050 0.000000 
#    z 0.000000 0.000000 2.897920 
# 
# 
# High freq. dielectric constant tensor:
#      x y z
#    x 1.661010 0.000000 0.000000 
#    y 0.000000 1.723070 0.000000 
#    z 0.000000 0.000000 1.647490 
# 
# From -- ./inp_files/9443.got.cif
#   From: 2010.06.25/outbox.cif.g09.slc.cpg/sg58_5_cif.got.tgz:9443.got - 2010.06.26 21:38:00.
