data_PCOD8235516
_publ_section_title
;
Structure prediction by ZEFSAII (Michael W. Deem and Ramdas Pophale) SiO2 
 PCOD8235516
Probable space group: P N N M
;
_chemical_formula_sum "Si O2"
_cell_formula_units_Z 64
_cell_length_a 16.707338
_cell_length_b 21.380514
_cell_length_c 8.827643
_cell_angle_alpha 90.000000
_cell_angle_beta 90.000000
_cell_angle_gamma 90.000000
_cell_volume 3153.335368
_symmetry_space_group_name_H-M "P N N M"
_symmetry_group_IT_number 58
_symmetry_cell_setting 'orthorhombic'
loop_
_space_group_symop_operation_xyz
x,y,z
-x,-y,z
1/2+x,1/2-y,1/2-z
1/2-x,1/2+y,1/2-z
-x,-y,-z
x,y,-z
1/2-x,1/2+y,1/2+z
1/2+x,1/2-y,1/2+z
loop_
_atom_site_type_symbol
_atom_site_label
_atom_site_fract_x
_atom_site_fract_y
_atom_site_fract_z
Si Si1 0.140307 0.102424 0.177835
Si Si2 0.619640 0.937179 0.828110
Si Si3 0.220114 0.665720 0.822930
Si Si4 0.328996 0.472232 0.824845
Si Si5 0.528226 0.619319 0.174780
Si Si6 0.677362 0.074104 0.176633
Si Si7 0.027613 0.357323 0.325233
Si Si8 0.590194 0.753500 0.179143
O O1 0.190739 0.158757 0.253746
O O2 0.048387 0.109011 0.222497
O O3 0.174988 0.035372 0.228514
O O4 0.149449 0.107488 0.000000
O O5 0.673883 0.898341 0.712454
O O6 0.527329 0.918700 0.801948
O O7 0.630241 0.009714 0.796357
O O8 0.645676 0.919388 0.000000
O O9 0.174014 0.725252 0.752458
O O10 0.227902 0.676734 0.000000
O O11 0.413551 0.438896 0.797847
O O12 0.259134 0.424977 0.771610
O O13 0.317261 0.489256 0.000000
O O14 0.573521 0.682362 0.224722
O O15 0.501257 0.623265 0.000000
O O16 0.616452 0.127725 0.240946
O O17 0.697682 0.083953 0.000000
O O18 0.041726 0.343585 0.500000
O O19 0.982933 0.296525 0.255136
O O20 0.598088 0.762986 0.000000
#
# Coordination Sequence:
#
# PCOD8235516 Si02
#       8
#     8   8   8   8   8   8   8   8
#     4  12  24  40  64  91 117 151 199 249 299 356
#     4   9  16  29  51  79 114 153 193 236 291 350
#     4  11  21  35  59  89 121 155 196 243 292 347
#     4  11  23  39  59  86 121 156 191 243 305 358
#     4  10  23  43  64  86 118 158 197 244 305 359
#     4  10  18  30  52  82 117 151 190 239 291 351
#     4   8  15  29  53  83 111 149 195 236 279 339
#     4   9  19  40  64  84 117 159 200 238 290 354
#
# _framework density 20.295970000000001
#
# number of rings (size 3 to 8) (size 9 to 14) (size 15 to 20)
#    0.000    2.000    1.250    4.125    0.000    4.500 
#    2.250    2.500    0.000    3.750    0.000    0.000 
#    0.000    0.000    0.000    0.000    0.000    0.000 
#
# Total GULP energy -793484.087309 kJ/mol
# GULP energy per Si atom -12398.188864 kJ/mol
# Density = 2.024978 g / cm^3
# Si number density = 20.295970 Si / 1000 Ang^3
#
#
#
# Elastic Constant Matrix: (Units=GPa)
#
#
# Indices 1 2 3 4 5 6 
#
# 1 99.9435 16.0198 40.9244 0.0000 0.0000 0.0000
# 2 16.0198 51.7654 22.4360 0.0000 0.0000 0.0000
# 3 40.9244 22.4360 87.3448 0.0000 0.0000 0.0000
# 4 0.0000 0.0000 0.0000 15.0169 0.0000 0.0000
# 5 0.0000 0.0000 0.0000 0.0000 31.1407 0.0000
# 6 0.0000 0.0000 0.0000 0.0000 0.0000 18.6557
#
#
#
# Elastic Compliance Matrix: (Units=1/GPa)
#
#
# Indices 1 2 3 4 5 6 
#
# 1 0.012483 -0.001495 -0.005465 0.000000 0.000000 0.000000
# 2 -0.001495 0.021917 -0.004929 0.000000 0.000000 0.000000
# 3 -0.005465 -0.004929 0.015276 0.000000 0.000000 0.000000
# 4 0.000000 0.000000 0.000000 0.066591 0.000000 0.000000
# 5 0.000000 0.000000 0.000000 0.000000 0.032112 0.000000
# 6 0.000000 0.000000 0.000000 0.000000 0.000000 0.053603
#
#
# Mechanical properties :
#
#
# Convention : Reuss Voigt Hill
#
# Bulk Modulus (GPa) = 38.61339 44.20155 41.40747
# Shear Modulus (GPa) = 21.33175 23.60758 22.46966
#
# Velocity S-wave (km/s) = 3.24548 3.41422 3.33092
# Velocity P-wave (km/s) = 5.75419 6.11296 5.93629
#
# Compressibility (1/GPa) = 0.02589775
#
# Stress axis : x y z
#
# Youngs Moduli (GPa) = 80.10941 45.62681 65.46391
#
# Poissons Ratio (x) = 0.06819 0.35775
# Poissons Ratio (y) = 0.11973 0.32270
# Poissons Ratio (z) = 0.43779 0.22492
#
# Static dielectric constant tensor:
#      x y z
#    x 3.840800 0.000000 0.000000 
#    y 0.000000 3.617950 0.000000 
#    z 0.000000 0.000000 3.432820 
# 
# 
# High freq. dielectric constant tensor:
#      x y z
#    x 1.803110 0.000000 0.000000 
#    y 0.000000 1.778730 0.000000 
#    z 0.000000 0.000000 1.768030 
# 
# From -- ./inp_files/6973.got.cif
#   From: 2010.06.25/outbox.cif.g09.slc.cpg/sg58_4_cif.got.tgz:6973.got - 2010.06.26 21:38:00.
