data_PCOD8235771
_publ_section_title
;
Structure prediction by ZEFSAII (Michael W. Deem and Ramdas Pophale) SiO2 
 PCOD8235771
Probable space group: P N N M
;
_chemical_formula_sum "Si O2"
_cell_formula_units_Z 56
_cell_length_a 21.421253
_cell_length_b 14.926629
_cell_length_c 8.969237
_cell_angle_alpha 90.000000
_cell_angle_beta 90.000000
_cell_angle_gamma 90.000000
_cell_volume 2867.887486
_symmetry_space_group_name_H-M "P N N M"
_symmetry_group_IT_number 58
_symmetry_cell_setting 'orthorhombic'
loop_
_space_group_symop_operation_xyz
x,y,z
-x,-y,z
1/2+x,1/2-y,1/2-z
1/2-x,1/2+y,1/2-z
-x,-y,-z
x,y,-z
1/2-x,1/2+y,1/2+z
1/2+x,1/2-y,1/2+z
loop_
_atom_site_type_symbol
_atom_site_label
_atom_site_fract_x
_atom_site_fract_y
_atom_site_fract_z
Si Si1 0.978225 0.641554 0.176226
Si Si2 0.593196 0.968094 0.676678
Si Si3 0.733018 0.223069 0.172910
Si Si4 0.428768 0.514517 0.824249
Si Si5 0.400329 0.716411 0.823541
Si Si6 0.686873 0.556611 0.322776
Si Si7 0.272439 0.081337 0.325648
O O1 0.931049 0.564007 0.231835
O O2 0.960098 0.733126 0.256724
O O3 0.047456 0.612253 0.228577
O O4 0.974418 0.655343 0.000000
O O5 0.593938 0.966461 0.500000
O O6 0.662092 0.953544 0.740023
O O7 0.663574 0.238838 0.241423
O O8 0.772576 0.312602 0.200433
O O9 0.771747 0.139754 0.242579
O O10 0.724448 0.202971 0.000000
O O11 0.500000 0.500000 0.770871
O O12 0.405843 0.613196 0.775923
O O13 0.383451 0.442343 0.743404
O O14 0.423114 0.499248 0.000000
O O15 0.401864 0.723732 0.000000
O O16 0.682404 0.560839 0.500000
O O17 0.718296 0.464659 0.268887
O O18 0.262211 0.058611 0.500000
#
# Coordination Sequence:
#
# PCOD8235771 Si02
#       7
#     8   8   8   8   8   8   8
#     4   9  17  31  50  78 109 138 177 226 270 320
#     4   8  16  30  51  77 107 141 181 223 266 321
#     4   9  19  34  54  78 107 144 184 224 280 341
#     4  10  22  41  62  80 106 151 197 229 271 342
#     4  10  19  35  55  77 106 144 185 226 275 334
#     4  11  22  36  56  86 117 142 181 241 292 328
#     4  10  18  35  58  76 103 150 188 215 267 340
#
# _framework density 19.526568999999999
#
# number of rings (size 3 to 8) (size 9 to 14) (size 15 to 20)
#    0.000    2.429    1.429    2.143    0.000    2.000 
#    0.000    5.714    0.000    0.000    0.000    0.000 
#    0.000    0.000    0.000    0.000    0.000    0.000 
#
# Total GULP energy -694208.208149 kJ/mol
# GULP energy per Si atom -12396.575146 kJ/mol
# Density = 1.948213 g / cm^3
# Si number density = 19.526569 Si / 1000 Ang^3
#
#
#
# Elastic Constant Matrix: (Units=GPa)
#
#
# Indices 1 2 3 4 5 6 
#
# 1 136.1480 42.9579 30.3727 0.0000 0.0000 0.0000
# 2 42.9579 86.9903 25.9268 0.0000 0.0000 0.0000
# 3 30.3727 25.9268 26.3670 0.0000 0.0000 0.0000
# 4 0.0000 0.0000 0.0000 18.3363 0.0000 0.0000
# 5 0.0000 0.0000 0.0000 0.0000 22.3443 0.0000
# 6 0.0000 0.0000 0.0000 0.0000 0.0000 35.4878
#
#
#
# Elastic Compliance Matrix: (Units=1/GPa)
#
#
# Indices 1 2 3 4 5 6 
#
# 1 0.010165 -0.002164 -0.009582 0.000000 0.000000 0.000000
# 2 -0.002164 0.016722 -0.013950 0.000000 0.000000 0.000000
# 3 -0.009582 -0.013950 0.062680 0.000000 0.000000 0.000000
# 4 0.000000 0.000000 0.000000 0.054537 0.000000 0.000000
# 5 0.000000 0.000000 0.000000 0.000000 0.044754 0.000000
# 6 0.000000 0.000000 0.000000 0.000000 0.000000 0.028179
#
#
# Mechanical properties :
#
#
# Convention : Reuss Voigt Hill
#
# Bulk Modulus (GPa) = 26.19420 49.78002 37.98711
# Shear Modulus (GPa) = 17.78390 25.25023 21.51706
#
# Velocity S-wave (km/s) = 3.02114 3.59990 3.32315
# Velocity P-wave (km/s) = 5.06098 6.54430 5.84985
#
# Compressibility (1/GPa) = 0.03817639
#
# Stress axis : x y z
#
# Youngs Moduli (GPa) = 98.37377 59.80201 15.95399
#
# Poissons Ratio (x) = 0.12942 0.15287
# Poissons Ratio (y) = 0.21289 0.22255
# Poissons Ratio (z) = 0.94258 0.83422
#
# Static dielectric constant tensor:
#      x y z
#    x 4.033600 0.000000 0.000000 
#    y 0.000000 3.609190 0.000000 
#    z 0.000000 0.000000 3.117300 
# 
# 
# High freq. dielectric constant tensor:
#      x y z
#    x 1.774270 0.000000 0.000000 
#    y 0.000000 1.759880 0.000000 
#    z 0.000000 0.000000 1.717690 
# 
# From -- ./inp_files/9036.got.cif
#   From: 2010.06.25/outbox.cif.g09.slc.cpg/sg58_5_cif.got.tgz:9036.got - 2010.06.26 21:38:00.
