data_PCOD8235749
_publ_section_title
;
Structure prediction by ZEFSAII (Michael W. Deem and Ramdas Pophale) SiO2 
 PCOD8235749
Probable space group: P N N M
;
_chemical_formula_sum "Si O2"
_cell_formula_units_Z 64
_cell_length_a 21.463734
_cell_length_b 17.385126
_cell_length_c 9.244311
_cell_angle_alpha 90.000000
_cell_angle_beta 90.000000
_cell_angle_gamma 90.000000
_cell_volume 3449.512061
_symmetry_space_group_name_H-M "P N N M"
_symmetry_group_IT_number 58
_symmetry_cell_setting 'orthorhombic'
loop_
_space_group_symop_operation_xyz
x,y,z
-x,-y,z
1/2+x,1/2-y,1/2-z
1/2-x,1/2+y,1/2-z
-x,-y,-z
x,y,-z
1/2-x,1/2+y,1/2+z
1/2+x,1/2-y,1/2+z
loop_
_atom_site_type_symbol
_atom_site_label
_atom_site_fract_x
_atom_site_fract_y
_atom_site_fract_z
Si Si1 0.933175 0.038139 0.336284
Si Si2 0.707279 0.964943 0.169017
Si Si3 0.896662 0.781224 0.666328
Si Si4 0.961549 0.205551 0.329388
Si Si5 0.987550 0.585743 0.154770
Si Si6 0.369009 0.889014 0.164369
Si Si7 0.156009 0.074041 0.172678
Si Si8 0.599498 0.856034 0.829585
O O1 0.905769 0.039719 0.500000
O O2 0.940957 0.123142 0.267351
O O3 0.888847 0.992094 0.229907
O O4 0.000000 0.000000 0.339067
O O5 0.689373 0.054507 0.200235
O O6 0.775240 0.946996 0.232309
O O7 0.658125 0.902724 0.237804
O O8 0.709206 0.949315 0.000000
O O9 0.897100 0.810228 0.500000
O O10 0.856270 0.702474 0.680091
O O11 0.862885 0.843441 0.765238
O O12 0.968442 0.769264 0.722365
O O13 0.965536 0.198662 0.500000
O O14 0.906912 0.265963 0.283927
O O15 0.919263 0.590101 0.218303
O O16 0.000000 0.500000 0.112202
O O17 0.035155 0.609758 0.276935
O O18 0.992284 0.631901 0.000000
O O19 0.391814 0.906099 0.000000
O O20 0.152336 0.076729 0.000000
O O21 0.600888 0.865601 0.000000
#
# Coordination Sequence:
#
# PCOD8235749 Si02
#       8
#     8   8   8   8   8   8   8   8
#     4  10  19  36  60  82 107 140 182 232 278 326
#     4   9  20  37  57  79 108 149 195 233 264 323
#     4  10  19  35  59  86 108 136 181 232 281 333
#     4   9  17  31  56  88 110 128 177 239 276 316
#     4  11  21  30  46  80 120 146 172 225 285 328
#     4  10  19  35  60  81 102 145 198 232 264 328
#     4  11  23  39  56  80 115 150 186 230 286 338
#     4  10  18  34  59  80 104 148 194 227 268 329
#
# _framework density 18.553349000000001
#
# number of rings (size 3 to 8) (size 9 to 14) (size 15 to 20)
#    0.000    2.000    3.750    0.750    0.000    1.250 
#    2.250    3.125    0.000    0.000    0.000    0.000 
#    0.000    0.000    0.000    0.000    0.000    0.000 
#
# Total GULP energy -792917.231008 kJ/mol
# GULP energy per Si atom -12389.331735 kJ/mol
# Density = 1.851112 g / cm^3
# Si number density = 18.553349 Si / 1000 Ang^3
#
#
#
# Elastic Constant Matrix: (Units=GPa)
#
#
# Indices 1 2 3 4 5 6 
#
# 1 105.7454 58.3139 32.1822 0.0000 0.0000 0.0000
# 2 58.3139 147.1388 36.0553 0.0000 0.0000 0.0000
# 3 32.1822 36.0553 39.1320 0.0000 0.0000 0.0000
# 4 0.0000 0.0000 0.0000 21.1534 0.0000 0.0000
# 5 0.0000 0.0000 0.0000 0.0000 -3.1482 0.0000
# 6 0.0000 0.0000 0.0000 0.0000 0.0000 20.8173
#
#
#
# Elastic Compliance Matrix: (Units=1/GPa)
#
#
# Indices 1 2 3 4 5 6 
#
# 1 0.013876 -0.003491 -0.008195 0.000000 0.000000 0.000000
# 2 -0.003491 0.009657 -0.006026 0.000000 0.000000 0.000000
# 3 -0.008195 -0.006026 0.037846 0.000000 0.000000 0.000000
# 4 0.000000 0.000000 0.000000 0.047274 0.000000 0.000000
# 5 0.000000 0.000000 0.000000 0.000000 -0.317642 0.000000
# 6 0.000000 0.000000 0.000000 0.000000 0.000000 0.048037
#
#
# Mechanical properties :
#
#
# Convention : Reuss Voigt Hill
#
# Bulk Modulus (GPa) = 38.52909 60.56877 49.54893
# Shear Modulus (GPa) = -42.78043 18.79548 -11.99247
#
# Velocity S-wave (km/s) = -4.80709 3.18630 -2.54515
# Velocity P-wave (km/s) = 3.16214 6.80098 4.25759
#
# Compressibility (1/GPa) = 0.02595442
#
# Stress axis : x y z
#
# Youngs Moduli (GPa) = 72.06724 103.55608 26.42254
#
# Poissons Ratio (x) = 0.36153 0.21653
# Poissons Ratio (y) = 0.25160 0.15923
# Poissons Ratio (z) = 0.59058 0.62405
#
# Static dielectric constant tensor:
#      x y z
#    x 3.432180 0.000000 0.000000 
#    y 0.000000 3.825620 0.000000 
#    z 0.000000 0.000000 3.224890 
# 
# 
# High freq. dielectric constant tensor:
#      x y z
#    x 1.697800 0.000000 0.000000 
#    y 0.000000 1.734740 0.000000 
#    z 0.000000 0.000000 1.697260 
# 
# From -- ./inp_files/9302.got.cif
#   From: 2010.06.25/outbox.cif.g09.slc.cpg/sg58_5_cif.got.tgz:9302.got - 2010.06.26 21:38:00.
