data_PCOD8235660
_publ_section_title
;
Structure prediction by ZEFSAII (Michael W. Deem and Ramdas Pophale) SiO2 
 PCOD8235660
Probable space group: P N N M
;
_chemical_formula_sum "Si O2"
_cell_formula_units_Z 64
_cell_length_a 19.428472
_cell_length_b 19.117967
_cell_length_c 9.028866
_cell_angle_alpha 90.000000
_cell_angle_beta 90.000000
_cell_angle_gamma 90.000000
_cell_volume 3353.617761
_symmetry_space_group_name_H-M "P N N M"
_symmetry_group_IT_number 58
_symmetry_cell_setting 'orthorhombic'
loop_
_space_group_symop_operation_xyz
x,y,z
-x,-y,z
1/2+x,1/2-y,1/2-z
1/2-x,1/2+y,1/2-z
-x,-y,-z
x,y,-z
1/2-x,1/2+y,1/2+z
1/2+x,1/2-y,1/2+z
loop_
_atom_site_type_symbol
_atom_site_label
_atom_site_fract_x
_atom_site_fract_y
_atom_site_fract_z
Si Si1 0.291580 0.713758 0.175467
Si Si2 0.899592 0.902522 0.324474
Si Si3 0.879122 0.655483 0.673667
Si Si4 0.342978 0.451805 0.824133
Si Si5 0.705029 0.023495 0.826729
Si Si6 0.957416 0.152165 0.323588
Si Si7 0.971189 0.307793 0.324100
Si Si8 0.671908 0.867201 0.824270
O O1 0.346705 0.656417 0.227566
O O2 0.322005 0.788477 0.232508
O O3 0.219572 0.693038 0.252637
O O4 0.279362 0.713319 0.000000
O O5 0.903078 0.905126 0.500000
O O6 0.974832 0.885882 0.259602
O O7 0.875484 0.976734 0.261095
O O8 0.884140 0.669622 0.500000
O O9 0.858318 0.575544 0.708968
O O10 0.955525 0.666447 0.743008
O O11 0.268454 0.441439 0.756136
O O12 0.389897 0.388069 0.767248
O O13 0.336921 0.453681 0.000000
O O14 0.690896 0.945148 0.767372
O O15 0.720606 0.021588 0.000000
O O16 0.960020 0.151322 0.500000
O O17 0.955358 0.230620 0.262267
O O18 0.976545 0.306823 0.500000
O O19 0.907416 0.356279 0.274398
O O20 0.679531 0.860795 0.000000
#
# Coordination Sequence:
#
# PCOD8235660 Si02
#       8
#     8   8   8   8   8   8   8   8
#     4  10  18  32  55  77  98 130 169 205 246 298
#     4   9  15  27  48  74  99 125 161 204 246 290
#     4   9  18  33  53  74  99 133 172 210 246 291
#     4  10  19  30  49  77 103 130 165 205 249 297
#     4  10  21  35  49  72 105 137 167 202 248 300
#     4   9  16  27  46  75 104 124 158 214 256 286
#     4   9  17  31  50  74  99 127 168 214 252 284
#     4  10  21  34  51  76 105 133 163 206 255 297
#
# _framework density 19.083867999999999
#
# number of rings (size 3 to 8) (size 9 to 14) (size 15 to 20)
#    0.000    2.500    2.500    0.375    1.750    2.000 
#    0.000    2.500    0.000    3.750    0.000    1.750 
#    0.000    0.000    0.000    0.000    0.000    0.000 
#
# Total GULP energy -793330.428710 kJ/mol
# GULP energy per Si atom -12395.787949 kJ/mol
# Density = 1.904043 g / cm^3
# Si number density = 19.083868 Si / 1000 Ang^3
#
#
#
# Elastic Constant Matrix: (Units=GPa)
#
#
# Indices 1 2 3 4 5 6 
#
# 1 148.8298 59.3353 21.1107 0.0000 0.0000 0.0000
# 2 59.3353 89.8295 13.4241 0.0000 0.0000 0.0000
# 3 21.1107 13.4241 13.6815 0.0000 0.0000 0.0000
# 4 0.0000 0.0000 0.0000 14.5759 0.0000 0.0000
# 5 0.0000 0.0000 0.0000 0.0000 21.5153 0.0000
# 6 0.0000 0.0000 0.0000 0.0000 0.0000 34.8098
#
#
#
# Elastic Compliance Matrix: (Units=1/GPa)
#
#
# Indices 1 2 3 4 5 6 
#
# 1 0.010331 -0.005205 -0.010834 0.000000 0.000000 0.000000
# 2 -0.005205 0.015667 -0.007341 0.000000 0.000000 0.000000
# 3 -0.010834 -0.007341 0.097011 0.000000 0.000000 0.000000
# 4 0.000000 0.000000 0.000000 0.068606 0.000000 0.000000
# 5 0.000000 0.000000 0.000000 0.000000 0.046479 0.000000
# 6 0.000000 0.000000 0.000000 0.000000 0.000000 0.028728
#
#
# Mechanical properties :
#
#
# Convention : Reuss Voigt Hill
#
# Bulk Modulus (GPa) = 13.11483 48.89788 31.00635
# Shear Modulus (GPa) = 14.74934 24.74491 19.74712
#
# Velocity S-wave (km/s) = 2.78307 3.60480 3.22025
# Velocity P-wave (km/s) = 4.14903 6.55777 5.48720
#
# Compressibility (1/GPa) = 0.07624957
#
# Stress axis : x y z
#
# Youngs Moduli (GPa) = 96.79744 63.82722 10.30808
#
# Poissons Ratio (x) = 0.33221 0.11167
# Poissons Ratio (y) = 0.50382 0.07568
# Poissons Ratio (z) = 1.04867 0.46858
#
# Static dielectric constant tensor:
#      x y z
#    x 3.695840 0.000000 0.000000 
#    y 0.000000 3.686610 0.000000 
#    z 0.000000 0.000000 2.866200 
# 
# 
# High freq. dielectric constant tensor:
#      x y z
#    x 1.754660 0.000000 0.000000 
#    y 0.000000 1.752690 0.000000 
#    z 0.000000 0.000000 1.672630 
# 
# From -- ./inp_files/8371.got.cif
#   From: 2010.06.25/outbox.cif.g09.slc.cpg/sg58_5_cif.got.tgz:8371.got - 2010.06.26 21:38:00.
