data_PCOD8235557
_publ_section_title
;
Structure prediction by ZEFSAII (Michael W. Deem and Ramdas Pophale) SiO2 
 PCOD8235557
Probable space group: P N N M
;
_chemical_formula_sum "Si O2"
_cell_formula_units_Z 64
_cell_length_a 14.526587
_cell_length_b 25.398892
_cell_length_c 9.435331
_cell_angle_alpha 90.000000
_cell_angle_beta 90.000000
_cell_angle_gamma 90.000000
_cell_volume 3481.252313
_symmetry_space_group_name_H-M "P N N M"
_symmetry_group_IT_number 58
_symmetry_cell_setting 'orthorhombic'
loop_
_space_group_symop_operation_xyz
x,y,z
-x,-y,z
1/2+x,1/2-y,1/2-z
1/2-x,1/2+y,1/2-z
-x,-y,-z
x,y,-z
1/2-x,1/2+y,1/2+z
1/2+x,1/2-y,1/2+z
loop_
_atom_site_type_symbol
_atom_site_label
_atom_site_fract_x
_atom_site_fract_y
_atom_site_fract_z
Si Si1 0.644218 0.229424 0.331860
Si Si2 0.953128 0.947558 0.668905
Si Si3 0.750556 0.425727 0.831587
Si Si4 0.698189 0.115091 0.665711
Si Si5 0.942406 0.237837 0.839935
Si Si6 0.227686 0.692764 0.838404
Si Si7 0.097897 0.862931 0.665480
Si Si8 0.396668 0.989658 0.330620
O O1 0.659999 0.231696 0.500000
O O2 0.665018 0.171018 0.271005
O O3 0.541461 0.243927 0.285951
O O4 0.710175 0.271333 0.260002
O O5 0.953820 0.949359 0.500000
O O6 0.849458 0.943018 0.727643
O O7 0.013126 0.897897 0.721572
O O8 0.000000 0.000000 0.731095
O O9 0.770650 0.366648 0.779720
O O10 0.829344 0.464529 0.771873
O O11 0.750216 0.428578 0.000000
O O12 0.678691 0.116122 0.500000
O O13 0.806549 0.106708 0.697300
O O14 0.640507 0.066228 0.730359
O O15 0.877444 0.288647 0.830731
O O16 0.901058 0.192536 0.742965
O O17 0.947777 0.216217 0.000000
O O18 0.265126 0.695332 0.000000
O O19 0.088682 0.850860 0.500000
O O20 0.395248 0.989477 0.500000
O O21 0.500000 0.000000 0.274076
#
# Coordination Sequence:
#
# PCOD8235557 Si02
#       8
#     8   8   8   8   8   8   8   8
#     4  10  20  34  51  73 103 137 169 208 254 301
#     4   9  16  26  44  70  97 121 151 199 252 291
#     4   9  17  28  42  65  97 128 159 199 246 295
#     4   9  17  29  46  69  97 129 167 205 245 297
#     4  10  21  33  48  71 102 135 166 206 255 299
#     4  10  20  34  51  74 104 134 167 207 252 300
#     4  10  18  31  52  74  98 130 167 206 247 301
#     4   9  17  27  43  68  99 133 165 201 249 303
#
# _framework density 18.384188999999999
#
# number of rings (size 3 to 8) (size 9 to 14) (size 15 to 20)
#    0.000    2.500    1.250    1.500    1.750    4.500 
#    0.000    0.000    0.000    0.375    0.000    3.500 
#    0.000    2.500    0.000    0.000    0.000    0.000 
#
# Total GULP energy -793515.976282 kJ/mol
# GULP energy per Si atom -12398.687129 kJ/mol
# Density = 1.834235 g / cm^3
# Si number density = 18.384189 Si / 1000 Ang^3
#
#
#
# Elastic Constant Matrix: (Units=GPa)
#
#
# Indices 1 2 3 4 5 6 
#
# 1 137.0710 68.4213 17.7090 0.0000 0.0000 0.0000
# 2 68.4213 155.8906 19.5449 0.0000 0.0000 0.0000
# 3 17.7090 19.5449 17.0622 0.0000 0.0000 0.0000
# 4 0.0000 0.0000 0.0000 17.5498 0.0000 0.0000
# 5 0.0000 0.0000 0.0000 0.0000 13.3989 0.0000
# 6 0.0000 0.0000 0.0000 0.0000 0.0000 39.1564
#
#
#
# Elastic Compliance Matrix: (Units=1/GPa)
#
#
# Indices 1 2 3 4 5 6 
#
# 1 0.009868 -0.003558 -0.006166 0.000000 0.000000 0.000000
# 2 -0.003558 0.008773 -0.006357 0.000000 0.000000 0.000000
# 3 -0.006166 -0.006357 0.072292 0.000000 0.000000 0.000000
# 4 0.000000 0.000000 0.000000 0.056981 0.000000 0.000000
# 5 0.000000 0.000000 0.000000 0.000000 0.074633 0.000000
# 6 0.000000 0.000000 0.000000 0.000000 0.000000 0.025539
#
#
# Mechanical properties :
#
#
# Convention : Reuss Voigt Hill
#
# Bulk Modulus (GPa) = 17.01551 57.93046 37.47299
# Shear Modulus (GPa) = 16.67562 27.64426 22.15994
#
# Velocity S-wave (km/s) = 3.01502 3.88196 3.47563
# Velocity P-wave (km/s) = 4.62559 7.18834 6.04435
#
# Compressibility (1/GPa) = 0.05876990
#
# Stress axis : x y z
#
# Youngs Moduli (GPa) = 101.33500 113.98019 13.83286
#
# Poissons Ratio (x) = 0.40555 0.08530
# Poissons Ratio (y) = 0.36056 0.08794
# Poissons Ratio (z) = 0.62488 0.72458
#
# Static dielectric constant tensor:
#      x y z
#    x 3.627190 0.000000 0.000000 
#    y 0.000000 3.613370 0.000000 
#    z 0.000000 0.000000 2.799690 
# 
# 
# High freq. dielectric constant tensor:
#      x y z
#    x 1.730890 0.000000 0.000000 
#    y 0.000000 1.726040 0.000000 
#    z 0.000000 0.000000 1.642020 
# 
# From -- ./inp_files/6809.got.cif
#   From: 2010.06.25/outbox.cif.g09.slc.cpg/sg58_4_cif.got.tgz:6809.got - 2010.06.26 21:38:00.
