data_PCOD8235743
_publ_section_title
;
Structure prediction by ZEFSAII (Michael W. Deem and Ramdas Pophale) SiO2 
 PCOD8235743
Probable space group: P N N M
;
_chemical_formula_sum "Si O2"
_cell_formula_units_Z 56
_cell_length_a 22.506536
_cell_length_b 11.250648
_cell_length_c 12.723164
_cell_angle_alpha 90.000000
_cell_angle_beta 90.000000
_cell_angle_gamma 90.000000
_cell_volume 3221.671979
_symmetry_space_group_name_H-M "P N N M"
_symmetry_group_IT_number 58
_symmetry_cell_setting 'orthorhombic'
loop_
_space_group_symop_operation_xyz
x,y,z
-x,-y,z
1/2+x,1/2-y,1/2-z
1/2-x,1/2+y,1/2-z
-x,-y,-z
x,y,-z
1/2-x,1/2+y,1/2+z
1/2+x,1/2-y,1/2+z
loop_
_atom_site_type_symbol
_atom_site_label
_atom_site_fract_x
_atom_site_fract_y
_atom_site_fract_z
Si Si1 0.422254 0.239135 0.621511
Si Si2 0.665210 0.371109 0.618782
Si Si3 0.761444 0.649301 0.877931
Si Si4 0.852589 0.075464 0.261654
Si Si5 0.943973 0.917319 0.621557
Si Si6 0.622574 0.021331 0.622268
Si Si7 0.444786 0.757191 0.694349
O O1 0.407870 0.271004 0.500000
O O2 0.395608 0.335548 0.700282
O O3 0.394338 0.112254 0.652015
O O4 0.492438 0.235818 0.637019
O O5 0.681573 0.396114 0.500000
O O6 0.705841 0.266548 0.665097
O O7 0.680028 0.491107 0.678907
O O8 0.595977 0.334765 0.629153
O O9 0.699304 0.644993 0.819296
O O10 0.806808 0.539413 0.856833
O O11 0.746827 0.659296 0.000000
O O12 0.886978 0.994331 0.345619
O O13 0.938498 0.880789 0.500000
O O14 0.949856 0.794419 0.686973
O O15 0.000000 0.000000 0.643915
O O16 0.608198 0.050481 0.500000
O O17 0.583866 0.111098 0.694111
#
# Coordination Sequence:
#
# PCOD8235743 Si02
#       7
#     8   8   8   8   8   8   8
#     4  11  21  32  52  85 115 136 170 214 265 322
#     4   9  19  34  53  77 107 136 171 216 266 318
#     4   9  19  36  54  72  98 141 185 216 257 313
#     4  11  21  32  54  79 104 141 174 219 266 307
#     4  10  20  36  53  75 104 137 182 226 259 303
#     4   9  19  35  56  80 110 140 173 216 262 320
#     4  10  18  34  57  81 103 144 173 209 270 322
#
# _framework density 17.382277999999999
#
# number of rings (size 3 to 8) (size 9 to 14) (size 15 to 20)
#    0.000    2.143    1.429    3.429    2.000    1.143 
#    0.000    2.143    0.000    6.857    0.000    0.000 
#    0.000    0.000    0.000    0.000    0.000    0.000 
#
# Total GULP energy -694328.856760 kJ/mol
# GULP energy per Si atom -12398.729585 kJ/mol
# Density = 1.734272 g / cm^3
# Si number density = 17.382278 Si / 1000 Ang^3
#
#
#
# Elastic Constant Matrix: (Units=GPa)
#
#
# Indices 1 2 3 4 5 6 
#
# 1 69.6565 2.2893 12.6375 0.0000 0.0000 0.0000
# 2 2.2893 56.5183 23.7402 0.0000 0.0000 0.0000
# 3 12.6375 23.7402 59.9738 0.0000 0.0000 0.0000
# 4 0.0000 0.0000 0.0000 28.3305 0.0000 0.0000
# 5 0.0000 0.0000 0.0000 0.0000 21.2315 0.0000
# 6 0.0000 0.0000 0.0000 0.0000 0.0000 21.3934
#
#
#
# Elastic Compliance Matrix: (Units=1/GPa)
#
#
# Indices 1 2 3 4 5 6 
#
# 1 0.014962 0.000861 -0.003494 0.000000 0.000000 0.000000
# 2 0.000861 0.021272 -0.008602 0.000000 0.000000 0.000000
# 3 -0.003494 -0.008602 0.020815 0.000000 0.000000 0.000000
# 4 0.000000 0.000000 0.000000 0.035298 0.000000 0.000000
# 5 0.000000 0.000000 0.000000 0.000000 0.047100 0.000000
# 6 0.000000 0.000000 0.000000 0.000000 0.000000 0.046743
#
#
# Mechanical properties :
#
#
# Convention : Reuss Voigt Hill
#
# Bulk Modulus (GPa) = 28.91806 29.27583 29.09695
# Shear Modulus (GPa) = 22.70829 24.02319 23.36574
#
# Velocity S-wave (km/s) = 3.61834 3.72163 3.67035
# Velocity P-wave (km/s) = 5.84202 5.94527 5.89387
#
# Compressibility (1/GPa) = 0.03458046
#
# Stress axis : x y z
#
# Youngs Moduli (GPa) = 66.83731 47.01106 48.04212
#
# Poissons Ratio (x) = -0.04050 0.16784
# Poissons Ratio (y) = -0.05758 0.41325
# Poissons Ratio (z) = 0.23351 0.40438
#
# Static dielectric constant tensor:
#      x y z
#    x 3.213440 0.000000 0.000000 
#    y 0.000000 3.258420 0.000000 
#    z 0.000000 0.000000 3.137370 
# 
# 
# High freq. dielectric constant tensor:
#      x y z
#    x 1.674720 0.000000 0.000000 
#    y 0.000000 1.670020 0.000000 
#    z 0.000000 0.000000 1.658780 
# 
# From -- ./inp_files/14576.got.cif
#   From: 2010.06.25/outbox.cif.g09.slc.cpg/sg58_8_cif.got.tgz:14576.got - 2010.06.26 21:38:00.
