data_PCOD8235218
_publ_section_title
;
Structure prediction by ZEFSAII (Michael W. Deem and Ramdas Pophale) SiO2 
 PCOD8235218
Probable space group: P N N M
;
_chemical_formula_sum "Si O2"
_cell_formula_units_Z 64
_cell_length_a 21.439650
_cell_length_b 21.985265
_cell_length_c 8.832445
_cell_angle_alpha 90.000000
_cell_angle_beta 90.000000
_cell_angle_gamma 90.000000
_cell_volume 4163.229361
_symmetry_space_group_name_H-M "P N N M"
_symmetry_group_IT_number 58
_symmetry_cell_setting 'orthorhombic'
loop_
_space_group_symop_operation_xyz
x,y,z
-x,-y,z
1/2+x,1/2-y,1/2-z
1/2-x,1/2+y,1/2-z
-x,-y,-z
x,y,-z
1/2-x,1/2+y,1/2+z
1/2+x,1/2-y,1/2+z
loop_
_atom_site_type_symbol
_atom_site_label
_atom_site_fract_x
_atom_site_fract_y
_atom_site_fract_z
Si Si1 0.237238 0.656578 0.668139
Si Si2 0.664219 0.434936 0.320859
Si Si3 0.343666 0.246130 0.322633
Si Si4 0.648269 0.251587 0.333650
Si Si5 0.426497 0.336360 0.178854
Si Si6 0.430397 0.655006 0.824111
Si Si7 0.672283 0.573621 0.680034
Si Si8 0.246590 0.336381 0.821293
O O1 0.211082 0.644038 0.500000
O O2 0.270938 0.596326 0.736411
O O3 0.178777 0.678883 0.769616
O O4 0.289555 0.708318 0.662378
O O5 0.661320 0.427634 0.500000
O O6 0.603957 0.400311 0.257925
O O7 0.662516 0.504293 0.267945
O O8 0.356050 0.244841 0.500000
O O9 0.406385 0.269160 0.238021
O O10 0.291152 0.294530 0.279861
O O11 0.617023 0.250628 0.500000
O O12 0.598229 0.278752 0.217635
O O13 0.674301 0.183732 0.290453
O O14 0.497908 0.346585 0.224432
O O15 0.386942 0.388756 0.260910
O O16 0.415764 0.340361 0.000000
O O17 0.421415 0.645179 0.000000
O O18 0.677919 0.579453 0.500000
O O19 0.736952 0.596142 0.760060
O O20 0.262262 0.330283 0.000000
#
# Coordination Sequence:
#
# PCOD8235218 Si02
#       8
#     8   8   8   8   8   8   8   8
#     4   8  14  27  43  58  79 106 130 162 209 254
#     4   9  19  32  44  59  83 113 143 172 208 246
#     4  10  17  25  41  63  80 100 133 172 208 245
#     4   8  15  27  43  60  80 105 132 164 210 256
#     4  10  20  32  42  57  83 114 143 173 210 248
#     4  10  20  30  43  61  81 109 146 179 206 239
#     4  10  19  30  44  62  81 109 147 179 202 236
#     4   9  16  27  42  60  81 106 131 163 211 256
#
# _framework density 15.372683
#
# number of rings (size 3 to 8) (size 9 to 14) (size 15 to 20)
#    0.000    2.750    0.000    5.625    0.000    8.500 
#    0.000    2.500    0.000    0.000    0.000    0.000 
#    0.000    1.000    0.000   11.250    0.000    5.875 
#
# Total GULP energy -792951.339274 kJ/mol
# GULP energy per Si atom -12389.864676 kJ/mol
# Density = 1.533769 g / cm^3
# Si number density = 15.372683 Si / 1000 Ang^3
#
#
#
# Elastic Constant Matrix: (Units=GPa)
#
#
# Indices 1 2 3 4 5 6 
#
# 1 60.2272 69.7470 29.5305 0.0000 0.0000 0.0000
# 2 69.7470 84.1048 34.0578 0.0000 0.0000 0.0000
# 3 29.5305 34.0578 52.2097 0.0000 0.0000 0.0000
# 4 0.0000 0.0000 0.0000 14.6559 0.0000 0.0000
# 5 0.0000 0.0000 0.0000 0.0000 20.8382 0.0000
# 6 0.0000 0.0000 0.0000 0.0000 0.0000 17.9892
#
#
#
# Elastic Compliance Matrix: (Units=1/GPa)
#
#
# Indices 1 2 3 4 5 6 
#
# 1 0.426660 -0.348037 -0.014291 0.000000 0.000000 0.000000
# 2 -0.348037 0.300060 0.001117 0.000000 0.000000 0.000000
# 3 -0.014291 0.001117 0.026508 0.000000 0.000000 0.000000
# 4 0.000000 0.000000 0.000000 0.068232 0.000000 0.000000
# 5 0.000000 0.000000 0.000000 0.000000 0.047989 0.000000
# 6 0.000000 0.000000 0.000000 0.000000 0.000000 0.055589
#
#
# Mechanical properties :
#
#
# Convention : Reuss Voigt Hill
#
# Bulk Modulus (GPa) = 32.46039 51.46803 41.96421
# Shear Modulus (GPa) = 3.01618 14.91042 8.96330
#
# Velocity S-wave (km/s) = 1.40225 3.11775 2.41730
# Velocity P-wave (km/s) = 4.87680 6.82007 5.92860
#
# Compressibility (1/GPa) = 0.03080678
#
# Stress axis : x y z
#
# Youngs Moduli (GPa) = 2.34379 3.33267 37.72439
#
# Poissons Ratio (x) = 1.15989 0.53913
# Poissons Ratio (y) = 0.81572 -0.04215
# Poissons Ratio (z) = 0.03350 -0.00372
#
# Static dielectric constant tensor:
#      x y z
#    x 2.955960 0.000000 0.000000 
#    y 0.000000 3.242580 0.000000 
#    z 0.000000 0.000000 2.990530 
# 
# 
# High freq. dielectric constant tensor:
#      x y z
#    x 1.559010 0.000000 0.000000 
#    y 0.000000 1.567520 0.000000 
#    z 0.000000 0.000000 1.598920 
# 
# From -- ./inp_files/10172.got.cif
#   From: 2010.06.25/outbox.cif.g09.slc.cpg/sg58_6_cif.got.tgz:10172.got - 2010.06.26 21:38:00.
