data_PCOD8235365
_publ_section_title
;
Structure prediction by ZEFSAII (Michael W. Deem and Ramdas Pophale) SiO2 
 PCOD8235365
Probable space group: P N N M
;
_chemical_formula_sum "Si O2"
_cell_formula_units_Z 56
_cell_length_a 18.418221
_cell_length_b 20.952743
_cell_length_c 8.610200
_cell_angle_alpha 90.000000
_cell_angle_beta 90.000000
_cell_angle_gamma 90.000000
_cell_volume 3322.781665
_symmetry_space_group_name_H-M "P N N M"
_symmetry_group_IT_number 58
_symmetry_cell_setting 'orthorhombic'
loop_
_space_group_symop_operation_xyz
x,y,z
-x,-y,z
1/2+x,1/2-y,1/2-z
1/2-x,1/2+y,1/2-z
-x,-y,-z
x,y,-z
1/2-x,1/2+y,1/2+z
1/2+x,1/2-y,1/2+z
loop_
_atom_site_type_symbol
_atom_site_label
_atom_site_fract_x
_atom_site_fract_y
_atom_site_fract_z
Si Si1 0.151694 0.879778 0.819189
Si Si2 0.662618 0.373434 0.183254
Si Si3 0.083716 0.247367 0.819217
Si Si4 0.081083 0.746343 0.818191
Si Si5 0.707933 0.188175 0.178895
Si Si6 0.580898 0.497663 0.817466
Si Si7 0.287019 0.193293 0.818620
O O1 0.106207 0.817319 0.768866
O O2 0.237966 0.870631 0.782579
O O3 0.124593 0.938585 0.719404
O O4 0.139184 0.893958 0.000000
O O5 0.612111 0.313060 0.223097
O O6 0.623533 0.436580 0.249889
O O7 0.741554 0.369550 0.268659
O O8 0.674933 0.377222 0.000000
O O9 0.134110 0.309445 0.781051
O O10 0.002079 0.263327 0.768209
O O11 0.088183 0.230456 0.000000
O O12 0.127598 0.692281 0.725725
O O13 0.092654 0.735367 0.000000
O O14 0.753721 0.251396 0.212453
O O15 0.684930 0.187017 0.000000
O O16 0.500000 0.500000 0.743629
O O17 0.574226 0.489794 0.000000
O O18 0.276183 0.206993 0.000000
#
# Coordination Sequence:
#
# PCOD8235365 Si02
#       7
#     8   8   8   8   8   8   8
#     4   9  18  31  46  63  87 122 154 182 218 259
#     4  10  19  31  45  62  91 125 151 183 226 263
#     4  10  18  28  46  70  92 117 150 185 221 266
#     4   9  18  31  45  66  95 120 145 182 229 271
#     4   9  17  30  45  63  90 119 147 182 227 270
#     4  10  21  33  45  65  91 120 154 187 218 256
#     4  10  18  28  45  66  86 114 153 188 220 265
#
# _framework density 16.853349000000001
#
# number of rings (size 3 to 8) (size 9 to 14) (size 15 to 20)
#    0.000    2.429    0.000    6.000    0.000    5.429 
#    0.000    0.000    0.000    0.000    0.000    1.000 
#    0.000    8.000    0.000    0.000    0.000    0.000 
#
# Total GULP energy -694091.156070 kJ/mol
# GULP energy per Si atom -12394.484930 kJ/mol
# Density = 1.681499 g / cm^3
# Si number density = 16.853349 Si / 1000 Ang^3
#
#
#
# Elastic Constant Matrix: (Units=GPa)
#
#
# Indices 1 2 3 4 5 6 
#
# 1 146.2858 52.5679 29.5074 0.0000 0.0000 0.0000
# 2 52.5679 63.4129 14.8090 0.0000 0.0000 0.0000
# 3 29.5074 14.8090 31.3575 0.0000 0.0000 0.0000
# 4 0.0000 0.0000 0.0000 20.5141 0.0000 0.0000
# 5 0.0000 0.0000 0.0000 0.0000 27.7201 0.0000
# 6 0.0000 0.0000 0.0000 0.0000 0.0000 27.0501
#
#
#
# Elastic Compliance Matrix: (Units=1/GPa)
#
#
# Indices 1 2 3 4 5 6 
#
# 1 0.010862 -0.007438 -0.006708 0.000000 0.000000 0.000000
# 2 -0.007438 0.022817 -0.003777 0.000000 0.000000 0.000000
# 3 -0.006708 -0.003777 0.039987 0.000000 0.000000 0.000000
# 4 0.000000 0.000000 0.000000 0.048747 0.000000 0.000000
# 5 0.000000 0.000000 0.000000 0.000000 0.036075 0.000000
# 6 0.000000 0.000000 0.000000 0.000000 0.000000 0.036968
#
#
# Mechanical properties :
#
#
# Convention : Reuss Voigt Hill
#
# Bulk Modulus (GPa) = 26.44121 48.31385 37.37753
# Shear Modulus (GPa) = 20.49945 24.66831 22.58388
#
# Velocity S-wave (km/s) = 3.49139 3.82999 3.66460
# Velocity P-wave (km/s) = 5.65475 6.94895 6.33498
#
# Compressibility (1/GPa) = 0.03781975
#
# Stress axis : x y z
#
# Youngs Moduli (GPa) = 92.06588 43.82644 25.00825
#
# Poissons Ratio (x) = 0.32596 0.16777
# Poissons Ratio (y) = 0.68474 0.09446
# Poissons Ratio (z) = 0.61762 0.16553
#
# Static dielectric constant tensor:
#      x y z
#    x 3.711340 0.000000 0.000000 
#    y 0.000000 2.964800 0.000000 
#    z 0.000000 0.000000 3.051700 
# 
# 
# High freq. dielectric constant tensor:
#      x y z
#    x 1.659880 0.000000 0.000000 
#    y 0.000000 1.601110 0.000000 
#    z 0.000000 0.000000 1.652650 
# 
# From -- ./inp_files/8148.got.cif
#   From: 2010.06.25/outbox.cif.g09.slc.cpg/sg58_5_cif.got.tgz:8148.got - 2010.06.26 21:38:00.
