data_PCOD8235720
_publ_section_title
;
Structure prediction by ZEFSAII (Michael W. Deem and Ramdas Pophale) SiO2 
 PCOD8235720
Probable space group: P N N M
;
_chemical_formula_sum "Si O2"
_cell_formula_units_Z 48
_cell_length_a 29.512109
_cell_length_b 10.030538
_cell_length_c 8.821286
_cell_angle_alpha 90.000000
_cell_angle_beta 90.000000
_cell_angle_gamma 90.000000
_cell_volume 2611.297642
_symmetry_space_group_name_H-M "P N N M"
_symmetry_group_IT_number 58
_symmetry_cell_setting 'orthorhombic'
loop_
_space_group_symop_operation_xyz
x,y,z
-x,-y,z
1/2+x,1/2-y,1/2-z
1/2-x,1/2+y,1/2-z
-x,-y,-z
x,y,-z
1/2-x,1/2+y,1/2+z
1/2+x,1/2-y,1/2+z
loop_
_atom_site_type_symbol
_atom_site_label
_atom_site_fract_x
_atom_site_fract_y
_atom_site_fract_z
Si Si1 0.974360 0.860971 0.327464
Si Si2 0.383443 0.214690 0.820278
Si Si3 0.472160 0.128733 0.322794
Si Si4 0.614989 0.485801 0.821830
Si Si5 0.284342 0.504864 0.821569
Si Si6 0.289175 0.220661 0.320630
O O1 0.974057 0.805582 0.500000
O O2 0.923338 0.884252 0.260591
O O3 0.998911 0.757843 0.219114
O O4 0.000000 0.000000 0.322334
O O5 0.424230 0.122039 0.763803
O O6 0.393237 0.364503 0.760845
O O7 0.336014 0.167227 0.749478
O O8 0.379287 0.206406 0.000000
O O9 0.462037 0.129186 0.500000
O O10 0.500000 0.000000 0.271208
O O11 0.665618 0.439573 0.777047
O O12 0.607964 0.491502 0.000000
O O13 0.274546 0.365493 0.739186
O O14 0.248810 0.615282 0.768333
O O15 0.282026 0.476299 0.000000
O O16 0.293513 0.226901 0.500000
#
# Coordination Sequence:
#
# PCOD8235720 Si02
#       6
#     8   8   8   8   8   8
#     4  10  18  33  58  84 107 137 182 229 269 318
#     4  10  19  36  60  81 106 144 188 225 273 335
#     4  11  24  39  53  77 117 151 180 224 276 329
#     4   8  15  31  55  80 105 135 177 228 270 313
#     4   9  19  36  56  79 112 149 184 226 274 328
#     4  10  20  35  57  84 114 145 183 230 279 325
#
# _framework density 18.381667
#
# number of rings (size 3 to 8) (size 9 to 14) (size 15 to 20)
#    0.000    2.333    1.667    2.500    0.000    3.000 
#    3.000    0.833    0.000    0.000    0.000    0.000 
#    0.000    0.000    0.000    0.000    0.000    0.000 
#
# Total GULP energy -595116.888166 kJ/mol
# GULP energy per Si atom -12398.268503 kJ/mol
# Density = 1.833983 g / cm^3
# Si number density = 18.381667 Si / 1000 Ang^3
#
#
#
# Elastic Constant Matrix: (Units=GPa)
#
#
# Indices 1 2 3 4 5 6 
#
# 1 168.5369 66.7019 42.0128 0.0000 0.0000 0.0000
# 2 66.7019 71.3197 29.4948 0.0000 0.0000 0.0000
# 3 42.0128 29.4948 51.5551 0.0000 0.0000 0.0000
# 4 0.0000 0.0000 0.0000 11.3561 0.0000 0.0000
# 5 0.0000 0.0000 0.0000 0.0000 28.7481 0.0000
# 6 0.0000 0.0000 0.0000 0.0000 0.0000 34.8092
#
#
#
# Elastic Compliance Matrix: (Units=1/GPa)
#
#
# Indices 1 2 3 4 5 6 
#
# 1 0.009914 -0.007769 -0.003634 0.000000 0.000000 0.000000
# 2 -0.007769 0.024455 -0.007660 0.000000 0.000000 0.000000
# 3 -0.003634 -0.007660 0.026741 0.000000 0.000000 0.000000
# 4 0.000000 0.000000 0.000000 0.088058 0.000000 0.000000
# 5 0.000000 0.000000 0.000000 0.000000 0.034785 0.000000
# 6 0.000000 0.000000 0.000000 0.000000 0.000000 0.028728
#
#
# Mechanical properties :
#
#
# Convention : Reuss Voigt Hill
#
# Bulk Modulus (GPa) = 43.50965 63.09231 53.30098
# Shear Modulus (GPa) = 19.34466 25.19616 22.27041
#
# Velocity S-wave (km/s) = 3.24757 3.70634 3.48452
# Velocity P-wave (km/s) = 6.14686 7.26044 6.72673
#
# Compressibility (1/GPa) = 0.02298341
#
# Stress axis : x y z
#
# Youngs Moduli (GPa) = 100.86483 40.89085 37.39638
#
# Poissons Ratio (x) = 0.31769 0.13591
# Poissons Ratio (y) = 0.78365 0.28644
# Poissons Ratio (z) = 0.36658 0.31321
#
# Static dielectric constant tensor:
#      x y z
#    x 3.848160 0.000000 0.000000 
#    y 0.000000 3.432240 0.000000 
#    z 0.000000 0.000000 3.227390 
# 
# 
# High freq. dielectric constant tensor:
#      x y z
#    x 1.731930 0.000000 0.000000 
#    y 0.000000 1.691030 0.000000 
#    z 0.000000 0.000000 1.700180 
# 
# From -- ./inp_files/3002.got.cif
#   From: 2010.06.25/outbox.cif.g09.slc.cpg/sg58_2_cif.got.tgz:3002.got - 2010.06.26 21:38:00.
