data_PCOD8235363
_publ_section_title
;
Structure prediction by ZEFSAII (Michael W. Deem and Ramdas Pophale) SiO2 
 PCOD8235363
Probable space group: P N N M
;
_chemical_formula_sum "Si O2"
_cell_formula_units_Z 64
_cell_length_a 9.650257
_cell_length_b 24.581221
_cell_length_c 18.146316
_cell_angle_alpha 90.000000
_cell_angle_beta 90.000000
_cell_angle_gamma 90.000000
_cell_volume 4304.580165
_symmetry_space_group_name_H-M "P N N M"
_symmetry_group_IT_number 58
_symmetry_cell_setting 'orthorhombic'
loop_
_space_group_symop_operation_xyz
x,y,z
-x,-y,z
1/2+x,1/2-y,1/2-z
1/2-x,1/2+y,1/2-z
-x,-y,-z
x,y,-z
1/2-x,1/2+y,1/2+z
1/2+x,1/2-y,1/2+z
loop_
_atom_site_type_symbol
_atom_site_label
_atom_site_fract_x
_atom_site_fract_y
_atom_site_fract_z
Si Si1 0.196394 0.294722 0.793237
Si Si2 0.481592 0.757429 0.414057
Si Si3 0.802207 0.756415 0.414075
Si Si4 0.482277 0.642786 0.345257
Si Si5 0.628872 0.461035 0.584100
Si Si6 0.366354 0.964032 0.083090
Si Si7 0.018889 0.206386 0.706664
Si Si8 0.703488 0.141865 0.154679
O O1 0.118899 0.300849 0.872108
O O2 0.106440 0.251009 0.749790
O O3 0.357228 0.276733 0.803501
O O4 0.190260 0.349202 0.743140
O O5 0.456698 0.765736 0.500000
O O6 0.642150 0.767698 0.392248
O O7 0.437351 0.696648 0.390265
O O8 0.827642 0.764401 0.500000
O O9 0.903895 0.799407 0.372313
O O10 0.844301 0.695333 0.390243
O O11 0.384154 0.593214 0.367341
O O12 0.471805 0.652036 0.256714
O O13 0.638971 0.627972 0.367723
O O14 0.500000 0.500000 0.589276
O O15 0.659107 0.443125 0.500000
O O16 0.751799 0.496634 0.618407
O O17 0.388954 0.909594 0.131194
O O18 0.500000 0.000000 0.082861
O O19 0.323997 0.946464 0.000000
#
# Coordination Sequence:
#
# PCOD8235363 Si02
#       8
#     8   8   8   8   8   8   8   8
#     4   9  17  29  44  62  84 113 144 178 214 253
#     4   9  17  29  45  64  89 114 142 178 213 256
#     4   9  17  29  46  65  86 116 145 172 213 261
#     4   9  16  28  45  63  82 112 148 177 209 246
#     4  10  18  28  45  62  80 110 147 180 205 239
#     4  10  20  32  41  58  88 114 142 181 214 242
#     4   9  17  29  43  61  87 112 142 179 213 255
#     4   9  16  29  46  59  82 119 148 169 207 256
#
# _framework density 14.867884999999999
#
# number of rings (size 3 to 8) (size 9 to 14) (size 15 to 20)
#    0.000    2.750    1.250    3.000    0.000    1.500 
#   11.250    0.000    0.000    0.000    0.000    0.000 
#    0.000    2.000    0.000    0.125    0.000    0.000 
#
# Total GULP energy -793044.945580 kJ/mol
# GULP energy per Si atom -12391.327275 kJ/mol
# Density = 1.483404 g / cm^3
# Si number density = 14.867885 Si / 1000 Ang^3
#
#
#
# Elastic Constant Matrix: (Units=GPa)
#
#
# Indices 1 2 3 4 5 6 
#
# 1 75.0787 25.2980 42.5163 0.0000 0.0000 0.0000
# 2 25.2980 56.6129 36.5019 0.0000 0.0000 0.0000
# 3 42.5163 36.5019 91.4773 0.0000 0.0000 0.0000
# 4 0.0000 0.0000 0.0000 24.8020 0.0000 0.0000
# 5 0.0000 0.0000 0.0000 0.0000 28.4722 0.0000
# 6 0.0000 0.0000 0.0000 0.0000 0.0000 16.7757
#
#
#
# Elastic Compliance Matrix: (Units=1/GPa)
#
#
# Indices 1 2 3 4 5 6 
#
# 1 0.018633 -0.003693 -0.007187 0.000000 0.000000 0.000000
# 2 -0.003693 0.024514 -0.008066 0.000000 0.000000 0.000000
# 3 -0.007187 -0.008066 0.017490 0.000000 0.000000 0.000000
# 4 0.000000 0.000000 0.000000 0.040319 0.000000 0.000000
# 5 0.000000 0.000000 0.000000 0.000000 0.035122 0.000000
# 6 0.000000 0.000000 0.000000 0.000000 0.000000 0.059610
#
#
# Mechanical properties :
#
#
# Convention : Reuss Voigt Hill
#
# Bulk Modulus (GPa) = 43.96036 47.97795 45.96915
# Shear Modulus (GPa) = 20.73292 21.93349 21.33320
#
# Velocity S-wave (km/s) = 3.73832 3.84503 3.79205
# Velocity P-wave (km/s) = 6.94729 7.21470 7.08226
#
# Compressibility (1/GPa) = 0.02274777
#
# Stress axis : x y z
#
# Youngs Moduli (GPa) = 53.66684 40.79247 57.17439
#
# Poissons Ratio (x) = 0.15064 0.41091
# Poissons Ratio (y) = 0.19818 0.46115
# Poissons Ratio (z) = 0.38570 0.32902
#
# Static dielectric constant tensor:
#      x y z
#    x 3.008800 0.000000 0.000000 
#    y 0.000000 2.646530 0.000000 
#    z 0.000000 0.000000 3.236200 
# 
# 
# High freq. dielectric constant tensor:
#      x y z
#    x 1.574100 0.000000 0.000000 
#    y 0.000000 1.529720 0.000000 
#    z 0.000000 0.000000 1.559910 
# 
# From -- ./inp_files/25736.got.cif
#   From: 2010.06.25/outbox.cif.g09.slc.cpg/sg58_13_cif.got.tgz:25736.got - 2010.06.26 21:38:00.
