data_PCOD8235537
_publ_section_title
;
Structure prediction by ZEFSAII (Michael W. Deem and Ramdas Pophale) SiO2 
 PCOD8235537
Probable space group: P N N M
;
_chemical_formula_sum "Si O2"
_cell_formula_units_Z 48
_cell_length_a 13.840535
_cell_length_b 23.538387
_cell_length_c 8.411370
_cell_angle_alpha 90.000000
_cell_angle_beta 90.000000
_cell_angle_gamma 90.000000
_cell_volume 2740.288663
_symmetry_space_group_name_H-M "P N N M"
_symmetry_group_IT_number 58
_symmetry_cell_setting 'orthorhombic'
loop_
_space_group_symop_operation_xyz
x,y,z
-x,-y,z
1/2+x,1/2-y,1/2-z
1/2-x,1/2+y,1/2-z
-x,-y,-z
x,y,-z
1/2-x,1/2+y,1/2+z
1/2+x,1/2-y,1/2+z
loop_
_atom_site_type_symbol
_atom_site_label
_atom_site_fract_x
_atom_site_fract_y
_atom_site_fract_z
Si Si1 0.100903 0.934953 0.814013
Si Si2 0.611208 0.777290 0.313541
Si Si3 0.787878 0.839453 0.813861
Si Si4 0.896909 0.729240 0.186673
Si Si5 0.106165 0.056628 0.684555
Si Si6 0.791588 0.168429 0.686370
O O1 0.182817 0.895053 0.738689
O O2 0.998345 0.919602 0.735107
O O3 0.130841 0.999773 0.781876
O O4 0.092854 0.923784 0.000000
O O5 0.617768 0.790181 0.500000
O O6 0.677316 0.822319 0.220317
O O7 0.502457 0.785383 0.244850
O O8 0.641742 0.712543 0.281091
O O9 0.856461 0.789149 0.746459
O O10 0.812580 0.896921 0.720978
O O11 0.802352 0.849763 0.000000
O O12 0.821081 0.679343 0.229636
O O13 0.906464 0.737065 0.000000
O O14 0.105564 0.041112 0.500000
O O15 0.809132 0.177944 0.500000
#
# Coordination Sequence:
#
# PCOD8235537 Si02
#       6
#     8   8   8   8   8   8
#     4  11  21  34  51  74 102 132 161 201 251 298
#     4  10  18  31  50  74 100 132 169 206 246 293
#     4  10  19  33  50  73 103 134 163 202 250 296
#     4   8  17  31  49  70  98 131 164 200 243 288
#     4  11  21  34  52  75  99 130 167 203 241 294
#     4  10  19  33  50  72 100 133 168 206 247 293
#
# _framework density 17.516403
#
# number of rings (size 3 to 8) (size 9 to 14) (size 15 to 20)
#    0.000    2.000    0.000    7.500    0.000    1.333 
#    0.000    9.167    0.000    1.000    0.000    7.000 
#    0.000    0.000    0.000    0.000    0.000    0.000 
#
# Total GULP energy -595266.423027 kJ/mol
# GULP energy per Si atom -12401.383813 kJ/mol
# Density = 1.747653 g / cm^3
# Si number density = 17.516403 Si / 1000 Ang^3
#
#
#
# Elastic Constant Matrix: (Units=GPa)
#
#
# Indices 1 2 3 4 5 6 
#
# 1 128.1840 55.3820 14.1766 0.0000 0.0000 0.0000
# 2 55.3820 86.6332 4.1219 0.0000 0.0000 0.0000
# 3 14.1766 4.1219 53.4541 0.0000 0.0000 0.0000
# 4 0.0000 0.0000 0.0000 29.1372 0.0000 0.0000
# 5 0.0000 0.0000 0.0000 0.0000 23.7006 0.0000
# 6 0.0000 0.0000 0.0000 0.0000 0.0000 29.3967
#
#
#
# Elastic Compliance Matrix: (Units=1/GPa)
#
#
# Indices 1 2 3 4 5 6 
#
# 1 0.011077 -0.006967 -0.002400 0.000000 0.000000 0.000000
# 2 -0.006967 0.015967 0.000616 0.000000 0.000000 0.000000
# 3 -0.002400 0.000616 0.019297 0.000000 0.000000 0.000000
# 4 0.000000 0.000000 0.000000 0.034320 0.000000 0.000000
# 5 0.000000 0.000000 0.000000 0.000000 0.042193 0.000000
# 6 0.000000 0.000000 0.000000 0.000000 0.000000 0.034017
#
#
# Mechanical properties :
#
#
# Convention : Reuss Voigt Hill
#
# Bulk Modulus (GPa) = 34.67523 46.18138 40.42831
# Shear Modulus (GPa) = 27.17590 29.41961 28.29775
#
# Velocity S-wave (km/s) = 3.94312 4.10267 4.02369
# Velocity P-wave (km/s) = 6.36944 6.99031 6.68709
#
# Compressibility (1/GPa) = 0.02883903
#
# Stress axis : x y z
#
# Youngs Moduli (GPa) = 90.27881 62.62807 51.82224
#
# Poissons Ratio (x) = 0.43632 0.12440
# Poissons Ratio (y) = 0.62896 -0.03194
# Poissons Ratio (z) = 0.21671 -0.03861
#
# Static dielectric constant tensor:
#      x y z
#    x 3.445920 0.000000 0.000000 
#    y 0.000000 3.171630 0.000000 
#    z 0.000000 0.000000 3.228060 
# 
# 
# High freq. dielectric constant tensor:
#      x y z
#    x 1.668150 0.000000 0.000000 
#    y 0.000000 1.663900 0.000000 
#    z 0.000000 0.000000 1.681430 
# 
# From -- ./inp_files/6537.got.cif
#   From: 2010.06.25/outbox.cif.g09.slc.cpg/sg58_4_cif.got.tgz:6537.got - 2010.06.26 21:38:00.
