data_PCOD8235792
_publ_section_title
;
Structure prediction by ZEFSAII (Michael W. Deem and Ramdas Pophale) SiO2 
 PCOD8235792
Probable space group: P N N M
;
_chemical_formula_sum "Si O2"
_cell_formula_units_Z 64
_cell_length_a 15.355260
_cell_length_b 23.388832
_cell_length_c 9.128451
_cell_angle_alpha 90.000000
_cell_angle_beta 90.000000
_cell_angle_gamma 90.000000
_cell_volume 3278.406465
_symmetry_space_group_name_H-M "P N N M"
_symmetry_group_IT_number 58
_symmetry_cell_setting 'orthorhombic'
loop_
_space_group_symop_operation_xyz
x,y,z
-x,-y,z
1/2+x,1/2-y,1/2-z
1/2-x,1/2+y,1/2-z
-x,-y,-z
x,y,-z
1/2-x,1/2+y,1/2+z
1/2+x,1/2-y,1/2+z
loop_
_atom_site_type_symbol
_atom_site_label
_atom_site_fract_x
_atom_site_fract_y
_atom_site_fract_z
Si Si1 0.602202 0.879254 0.668103
Si Si2 0.158627 0.254664 0.831204
Si Si3 0.423841 0.635831 0.332708
Si Si4 0.259483 0.562129 0.673195
Si Si5 0.909506 0.625266 0.173205
Si Si6 0.406434 0.355148 0.170851
Si Si7 0.164109 0.747312 0.168201
Si Si8 0.255538 0.444981 0.829396
O O1 0.614848 0.898750 0.500000
O O2 0.669199 0.914304 0.765264
O O3 0.505073 0.893933 0.727439
O O4 0.612285 0.811530 0.683440
O O5 0.089179 0.203834 0.817380
O O6 0.116601 0.312292 0.765161
O O7 0.241829 0.238016 0.737162
O O8 0.188457 0.262868 0.000000
O O9 0.443678 0.618839 0.500000
O O10 0.338049 0.603097 0.276133
O O11 0.505520 0.616755 0.234420
O O12 0.251660 0.559808 0.500000
O O13 0.279659 0.499633 0.734374
O O14 0.838662 0.578401 0.221990
O O15 0.911919 0.631477 0.000000
O O16 0.390437 0.295019 0.248118
O O17 0.326119 0.396531 0.204105
O O18 0.418548 0.344410 0.000000
O O19 0.173757 0.765963 0.000000
O O20 0.255008 0.461635 0.000000
#
# Coordination Sequence:
#
# PCOD8235792 Si02
#       8
#     8   8   8   8   8   8   8   8
#     4  10  21  38  62  88 117 156 199 239 284 352
#     4  10  18  36  62  86 119 157 195 236 289 357
#     4  10  22  39  61  87 119 157 193 241 302 357
#     4  11  24  41  61  85 117 155 195 248 305 350
#     4   9  18  36  62  86 112 153 198 236 282 344
#     4  11  23  39  62  89 119 157 199 244 293 352
#     4  11  21  34  58  92 125 154 191 240 295 351
#     4  10  22  41  62  83 112 155 204 247 291 349
#
# _framework density 19.521678999999999
#
# number of rings (size 3 to 8) (size 9 to 14) (size 15 to 20)
#    0.000    1.750    2.500    1.875    0.000    6.000 
#    0.000    6.250    0.000    0.000    0.000    0.000 
#    0.000    0.000    0.000    0.000    0.000    0.000 
#
# Total GULP energy -793822.816601 kJ/mol
# GULP energy per Si atom -12403.481509 kJ/mol
# Density = 1.947725 g / cm^3
# Si number density = 19.521679 Si / 1000 Ang^3
#
#
#
# Elastic Constant Matrix: (Units=GPa)
#
#
# Indices 1 2 3 4 5 6 
#
# 1 128.3704 16.7483 48.7834 0.0000 0.0000 0.0000
# 2 16.7483 63.2916 31.3612 0.0000 0.0000 0.0000
# 3 48.7834 31.3612 77.5023 0.0000 0.0000 0.0000
# 4 0.0000 0.0000 0.0000 32.1290 0.0000 0.0000
# 5 0.0000 0.0000 0.0000 0.0000 30.3497 0.0000
# 6 0.0000 0.0000 0.0000 0.0000 0.0000 11.2623
#
#
#
# Elastic Compliance Matrix: (Units=1/GPa)
#
#
# Indices 1 2 3 4 5 6 
#
# 1 0.010258 0.000606 -0.006702 0.000000 0.000000 0.000000
# 2 0.000606 0.019798 -0.008393 0.000000 0.000000 0.000000
# 3 -0.006702 -0.008393 0.020518 0.000000 0.000000 0.000000
# 4 0.000000 0.000000 0.000000 0.031125 0.000000 0.000000
# 5 0.000000 0.000000 0.000000 0.000000 0.032949 0.000000
# 6 0.000000 0.000000 0.000000 0.000000 0.000000 0.088792
#
#
# Mechanical properties :
#
#
# Convention : Reuss Voigt Hill
#
# Bulk Modulus (GPa) = 46.30427 51.43891 48.87159
# Shear Modulus (GPa) = 20.86679 26.23296 23.54987
#
# Velocity S-wave (km/s) = 3.27296 3.66975 3.47702
# Velocity P-wave (km/s) = 6.16878 6.66055 6.41938
#
# Compressibility (1/GPa) = 0.02159628
#
# Stress axis : x y z
#
# Youngs Moduli (GPa) = 97.48715 50.50962 48.73844
#
# Poissons Ratio (x) = -0.03063 0.32665
# Poissons Ratio (y) = -0.05913 0.40907
# Poissons Ratio (z) = 0.65337 0.42393
#
# Static dielectric constant tensor:
#      x y z
#    x 3.738070 0.000000 0.000000 
#    y 0.000000 3.506960 0.000000 
#    z 0.000000 0.000000 3.437300 
# 
# 
# High freq. dielectric constant tensor:
#      x y z
#    x 1.774180 0.000000 0.000000 
#    y 0.000000 1.758780 0.000000 
#    z 0.000000 0.000000 1.743880 
# 
# From -- ./inp_files/6833.got.cif
#   From: 2010.06.25/outbox.cif.g09.slc.cpg/sg58_4_cif.got.tgz:6833.got - 2010.06.26 21:38:00.
