data_PCOD8235503
_publ_section_title
;
Structure prediction by ZEFSAII (Michael W. Deem and Ramdas Pophale) SiO2 
 PCOD8235503
Probable space group: P N N M
;
_chemical_formula_sum "Si O2"
_cell_formula_units_Z 64
_cell_length_a 14.526903
_cell_length_b 27.820402
_cell_length_c 8.838099
_cell_angle_alpha 90.000000
_cell_angle_beta 90.000000
_cell_angle_gamma 90.000000
_cell_volume 3571.867168
_symmetry_space_group_name_H-M "P N N M"
_symmetry_group_IT_number 58
_symmetry_cell_setting 'orthorhombic'
loop_
_space_group_symop_operation_xyz
x,y,z
-x,-y,z
1/2+x,1/2-y,1/2-z
1/2-x,1/2+y,1/2-z
-x,-y,-z
x,y,-z
1/2-x,1/2+y,1/2+z
1/2+x,1/2-y,1/2+z
loop_
_atom_site_type_symbol
_atom_site_label
_atom_site_fract_x
_atom_site_fract_y
_atom_site_fract_z
Si Si1 0.396043 0.947954 0.678018
Si Si2 0.220027 0.639072 0.677369
Si Si3 0.102907 0.174969 0.678150
Si Si4 0.733273 0.135475 0.321152
Si Si5 0.601484 0.781586 0.327427
Si Si6 0.410141 0.328631 0.677371
Si Si7 0.891823 0.724541 0.826200
Si Si8 0.897055 0.443568 0.821409
O O1 0.401264 0.941347 0.500000
O O2 0.321828 0.910536 0.744506
O O3 0.498530 0.936298 0.738348
O O4 0.365753 0.002110 0.717889
O O5 0.236135 0.637283 0.500000
O O6 0.318451 0.639936 0.759205
O O7 0.162015 0.686569 0.716386
O O8 0.168266 0.591544 0.730246
O O9 0.097870 0.170512 0.500000
O O10 0.127292 0.229646 0.722188
O O11 0.006344 0.157645 0.746372
O O12 0.747449 0.131997 0.500000
O O13 0.832084 0.136184 0.241226
O O14 0.677337 0.183041 0.275822
O O15 0.632346 0.791609 0.500000
O O16 0.616633 0.726142 0.283006
O O17 0.494870 0.795561 0.305149
O O18 0.421598 0.335866 0.500000
O O19 0.877189 0.740545 0.000000
O O20 0.889321 0.433019 0.000000
#
# Coordination Sequence:
#
# PCOD8235503 Si02
#       8
#     8   8   8   8   8   8   8   8
#     4   8  16  32  56  81 104 132 168 207 244 294
#     4  12  23  33  49  75 105 135 169 211 256 300
#     4  11  22  36  53  71  96 134 176 214 252 297
#     4  10  18  30  51  78 104 133 169 205 246 297
#     4   9  18  33  51  72 101 137 174 208 245 295
#     4  10  21  36  51  71 101 135 170 210 253 295
#     4   9  18  32  51  76 107 137 167 208 250 291
#     4   9  17  34  57  78 102 135 171 205 247 297
#
# _framework density 17.9178
#
# number of rings (size 3 to 8) (size 9 to 14) (size 15 to 20)
#    0.000    2.250    0.000    5.625    0.000    7.000 
#    0.000    3.750    0.000    0.750    0.000    5.250 
#    0.000    0.000    0.000    0.000    0.000    0.000 
#
# Total GULP energy -793713.489703 kJ/mol
# GULP energy per Si atom -12401.773277 kJ/mol
# Density = 1.787702 g / cm^3
# Si number density = 17.917800 Si / 1000 Ang^3
#
#
#
# Elastic Constant Matrix: (Units=GPa)
#
#
# Indices 1 2 3 4 5 6 
#
# 1 129.7446 70.5339 51.4133 0.0000 0.0000 0.0000
# 2 70.5339 83.5564 40.4670 0.0000 0.0000 0.0000
# 3 51.4133 40.4670 83.8651 0.0000 0.0000 0.0000
# 4 0.0000 0.0000 0.0000 21.6910 0.0000 0.0000
# 5 0.0000 0.0000 0.0000 0.0000 28.6101 0.0000
# 6 0.0000 0.0000 0.0000 0.0000 0.0000 29.1121
#
#
#
# Elastic Compliance Matrix: (Units=1/GPa)
#
#
# Indices 1 2 3 4 5 6 
#
# 1 0.015250 -0.010891 -0.004094 0.000000 0.000000 0.000000
# 2 -0.010891 0.023395 -0.004612 0.000000 0.000000 0.000000
# 3 -0.004094 -0.004612 0.016659 0.000000 0.000000 0.000000
# 4 0.000000 0.000000 0.000000 0.046102 0.000000 0.000000
# 5 0.000000 0.000000 0.000000 0.000000 0.034953 0.000000
# 6 0.000000 0.000000 0.000000 0.000000 0.000000 0.034350
#
#
# Mechanical properties :
#
#
# Convention : Reuss Voigt Hill
#
# Bulk Modulus (GPa) = 62.07080 69.11051 65.59065
# Shear Modulus (GPa) = 23.22620 24.86609 24.04615
#
# Velocity S-wave (km/s) = 3.60427 3.72934 3.66734
# Velocity P-wave (km/s) = 7.21375 7.56298 7.39043
#
# Compressibility (1/GPa) = 0.01611064
#
# Stress axis : x y z
#
# Youngs Moduli (GPa) = 65.57183 42.74399 60.02642
#
# Poissons Ratio (x) = 0.46552 0.24576
# Poissons Ratio (y) = 0.71413 0.27685
# Poissons Ratio (z) = 0.26846 0.19714
#
# Static dielectric constant tensor:
#      x y z
#    x 3.464790 0.000000 0.000000 
#    y 0.000000 3.346030 0.000000 
#    z 0.000000 0.000000 3.112880 
# 
# 
# High freq. dielectric constant tensor:
#      x y z
#    x 1.699520 0.000000 0.000000 
#    y 0.000000 1.673700 0.000000 
#    z 0.000000 0.000000 1.680640 
# 
# From -- ./inp_files/7148.got.cif
#   From: 2010.06.25/outbox.cif.g09.slc.cpg/sg58_4_cif.got.tgz:7148.got - 2010.06.26 21:38:00.
