data_PCOD8235570
_publ_section_title
;
Structure prediction by ZEFSAII (Michael W. Deem and Ramdas Pophale) SiO2 
 PCOD8235570
Probable space group: P N N M
;
_chemical_formula_sum "Si O2"
_cell_formula_units_Z 64
_cell_length_a 12.422943
_cell_length_b 17.842159
_cell_length_c 15.046136
_cell_angle_alpha 90.000000
_cell_angle_beta 90.000000
_cell_angle_gamma 90.000000
_cell_volume 3335.008006
_symmetry_space_group_name_H-M "P N N M"
_symmetry_group_IT_number 58
_symmetry_cell_setting 'orthorhombic'
loop_
_space_group_symop_operation_xyz
x,y,z
-x,-y,z
1/2+x,1/2-y,1/2-z
1/2-x,1/2+y,1/2-z
-x,-y,-z
x,y,-z
1/2-x,1/2+y,1/2+z
1/2+x,1/2-y,1/2+z
loop_
_atom_site_type_symbol
_atom_site_label
_atom_site_fract_x
_atom_site_fract_y
_atom_site_fract_z
Si Si1 0.809353 0.903029 0.098852
Si Si2 0.101143 0.553741 0.903815
Si Si3 0.020566 0.346536 0.220575
Si Si4 0.606499 0.539834 0.315317
Si Si5 0.923829 0.173762 0.598561
Si Si6 0.737277 0.072947 0.336627
Si Si7 0.421149 0.154478 0.901536
Si Si8 0.022796 0.172655 0.215673
O O1 0.681556 0.898804 0.113397
O O2 0.862427 0.854075 0.177793
O O3 0.851565 0.989409 0.102495
O O4 0.838451 0.872518 0.000000
O O5 0.205561 0.502413 0.888481
O O6 0.000000 0.500000 0.903066
O O7 0.081707 0.616129 0.828734
O O8 0.113036 0.593325 0.000000
O O9 0.134295 0.377037 0.188162
O O10 0.010126 0.259643 0.196456
O O11 0.010012 0.363062 0.326223
O O12 0.500000 0.500000 0.272704
O O13 0.706380 0.541912 0.250296
O O14 0.569978 0.625466 0.337938
O O15 0.975658 0.160392 0.500000
O O16 0.817897 0.122612 0.605137
O O17 0.883845 0.259271 0.607403
O O18 0.009179 0.155650 0.677764
O O19 0.471103 0.139775 0.000000
#
# Coordination Sequence:
#
# PCOD8235570 Si02
#       8
#     8   8   8   8   8   8   8   8
#     4  10  19  33  54  75 100 139 181 218 259 312
#     4   9  18  30  46  71 102 134 167 207 257 307
#     4  10  19  32  51  76 107 134 165 217 268 312
#     4   9  19  34  51  73 100 131 170 213 255 300
#     4   9  17  31  52  77 104 135 175 218 258 309
#     4  10  18  31  53  75  99 137 175 209 257 311
#     4   9  18  32  51  76 104 137 176 217 261 310
#     4   9  19  32  50  77 103 132 172 216 263 311
#
# _framework density 19.190358
#
# number of rings (size 3 to 8) (size 9 to 14) (size 15 to 20)
#    0.000    2.625    0.000    1.875    0.000    3.250 
#    0.000    0.625    0.000   42.000    0.000   15.750 
#    0.000    0.000    0.000    0.000    0.000    0.000 
#
# Total GULP energy -792916.621030 kJ/mol
# GULP energy per Si atom -12389.322204 kJ/mol
# Density = 1.914668 g / cm^3
# Si number density = 19.190358 Si / 1000 Ang^3
#
#
#
# Elastic Constant Matrix: (Units=GPa)
#
#
# Indices 1 2 3 4 5 6 
#
# 1 40.8835 18.0059 23.7317 0.0000 0.0000 0.0000
# 2 18.0059 81.0696 35.9046 0.0000 0.0000 0.0000
# 3 23.7317 35.9046 105.9313 0.0000 0.0000 0.0000
# 4 0.0000 0.0000 0.0000 28.4729 0.0000 0.0000
# 5 0.0000 0.0000 0.0000 0.0000 23.4991 0.0000
# 6 0.0000 0.0000 0.0000 0.0000 0.0000 20.2145
#
#
#
# Elastic Compliance Matrix: (Units=1/GPa)
#
#
# Indices 1 2 3 4 5 6 
#
# 1 0.029303 -0.004237 -0.005129 0.000000 0.000000 0.000000
# 2 -0.004237 0.015126 -0.004178 0.000000 0.000000 0.000000
# 3 -0.005129 -0.004178 0.012005 0.000000 0.000000 0.000000
# 4 0.000000 0.000000 0.000000 0.035121 0.000000 0.000000
# 5 0.000000 0.000000 0.000000 0.000000 0.042555 0.000000
# 6 0.000000 0.000000 0.000000 0.000000 0.000000 0.049470
#
#
# Mechanical properties :
#
#
# Convention : Reuss Voigt Hill
#
# Bulk Modulus (GPa) = 34.07424 42.57429 38.32426
# Shear Modulus (GPa) = 22.68100 24.45345 23.56723
#
# Velocity S-wave (km/s) = 3.44160 3.57355 3.50819
# Velocity P-wave (km/s) = 5.79545 6.26581 6.03522
#
# Compressibility (1/GPa) = 0.02934768
#
# Stress axis : x y z
#
# Youngs Moduli (GPa) = 34.12644 66.10964 83.29818
#
# Poissons Ratio (x) = 0.28010 0.42720
# Poissons Ratio (y) = 0.14459 0.34800
# Poissons Ratio (z) = 0.17502 0.27619
#
# Static dielectric constant tensor:
#      x y z
#    x 3.315490 0.000000 0.000000 
#    y 0.000000 3.665010 0.000000 
#    z 0.000000 0.000000 3.701320 
# 
# 
# High freq. dielectric constant tensor:
#      x y z
#    x 1.723940 0.000000 0.000000 
#    y 0.000000 1.747350 0.000000 
#    z 0.000000 0.000000 1.744240 
# 
# From -- ./inp_files/21514.got.cif
#   From: 2010.06.25/outbox.cif.g09.slc.cpg/sg58_11_cif.got.tgz:21514.got - 2010.06.26 21:38:00.
