data_PCOD8235080
_publ_section_title
;
Structure prediction by ZEFSAII (Michael W. Deem and Ramdas Pophale) SiO2 
 PCOD8235080
Probable space group: P B C M
;
_chemical_formula_sum "Si O2"
_cell_formula_units_Z 36
_cell_length_a 5.411040
_cell_length_b 12.672704
_cell_length_c 24.079842
_cell_angle_alpha 90.000000
_cell_angle_beta 90.000000
_cell_angle_gamma 90.000000
_cell_volume 1651.215164
_symmetry_space_group_name_H-M "P B C M"
_symmetry_group_IT_number 57
_symmetry_cell_setting 'orthorhombic'
loop_
_space_group_symop_operation_xyz
x,y,z
-x,-y,1/2+z
x,1/2-y,-z
-x,1/2+y,1/2-z
-x,-y,-z
x,y,1/2-z
-x,1/2+y,z
x,1/2-y,1/2+z
loop_
_atom_site_type_symbol
_atom_site_label
_atom_site_fract_x
_atom_site_fract_y
_atom_site_fract_z
Si Si1 0.358003 0.427544 0.542626
Si Si2 0.036460 0.250000 0.500000
Si Si3 0.694260 0.443488 0.146368
Si Si4 0.729637 0.280692 0.605928
Si Si5 0.822636 0.459059 0.813037
O O1 0.500000 0.500000 0.500000
O O2 0.175342 0.361234 0.504239
O O3 0.234264 0.505135 0.587038
O O4 0.508305 0.341471 0.577038
O O5 0.892523 0.233803 0.556819
O O6 0.638015 0.319116 0.141402
O O7 0.441168 0.489276 0.171756
O O8 0.941205 0.462383 0.183064
O O9 0.876257 0.359002 0.647136
O O10 0.803859 0.419029 0.750000
#
# Coordination Sequence:
#
# PCOD8235080 Si02
#       5
#     8   4   8   8   8
#     4  11  24  41  65 104 147 184 229 280 349 424
#     4  12  22  40  70 102 140 192 226 288 352 430
#     4  11  25  45  71 101 137 184 231 292 350 421
#     4  11  26  42  68 106 139 184 239 287 354 424
#     4  11  26  48  71 100 137 184 241 300 356 415
#
# _framework density 21.802126000000001
#
# number of rings (size 3 to 8) (size 9 to 14) (size 15 to 20)
#    0.000    0.889    2.222    4.000    9.333    3.556 
#    0.000    0.000    0.000    0.000    0.000    0.000 
#    0.000    0.000    0.000    0.000    0.000    0.000 
#
# Total GULP energy -446227.945307 kJ/mol
# GULP energy per Si atom -12395.220703 kJ/mol
# Density = 2.175250 g / cm^3
# Si number density = 21.802126 Si / 1000 Ang^3
#
#
#
# Elastic Constant Matrix: (Units=GPa)
#
#
# Indices 1 2 3 4 5 6 
#
# 1 110.8773 31.9074 33.2130 0.0000 0.0000 0.0000
# 2 31.9074 118.8731 39.1242 0.0000 0.0000 0.0000
# 3 33.2130 39.1242 127.9537 0.0000 0.0000 0.0000
# 4 0.0000 0.0000 0.0000 24.6303 0.0000 0.0000
# 5 0.0000 0.0000 0.0000 0.0000 31.2081 0.0000
# 6 0.0000 0.0000 0.0000 0.0000 0.0000 37.1934
#
#
#
# Elastic Compliance Matrix: (Units=1/GPa)
#
#
# Indices 1 2 3 4 5 6 
#
# 1 0.010222 -0.002080 -0.002017 0.000000 0.000000 0.000000
# 2 -0.002080 0.009777 -0.002450 0.000000 0.000000 0.000000
# 3 -0.002017 -0.002450 0.009088 0.000000 0.000000 0.000000
# 4 0.000000 0.000000 0.000000 0.040600 0.000000 0.000000
# 5 0.000000 0.000000 0.000000 0.000000 0.032043 0.000000
# 6 0.000000 0.000000 0.000000 0.000000 0.000000 0.026887
#
#
# Mechanical properties :
#
#
# Convention : Reuss Voigt Hill
#
# Bulk Modulus (GPa) = 62.52664 62.91038 62.71851
# Shear Modulus (GPa) = 34.00415 35.50364 34.75390
#
# Velocity S-wave (km/s) = 3.95355 4.03978 3.99690
# Velocity P-wave (km/s) = 7.04146 7.11882 7.08025
#
# Compressibility (1/GPa) = 0.01599318
#
# Stress axis : x y z
#
# Youngs Moduli (GPa) = 97.83051 102.28313 110.03546
#
# Poissons Ratio (x) = 0.21272 0.22198
# Poissons Ratio (y) = 0.20346 0.26954
# Poissons Ratio (z) = 0.19736 0.25055
#
# Static dielectric constant tensor:
#      x y z
#    x 3.909650 0.000000 0.000000 
#    y 0.000000 3.953890 0.000000 
#    z 0.000000 0.000000 4.048810 
# 
# 
# High freq. dielectric constant tensor:
#      x y z
#    x 1.852980 0.000000 0.000000 
#    y 0.000000 1.869210 0.000000 
#    z 0.000000 0.000000 1.863800 
# 
# From -- ./inp_files/26017.got.cif
#   From: 2010.03.12/outbox.cif.g09.slc.cpg/sg57_14_cif.got.tgz:26017.got - 2010.04.16 15:48:40.
