data_PCOD8235971
_publ_section_title
;
Structure prediction by ZEFSAII (Michael W. Deem and Ramdas Pophale) SiO2 
 PCOD8235971
Probable space group: P N N M
;
_chemical_formula_sum "Si O2"
_cell_formula_units_Z 56
_cell_length_a 14.525361
_cell_length_b 22.088615
_cell_length_c 9.005572
_cell_angle_alpha 90.000000
_cell_angle_beta 90.000000
_cell_angle_gamma 90.000000
_cell_volume 2889.393711
_symmetry_space_group_name_H-M "P N N M"
_symmetry_group_IT_number 58
_symmetry_cell_setting 'orthorhombic'
loop_
_space_group_symop_operation_xyz
x,y,z
-x,-y,z
1/2+x,1/2-y,1/2-z
1/2-x,1/2+y,1/2-z
-x,-y,-z
x,y,-z
1/2-x,1/2+y,1/2+z
1/2+x,1/2-y,1/2+z
loop_
_atom_site_type_symbol
_atom_site_label
_atom_site_fract_x
_atom_site_fract_y
_atom_site_fract_z
Si Si1 0.716766 0.879353 0.175779
Si Si2 0.779656 0.608284 0.323981
Si Si3 0.910130 0.714026 0.673181
Si Si4 0.916391 0.143804 0.171681
Si Si5 0.103927 0.503765 0.323491
Si Si6 0.102285 0.146185 0.326672
Si Si7 0.904501 0.285199 0.828688
O O1 0.650617 0.933852 0.227545
O O2 0.818411 0.890623 0.241637
O O3 0.677831 0.817026 0.240813
O O4 0.723992 0.875033 0.000000
O O5 0.779742 0.604788 0.500000
O O6 0.826671 0.671325 0.275002
O O7 0.673355 0.607199 0.270381
O O8 0.835725 0.551559 0.257027
O O9 0.933591 0.705876 0.500000
O O10 0.884337 0.782921 0.710211
O O11 0.998648 0.692180 0.764282
O O12 0.893447 0.214029 0.195101
O O13 0.003468 0.123179 0.268596
O O14 0.938630 0.130227 0.000000
O O15 0.101338 0.499043 0.500000
O O16 0.000000 0.500000 0.259760
O O17 0.109233 0.132629 0.500000
O O18 0.897223 0.303577 0.000000
#
# Coordination Sequence:
#
# PCOD8235971 Si02
#       7
#     8   8   8   8   8   8   8
#     4  11  21  33  52  76 102 136 175 211 252 303
#     4   9  16  30  53  76  99 129 168 216 259 294
#     4   9  17  31  53  79 104 133 168 206 254 307
#     4   9  18  33  53  77 103 132 169 211 256 307
#     4   9  18  32  52  78 102 126 166 217 257 293
#     4  10  20  34  52  76 106 136 167 208 258 308
#     4  10  19  31  49  76 108 137 166 206 256 307
#
# _framework density 19.381229000000001
#
# number of rings (size 3 to 8) (size 9 to 14) (size 15 to 20)
#    0.000    2.429    0.000    3.000    0.000    5.714 
#    0.000    1.429    0.000   13.714    0.000    0.000 
#    0.000    0.000    0.000    0.000    0.000    0.000 
#
# Total GULP energy -694437.258541 kJ/mol
# GULP energy per Si atom -12400.665331 kJ/mol
# Density = 1.933712 g / cm^3
# Si number density = 19.381229 Si / 1000 Ang^3
#
#
#
# Elastic Constant Matrix: (Units=GPa)
#
#
# Indices 1 2 3 4 5 6 
#
# 1 177.3164 54.4532 51.0756 0.0000 0.0000 0.0000
# 2 54.4532 53.1185 25.7344 0.0000 0.0000 0.0000
# 3 51.0756 25.7344 60.5462 0.0000 0.0000 0.0000
# 4 0.0000 0.0000 0.0000 14.9933 0.0000 0.0000
# 5 0.0000 0.0000 0.0000 0.0000 31.7253 0.0000
# 6 0.0000 0.0000 0.0000 0.0000 0.0000 32.0770
#
#
#
# Elastic Compliance Matrix: (Units=1/GPa)
#
#
# Indices 1 2 3 4 5 6 
#
# 1 0.009190 -0.007134 -0.004720 0.000000 0.000000 0.000000
# 2 -0.007134 0.029246 -0.006412 0.000000 0.000000 0.000000
# 3 -0.004720 -0.006412 0.023224 0.000000 0.000000 0.000000
# 4 0.000000 0.000000 0.000000 0.066696 0.000000 0.000000
# 5 0.000000 0.000000 0.000000 0.000000 0.031521 0.000000
# 6 0.000000 0.000000 0.000000 0.000000 0.000000 0.031175
#
#
# Mechanical properties :
#
#
# Convention : Reuss Voigt Hill
#
# Bulk Modulus (GPa) = 39.79924 61.50083 50.65003
# Shear Modulus (GPa) = 21.18992 26.40698 23.79845
#
# Velocity S-wave (km/s) = 3.31013 3.69521 3.50796
# Velocity P-wave (km/s) = 5.93201 7.07158 6.52671
#
# Compressibility (1/GPa) = 0.02512611
#
# Stress axis : x y z
#
# Youngs Moduli (GPa) = 108.81110 34.19277 43.05933
#
# Poissons Ratio (x) = 0.24394 0.20326
# Poissons Ratio (y) = 0.77629 0.27611
# Poissons Ratio (z) = 0.51363 0.21925
#
# Static dielectric constant tensor:
#      x y z
#    x 3.824420 0.000000 0.000000 
#    y 0.000000 3.428500 0.000000 
#    z 0.000000 0.000000 3.260740 
# 
# 
# High freq. dielectric constant tensor:
#      x y z
#    x 1.772280 0.000000 0.000000 
#    y 0.000000 1.733400 0.000000 
#    z 0.000000 0.000000 1.723590 
# 
# From -- ./inp_files/6249.got.cif
#   From: 2010.06.25/outbox.cif.g09.slc.cpg/sg58_4_cif.got.tgz:6249.got - 2010.06.26 21:38:00.
