data_PCOD8235857
_publ_section_title
;
Structure prediction by ZEFSAII (Michael W. Deem and Ramdas Pophale) SiO2 
 PCOD8235857
Probable space group: P N N M
;
_chemical_formula_sum "Si O2"
_cell_formula_units_Z 48
_cell_length_a 20.224519
_cell_length_b 14.758136
_cell_length_c 9.490739
_cell_angle_alpha 90.000000
_cell_angle_beta 90.000000
_cell_angle_gamma 90.000000
_cell_volume 2832.759730
_symmetry_space_group_name_H-M "P N N M"
_symmetry_group_IT_number 58
_symmetry_cell_setting 'orthorhombic'
loop_
_space_group_symop_operation_xyz
x,y,z
-x,-y,z
1/2+x,1/2-y,1/2-z
1/2-x,1/2+y,1/2-z
-x,-y,-z
x,y,-z
1/2-x,1/2+y,1/2+z
1/2+x,1/2-y,1/2+z
loop_
_atom_site_type_symbol
_atom_site_label
_atom_site_fract_x
_atom_site_fract_y
_atom_site_fract_z
Si Si1 0.166025 0.818279 0.836108
Si Si2 0.693892 0.508843 0.833641
Si Si3 0.446393 0.573605 0.835450
Si Si4 0.043600 0.580946 0.832794
Si Si5 0.187693 0.617060 0.167294
Si Si6 0.985389 0.218829 0.837304
O O1 0.196173 0.721819 0.785970
O O2 0.087706 0.819316 0.807309
O O3 0.201029 0.895344 0.743995
O O4 0.180924 0.836247 0.000000
O O5 0.625537 0.461252 0.792120
O O6 0.752014 0.443592 0.777025
O O7 0.698721 0.526295 0.000000
O O8 0.500000 0.500000 0.787312
O O9 0.460456 0.666440 0.754088
O O10 0.451654 0.594265 0.000000
O O11 0.118572 0.576818 0.772949
O O12 0.010333 0.676273 0.791704
O O13 0.000000 0.500000 0.766088
O O14 0.046486 0.571827 0.000000
O O15 0.184782 0.615815 0.000000
O O16 0.003889 0.206491 0.000000
#
# Coordination Sequence:
#
# PCOD8235857 Si02
#       6
#     8   8   8   8   8   8
#     4   9  17  31  50  68  90 123 157 190 233 279
#     4  10  19  32  49  68  94 128 160 190 227 277
#     4  10  19  30  45  68  97 127 157 187 226 276
#     4   8  14  28  50  72  93 118 152 194 237 278
#     4   8  16  31  48  66  91 125 158 185 229 287
#     4   9  17  29  48  72  94 119 153 195 236 274
#
# _framework density 16.944607000000001
#
# number of rings (size 3 to 8) (size 9 to 14) (size 15 to 20)
#    0.000    3.000    1.667    2.000    0.000    1.000 
#    3.000    0.833    0.000    1.500    0.000    0.000 
#    0.000    0.000    0.000    0.000    0.000    0.000 
#
# Total GULP energy -595072.066860 kJ/mol
# GULP energy per Si atom -12397.334726 kJ/mol
# Density = 1.690604 g / cm^3
# Si number density = 16.944607 Si / 1000 Ang^3
#
#
#
# Elastic Constant Matrix: (Units=GPa)
#
#
# Indices 1 2 3 4 5 6 
#
# 1 110.9994 88.4263 28.7073 0.0000 0.0000 0.0000
# 2 88.4263 157.3960 43.5193 0.0000 0.0000 0.0000
# 3 28.7073 43.5193 28.7264 0.0000 0.0000 0.0000
# 4 0.0000 0.0000 0.0000 23.4759 0.0000 0.0000
# 5 0.0000 0.0000 0.0000 0.0000 11.6130 0.0000
# 6 0.0000 0.0000 0.0000 0.0000 0.0000 33.9416
#
#
#
# Elastic Compliance Matrix: (Units=1/GPa)
#
#
# Indices 1 2 3 4 5 6 
#
# 1 0.016602 -0.008156 -0.004234 0.000000 0.000000 0.000000
# 2 -0.008156 0.014940 -0.014483 0.000000 0.000000 0.000000
# 3 -0.004234 -0.014483 0.060984 0.000000 0.000000 0.000000
# 4 0.000000 0.000000 0.000000 0.042597 0.000000 0.000000
# 5 0.000000 0.000000 0.000000 0.000000 0.086110 0.000000
# 6 0.000000 0.000000 0.000000 0.000000 0.000000 0.029462
#
#
# Mechanical properties :
#
#
# Convention : Reuss Voigt Hill
#
# Bulk Modulus (GPa) = 25.78742 68.71418 47.25080
# Shear Modulus (GPa) = 15.75461 22.90403 19.32932
#
# Velocity S-wave (km/s) = 3.05252 3.68054 3.38114
# Velocity P-wave (km/s) = 5.26076 7.66173 6.57182
#
# Compressibility (1/GPa) = 0.03877860
#
# Stress axis : x y z
#
# Youngs Moduli (GPa) = 60.23485 66.93423 16.39787
#
# Poissons Ratio (x) = 0.54593 0.06943
# Poissons Ratio (y) = 0.49129 0.23749
# Poissons Ratio (z) = 0.25506 0.96939
#
# Static dielectric constant tensor:
#      x y z
#    x 3.307900 0.000000 0.000000 
#    y 0.000000 3.300170 0.000000 
#    z 0.000000 0.000000 2.777520 
# 
# 
# High freq. dielectric constant tensor:
#      x y z
#    x 1.644540 0.000000 0.000000 
#    y 0.000000 1.661410 0.000000 
#    z 0.000000 0.000000 1.614630 
# 
# From -- ./inp_files/4234.got.cif
#   From: 2010.06.25/outbox.cif.g09.slc.cpg/sg58_3_cif.got.tgz:4234.got - 2010.06.26 21:38:00.
