data_PCOD8235819
_publ_section_title
;
Structure prediction by ZEFSAII (Michael W. Deem and Ramdas Pophale) SiO2 
 PCOD8235819
Probable space group: P N N M
;
_chemical_formula_sum "Si O2"
_cell_formula_units_Z 64
_cell_length_a 5.159291
_cell_length_b 21.789825
_cell_length_c 38.560552
_cell_angle_alpha 90.000000
_cell_angle_beta 90.000000
_cell_angle_gamma 90.000000
_cell_volume 4334.979107
_symmetry_space_group_name_H-M "P N N M"
_symmetry_group_IT_number 58
_symmetry_cell_setting 'orthorhombic'
loop_
_space_group_symop_operation_xyz
x,y,z
-x,-y,z
1/2+x,1/2-y,1/2-z
1/2-x,1/2+y,1/2-z
-x,-y,-z
x,y,-z
1/2-x,1/2+y,1/2+z
1/2+x,1/2-y,1/2+z
loop_
_atom_site_type_symbol
_atom_site_label
_atom_site_fract_x
_atom_site_fract_y
_atom_site_fract_z
Si Si1 0.526142 0.066202 0.460462
Si Si2 0.476232 0.168553 0.752386
Si Si3 0.546959 0.771101 0.644925
Si Si4 0.441022 0.307371 0.891987
Si Si5 0.541453 0.359710 0.039712
Si Si6 0.475791 0.296660 0.287786
Si Si7 0.058276 0.933453 0.647488
Si Si8 0.048580 0.603857 0.184222
O O1 0.436592 0.057854 0.500000
O O2 0.313419 0.113347 0.445375
O O3 0.818243 0.089164 0.457306
O O4 0.500000 0.000000 0.441542
O O5 0.469119 0.231662 0.731319
O O6 0.731103 0.163172 0.775879
O O7 0.469869 0.111223 0.725803
O O8 0.231350 0.165347 0.778009
O O9 0.317336 0.769141 0.616637
O O10 0.535102 0.712760 0.670601
O O11 0.491901 0.830619 0.667543
O O12 0.824099 0.772742 0.626543
O O13 0.473930 0.304724 0.933797
O O14 0.424959 0.379816 0.881346
O O15 0.561173 0.335052 0.000000
O O16 0.324859 0.940485 0.669277
O O17 0.833607 0.919172 0.675029
O O18 0.000000 0.000000 0.629882
#
# Coordination Sequence:
#
# PCOD8235819 Si02
#       8
#     8   8   8   8   8   8   8   8
#     4   9  17  28  40  52  64  76  93 126 173 216
#     4   9  15  23  37  55  72  87 105 128 157 190
#     4   9  17  28  40  53  72  90 106 128 162 206
#     4  10  19  30  40  52  68  89 112 141 175 208
#     4  10  19  30  42  54  66  82 107 139 177 217
#     4   9  15  23  37  56  72  88 105 123 152 199
#     4  10  19  29  39  50  66  91 120 144 170 207
#     4   9  17  28  39  52  70  89 110 139 166 193
#
# _framework density 14.763623000000001
#
# number of rings (size 3 to 8) (size 9 to 14) (size 15 to 20)
#    0.000    2.625    0.000    3.000    0.000    8.500 
#    0.000    0.000    0.000    0.000    0.000    0.000 
#    0.000    0.000    0.000    0.000    0.000    0.000 
#
# Total GULP energy -793282.411137 kJ/mol
# GULP energy per Si atom -12395.037674 kJ/mol
# Density = 1.473002 g / cm^3
# Si number density = 14.763623 Si / 1000 Ang^3
#
#
#
# Elastic Constant Matrix: (Units=GPa)
#
#
# Indices 1 2 3 4 5 6 
#
# 1 79.2349 1.2721 12.5706 0.0000 0.0000 0.0000
# 2 1.2721 4.7237 10.4445 0.0000 0.0000 0.0000
# 3 12.5706 10.4445 67.7005 0.0000 0.0000 0.0000
# 4 0.0000 0.0000 0.0000 10.3056 0.0000 0.0000
# 5 0.0000 0.0000 0.0000 0.0000 14.9256 0.0000
# 6 0.0000 0.0000 0.0000 0.0000 0.0000 12.0823
#
#
#
# Elastic Compliance Matrix: (Units=1/GPa)
#
#
# Indices 1 2 3 4 5 6 
#
# 1 0.013028 0.002793 -0.002850 0.000000 0.000000 0.000000
# 2 0.002793 0.321901 -0.050180 0.000000 0.000000 0.000000
# 3 -0.002850 -0.050180 0.023042 0.000000 0.000000 0.000000
# 4 0.000000 0.000000 0.000000 0.097035 0.000000 0.000000
# 5 0.000000 0.000000 0.000000 0.000000 0.066999 0.000000
# 6 0.000000 0.000000 0.000000 0.000000 0.000000 0.082766
#
#
# Mechanical properties :
#
#
# Convention : Reuss Voigt Hill
#
# Bulk Modulus (GPa) = 3.88354 22.24816 13.06585
# Shear Modulus (GPa) = 6.32049 15.95413 11.13731
#
# Velocity S-wave (km/s) = 2.07133 3.29087 2.74957
# Velocity P-wave (km/s) = 2.89080 5.43526 4.35309
#
# Compressibility (1/GPa) = 0.25749729
#
# Stress axis : x y z
#
# Youngs Moduli (GPa) = 76.75772 3.10654 43.39963
#
# Poissons Ratio (x) = -0.00868 0.12369
# Poissons Ratio (y) = -0.21439 2.17780
# Poissons Ratio (z) = 0.21876 0.15589
#
# Static dielectric constant tensor:
#      x y z
#    x 3.058270 0.000000 0.000000 
#    y 0.000000 2.347070 0.000000 
#    z 0.000000 0.000000 2.879550 
# 
# 
# High freq. dielectric constant tensor:
#      x y z
#    x 1.592790 0.000000 0.000000 
#    y 0.000000 1.478480 0.000000 
#    z 0.000000 0.000000 1.551970 
# 
# From -- ./inp_files/33027.got.cif
#   From: 2010.06.25/outbox.cif.g09.slc.cpg/sg58_17_cif.got.tgz:33027.got - 2010.06.26 21:38:00.
