data_PCOD8235279
_publ_section_title
;
Structure prediction by ZEFSAII (Michael W. Deem and Ramdas Pophale) SiO2 
 PCOD8235279
Probable space group: P N N M
;
_chemical_formula_sum "Si O2"
_cell_formula_units_Z 56
_cell_length_a 9.271371
_cell_length_b 16.583698
_cell_length_c 20.151271
_cell_angle_alpha 90.000000
_cell_angle_beta 90.000000
_cell_angle_gamma 90.000000
_cell_volume 3098.330798
_symmetry_space_group_name_H-M "P N N M"
_symmetry_group_IT_number 58
_symmetry_cell_setting 'orthorhombic'
loop_
_space_group_symop_operation_xyz
x,y,z
-x,-y,z
1/2+x,1/2-y,1/2-z
1/2-x,1/2+y,1/2-z
-x,-y,-z
x,y,-z
1/2-x,1/2+y,1/2+z
1/2+x,1/2-y,1/2+z
loop_
_atom_site_type_symbol
_atom_site_label
_atom_site_fract_x
_atom_site_fract_y
_atom_site_fract_z
Si Si1 0.270862 0.226987 0.333239
Si Si2 0.154871 0.361181 0.425550
Si Si3 0.955485 0.220925 0.718230
Si Si4 0.892069 0.385551 0.666057
Si Si5 0.124290 0.556391 0.185316
Si Si6 0.861413 0.051642 0.728562
Si Si7 0.332871 0.488544 0.630394
O O1 0.223612 0.278254 0.397158
O O2 0.402760 0.269423 0.294272
O O3 0.331634 0.138151 0.354165
O O4 0.130039 0.220703 0.284886
O O5 0.101767 0.342163 0.500000
O O6 0.273102 0.432366 0.428391
O O7 0.026507 0.400622 0.382298
O O8 0.879403 0.288570 0.672567
O O9 0.897154 0.135233 0.692317
O O10 0.923252 0.420441 0.739609
O O11 0.747260 0.424216 0.635047
O O12 0.261751 0.498928 0.180182
O O13 0.000000 0.500000 0.152752
O O14 0.794069 0.062148 0.802281
O O15 0.000000 0.000000 0.745054
O O16 0.500000 0.500000 0.615735
#
# Coordination Sequence:
#
# PCOD8235279 Si02
#       7
#     8   8   8   8   8   8   8
#     4  10  21  34  50  80 108 134 175 213 270 313
#     4  11  22  37  55  71 101 147 184 211 244 306
#     4  10  19  31  50  76 109 137 166 217 270 316
#     4   9  20  34  51  77 107 141 175 215 258 313
#     4  10  19  31  51  79 109 133 166 216 271 323
#     4  10  17  30  49  75 109 139 160 207 270 323
#     4  10  20  33  50  74 106 135 177 216 257 300
#
# _framework density 18.074247
#
# number of rings (size 3 to 8) (size 9 to 14) (size 15 to 20)
#    0.000    2.000    2.857    2.143    6.000    1.429 
#    0.000    0.000    0.000    0.429    0.000    8.000 
#    0.000    0.000    0.000    0.000    0.000    0.000 
#
# Total GULP energy -693875.786633 kJ/mol
# GULP energy per Si atom -12390.639047 kJ/mol
# Density = 1.803311 g / cm^3
# Si number density = 18.074247 Si / 1000 Ang^3
#
#
#
# Elastic Constant Matrix: (Units=GPa)
#
#
# Indices 1 2 3 4 5 6 
#
# 1 87.5080 42.5321 21.0402 0.0000 0.0000 0.0000
# 2 42.5321 127.4507 17.9140 0.0000 0.0000 0.0000
# 3 21.0402 17.9140 41.1248 0.0000 0.0000 0.0000
# 4 0.0000 0.0000 0.0000 14.1435 0.0000 0.0000
# 5 0.0000 0.0000 0.0000 0.0000 10.5240 0.0000
# 6 0.0000 0.0000 0.0000 0.0000 0.0000 39.2918
#
#
#
# Elastic Compliance Matrix: (Units=1/GPa)
#
#
# Indices 1 2 3 4 5 6 
#
# 1 0.014828 -0.004135 -0.005785 0.000000 0.000000 0.000000
# 2 -0.004135 0.009511 -0.002027 0.000000 0.000000 0.000000
# 3 -0.005785 -0.002027 0.028159 0.000000 0.000000 0.000000
# 4 0.000000 0.000000 0.000000 0.070704 0.000000 0.000000
# 5 0.000000 0.000000 0.000000 0.000000 0.095021 0.000000
# 6 0.000000 0.000000 0.000000 0.000000 0.000000 0.025451
#
#
# Mechanical properties :
#
#
# Convention : Reuss Voigt Hill
#
# Bulk Modulus (GPa) = 34.96130 46.56179 40.76154
# Shear Modulus (GPa) = 18.04375 24.43167 21.23771
#
# Velocity S-wave (km/s) = 3.16304 3.68059 3.43158
# Velocity P-wave (km/s) = 5.72057 6.62417 6.18888
#
# Compressibility (1/GPa) = 0.02860306
#
# Stress axis : x y z
#
# Youngs Moduli (GPa) = 67.43821 105.13989 35.51245
#
# Poissons Ratio (x) = 0.43479 0.20544
# Poissons Ratio (y) = 0.27888 0.07200
# Poissons Ratio (z) = 0.39014 0.21316
#
# Static dielectric constant tensor:
#      x y z
#    x 3.372670 0.000000 0.000000 
#    y 0.000000 3.565090 0.000000 
#    z 0.000000 0.000000 2.756990 
# 
# 
# High freq. dielectric constant tensor:
#      x y z
#    x 1.710330 0.000000 0.000000 
#    y 0.000000 1.720230 0.000000 
#    z 0.000000 0.000000 1.620880 
# 
# From -- ./inp_files/29046.got.cif
#   From: 2010.06.25/outbox.cif.g09.slc.cpg/sg58_15_cif.got.tgz:29046.got - 2010.06.26 21:38:00.
