data_PCOD8235272
_publ_section_title
;
Structure prediction by ZEFSAII (Michael W. Deem and Ramdas Pophale) SiO2 
 PCOD8235272
Probable space group: P N N M
;
_chemical_formula_sum "Si O2"
_cell_formula_units_Z 56
_cell_length_a 24.832913
_cell_length_b 14.338102
_cell_length_c 9.153999
_cell_angle_alpha 90.000000
_cell_angle_beta 90.000000
_cell_angle_gamma 90.000000
_cell_volume 3259.343953
_symmetry_space_group_name_H-M "P N N M"
_symmetry_group_IT_number 58
_symmetry_cell_setting 'orthorhombic'
loop_
_space_group_symop_operation_xyz
x,y,z
-x,-y,z
1/2+x,1/2-y,1/2-z
1/2-x,1/2+y,1/2-z
-x,-y,-z
x,y,-z
1/2-x,1/2+y,1/2+z
1/2+x,1/2-y,1/2+z
loop_
_atom_site_type_symbol
_atom_site_label
_atom_site_fract_x
_atom_site_fract_y
_atom_site_fract_z
Si Si1 0.502033 0.391429 0.826125
Si Si2 0.606532 0.697283 0.166915
Si Si3 0.186731 0.652879 0.325499
Si Si4 0.892006 0.855114 0.828580
Si Si5 0.209024 0.265660 0.826839
Si Si6 0.837661 0.010573 0.662193
Si Si7 0.714228 0.024946 0.666742
O O1 0.500000 0.500000 0.777633
O O2 0.449260 0.338285 0.761263
O O3 0.552283 0.337230 0.755328
O O4 0.505761 0.384956 0.000000
O O5 0.633647 0.791027 0.231809
O O6 0.652918 0.619949 0.183728
O O7 0.592669 0.716608 0.000000
O O8 0.188316 0.647203 0.500000
O O9 0.240636 0.705310 0.266322
O O10 0.180428 0.549129 0.260896
O O11 0.847458 0.780045 0.777944
O O12 0.870448 0.956894 0.785768
O O13 0.902590 0.851170 0.000000
O O14 0.208830 0.371380 0.765225
O O15 0.214528 0.269507 0.000000
O O16 0.858608 0.980578 0.500000
O O17 0.775186 0.990192 0.677518
O O18 0.693526 0.023564 0.500000
#
# Coordination Sequence:
#
# PCOD8235272 Si02
#       7
#     8   8   8   8   8   8   8
#     4  10  19  33  53  74  97 131 173 206 241 296
#     4   9  17  31  52  73  97 133 168 198 243 300
#     4  10  18  32  52  74 100 130 164 204 252 296
#     4  11  21  32  48  74 105 135 163 200 251 297
#     4   9  18  32  50  71 101 136 163 194 248 306
#     4  10  17  29  50  74  99 131 168 201 236 294
#     4  10  19  32  51  74 101 134 169 202 241 297
#
# _framework density 17.181373000000001
#
# number of rings (size 3 to 8) (size 9 to 14) (size 15 to 20)
#    0.000    2.143    4.286    0.429    0.000    0.286 
#    0.000    3.571    0.000    0.857    0.000    6.000 
#    0.000    0.000    0.000    0.000    0.000    0.000 
#
# Total GULP energy -694100.406424 kJ/mol
# GULP energy per Si atom -12394.650115 kJ/mol
# Density = 1.714227 g / cm^3
# Si number density = 17.181373 Si / 1000 Ang^3
#
#
#
# Elastic Constant Matrix: (Units=GPa)
#
#
# Indices 1 2 3 4 5 6 
#
# 1 88.0701 35.3627 23.6997 0.0000 0.0000 0.0000
# 2 35.3627 85.5867 18.5357 0.0000 0.0000 0.0000
# 3 23.6997 18.5357 27.6978 0.0000 0.0000 0.0000
# 4 0.0000 0.0000 0.0000 25.1372 0.0000 0.0000
# 5 0.0000 0.0000 0.0000 0.0000 18.3718 0.0000
# 6 0.0000 0.0000 0.0000 0.0000 0.0000 29.8525
#
#
#
# Elastic Compliance Matrix: (Units=1/GPa)
#
#
# Indices 1 2 3 4 5 6 
#
# 1 0.015976 -0.004257 -0.010821 0.000000 0.000000 0.000000
# 2 -0.004257 0.014799 -0.006261 0.000000 0.000000 0.000000
# 3 -0.010821 -0.006261 0.049553 0.000000 0.000000 0.000000
# 4 0.000000 0.000000 0.000000 0.039782 0.000000 0.000000
# 5 0.000000 0.000000 0.000000 0.000000 0.054431 0.000000
# 6 0.000000 0.000000 0.000000 0.000000 0.000000 0.033498
#
#
# Mechanical properties :
#
#
# Convention : Reuss Voigt Hill
#
# Bulk Modulus (GPa) = 26.56072 39.61676 33.08874
# Shear Modulus (GPa) = 18.99216 22.92273 20.95744
#
# Velocity S-wave (km/s) = 3.32835 3.65658 3.49632
# Velocity P-wave (km/s) = 5.50119 6.39808 5.96652
#
# Compressibility (1/GPa) = 0.03764958
#
# Stress axis : x y z
#
# Youngs Moduli (GPa) = 62.59406 67.57183 20.18056
#
# Poissons Ratio (x) = 0.28768 0.21837
# Poissons Ratio (y) = 0.26649 0.12635
# Poissons Ratio (z) = 0.67731 0.42306
#
# Static dielectric constant tensor:
#      x y z
#    x 3.322430 0.000000 0.000000 
#    y 0.000000 3.213630 0.000000 
#    z 0.000000 0.000000 2.906680 
# 
# 
# High freq. dielectric constant tensor:
#      x y z
#    x 1.657900 0.000000 0.000000 
#    y 0.000000 1.653410 0.000000 
#    z 0.000000 0.000000 1.629340 
# 
# From -- ./inp_files/17503.got.cif
#   From: 2010.06.25/outbox.cif.g09.slc.cpg/sg58_9_cif.got.tgz:17503.got - 2010.06.26 21:38:00.
