data_PCOD8235143
_publ_section_title
;
Structure prediction by ZEFSAII (Michael W. Deem and Ramdas Pophale) SiO2 
 PCOD8235143
Probable space group: P B C M
;
_chemical_formula_sum "Si O2"
_cell_formula_units_Z 48
_cell_length_a 9.532897
_cell_length_b 30.640512
_cell_length_c 8.866808
_cell_angle_alpha 90.000000
_cell_angle_beta 90.000000
_cell_angle_gamma 90.000000
_cell_volume 2589.931174
_symmetry_space_group_name_H-M "P B C M"
_symmetry_group_IT_number 57
_symmetry_cell_setting 'orthorhombic'
loop_
_space_group_symop_operation_xyz
x,y,z
-x,-y,1/2+z
x,1/2-y,-z
-x,1/2+y,1/2-z
-x,-y,-z
x,y,1/2-z
-x,1/2+y,z
x,1/2-y,1/2+z
loop_
_atom_site_type_symbol
_atom_site_label
_atom_site_fract_x
_atom_site_fract_y
_atom_site_fract_z
Si Si1 0.798686 0.796769 0.072555
Si Si2 0.703801 0.394461 0.573305
Si Si3 0.438816 0.139055 0.576026
Si Si4 0.780173 0.563133 0.578249
Si Si5 0.645686 0.486184 0.072701
Si Si6 0.983464 0.130648 0.926445
O O1 0.794178 0.791700 0.250000
O O2 0.655296 0.820310 0.019389
O O3 0.931541 0.826127 0.026100
O O4 0.814122 0.750000 0.000000
O O5 0.699156 0.403717 0.750000
O O6 0.576049 0.362831 0.527490
O O7 0.696002 0.439545 0.484058
O O8 0.846039 0.369956 0.528588
O O9 0.482871 0.145010 0.750000
O O10 0.352676 0.094537 0.555851
O O11 0.785240 0.546525 0.750000
O O12 0.764555 0.521582 0.469406
O O13 0.922926 0.588134 0.536939
O O14 0.625485 0.483919 0.250000
O O15 0.500000 0.500000 0.000000
O O16 0.944189 0.131566 0.750000
#
# Coordination Sequence:
#
# PCOD8235143 Si02
#       6
#     8   8   8   8   8   8
#     4   9  19  37  63  90 112 142 181 224 279 339
#     4  12  24  36  54  83 114 149 190 233 282 330
#     4   9  18  35  58  81 110 145 181 227 279 329
#     4   9  18  35  58  80 105 145 194 235 274 325
#     4  12  23  35  54  80 112 150 192 237 281 326
#     4   9  20  39  59  81 113 152 187 227 284 338
#
# _framework density 18.533311000000001
#
# number of rings (size 3 to 8) (size 9 to 14) (size 15 to 20)
#    0.000    2.000    1.667    5.000    0.000    2.667 
#    0.000    4.167    0.000    0.000    0.000    0.000 
#    0.000    0.000    0.000    0.000    0.000    0.000 
#
# Total GULP energy -595303.293209 kJ/mol
# GULP energy per Si atom -12402.151942 kJ/mol
# Density = 1.849113 g / cm^3
# Si number density = 18.533311 Si / 1000 Ang^3
#
#
#
# Elastic Constant Matrix: (Units=GPa)
#
#
# Indices 1 2 3 4 5 6 
#
# 1 122.9299 50.8459 55.7419 0.0000 0.0000 0.0000
# 2 50.8459 121.5015 49.4280 0.0000 0.0000 0.0000
# 3 55.7419 49.4280 107.4458 0.0000 0.0000 0.0000
# 4 0.0000 0.0000 0.0000 34.0834 0.0000 0.0000
# 5 0.0000 0.0000 0.0000 0.0000 28.2689 0.0000
# 6 0.0000 0.0000 0.0000 0.0000 0.0000 20.6187
#
#
#
# Elastic Compliance Matrix: (Units=1/GPa)
#
#
# Indices 1 2 3 4 5 6 
#
# 1 0.011418 -0.002914 -0.004583 0.000000 0.000000 0.000000
# 2 -0.002914 0.010869 -0.003488 0.000000 0.000000 0.000000
# 3 -0.004583 -0.003488 0.013289 0.000000 0.000000 0.000000
# 4 0.000000 0.000000 0.000000 0.029340 0.000000 0.000000
# 5 0.000000 0.000000 0.000000 0.000000 0.035375 0.000000
# 6 0.000000 0.000000 0.000000 0.000000 0.000000 0.048500
#
#
# Mechanical properties :
#
#
# Convention : Reuss Voigt Hill
#
# Bulk Modulus (GPa) = 73.49797 73.76765 73.63281
# Shear Modulus (GPa) = 28.52312 29.65160 29.08736
#
# Velocity S-wave (km/s) = 3.92729 4.00423 3.96594
# Velocity P-wave (km/s) = 7.76583 7.82736 7.79666
#
# Compressibility (1/GPa) = 0.01360582
#
# Stress axis : x y z
#
# Youngs Moduli (GPa) = 87.58004 92.00666 75.24759
#
# Poissons Ratio (x) = 0.26808 0.34488
# Poissons Ratio (y) = 0.25519 0.26249
# Poissons Ratio (z) = 0.40140 0.32095
#
# Static dielectric constant tensor:
#      x y z
#    x 3.470310 0.000000 0.000000 
#    y 0.000000 3.061140 0.000000 
#    z 0.000000 0.000000 3.386620 
# 
# 
# High freq. dielectric constant tensor:
#      x y z
#    x 1.720640 0.000000 0.000000 
#    y 0.000000 1.708420 0.000000 
#    z 0.000000 0.000000 1.713670 
# 
# From -- ./inp_files/1991.got.cif
#   From: 2010.03.12/outbox.cif.g09.slc.cpg/sg57_1_cif.got.tgz:1991.got - 2010.04.16 15:48:40.
