data_PCOD8235642
_publ_section_title
;
Structure prediction by ZEFSAII (Michael W. Deem and Ramdas Pophale) SiO2 
 PCOD8235642
Probable space group: P N N M
;
_chemical_formula_sum "Si O2"
_cell_formula_units_Z 56
_cell_length_a 8.569540
_cell_length_b 16.921866
_cell_length_c 18.696316
_cell_angle_alpha 90.000000
_cell_angle_beta 90.000000
_cell_angle_gamma 90.000000
_cell_volume 2711.201535
_symmetry_space_group_name_H-M "P N N M"
_symmetry_group_IT_number 58
_symmetry_cell_setting 'orthorhombic'
loop_
_space_group_symop_operation_xyz
x,y,z
-x,-y,z
1/2+x,1/2-y,1/2-z
1/2-x,1/2+y,1/2-z
-x,-y,-z
x,y,-z
1/2-x,1/2+y,1/2+z
1/2+x,1/2-y,1/2+z
loop_
_atom_site_type_symbol
_atom_site_label
_atom_site_fract_x
_atom_site_fract_y
_atom_site_fract_z
Si Si1 0.364771 0.109614 0.312846
Si Si2 0.720994 0.061513 0.686629
Si Si3 0.263608 0.378453 0.336266
Si Si4 0.821030 0.475202 0.420563
Si Si5 0.774835 0.190043 0.581112
Si Si6 0.080636 0.739540 0.918333
Si Si7 0.593150 0.829260 0.836637
O O1 0.538281 0.076820 0.305446
O O2 0.336916 0.162481 0.383391
O O3 0.337055 0.165209 0.243573
O O4 0.249841 0.033339 0.315652
O O5 0.808465 0.101883 0.754177
O O6 0.780822 0.101474 0.613376
O O7 0.280398 0.460108 0.379278
O O8 0.382337 0.316622 0.371420
O O9 0.089778 0.345008 0.341048
O O10 0.752837 0.467042 0.500000
O O11 0.806137 0.390931 0.382818
O O12 0.000000 0.500000 0.421231
O O13 0.837298 0.186547 0.500000
O O14 0.603458 0.227074 0.584096
O O15 0.885714 0.242772 0.630575
O O16 0.140965 0.748763 0.000000
#
# Coordination Sequence:
#
# PCOD8235642 Si02
#       7
#     8   8   8   8   8   8   8
#     4   9  17  32  54  77  99 128 171 214 248 289
#     4   9  17  32  54  77  99 128 171 214 248 289
#     4  10  18  32  54  76  98 128 169 213 251 291
#     4   9  16  26  45  73  98 122 158 203 245 287
#     4  10  21  34  49  74 107 137 164 201 251 303
#     4  10  21  34  49  74 107 137 164 201 251 303
#     4  10  18  32  54  76  98 128 169 213 251 291
#
# _framework density 20.655048000000001
#
# number of rings (size 3 to 8) (size 9 to 14) (size 15 to 20)
#    0.000    2.429    1.429    1.714    0.000    2.286 
#    0.000    3.571    0.000    5.143    0.000    2.000 
#    0.000    0.000    0.000    0.000    0.000    0.000 
#
# Total GULP energy -694269.046232 kJ/mol
# GULP energy per Si atom -12397.661540 kJ/mol
# Density = 2.060804 g / cm^3
# Si number density = 20.655048 Si / 1000 Ang^3
#
#
#
# Elastic Constant Matrix: (Units=GPa)
#
#
# Indices 1 2 3 4 5 6 
#
# 1 6.1849 -5.0281 3.6362 0.0000 0.0000 0.0000
# 2 -5.0281 31.1500 20.5402 0.0000 0.0000 0.0000
# 3 3.6362 20.5402 111.5409 0.0000 0.0000 0.0000
# 4 0.0000 0.0000 0.0000 36.5018 0.0000 0.0000
# 5 0.0000 0.0000 0.0000 0.0000 18.7504 0.0000
# 6 0.0000 0.0000 0.0000 0.0000 0.0000 19.6656
#
#
#
# Elastic Compliance Matrix: (Units=1/GPa)
#
#
# Indices 1 2 3 4 5 6 
#
# 1 0.204913 0.042661 -0.014536 0.000000 0.000000 0.000000
# 2 0.042661 0.045421 -0.009755 0.000000 0.000000 0.000000
# 3 -0.014536 -0.009755 0.011236 0.000000 0.000000 0.000000
# 4 0.000000 0.000000 0.000000 0.027396 0.000000 0.000000
# 5 0.000000 0.000000 0.000000 0.000000 0.053332 0.000000
# 6 0.000000 0.000000 0.000000 0.000000 0.000000 0.050850
#
#
# Mechanical properties :
#
#
# Convention : Reuss Voigt Hill
#
# Bulk Modulus (GPa) = 3.35221 20.79693 12.07457
# Shear Modulus (GPa) = 10.96863 23.63207 17.30035
#
# Velocity S-wave (km/s) = 2.30693 3.38617 2.89725
# Velocity P-wave (km/s) = 2.95336 5.03773 4.12923
#
# Compressibility (1/GPa) = 0.29831041
#
# Stress axis : x y z
#
# Youngs Moduli (GPa) = 4.88011 22.01607 89.00290
#
# Poissons Ratio (x) = -0.93923 1.29376
# Poissons Ratio (y) = -0.20819 0.86823
# Poissons Ratio (z) = 0.07094 0.21477
#
# Static dielectric constant tensor:
#      x y z
#    x 3.140990 0.000000 0.000000 
#    y 0.000000 3.819410 0.000000 
#    z 0.000000 0.000000 4.011480 
# 
# 
# High freq. dielectric constant tensor:
#      x y z
#    x 1.752540 0.000000 0.000000 
#    y 0.000000 1.813590 0.000000 
#    z 0.000000 0.000000 1.819300 
# 
# From -- ./inp_files/16595.got.cif
#   From: 2010.06.25/outbox.cif.g09.slc.cpg/sg58_9_cif.got.tgz:16595.got - 2010.06.26 21:38:00.
