data_PCOD8235069
_publ_section_title
;
Structure prediction by ZEFSAII (Michael W. Deem and Ramdas Pophale) SiO2 
 PCOD8235069
Probable space group: P B C M
;
_chemical_formula_sum "Si O2"
_cell_formula_units_Z 32
_cell_length_a 9.627008
_cell_length_b 15.856086
_cell_length_c 9.879984
_cell_angle_alpha 90.000000
_cell_angle_beta 90.000000
_cell_angle_gamma 90.000000
_cell_volume 1508.146625
_symmetry_space_group_name_H-M "P B C M"
_symmetry_group_IT_number 57
_symmetry_cell_setting 'orthorhombic'
loop_
_space_group_symop_operation_xyz
x,y,z
-x,-y,1/2+z
x,1/2-y,-z
-x,1/2+y,1/2-z
-x,-y,-z
x,y,1/2-z
-x,1/2+y,z
x,1/2-y,1/2+z
loop_
_atom_site_type_symbol
_atom_site_label
_atom_site_fract_x
_atom_site_fract_y
_atom_site_fract_z
Si Si1 0.449075 0.779215 0.750000
Si Si2 0.790239 0.941056 0.500673
Si Si3 0.923869 0.390235 0.904030
Si Si4 0.409659 0.037454 0.250000
Si Si5 0.745294 0.250000 0.000000
Si Si6 0.374073 0.383233 0.250000
O O1 0.506436 0.874627 0.750000
O O2 0.353915 0.761344 0.624288
O O3 0.570874 0.711607 0.750000
O O4 0.682786 0.970461 0.615553
O O5 0.714699 0.886611 0.386786
O O6 0.911461 0.886136 0.569357
O O7 0.861244 0.017813 0.422903
O O8 0.895775 0.360497 0.750000
O O9 0.846139 0.330487 0.011117
O O10 0.512843 0.958056 0.250000
#
# Coordination Sequence:
#
# PCOD8235069 Si02
#       6
#     4   8   8   4   4   4
#     4  12  26  42  68 102 138 174 228 276 328 416
#     4  11  24  43  71  96 132 180 224 274 340 393
#     4  11  23  45  69  99 134 170 227 284 327 401
#     4  12  24  44  68 100 144 176 220 278 334 402
#     4  12  24  44  70  96 134 176 216 278 340 388
#     4  12  24  42  66 100 134 184 224 268 338 404
#
# _framework density 21.218097
#
# number of rings (size 3 to 8) (size 9 to 14) (size 15 to 20)
#    0.000    0.500    3.750    5.250    0.000    3.000 
#    0.000    0.000    0.000    0.000    0.000    0.000 
#    0.000    0.000    0.000    0.000    0.000    0.000 
#
# Total GULP energy -396854.777121 kJ/mol
# GULP energy per Si atom -12401.711785 kJ/mol
# Density = 2.116980 g / cm^3
# Si number density = 21.218097 Si / 1000 Ang^3
#
#
#
# Elastic Constant Matrix: (Units=GPa)
#
#
# Indices 1 2 3 4 5 6 
#
# 1 110.0388 22.9258 45.4993 0.0000 0.0000 0.0000
# 2 22.9258 61.0615 2.2121 0.0000 0.0000 0.0000
# 3 45.4993 2.2121 112.3602 0.0000 0.0000 0.0000
# 4 0.0000 0.0000 0.0000 23.4731 0.0000 0.0000
# 5 0.0000 0.0000 0.0000 0.0000 108.2436 0.0000
# 6 0.0000 0.0000 0.0000 0.0000 0.0000 28.9892
#
#
#
# Elastic Compliance Matrix: (Units=1/GPa)
#
#
# Indices 1 2 3 4 5 6 
#
# 1 0.011953 -0.004316 -0.004755 0.000000 0.000000 0.000000
# 2 -0.004316 0.017947 0.001394 0.000000 0.000000 0.000000
# 3 -0.004755 0.001394 0.010798 0.000000 0.000000 0.000000
# 4 0.000000 0.000000 0.000000 0.042602 0.000000 0.000000
# 5 0.000000 0.000000 0.000000 0.000000 0.009238 0.000000
# 6 0.000000 0.000000 0.000000 0.000000 0.000000 0.034496
#
#
# Mechanical properties :
#
#
# Convention : Reuss Voigt Hill
#
# Bulk Modulus (GPa) = 39.45615 47.19278 43.32447
# Shear Modulus (GPa) = 33.14871 46.32940 39.73906
#
# Velocity S-wave (km/s) = 3.95686 4.67785 4.33238
# Velocity P-wave (km/s) = 6.28582 7.17401 6.74455
#
# Compressibility (1/GPa) = 0.02534459
#
# Stress axis : x y z
#
# Youngs Moduli (GPa) = 83.66043 55.72043 92.60860
#
# Poissons Ratio (x) = 0.24047 0.44039
# Poissons Ratio (y) = 0.36104 -0.12912
# Poissons Ratio (z) = 0.39783 -0.07769
#
# Static dielectric constant tensor:
#      x y z
#    x 4.242770 0.000000 0.000000 
#    y 0.000000 3.883160 0.000000 
#    z 0.000000 0.000000 3.891700 
# 
# 
# High freq. dielectric constant tensor:
#      x y z
#    x 1.856410 0.000000 0.000000 
#    y 0.000000 1.825500 0.000000 
#    z 0.000000 0.000000 1.848410 
# 
# From -- ./inp_files/11379.got.cif
#   From: 2010.03.12/outbox.cif.g09.slc.cpg/sg57_6_cif.got.tgz:11379.got - 2010.04.16 15:48:40.
