data_PCOD8235761
_publ_section_title
;
Structure prediction by ZEFSAII (Michael W. Deem and Ramdas Pophale) SiO2 
 PCOD8235761
Probable space group: P N N M
;
_chemical_formula_sum "Si O2"
_cell_formula_units_Z 56
_cell_length_a 14.649669
_cell_length_b 21.842166
_cell_length_c 8.438529
_cell_angle_alpha 90.000000
_cell_angle_beta 90.000000
_cell_angle_gamma 90.000000
_cell_volume 2700.164747
_symmetry_space_group_name_H-M "P N N M"
_symmetry_group_IT_number 58
_symmetry_cell_setting 'orthorhombic'
loop_
_space_group_symop_operation_xyz
x,y,z
-x,-y,z
1/2+x,1/2-y,1/2-z
1/2-x,1/2+y,1/2-z
-x,-y,-z
x,y,-z
1/2-x,1/2+y,1/2+z
1/2+x,1/2-y,1/2+z
loop_
_atom_site_type_symbol
_atom_site_label
_atom_site_fract_x
_atom_site_fract_y
_atom_site_fract_z
Si Si1 0.391381 0.941362 0.688040
Si Si2 0.903124 0.967785 0.319252
Si Si3 0.802716 0.084953 0.311912
Si Si4 0.911982 0.200986 0.313607
Si Si5 0.911342 0.422198 0.811549
Si Si6 0.794162 0.310514 0.186317
Si Si7 0.100962 0.165398 0.183389
O O1 0.393863 0.945588 0.500000
O O2 0.302010 0.903657 0.743797
O O3 0.484278 0.908754 0.747680
O O4 0.383642 0.010945 0.752353
O O5 0.880359 0.948659 0.500000
O O6 0.897224 0.907016 0.215664
O O7 0.832196 0.017736 0.250770
O O8 0.000000 0.000000 0.309007
O O9 0.812893 0.084414 0.500000
O O10 0.867063 0.138417 0.245497
O O11 0.895914 0.208734 0.500000
O O12 0.861938 0.255272 0.223216
O O13 0.019628 0.199006 0.277861
O O14 0.842113 0.371734 0.743413
O O15 0.908209 0.419249 0.000000
O O16 0.696112 0.302720 0.268640
O O17 0.778152 0.315308 0.000000
O O18 0.083309 0.177176 0.000000
#
# Coordination Sequence:
#
# PCOD8235761 Si02
#       7
#     8   8   8   8   8   8   8
#     4   8  13  25  48  81 112 141 180 232 284 342
#     4  10  18  34  60  89 120 157 197 245 308 370
#     4   9  17  30  53  83 117 155 194 237 296 364
#     4  11  23  41  60  84 117 157 202 251 299 362
#     4   8  15  28  50  80 114 144 182 233 288 345
#     4  11  23  40  61  86 117 158 202 250 305 369
#     4  12  25  41  61  88 120 159 204 255 310 369
#
# _framework density 20.739474999999999
#
# number of rings (size 3 to 8) (size 9 to 14) (size 15 to 20)
#    0.000    2.143    1.429    3.857    0.000    3.714 
#    0.000    2.857    0.000    0.000    0.000   19.000 
#    0.000    0.000    0.000    0.000    0.000    0.000 
#
# Total GULP energy -694172.677144 kJ/mol
# GULP energy per Si atom -12395.940663 kJ/mol
# Density = 2.069227 g / cm^3
# Si number density = 20.739475 Si / 1000 Ang^3
#
#
#
# Elastic Constant Matrix: (Units=GPa)
#
#
# Indices 1 2 3 4 5 6 
#
# 1 148.4781 37.5192 4.9992 0.0000 0.0000 0.0000
# 2 37.5192 72.9006 6.8752 0.0000 0.0000 0.0000
# 3 4.9992 6.8752 36.3331 0.0000 0.0000 0.0000
# 4 0.0000 0.0000 0.0000 24.7000 0.0000 0.0000
# 5 0.0000 0.0000 0.0000 0.0000 18.7020 0.0000
# 6 0.0000 0.0000 0.0000 0.0000 0.0000 30.4089
#
#
#
# Elastic Compliance Matrix: (Units=1/GPa)
#
#
# Indices 1 2 3 4 5 6 
#
# 1 0.007745 -0.003956 -0.000317 0.000000 0.000000 0.000000
# 2 -0.003956 0.015987 -0.002481 0.000000 0.000000 0.000000
# 3 -0.000317 -0.002481 0.028036 0.000000 0.000000 0.000000
# 4 0.000000 0.000000 0.000000 0.040486 0.000000 0.000000
# 5 0.000000 0.000000 0.000000 0.000000 0.053470 0.000000
# 6 0.000000 0.000000 0.000000 0.000000 0.000000 0.032885
#
#
# Mechanical properties :
#
#
# Convention : Reuss Voigt Hill
#
# Bulk Modulus (GPa) = 26.13666 39.61098 32.87382
# Shear Modulus (GPa) = 24.40544 28.65006 26.52775
#
# Velocity S-wave (km/s) = 3.43412 3.72079 3.58032
# Velocity P-wave (km/s) = 5.32484 6.13187 5.74255
#
# Compressibility (1/GPa) = 0.03826044
#
# Stress axis : x y z
#
# Youngs Moduli (GPa) = 129.10860 62.54900 35.66820
#
# Poissons Ratio (x) = 0.24747 0.01131
# Poissons Ratio (y) = 0.51080 0.08849
# Poissons Ratio (z) = 0.04094 0.15518
#
# Static dielectric constant tensor:
#      x y z
#    x 4.167000 0.000000 0.000000 
#    y 0.000000 3.782760 0.000000 
#    z 0.000000 0.000000 3.237860 
# 
# 
# High freq. dielectric constant tensor:
#      x y z
#    x 1.835670 0.000000 0.000000 
#    y 0.000000 1.801760 0.000000 
#    z 0.000000 0.000000 1.760800 
# 
# From -- ./inp_files/6244.got.cif
#   From: 2010.06.25/outbox.cif.g09.slc.cpg/sg58_4_cif.got.tgz:6244.got - 2010.06.26 21:38:00.
