data_PCOD8235908
_publ_section_title
;
Structure prediction by ZEFSAII (Michael W. Deem and Ramdas Pophale) SiO2 
 PCOD8235908
Probable space group: P N N M
;
_chemical_formula_sum "Si O2"
_cell_formula_units_Z 64
_cell_length_a 12.241592
_cell_length_b 28.551922
_cell_length_c 9.205832
_cell_angle_alpha 90.000000
_cell_angle_beta 90.000000
_cell_angle_gamma 90.000000
_cell_volume 3217.631422
_symmetry_space_group_name_H-M "P N N M"
_symmetry_group_IT_number 58
_symmetry_cell_setting 'orthorhombic'
loop_
_space_group_symop_operation_xyz
x,y,z
-x,-y,z
1/2+x,1/2-y,1/2-z
1/2-x,1/2+y,1/2-z
-x,-y,-z
x,y,-z
1/2-x,1/2+y,1/2+z
1/2+x,1/2-y,1/2+z
loop_
_atom_site_type_symbol
_atom_site_label
_atom_site_fract_x
_atom_site_fract_y
_atom_site_fract_z
Si Si1 0.686437 0.628407 0.327984
Si Si2 0.794943 0.532873 0.666046
Si Si3 0.068917 0.715946 0.665186
Si Si4 0.988282 0.566066 0.839361
Si Si5 0.206398 0.569628 0.664853
Si Si6 0.294379 0.667503 0.668804
Si Si7 0.617905 0.166523 0.337118
Si Si8 0.009203 0.819598 0.333692
O O1 0.680485 0.635437 0.500000
O O2 0.714425 0.574535 0.284137
O O3 0.773922 0.664853 0.261887
O O4 0.569621 0.639879 0.257501
O O5 0.828368 0.542035 0.500000
O O6 0.908579 0.530196 0.755200
O O7 0.737744 0.481796 0.686560
O O8 0.043287 0.700083 0.500000
O O9 0.181934 0.692523 0.717249
O O10 0.078747 0.771875 0.676586
O O11 0.970215 0.700801 0.767750
O O12 0.928031 0.614959 0.845178
O O13 0.102084 0.574901 0.764060
O O14 0.008219 0.545968 0.000000
O O15 0.165302 0.575501 0.500000
O O16 0.289724 0.611556 0.701289
O O17 0.318896 0.677611 0.500000
O O18 0.389737 0.688979 0.766431
O O19 0.647257 0.184478 0.500000
O O20 0.997336 0.835978 0.500000
#
# Coordination Sequence:
#
# PCOD8235908 Si02
#       8
#     8   8   8   8   8   8   8   8
#     4  10  21  39  61  84 116 155 197 240 289 345
#     4   9  19  34  55  83 113 151 198 242 286 340
#     4  10  22  40  61  87 116 150 192 238 289 348
#     4  10  19  30  48  81 121 155 186 229 287 346
#     4  10  19  34  57  82 112 152 197 244 288 338
#     4  10  22  41  63  86 116 154 197 241 292 349
#     4  10  20  34  56  86 119 153 190 234 286 342
#     4  11  25  42  61  87 118 151 195 245 294 348
#
# _framework density 19.890407
#
# number of rings (size 3 to 8) (size 9 to 14) (size 15 to 20)
#    0.000    2.000    1.250    1.875    1.750    5.500 
#    0.000    0.625    0.000    3.750    0.000    0.000 
#    0.000    0.000    0.000    0.000    0.000    0.000 
#
# Total GULP energy -793577.180311 kJ/mol
# GULP energy per Si atom -12399.643442 kJ/mol
# Density = 1.984514 g / cm^3
# Si number density = 19.890407 Si / 1000 Ang^3
#
#
#
# Elastic Constant Matrix: (Units=GPa)
#
#
# Indices 1 2 3 4 5 6 
#
# 1 71.9176 40.3386 39.1134 0.0000 0.0000 0.0000
# 2 40.3386 76.2764 38.3191 0.0000 0.0000 0.0000
# 3 39.1134 38.3191 102.1670 0.0000 0.0000 0.0000
# 4 0.0000 0.0000 0.0000 20.9922 0.0000 0.0000
# 5 0.0000 0.0000 0.0000 0.0000 29.7673 0.0000
# 6 0.0000 0.0000 0.0000 0.0000 0.0000 22.1963
#
#
#
# Elastic Compliance Matrix: (Units=1/GPa)
#
#
# Indices 1 2 3 4 5 6 
#
# 1 0.021598 -0.008956 -0.004910 0.000000 0.000000 0.000000
# 2 -0.008956 0.019867 -0.004023 0.000000 0.000000 0.000000
# 3 -0.004910 -0.004023 0.013176 0.000000 0.000000 0.000000
# 4 0.000000 0.000000 0.000000 0.047637 0.000000 0.000000
# 5 0.000000 0.000000 0.000000 0.000000 0.033594 0.000000
# 6 0.000000 0.000000 0.000000 0.000000 0.000000 0.045053
#
#
# Mechanical properties :
#
#
# Convention : Reuss Voigt Hill
#
# Bulk Modulus (GPa) = 53.00713 53.98922 53.49818
# Shear Modulus (GPa) = 22.42248 23.43048 22.92648
#
# Velocity S-wave (km/s) = 3.36117 3.43589 3.39874
# Velocity P-wave (km/s) = 6.46303 6.55307 6.50821
#
# Compressibility (1/GPa) = 0.01886539
#
# Stress axis : x y z
#
# Youngs Moduli (GPa) = 46.30003 50.33360 75.89345
#
# Poissons Ratio (x) = 0.45077 0.37261
# Poissons Ratio (y) = 0.41465 0.30532
# Poissons Ratio (z) = 0.22732 0.20249
#
# Static dielectric constant tensor:
#      x y z
#    x 3.361280 0.000000 0.000000 
#    y 0.000000 3.787060 0.000000 
#    z 0.000000 0.000000 3.795220 
# 
# 
# High freq. dielectric constant tensor:
#      x y z
#    x 1.750400 0.000000 0.000000 
#    y 0.000000 1.785180 0.000000 
#    z 0.000000 0.000000 1.779340 
# 
# From -- ./inp_files/4643.got.cif
#   From: 2010.06.25/outbox.cif.g09.slc.cpg/sg58_3_cif.got.tgz:4643.got - 2010.06.26 21:38:00.
