data_PCOD8235391
_publ_section_title
;
Structure prediction by ZEFSAII (Michael W. Deem and Ramdas Pophale) SiO2 
 PCOD8235391
Probable space group: P N N M
;
_chemical_formula_sum "Si O2"
_cell_formula_units_Z 64
_cell_length_a 19.599470
_cell_length_b 19.928684
_cell_length_c 9.432125
_cell_angle_alpha 90.000000
_cell_angle_beta 90.000000
_cell_angle_gamma 90.000000
_cell_volume 3684.109212
_symmetry_space_group_name_H-M "P N N M"
_symmetry_group_IT_number 58
_symmetry_cell_setting 'orthorhombic'
loop_
_space_group_symop_operation_xyz
x,y,z
-x,-y,z
1/2+x,1/2-y,1/2-z
1/2-x,1/2+y,1/2-z
-x,-y,-z
x,y,-z
1/2-x,1/2+y,1/2+z
1/2+x,1/2-y,1/2+z
loop_
_atom_site_type_symbol
_atom_site_label
_atom_site_fract_x
_atom_site_fract_y
_atom_site_fract_z
Si Si1 0.750309 0.794663 0.662612
Si Si2 0.220766 0.353491 0.332486
Si Si3 0.708986 0.514225 0.668363
Si Si4 0.934208 0.956638 0.167299
Si Si5 0.183422 0.595571 0.332399
Si Si6 0.468264 0.068221 0.831449
Si Si7 0.093260 0.174036 0.335814
Si Si8 0.427735 0.822380 0.168863
O O1 0.729258 0.805205 0.500000
O O2 0.743715 0.716776 0.705883
O O3 0.697672 0.832941 0.762355
O O4 0.825945 0.822622 0.689116
O O5 0.216160 0.362594 0.500000
O O6 0.265700 0.414388 0.267822
O O7 0.143452 0.353042 0.271393
O O8 0.709816 0.517038 0.500000
O O9 0.632875 0.496695 0.721679
O O10 0.761398 0.457902 0.722918
O O11 0.939637 0.884830 0.243004
O O12 0.930626 0.943411 0.000000
O O13 0.000000 0.000000 0.209394
O O14 0.186455 0.604552 0.500000
O O15 0.109394 0.571876 0.280369
O O16 0.510450 0.132202 0.772845
O O17 0.500000 0.000000 0.768823
O O18 0.472838 0.067558 0.000000
O O19 0.076246 0.160340 0.500000
O O20 0.061413 0.245086 0.283491
O O21 0.423173 0.822899 0.000000
#
# Coordination Sequence:
#
# PCOD8235391 Si02
#       8
#     8   8   8   8   8   8   8   8
#     4   9  17  30  48  69  91 119 157 194 226 272
#     4   8  14  26  46  68  90 120 157 192 225 267
#     4   9  16  28  46  68  92 120 155 191 230 276
#     4  10  20  33  48  68  95 124 156 200 244 277
#     4  10  18  28  48  73  96 123 150 188 239 278
#     4   9  16  26  43  71 101 123 151 192 234 276
#     4   9  17  31  51  69  90 125 161 191 231 280
#     4   8  14  26  44  68  96 123 154 192 229 274
#
# _framework density 17.371907
#
# number of rings (size 3 to 8) (size 9 to 14) (size 15 to 20)
#    0.000    3.000    1.250    2.250    0.000    3.250 
#    2.250    0.000    0.000    1.875    0.000    3.500 
#    0.000    0.000    0.000    0.000    0.000    0.000 
#
# Total GULP energy -793332.219241 kJ/mol
# GULP energy per Si atom -12395.815926 kJ/mol
# Density = 1.733237 g / cm^3
# Si number density = 17.371907 Si / 1000 Ang^3
#
#
#
# Elastic Constant Matrix: (Units=GPa)
#
#
# Indices 1 2 3 4 5 6 
#
# 1 135.0635 86.2931 24.1506 0.0000 0.0000 0.0000
# 2 86.2931 157.1747 31.1512 0.0000 0.0000 0.0000
# 3 24.1506 31.1512 19.9965 0.0000 0.0000 0.0000
# 4 0.0000 0.0000 0.0000 20.6551 0.0000 0.0000
# 5 0.0000 0.0000 0.0000 0.0000 10.9574 0.0000
# 6 0.0000 0.0000 0.0000 0.0000 0.0000 32.9611
#
#
#
# Elastic Compliance Matrix: (Units=1/GPa)
#
#
# Indices 1 2 3 4 5 6 
#
# 1 0.011892 -0.005327 -0.006063 0.000000 0.000000 0.000000
# 2 -0.005327 0.011591 -0.011622 0.000000 0.000000 0.000000
# 3 -0.006063 -0.011622 0.075438 0.000000 0.000000 0.000000
# 4 0.000000 0.000000 0.000000 0.048414 0.000000 0.000000
# 5 0.000000 0.000000 0.000000 0.000000 0.091263 0.000000
# 6 0.000000 0.000000 0.000000 0.000000 0.000000 0.030339
#
#
# Mechanical properties :
#
#
# Convention : Reuss Voigt Hill
#
# Bulk Modulus (GPa) = 18.90568 66.15828 42.53198
# Shear Modulus (GPa) = 15.03341 24.29070 19.66205
#
# Velocity S-wave (km/s) = 2.94494 3.74341 3.36792
# Velocity P-wave (km/s) = 4.74026 7.53991 6.29763
#
# Compressibility (1/GPa) = 0.05289416
#
# Stress axis : x y z
#
# Youngs Moduli (GPa) = 84.09283 86.27697 13.25598
#
# Poissons Ratio (x) = 0.45961 0.08038
# Poissons Ratio (y) = 0.44797 0.15407
# Poissons Ratio (z) = 0.50988 1.00275
#
# Static dielectric constant tensor:
#      x y z
#    x 3.320750 0.000000 0.000000 
#    y 0.000000 3.486490 0.000000 
#    z 0.000000 0.000000 2.677020 
# 
# 
# High freq. dielectric constant tensor:
#      x y z
#    x 1.666550 0.000000 0.000000 
#    y 0.000000 1.685500 0.000000 
#    z 0.000000 0.000000 1.610220 
# 
# From -- ./inp_files/16638.got.cif
#   From: 2010.06.25/outbox.cif.g09.slc.cpg/sg58_9_cif.got.tgz:16638.got - 2010.06.26 21:38:00.
