data_PCOD8235359
_publ_section_title
;
Structure prediction by ZEFSAII (Michael W. Deem and Ramdas Pophale) SiO2 
 PCOD8235359
Probable space group: P N N M
;
_chemical_formula_sum "Si O2"
_cell_formula_units_Z 64
_cell_length_a 31.024456
_cell_length_b 9.853001
_cell_length_c 13.379041
_cell_angle_alpha 90.000000
_cell_angle_beta 90.000000
_cell_angle_gamma 90.000000
_cell_volume 4089.758715
_symmetry_space_group_name_H-M "P N N M"
_symmetry_group_IT_number 58
_symmetry_cell_setting 'orthorhombic'
loop_
_space_group_symop_operation_xyz
x,y,z
-x,-y,z
1/2+x,1/2-y,1/2-z
1/2-x,1/2+y,1/2-z
-x,-y,-z
x,y,-z
1/2-x,1/2+y,1/2+z
1/2+x,1/2-y,1/2+z
loop_
_atom_site_type_symbol
_atom_site_label
_atom_site_fract_x
_atom_site_fract_y
_atom_site_fract_z
Si Si1 0.186795 0.166820 0.773791
Si Si2 0.684513 0.649740 0.725967
Si Si3 0.102478 0.225986 0.882506
Si Si4 0.227322 0.353012 0.383797
Si Si5 0.951761 0.514210 0.117548
Si Si6 0.774821 0.338045 0.616430
Si Si7 0.397411 0.233264 0.614523
Si Si8 0.453615 0.486694 0.386030
O O1 0.146737 0.244304 0.823373
O O2 0.196997 0.245046 0.671406
O O3 0.225595 0.184129 0.851587
O O4 0.177295 0.008989 0.749806
O O5 0.723185 0.667923 0.647758
O O6 0.694328 0.732437 0.826989
O O7 0.642119 0.715376 0.679496
O O8 0.067792 0.340640 0.855643
O O9 0.081838 0.087272 0.840120
O O10 0.113496 0.222583 0.000000
O O11 0.223662 0.321303 0.500000
O O12 0.211904 0.506440 0.358967
O O13 0.917282 0.405045 0.159545
O O14 0.000000 0.500000 0.164406
O O15 0.955385 0.488402 0.000000
O O16 0.779090 0.306305 0.500000
O O17 0.381521 0.218278 0.500000
O O18 0.437577 0.334453 0.621833
O O19 0.500000 0.500000 0.331374
O O20 0.459508 0.536128 0.500000
#
# Coordination Sequence:
#
# PCOD8235359 Si02
#       8
#     8   8   8   8   8   8   8   8
#     4  10  19  31  48  71  95 121 156 194 228 268
#     4  10  19  31  48  71  95 121 156 194 228 268
#     4  10  18  28  44  66  94 126 157 189 225 270
#     4   9  19  34  50  66  92 126 156 190 231 272
#     4   9  18  30  42  61  93 129 159 189 226 268
#     4   9  19  34  50  66  92 126 156 190 231 272
#     4  10  18  28  44  66  94 126 157 189 225 270
#     4   9  16  26  42  63  89 123 155 181 220 276
#
# _framework density 15.648844
#
# number of rings (size 3 to 8) (size 9 to 14) (size 15 to 20)
#    0.000    2.500    1.250    1.500    1.750    4.500 
#    0.000    0.000    0.000    0.000    0.000    0.000 
#    0.000    6.000    0.000    0.000    0.000    0.000 
#
# Total GULP energy -793407.927217 kJ/mol
# GULP energy per Si atom -12396.998863 kJ/mol
# Density = 1.561323 g / cm^3
# Si number density = 15.648844 Si / 1000 Ang^3
#
#
#
# Elastic Constant Matrix: (Units=GPa)
#
#
# Indices 1 2 3 4 5 6 
#
# 1 89.7393 32.1789 38.9822 0.0000 0.0000 0.0000
# 2 32.1789 77.0844 36.2417 0.0000 0.0000 0.0000
# 3 38.9822 36.2417 68.6740 0.0000 0.0000 0.0000
# 4 0.0000 0.0000 0.0000 21.2332 0.0000 0.0000
# 5 0.0000 0.0000 0.0000 0.0000 16.4905 0.0000
# 6 0.0000 0.0000 0.0000 0.0000 0.0000 27.2876
#
#
#
# Elastic Compliance Matrix: (Units=1/GPa)
#
#
# Indices 1 2 3 4 5 6 
#
# 1 0.015317 -0.003067 -0.007076 0.000000 0.000000 0.000000
# 2 -0.003067 0.017868 -0.007688 0.000000 0.000000 0.000000
# 3 -0.007076 -0.007688 0.022635 0.000000 0.000000 0.000000
# 4 0.000000 0.000000 0.000000 0.047096 0.000000 0.000000
# 5 0.000000 0.000000 0.000000 0.000000 0.060641 0.000000
# 6 0.000000 0.000000 0.000000 0.000000 0.000000 0.036647
#
#
# Mechanical properties :
#
#
# Convention : Reuss Voigt Hill
#
# Bulk Modulus (GPa) = 49.60967 50.03370 49.82168
# Shear Modulus (GPa) = 20.61121 21.54192 21.07656
#
# Velocity S-wave (km/s) = 3.63313 3.71426 3.67392
# Velocity P-wave (km/s) = 7.02639 7.10186 7.06423
#
# Compressibility (1/GPa) = 0.02015736
#
# Stress axis : x y z
#
# Youngs Moduli (GPa) = 65.28705 55.96593 44.17840
#
# Poissons Ratio (x) = 0.17167 0.31260
# Poissons Ratio (y) = 0.20026 0.33966
# Poissons Ratio (z) = 0.46196 0.43029
#
# Static dielectric constant tensor:
#      x y z
#    x 2.994370 0.000000 0.000000 
#    y 0.000000 3.139050 0.000000 
#    z 0.000000 0.000000 2.611060 
# 
# 
# High freq. dielectric constant tensor:
#      x y z
#    x 1.603560 0.000000 0.000000 
#    y 0.000000 1.617180 0.000000 
#    z 0.000000 0.000000 1.548190 
# 
# From -- ./inp_files/13440.got.cif
#   From: 2010.06.25/outbox.cif.g09.slc.cpg/sg58_7_cif.got.tgz:13440.got - 2010.06.26 21:38:00.
