data_PCOD8235858
_publ_section_title
;
Structure prediction by ZEFSAII (Michael W. Deem and Ramdas Pophale) SiO2 
 PCOD8235858
Probable space group: P N N M
;
_chemical_formula_sum "Si O2"
_cell_formula_units_Z 64
_cell_length_a 21.460521
_cell_length_b 18.976033
_cell_length_c 9.201040
_cell_angle_alpha 90.000000
_cell_angle_beta 90.000000
_cell_angle_gamma 90.000000
_cell_volume 3746.990628
_symmetry_space_group_name_H-M "P N N M"
_symmetry_group_IT_number 58
_symmetry_cell_setting 'orthorhombic'
loop_
_space_group_symop_operation_xyz
x,y,z
-x,-y,z
1/2+x,1/2-y,1/2-z
1/2-x,1/2+y,1/2-z
-x,-y,-z
x,y,-z
1/2-x,1/2+y,1/2+z
1/2+x,1/2-y,1/2+z
loop_
_atom_site_type_symbol
_atom_site_label
_atom_site_fract_x
_atom_site_fract_y
_atom_site_fract_z
Si Si1 0.806552 0.025825 0.831379
Si Si2 0.435449 0.532353 0.329631
Si Si3 0.016754 0.577320 0.671220
Si Si4 0.393169 0.669858 0.835082
Si Si5 0.804565 0.580204 0.829715
Si Si6 0.231408 0.105107 0.337349
Si Si7 0.097354 0.327392 0.327722
Si Si8 0.362272 0.072051 0.663147
O O1 0.765989 0.080651 0.735808
O O2 0.880791 0.025028 0.795206
O O3 0.784234 0.947722 0.792119
O O4 0.793892 0.041510 0.000000
O O5 0.500000 0.500000 0.271041
O O6 0.438549 0.547558 0.500000
O O7 0.424596 0.607937 0.256152
O O8 0.022917 0.576940 0.500000
O O9 0.083359 0.599990 0.733857
O O10 0.000000 0.500000 0.731398
O O11 0.964037 0.631134 0.723954
O O12 0.317201 0.669229 0.825234
O O13 0.413547 0.746664 0.779081
O O14 0.415296 0.658710 0.000000
O O15 0.842639 0.642253 0.753430
O O16 0.838036 0.505959 0.793865
O O17 0.800588 0.595351 0.000000
O O18 0.224826 0.069413 0.500000
O O19 0.304085 0.126855 0.320042
O O20 0.108409 0.334203 0.500000
O O21 0.388558 0.071455 0.500000
#
# Coordination Sequence:
#
# PCOD8235858 Si02
#       8
#     8   8   8   8   8   8   8   8
#     4   9  16  27  47  73  97 122 153 194 242 291
#     4   9  18  33  54  79 104 129 163 208 253 302
#     4  10  19  30  45  68  98 131 168 205 239 284
#     4   9  18  33  53  74  98 129 166 208 252 304
#     4  10  19  30  46  70  98 127 160 205 249 290
#     4   8  15  29  47  69  93 117 151 197 242 287
#     4  10  20  33  49  70  97 134 173 207 249 302
#     4   9  17  28  45  68  93 120 156 199 242 285
#
# _framework density 17.080373000000002
#
# number of rings (size 3 to 8) (size 9 to 14) (size 15 to 20)
#    0.000    2.750    1.250    1.500    0.000    4.000 
#    0.000    0.000    2.750    0.000    0.000    0.000 
#    0.000    0.000    0.000    0.000    0.000    0.000 
#
# Total GULP energy -793099.575908 kJ/mol
# GULP energy per Si atom -12392.180874 kJ/mol
# Density = 1.704150 g / cm^3
# Si number density = 17.080373 Si / 1000 Ang^3
#
#
#
# Elastic Constant Matrix: (Units=GPa)
#
#
# Indices 1 2 3 4 5 6 
#
# 1 142.9848 59.6410 48.7936 0.0000 0.0000 0.0000
# 2 59.6410 87.4332 32.8595 0.0000 0.0000 0.0000
# 3 48.7936 32.8595 52.1899 0.0000 0.0000 0.0000
# 4 0.0000 0.0000 0.0000 18.5785 0.0000 0.0000
# 5 0.0000 0.0000 0.0000 0.0000 27.2405 0.0000
# 6 0.0000 0.0000 0.0000 0.0000 0.0000 22.9312
#
#
#
# Elastic Compliance Matrix: (Units=1/GPa)
#
#
# Indices 1 2 3 4 5 6 
#
# 1 0.011787 -0.005107 -0.007805 0.000000 0.000000 0.000000
# 2 -0.005107 0.017196 -0.006052 0.000000 0.000000 0.000000
# 3 -0.007805 -0.006052 0.030268 0.000000 0.000000 0.000000
# 4 0.000000 0.000000 0.000000 0.053826 0.000000 0.000000
# 5 0.000000 0.000000 0.000000 0.000000 0.036710 0.000000
# 6 0.000000 0.000000 0.000000 0.000000 0.000000 0.043609
#
#
# Mechanical properties :
#
#
# Convention : Reuss Voigt Hill
#
# Bulk Modulus (GPa) = 46.89663 62.79956 54.84809
# Shear Modulus (GPa) = 20.97050 23.17097 22.07074
#
# Velocity S-wave (km/s) = 3.50773 3.68718 3.59858
# Velocity P-wave (km/s) = 6.62734 7.41444 7.03191
#
# Compressibility (1/GPa) = 0.02132349
#
# Stress axis : x y z
#
# Youngs Moduli (GPa) = 84.83579 58.15452 33.03850
#
# Poissons Ratio (x) = 0.29702 0.25785
# Poissons Ratio (y) = 0.43329 0.19993
# Poissons Ratio (z) = 0.66212 0.35192
#
# Static dielectric constant tensor:
#      x y z
#    x 3.469250 0.000000 0.000000 
#    y 0.000000 2.892980 0.000000 
#    z 0.000000 0.000000 3.149550 
# 
# 
# High freq. dielectric constant tensor:
#      x y z
#    x 1.667150 0.000000 0.000000 
#    y 0.000000 1.613990 0.000000 
#    z 0.000000 0.000000 1.660420 
# 
# From -- ./inp_files/9426.got.cif
#   From: 2010.06.25/outbox.cif.g09.slc.cpg/sg58_5_cif.got.tgz:9426.got - 2010.06.26 21:38:00.
