data_PCOD8235572
_publ_section_title
;
Structure prediction by ZEFSAII (Michael W. Deem and Ramdas Pophale) SiO2 
 PCOD8235572
Probable space group: P N N M
;
_chemical_formula_sum "Si O2"
_cell_formula_units_Z 56
_cell_length_a 21.577902
_cell_length_b 15.046209
_cell_length_c 9.270704
_cell_angle_alpha 90.000000
_cell_angle_beta 90.000000
_cell_angle_gamma 90.000000
_cell_volume 3009.878892
_symmetry_space_group_name_H-M "P N N M"
_symmetry_group_IT_number 58
_symmetry_cell_setting 'orthorhombic'
loop_
_space_group_symop_operation_xyz
x,y,z
-x,-y,z
1/2+x,1/2-y,1/2-z
1/2-x,1/2+y,1/2-z
-x,-y,-z
x,y,-z
1/2-x,1/2+y,1/2+z
1/2+x,1/2-y,1/2+z
loop_
_atom_site_type_symbol
_atom_site_label
_atom_site_fract_x
_atom_site_fract_y
_atom_site_fract_z
Si Si1 0.891271 0.286733 0.329606
Si Si2 0.229009 0.771976 0.834467
Si Si3 0.523234 0.632971 0.169927
Si Si4 0.567886 0.978036 0.169394
Si Si5 0.772660 0.922608 0.665712
Si Si6 0.093724 0.036974 0.671708
Si Si7 0.307057 0.941551 0.168985
O O1 0.878734 0.286984 0.500000
O O2 0.833079 0.237609 0.257875
O O3 0.952494 0.230084 0.287441
O O4 0.904800 0.385115 0.268070
O O5 0.268297 0.682840 0.818952
O O6 0.273255 0.851860 0.775599
O O7 0.210260 0.789651 0.000000
O O8 0.453330 0.614867 0.226151
O O9 0.569444 0.557367 0.230849
O O10 0.522921 0.620074 0.000000
O O11 0.500000 0.000000 0.237840
O O12 0.618397 0.056134 0.202251
O O13 0.558621 0.964344 0.000000
O O14 0.766275 0.952830 0.500000
O O15 0.838410 0.948178 0.736674
O O16 0.719899 0.971379 0.755333
O O17 0.099197 0.040126 0.500000
O O18 0.296473 0.952831 0.000000
#
# Coordination Sequence:
#
# PCOD8235572 Si02
#       7
#     8   8   8   8   8   8   8
#     4  10  18  31  53  76  97 132 177 215 251 306
#     4  10  21  33  49  74 104 136 168 208 261 310
#     4   8  14  24  42  69  96 121 156 202 249 291
#     4   9  18  32  51  75 102 132 170 215 260 306
#     4  10  19  32  51  74 100 132 168 208 251 303
#     4   8  14  25  41  67 100 124 150 201 256 293
#     4  10  20  35  52  74 106 139 170 212 264 311
#
# _framework density 18.605398999999998
#
# number of rings (size 3 to 8) (size 9 to 14) (size 15 to 20)
#    0.000    2.714    1.429    1.714    0.000    2.857 
#    0.000    5.714    0.000    2.571    0.000    6.000 
#    0.000    0.000    0.000    0.000    0.000    0.000 
#
# Total GULP energy -693935.222488 kJ/mol
# GULP energy per Si atom -12391.700402 kJ/mol
# Density = 1.856305 g / cm^3
# Si number density = 18.605399 Si / 1000 Ang^3
#
#
#
# Elastic Constant Matrix: (Units=GPa)
#
#
# Indices 1 2 3 4 5 6 
#
# 1 139.4323 50.6105 25.5335 0.0000 0.0000 0.0000
# 2 50.6105 99.8578 20.2152 0.0000 0.0000 0.0000
# 3 25.5335 20.2152 20.5538 0.0000 0.0000 0.0000
# 4 0.0000 0.0000 0.0000 14.7339 0.0000 0.0000
# 5 0.0000 0.0000 0.0000 0.0000 19.1855 0.0000
# 6 0.0000 0.0000 0.0000 0.0000 0.0000 32.6573
#
#
#
# Elastic Compliance Matrix: (Units=1/GPa)
#
#
# Indices 1 2 3 4 5 6 
#
# 1 0.010042 -0.003202 -0.009326 0.000000 0.000000 0.000000
# 2 -0.003202 0.013525 -0.009325 0.000000 0.000000 0.000000
# 3 -0.009326 -0.009325 0.069409 0.000000 0.000000 0.000000
# 4 0.000000 0.000000 0.000000 0.067871 0.000000 0.000000
# 5 0.000000 0.000000 0.000000 0.000000 0.052123 0.000000
# 6 0.000000 0.000000 0.000000 0.000000 0.000000 0.030621
#
#
# Mechanical properties :
#
#
# Convention : Reuss Voigt Hill
#
# Bulk Modulus (GPa) = 20.29575 50.28471 35.29023
# Shear Modulus (GPa) = 16.46268 24.21432 20.33850
#
# Velocity S-wave (km/s) = 2.97784 3.61150 3.30987
# Velocity P-wave (km/s) = 4.77028 6.66905 5.79792
#
# Compressibility (1/GPa) = 0.04927139
#
# Stress axis : x y z
#
# Youngs Moduli (GPa) = 99.58359 73.93985 14.40736
#
# Poissons Ratio (x) = 0.23672 0.13436
# Poissons Ratio (y) = 0.31882 0.13434
# Poissons Ratio (z) = 0.92871 0.68946
#
# Static dielectric constant tensor:
#      x y z
#    x 3.752430 0.000000 0.000000 
#    y 0.000000 3.566540 0.000000 
#    z 0.000000 0.000000 2.922040 
# 
# 
# High freq. dielectric constant tensor:
#      x y z
#    x 1.735380 0.000000 0.000000 
#    y 0.000000 1.724660 0.000000 
#    z 0.000000 0.000000 1.661440 
# 
# From -- ./inp_files/8990.got.cif
#   From: 2010.06.25/outbox.cif.g09.slc.cpg/sg58_5_cif.got.tgz:8990.got - 2010.06.26 21:38:00.
