data_PCOD8235418
_publ_section_title
;
Structure prediction by ZEFSAII (Michael W. Deem and Ramdas Pophale) SiO2 
 PCOD8235418
Probable space group: P N N M
;
_chemical_formula_sum "Si O2"
_cell_formula_units_Z 56
_cell_length_a 18.109496
_cell_length_b 20.751479
_cell_length_c 9.001380
_cell_angle_alpha 90.000000
_cell_angle_beta 90.000000
_cell_angle_gamma 90.000000
_cell_volume 3382.708036
_symmetry_space_group_name_H-M "P N N M"
_symmetry_group_IT_number 58
_symmetry_cell_setting 'orthorhombic'
loop_
_space_group_symop_operation_xyz
x,y,z
-x,-y,z
1/2+x,1/2-y,1/2-z
1/2-x,1/2+y,1/2-z
-x,-y,-z
x,y,-z
1/2-x,1/2+y,1/2+z
1/2+x,1/2-y,1/2+z
loop_
_atom_site_type_symbol
_atom_site_label
_atom_site_fract_x
_atom_site_fract_y
_atom_site_fract_z
Si Si1 0.790181 0.182923 0.167654
Si Si2 0.923698 0.755434 0.825488
Si Si3 0.580244 0.744635 0.175043
Si Si4 0.335613 0.126496 0.172377
Si Si5 0.159321 0.375153 0.173774
Si Si6 0.294556 0.682978 0.832747
Si Si7 0.085592 0.493785 0.328106
O O1 0.865788 0.189791 0.259653
O O2 0.738049 0.129634 0.243709
O O3 0.748227 0.250164 0.170391
O O4 0.808298 0.161074 0.000000
O O5 0.892951 0.684870 0.784907
O O6 0.868812 0.810387 0.763616
O O7 0.001209 0.765068 0.747054
O O8 0.932812 0.765088 0.000000
O O9 0.609796 0.815517 0.217749
O O10 0.574157 0.735174 0.000000
O O11 0.258812 0.129057 0.262137
O O12 0.375890 0.060648 0.213319
O O13 0.315458 0.131637 0.000000
O O14 0.119134 0.439441 0.224432
O O15 0.175443 0.377385 0.000000
O O16 0.315234 0.662511 0.000000
O O17 0.097716 0.475166 0.500000
O O18 0.000000 0.500000 0.290187
#
# Coordination Sequence:
#
# PCOD8235418 Si02
#       7
#     8   8   8   8   8   8   8
#     4   9  17  30  47  66  90 120 153 189 232 280
#     4  10  19  30  45  67  95 123 152 189 234 279
#     4  10  18  29  47  70  95 121 152 191 233 276
#     4   9  18  31  46  65  92 125 157 190 228 272
#     4  10  20  32  46  66  93 125 160 196 231 269
#     4   9  17  29  46  66  88 117 153 191 231 275
#     4  10  20  33  48  67  93 127 163 193 226 271
#
# _framework density 16.554784000000001
#
# number of rings (size 3 to 8) (size 9 to 14) (size 15 to 20)
#    0.000    2.429    0.000    3.000    0.000    7.714 
#    0.000    0.000    0.000    0.000    0.000    1.000 
#    0.000    8.000    0.000    0.000    0.000    0.000 
#
# Total GULP energy -694499.226428 kJ/mol
# GULP energy per Si atom -12401.771901 kJ/mol
# Density = 1.651710 g / cm^3
# Si number density = 16.554784 Si / 1000 Ang^3
#
#
#
# Elastic Constant Matrix: (Units=GPa)
#
#
# Indices 1 2 3 4 5 6 
#
# 1 138.9730 46.2207 69.0624 0.0000 0.0000 0.0000
# 2 46.2207 53.2505 29.8028 0.0000 0.0000 0.0000
# 3 69.0624 29.8028 92.9353 0.0000 0.0000 0.0000
# 4 0.0000 0.0000 0.0000 23.5532 0.0000 0.0000
# 5 0.0000 0.0000 0.0000 0.0000 35.5932 0.0000
# 6 0.0000 0.0000 0.0000 0.0000 0.0000 23.3426
#
#
#
# Elastic Compliance Matrix: (Units=1/GPa)
#
#
# Indices 1 2 3 4 5 6 
#
# 1 0.013443 -0.007407 -0.007615 0.000000 0.000000 0.000000
# 2 -0.007407 0.026968 -0.003144 0.000000 0.000000 0.000000
# 3 -0.007615 -0.003144 0.017427 0.000000 0.000000 0.000000
# 4 0.000000 0.000000 0.000000 0.042457 0.000000 0.000000
# 5 0.000000 0.000000 0.000000 0.000000 0.028095 0.000000
# 6 0.000000 0.000000 0.000000 0.000000 0.000000 0.042840
#
#
# Mechanical properties :
#
#
# Convention : Reuss Voigt Hill
#
# Bulk Modulus (GPa) = 46.49630 63.92561 55.21096
# Shear Modulus (GPa) = 23.28502 25.83598 24.56050
#
# Velocity S-wave (km/s) = 3.75446 3.95477 3.85592
# Velocity P-wave (km/s) = 6.85142 7.71700 7.29705
#
# Compressibility (1/GPa) = 0.02150709
#
# Stress axis : x y z
#
# Youngs Moduli (GPa) = 74.38748 37.08140 57.38203
#
# Poissons Ratio (x) = 0.27465 0.43695
# Poissons Ratio (y) = 0.55097 0.18041
# Poissons Ratio (z) = 0.56644 0.11658
#
# Static dielectric constant tensor:
#      x y z
#    x 3.171590 0.000000 0.000000 
#    y 0.000000 2.837930 0.000000 
#    z 0.000000 0.000000 3.245700 
# 
# 
# High freq. dielectric constant tensor:
#      x y z
#    x 1.640370 0.000000 0.000000 
#    y 0.000000 1.595540 0.000000 
#    z 0.000000 0.000000 1.651960 
# 
# From -- ./inp_files/6265.got.cif
#   From: 2010.06.25/outbox.cif.g09.slc.cpg/sg58_4_cif.got.tgz:6265.got - 2010.06.26 21:38:00.
