data_PCOD8235751
_publ_section_title
;
Structure prediction by ZEFSAII (Michael W. Deem and Ramdas Pophale) SiO2 
 PCOD8235751
Probable space group: P N N M
;
_chemical_formula_sum "Si O2"
_cell_formula_units_Z 64
_cell_length_a 19.156911
_cell_length_b 12.658631
_cell_length_c 13.800523
_cell_angle_alpha 90.000000
_cell_angle_beta 90.000000
_cell_angle_gamma 90.000000
_cell_volume 3346.630518
_symmetry_space_group_name_H-M "P N N M"
_symmetry_group_IT_number 58
_symmetry_cell_setting 'orthorhombic'
loop_
_space_group_symop_operation_xyz
x,y,z
-x,-y,z
1/2+x,1/2-y,1/2-z
1/2-x,1/2+y,1/2-z
-x,-y,-z
x,y,-z
1/2-x,1/2+y,1/2+z
1/2+x,1/2-y,1/2+z
loop_
_atom_site_type_symbol
_atom_site_label
_atom_site_fract_x
_atom_site_fract_y
_atom_site_fract_z
Si Si1 0.076677 0.530294 0.733504
Si Si2 0.425571 0.446521 0.888974
Si Si3 0.336793 0.915382 0.386397
Si Si4 0.224117 0.783876 0.114788
Si Si5 0.709375 0.004649 0.113407
Si Si6 0.212034 0.066500 0.614274
Si Si7 0.117784 0.762362 0.264538
Si Si8 0.752382 0.782123 0.113318
O O1 0.096746 0.459846 0.827896
O O2 0.130572 0.509977 0.647574
O O3 0.075137 0.655263 0.751528
O O4 0.000000 0.500000 0.698110
O O5 0.500000 0.500000 0.883542
O O6 0.364916 0.528025 0.853816
O O7 0.431551 0.349983 0.813185
O O8 0.410445 0.409077 0.000000
O O9 0.352113 0.931749 0.500000
O O10 0.319767 0.791622 0.362825
O O11 0.270249 0.983563 0.349975
O O12 0.267224 0.682294 0.156512
O O13 0.145798 0.788836 0.156916
O O14 0.262216 0.886877 0.157483
O O15 0.217694 0.781998 0.000000
O O16 0.760815 0.906369 0.142744
O O17 0.706052 0.016208 0.000000
O O18 0.214832 0.076268 0.500000
O O19 0.184311 0.760560 0.334505
O O20 0.736016 0.772016 0.000000
#
# Coordination Sequence:
#
# PCOD8235751 Si02
#       8
#     8   8   8   8   8   8   8   8
#     4  11  24  37  51  79 114 148 187 222 273 337
#     4  10  21  36  57  87 116 143 182 229 281 336
#     4  10  18  34  59  83 106 135 183 237 277 310
#     4  10  20  34  55  83 111 141 186 235 275 322
#     4   9  20  36  53  80 113 146 183 222 273 333
#     4   9  17  32  56  83 106 135 179 229 273 314
#     4  11  20  34  56  76 108 147 178 225 283 332
#     4   9  17  31  55  83 106 135 178 226 273 323
#
# _framework density 19.123712000000001
#
# number of rings (size 3 to 8) (size 9 to 14) (size 15 to 20)
#    0.000    2.125    2.500    1.125    0.000    2.000 
#    0.000    2.500    0.000    0.375    0.000    0.000 
#    0.000    0.000    0.000    0.000    0.000    0.000 
#
# Total GULP energy -793214.261087 kJ/mol
# GULP energy per Si atom -12393.972829 kJ/mol
# Density = 1.908019 g / cm^3
# Si number density = 19.123712 Si / 1000 Ang^3
#
#
#
# Elastic Constant Matrix: (Units=GPa)
#
#
# Indices 1 2 3 4 5 6 
#
# 1 72.3779 52.2771 13.0780 0.0000 0.0000 0.0000
# 2 52.2771 151.5090 40.0141 0.0000 0.0000 0.0000
# 3 13.0780 40.0141 22.1061 0.0000 0.0000 0.0000
# 4 0.0000 0.0000 0.0000 22.7584 0.0000 0.0000
# 5 0.0000 0.0000 0.0000 0.0000 24.1049 0.0000
# 6 0.0000 0.0000 0.0000 0.0000 0.0000 25.0006
#
#
#
# Elastic Compliance Matrix: (Units=1/GPa)
#
#
# Indices 1 2 3 4 5 6 
#
# 1 0.018418 -0.006662 0.001163 0.000000 0.000000 0.000000
# 2 -0.006662 0.015055 -0.023310 0.000000 0.000000 0.000000
# 3 0.001163 -0.023310 0.086742 0.000000 0.000000 0.000000
# 4 0.000000 0.000000 0.000000 0.043940 0.000000 0.000000
# 5 0.000000 0.000000 0.000000 0.000000 0.041485 0.000000
# 6 0.000000 0.000000 0.000000 0.000000 0.000000 0.039999
#
#
# Mechanical properties :
#
#
# Convention : Reuss Voigt Hill
#
# Bulk Modulus (GPa) = 15.97528 50.74794 33.36161
# Shear Modulus (GPa) = 15.42620 23.74769 19.58695
#
# Velocity S-wave (km/s) = 2.84324 3.52773 3.20382
# Velocity P-wave (km/s) = 4.37613 6.57172 5.58292
#
# Compressibility (1/GPa) = 0.06259669
#
# Stress axis : x y z
#
# Youngs Moduli (GPa) = 54.29407 66.42167 11.52846
#
# Poissons Ratio (x) = 0.44252 -0.01341
# Poissons Ratio (y) = 0.36172 0.26873
# Poissons Ratio (z) = -0.06315 1.54830
#
# Static dielectric constant tensor:
#      x y z
#    x 3.148490 0.000000 0.000000 
#    y 0.000000 4.065040 0.000000 
#    z 0.000000 0.000000 3.533370 
# 
# 
# High freq. dielectric constant tensor:
#      x y z
#    x 1.699940 0.000000 0.000000 
#    y 0.000000 1.759720 0.000000 
#    z 0.000000 0.000000 1.751350 
# 
# From -- ./inp_files/21503.got.cif
#   From: 2010.06.25/outbox.cif.g09.slc.cpg/sg58_11_cif.got.tgz:21503.got - 2010.06.26 21:38:00.
