data_PCOD8235644
_publ_section_title
;
Structure prediction by ZEFSAII (Michael W. Deem and Ramdas Pophale) SiO2 
 PCOD8235644
Probable space group: P N N M
;
_chemical_formula_sum "Si O2"
_cell_formula_units_Z 56
_cell_length_a 22.197416
_cell_length_b 15.493948
_cell_length_c 9.221235
_cell_angle_alpha 90.000000
_cell_angle_beta 90.000000
_cell_angle_gamma 90.000000
_cell_volume 3171.418865
_symmetry_space_group_name_H-M "P N N M"
_symmetry_group_IT_number 58
_symmetry_cell_setting 'orthorhombic'
loop_
_space_group_symop_operation_xyz
x,y,z
-x,-y,z
1/2+x,1/2-y,1/2-z
1/2-x,1/2+y,1/2-z
-x,-y,-z
x,y,-z
1/2-x,1/2+y,1/2+z
1/2+x,1/2-y,1/2+z
loop_
_atom_site_type_symbol
_atom_site_label
_atom_site_fract_x
_atom_site_fract_y
_atom_site_fract_z
Si Si1 0.052697 0.566382 0.837686
Si Si2 0.310917 0.049204 0.663989
Si Si3 0.989623 0.866206 0.170186
Si Si4 0.322768 0.244536 0.330093
Si Si5 0.555677 0.766646 0.829713
Si Si6 0.222488 0.927218 0.170171
Si Si7 0.904261 0.010197 0.830105
O O1 0.118781 0.524195 0.823998
O O2 0.045848 0.634472 0.709911
O O3 0.000000 0.500000 0.809501
O O4 0.046812 0.607075 0.000000
O O5 0.287540 0.040829 0.500000
O O6 0.299057 0.149060 0.717764
O O7 0.277452 0.977537 0.758311
O O8 0.996318 0.780665 0.266168
O O9 0.044017 0.926515 0.226995
O O10 0.925463 0.912067 0.204630
O O11 0.994609 0.845144 0.000000
O O12 0.339131 0.241489 0.500000
O O13 0.383776 0.268670 0.246064
O O14 0.276008 0.323208 0.297655
O O15 0.560867 0.753792 0.000000
O O16 0.160982 0.968348 0.236809
O O17 0.227255 0.943923 0.000000
O O18 0.899871 0.024975 0.000000
#
# Coordination Sequence:
#
# PCOD8235644 Si02
#       7
#     8   8   8   8   8   8   8
#     4   9  19  38  60  75  93 130 175 213 251 303
#     4   9  19  34  53  79 104 128 165 214 263 305
#     4   9  15  29  49  70  98 133 172 208 238 283
#     4   9  18  35  55  71  96 139 184 213 241 304
#     4  11  20  29  48  79 108 131 162 210 263 306
#     4  10  18  32  54  77 101 136 177 212 252 301
#     4   8  15  27  49  73  94 130 177 210 232 279
#
# _framework density 17.657712
#
# number of rings (size 3 to 8) (size 9 to 14) (size 15 to 20)
#    0.000    2.714    1.429    3.000    0.000    3.143 
#    0.000    3.571    0.000    5.143    0.000    0.000 
#    0.000    0.000    0.000    0.000    0.000    0.000 
#
# Total GULP energy -693849.695242 kJ/mol
# GULP energy per Si atom -12390.173129 kJ/mol
# Density = 1.761752 g / cm^3
# Si number density = 17.657712 Si / 1000 Ang^3
#
#
#
# Elastic Constant Matrix: (Units=GPa)
#
#
# Indices 1 2 3 4 5 6 
#
# 1 77.7864 53.7913 23.9834 0.0000 0.0000 0.0000
# 2 53.7913 99.5678 39.0086 0.0000 0.0000 0.0000
# 3 23.9834 39.0086 61.7693 0.0000 0.0000 0.0000
# 4 0.0000 0.0000 0.0000 22.9799 0.0000 0.0000
# 5 0.0000 0.0000 0.0000 0.0000 16.3916 0.0000
# 6 0.0000 0.0000 0.0000 0.0000 0.0000 35.4399
#
#
#
# Elastic Compliance Matrix: (Units=1/GPa)
#
#
# Indices 1 2 3 4 5 6 
#
# 1 0.020600 -0.010624 -0.001289 0.000000 0.000000 0.000000
# 2 -0.010624 0.018824 -0.007763 0.000000 0.000000 0.000000
# 3 -0.001289 -0.007763 0.021592 0.000000 0.000000 0.000000
# 4 0.000000 0.000000 0.000000 0.043516 0.000000 0.000000
# 5 0.000000 0.000000 0.000000 0.000000 0.061007 0.000000
# 6 0.000000 0.000000 0.000000 0.000000 0.000000 0.028217
#
#
# Mechanical properties :
#
#
# Convention : Reuss Voigt Hill
#
# Bulk Modulus (GPa) = 46.15870 52.52113 49.33991
# Shear Modulus (GPa) = 20.80469 23.11829 21.96149
#
# Velocity S-wave (km/s) = 3.43625 3.62228 3.53049
# Velocity P-wave (km/s) = 6.47621 6.87772 6.67998
#
# Compressibility (1/GPa) = 0.02166439
#
# Stress axis : x y z
#
# Youngs Moduli (GPa) = 48.54372 53.12259 46.31291
#
# Poissons Ratio (x) = 0.56438 0.05970
# Poissons Ratio (y) = 0.51573 0.35952
# Poissons Ratio (z) = 0.06258 0.41239
#
# Static dielectric constant tensor:
#      x y z
#    x 3.211100 0.000000 0.000000 
#    y 0.000000 3.366120 0.000000 
#    z 0.000000 0.000000 2.998220 
# 
# 
# High freq. dielectric constant tensor:
#      x y z
#    x 1.660170 0.000000 0.000000 
#    y 0.000000 1.682290 0.000000 
#    z 0.000000 0.000000 1.658610 
# 
# From -- ./inp_files/9187.got.cif
#   From: 2010.06.25/outbox.cif.g09.slc.cpg/sg58_5_cif.got.tgz:9187.got - 2010.06.26 21:38:00.
