data_PCOD8235606
_publ_section_title
;
Structure prediction by ZEFSAII (Michael W. Deem and Ramdas Pophale) SiO2 
 PCOD8235606
Probable space group: P N N M
;
_chemical_formula_sum "Si O2"
_cell_formula_units_Z 64
_cell_length_a 8.935797
_cell_length_b 18.315413
_cell_length_c 22.567373
_cell_angle_alpha 90.000000
_cell_angle_beta 90.000000
_cell_angle_gamma 90.000000
_cell_volume 3693.439737
_symmetry_space_group_name_H-M "P N N M"
_symmetry_group_IT_number 58
_symmetry_cell_setting 'orthorhombic'
loop_
_space_group_symop_operation_xyz
x,y,z
-x,-y,z
1/2+x,1/2-y,1/2-z
1/2-x,1/2+y,1/2-z
-x,-y,-z
x,y,-z
1/2-x,1/2+y,1/2+z
1/2+x,1/2-y,1/2+z
loop_
_atom_site_type_symbol
_atom_site_label
_atom_site_fract_x
_atom_site_fract_y
_atom_site_fract_z
Si Si1 0.888724 0.254176 0.328044
Si Si2 0.782071 0.729930 0.353198
Si Si3 0.122449 0.877017 0.070377
Si Si4 0.338472 0.002438 0.933988
Si Si5 0.328272 0.020888 0.228230
Si Si6 0.096196 0.655501 0.791606
Si Si7 0.199496 0.121803 0.876296
Si Si8 0.270448 0.864762 0.265329
O O1 0.897020 0.300689 0.269086
O O2 0.762119 0.296428 0.366544
O O3 0.850687 0.170801 0.309846
O O4 0.044312 0.250293 0.363391
O O5 0.722735 0.693136 0.413422
O O6 0.682837 0.802479 0.343477
O O7 0.770224 0.677030 0.296961
O O8 0.976653 0.872966 0.112206
O O9 0.215037 0.947469 0.093149
O O10 0.084455 0.878396 0.000000
O O11 0.276000 0.085317 0.934000
O O12 0.500000 0.000000 0.900589
O O13 0.364559 0.973909 0.000000
O O14 0.326660 0.076726 0.283352
O O15 0.244567 0.061129 0.173738
O O16 0.500000 0.000000 0.210816
O O17 0.237813 0.949276 0.249936
O O18 0.921290 0.644428 0.804029
#
# Coordination Sequence:
#
# PCOD8235606 Si02
#       8
#     8   8   8   8   8   8   8   8
#     4   9  18  29  47  70  94 125 160 194 232 286
#     4  10  18  32  48  64  93 129 160 194 242 282
#     4  11  23  35  48  68  93 125 170 215 246 280
#     4  10  20  33  47  63  87 120 159 200 237 273
#     4   9  17  29  48  73 102 131 159 187 228 290
#     4   8  16  29  46  69  96 125 156 192 228 280
#     4  11  19  31  47  67  94 126 160 194 235 275
#     4   9  16  29  47  70  96 124 156 190 230 282
#
# _framework density 17.328019999999999
#
# number of rings (size 3 to 8) (size 9 to 14) (size 15 to 20)
#    0.000    2.375    0.000    4.125    0.000    4.000 
#    0.000    2.500    0.000    0.000    0.000    0.000 
#    0.000   15.500    0.000    0.000    0.000    0.250 
#
# Total GULP energy -792841.997025 kJ/mol
# GULP energy per Si atom -12388.156204 kJ/mol
# Density = 1.728858 g / cm^3
# Si number density = 17.328020 Si / 1000 Ang^3
#
#
#
# Elastic Constant Matrix: (Units=GPa)
#
#
# Indices 1 2 3 4 5 6 
#
# 1 96.0272 26.6277 25.8717 0.0000 0.0000 0.0000
# 2 26.6277 94.6299 30.0734 0.0000 0.0000 0.0000
# 3 25.8717 30.0734 38.5359 0.0000 0.0000 0.0000
# 4 0.0000 0.0000 0.0000 17.9841 0.0000 0.0000
# 5 0.0000 0.0000 0.0000 0.0000 18.4224 0.0000
# 6 0.0000 0.0000 0.0000 0.0000 0.0000 28.9190
#
#
#
# Elastic Compliance Matrix: (Units=1/GPa)
#
#
# Indices 1 2 3 4 5 6 
#
# 1 0.012808 -0.001159 -0.007695 0.000000 0.000000 0.000000
# 2 -0.001159 0.014158 -0.010271 0.000000 0.000000 0.000000
# 3 -0.007695 -0.010271 0.039131 0.000000 0.000000 0.000000
# 4 0.000000 0.000000 0.000000 0.055605 0.000000 0.000000
# 5 0.000000 0.000000 0.000000 0.000000 0.054282 0.000000
# 6 0.000000 0.000000 0.000000 0.000000 0.000000 0.034579
#
#
# Mechanical properties :
#
#
# Convention : Reuss Voigt Hill
#
# Bulk Modulus (GPa) = 35.90843 43.81539 39.86191
# Shear Modulus (GPa) = 19.37284 22.83978 21.10631
#
# Velocity S-wave (km/s) = 3.34729 3.63448 3.49384
# Velocity P-wave (km/s) = 5.97552 6.55388 6.27137
#
# Compressibility (1/GPa) = 0.02784861
#
# Stress axis : x y z
#
# Youngs Moduli (GPa) = 78.07552 70.63370 25.55517
#
# Poissons Ratio (x) = 0.08184 0.19664
# Poissons Ratio (y) = 0.09046 0.26247
# Poissons Ratio (z) = 0.60077 0.72546
#
# Static dielectric constant tensor:
#      x y z
#    x 3.459300 0.000000 0.000000 
#    y 0.000000 3.406150 0.000000 
#    z 0.000000 0.000000 2.899100 
# 
# 
# High freq. dielectric constant tensor:
#      x y z
#    x 1.680580 0.000000 0.000000 
#    y 0.000000 1.659410 0.000000 
#    z 0.000000 0.000000 1.617610 
# 
# From -- ./inp_files/31672.got.cif
#   From: 2010.06.25/outbox.cif.g09.slc.cpg/sg58_16_cif.got.tgz:31672.got - 2010.06.26 21:38:00.
