data_PCOD8235956
_publ_section_title
;
Structure prediction by ZEFSAII (Michael W. Deem and Ramdas Pophale) SiO2 
 PCOD8235956
Probable space group: P N N M
;
_chemical_formula_sum "Si O2"
_cell_formula_units_Z 32
_cell_length_a 13.239892
_cell_length_b 15.493796
_cell_length_c 8.843367
_cell_angle_alpha 90.000000
_cell_angle_beta 90.000000
_cell_angle_gamma 90.000000
_cell_volume 1814.094575
_symmetry_space_group_name_H-M "P N N M"
_symmetry_group_IT_number 58
_symmetry_cell_setting 'orthorhombic'
loop_
_space_group_symop_operation_xyz
x,y,z
-x,-y,z
1/2+x,1/2-y,1/2-z
1/2-x,1/2+y,1/2-z
-x,-y,-z
x,y,-z
1/2-x,1/2+y,1/2+z
1/2+x,1/2-y,1/2+z
loop_
_atom_site_type_symbol
_atom_site_label
_atom_site_fract_x
_atom_site_fract_y
_atom_site_fract_z
Si Si1 0.188912 0.429428 0.678422
Si Si2 0.999083 0.625644 0.171265
Si Si3 0.824300 0.741330 0.828257
Si Si4 0.725087 0.897982 0.678501
O O1 0.199666 0.426565 0.500000
O O2 0.070525 0.439879 0.729245
O O3 0.233223 0.340296 0.749409
O O4 0.250749 0.510383 0.744808
O O5 0.945041 0.720388 0.177715
O O6 0.113231 0.632979 0.230854
O O7 0.997860 0.589957 0.000000
O O8 0.805221 0.828618 0.737171
O O9 0.785618 0.751131 0.000000
O O10 0.735123 0.906682 0.500000
#
# Coordination Sequence:
#
# PCOD8235956 Si02
#       4
#     8   8   8   8
#     4  10  19  31  48  74 101 127 162 201 239 285
#     4   8  18  33  48  70 102 128 157 199 244 287
#     4   9  19  34  47  70 100 129 161 201 241 287
#     4  11  19  31  52  74  98 132 160 196 249 288
#
# _framework density 17.639654
#
# number of rings (size 3 to 8) (size 9 to 14) (size 15 to 20)
#    1.500    1.000    0.000    3.750    0.000    5.000 
#    0.000    0.000    0.000    1.500    0.000   10.500 
#    0.000    0.000    0.000    0.000    0.000    0.000 
#
# Total GULP energy -396456.917566 kJ/mol
# GULP energy per Si atom -12389.278674 kJ/mol
# Density = 1.759951 g / cm^3
# Si number density = 17.639654 Si / 1000 Ang^3
#
#
#
# Elastic Constant Matrix: (Units=GPa)
#
#
# Indices 1 2 3 4 5 6 
#
# 1 7.8669 -10.5503 -1.2836 0.0000 0.0000 0.0000
# 2 -10.5503 50.9590 22.6104 0.0000 0.0000 0.0000
# 3 -1.2836 22.6104 110.9179 0.0000 0.0000 0.0000
# 4 0.0000 0.0000 0.0000 34.6681 0.0000 0.0000
# 5 0.0000 0.0000 0.0000 0.0000 16.4742 0.0000
# 6 0.0000 0.0000 0.0000 0.0000 0.0000 20.5002
#
#
#
# Elastic Compliance Matrix: (Units=1/GPa)
#
#
# Indices 1 2 3 4 5 6 
#
# 1 0.179592 0.039865 -0.006048 0.000000 0.000000 0.000000
# 2 0.039865 0.030424 -0.005741 0.000000 0.000000 0.000000
# 3 -0.006048 -0.005741 0.010116 0.000000 0.000000 0.000000
# 4 0.000000 0.000000 0.000000 0.028845 0.000000 0.000000
# 5 0.000000 0.000000 0.000000 0.000000 0.060701 0.000000
# 6 0.000000 0.000000 0.000000 0.000000 0.000000 0.048780
#
#
# Mechanical properties :
#
#
# Convention : Reuss Voigt Hill
#
# Bulk Modulus (GPa) = 3.61944 21.25520 12.43732
# Shear Modulus (GPa) = 12.67748 24.92631 18.80189
#
# Velocity S-wave (km/s) = 2.68375 3.76318 3.26834
# Velocity P-wave (km/s) = 3.41463 5.56398 4.61614
#
# Compressibility (1/GPa) = 0.27628579
#
# Stress axis : x y z
#
# Youngs Moduli (GPa) = 5.56817 32.86852 98.85434
#
# Poissons Ratio (x) = -1.31032 0.59788
# Poissons Ratio (y) = -0.22198 0.56748
# Poissons Ratio (z) = 0.03368 0.18868
#
# Static dielectric constant tensor:
#      x y z
#    x 2.929550 0.000000 0.000000 
#    y 0.000000 3.170680 0.000000 
#    z 0.000000 0.000000 3.209640 
# 
# 
# High freq. dielectric constant tensor:
#      x y z
#    x 1.627740 0.000000 0.000000 
#    y 0.000000 1.678890 0.000000 
#    z 0.000000 0.000000 1.692030 
# 
# From -- ./inp_files/3489.got.cif
#   From: 2010.06.25/outbox.cif.g09.slc.cpg/sg58_2_cif.got.tgz:3489.got - 2010.06.26 21:38:00.
