data_PCOD8235028
_publ_section_title
;
Structure prediction by ZEFSAII (Michael W. Deem and Ramdas Pophale) SiO2 
 PCOD8235028
Probable space group: P B C M
;
_chemical_formula_sum "Si O2"
_cell_formula_units_Z 32
_cell_length_a 7.764110
_cell_length_b 26.395949
_cell_length_c 8.898865
_cell_angle_alpha 90.000000
_cell_angle_beta 90.000000
_cell_angle_gamma 90.000000
_cell_volume 1823.742751
_symmetry_space_group_name_H-M "P B C M"
_symmetry_group_IT_number 57
_symmetry_cell_setting 'orthorhombic'
loop_
_space_group_symop_operation_xyz
x,y,z
-x,-y,1/2+z
x,1/2-y,-z
-x,1/2+y,1/2-z
-x,-y,-z
x,y,1/2-z
-x,1/2+y,z
x,1/2-y,1/2+z
loop_
_atom_site_type_symbol
_atom_site_label
_atom_site_fract_x
_atom_site_fract_y
_atom_site_fract_z
Si Si1 0.351550 0.854942 0.572414
Si Si2 0.474668 0.552817 0.919767
Si Si3 0.001928 0.303794 0.927300
Si Si4 0.688833 0.854851 0.419830
O O1 0.373388 0.857193 0.750000
O O2 0.333763 0.912585 0.508097
O O3 0.185973 0.822845 0.523124
O O4 0.520958 0.828559 0.498231
O O5 0.409901 0.543629 0.750000
O O6 0.655592 0.584224 0.920188
O O7 0.500000 0.500000 0.000000
O O8 0.018024 0.299373 0.750000
O O9 0.041289 0.250000 0.000000
O O10 0.140528 0.343959 0.986380
O O11 0.707099 0.834034 0.250000
#
# Coordination Sequence:
#
# PCOD8235028 Si02
#       4
#     8   8   8   8
#     4   9  19  36  56  80 111 144 183 225 269 323
#     4   9  18  33  57  83 108 145 180 222 274 321
#     4  11  23  37  57  81 109 146 183 226 272 320
#     4   9  20  36  56  81 111 144 181 225 270 321
#
# _framework density 17.546333000000001
#
# number of rings (size 3 to 8) (size 9 to 14) (size 15 to 20)
#    1.500    1.000    0.000    2.250    0.000    5.000 
#    0.000    3.750    0.000    0.000    0.000    0.000 
#    0.000    0.000    0.000    0.000    0.000    0.000 
#
# Total GULP energy -396508.732934 kJ/mol
# GULP energy per Si atom -12390.897904 kJ/mol
# Density = 1.750640 g / cm^3
# Si number density = 17.546333 Si / 1000 Ang^3
#
#
#
# Elastic Constant Matrix: (Units=GPa)
#
#
# Indices 1 2 3 4 5 6 
#
# 1 87.2766 15.1186 48.6845 0.0000 0.0000 0.0000
# 2 15.1186 66.7375 32.4247 0.0000 0.0000 0.0000
# 3 48.6845 32.4247 105.5755 0.0000 0.0000 0.0000
# 4 0.0000 0.0000 0.0000 27.1352 0.0000 0.0000
# 5 0.0000 0.0000 0.0000 0.0000 27.6714 0.0000
# 6 0.0000 0.0000 0.0000 0.0000 0.0000 23.8903
#
#
#
# Elastic Compliance Matrix: (Units=1/GPa)
#
#
# Indices 1 2 3 4 5 6 
#
# 1 0.015426 -0.000045 -0.007100 0.000000 0.000000 0.000000
# 2 -0.000045 0.017612 -0.005388 0.000000 0.000000 0.000000
# 3 -0.007100 -0.005388 0.014401 0.000000 0.000000 0.000000
# 4 0.000000 0.000000 0.000000 0.036853 0.000000 0.000000
# 5 0.000000 0.000000 0.000000 0.000000 0.036138 0.000000
# 6 0.000000 0.000000 0.000000 0.000000 0.000000 0.041858
#
#
# Mechanical properties :
#
#
# Convention : Reuss Voigt Hill
#
# Bulk Modulus (GPa) = 44.69736 50.22724 47.46230
# Shear Modulus (GPa) = 25.66587 26.63017 26.14802
#
# Velocity S-wave (km/s) = 3.82874 3.90000 3.86453
# Velocity P-wave (km/s) = 6.71378 6.99769 6.85720
#
# Compressibility (1/GPa) = 0.02237269
#
# Stress axis : x y z
#
# Youngs Moduli (GPa) = 64.82605 56.77866 69.44157
#
# Poissons Ratio (x) = 0.00257 0.49300
# Poissons Ratio (y) = 0.00293 0.37417
# Poissons Ratio (z) = 0.46023 0.30594
#
# Static dielectric constant tensor:
#      x y z
#    x 3.125410 0.000000 0.000000 
#    y 0.000000 3.029260 0.000000 
#    z 0.000000 0.000000 3.405200 
# 
# 
# High freq. dielectric constant tensor:
#      x y z
#    x 1.659450 0.000000 0.000000 
#    y 0.000000 1.661110 0.000000 
#    z 0.000000 0.000000 1.700450 
# 
# From -- ./inp_files/786.got.cif
#   From: 2010.03.12/outbox.cif.g09.slc.cpg/sg57_1_cif.got.tgz:786.got - 2010.04.16 15:48:40.
