data_PCOD8235433
_publ_section_title
;
Structure prediction by ZEFSAII (Michael W. Deem and Ramdas Pophale) SiO2 
 PCOD8235433
Probable space group: P N N M
;
_chemical_formula_sum "Si O2"
_cell_formula_units_Z 48
_cell_length_a 16.961213
_cell_length_b 19.624960
_cell_length_c 9.053302
_cell_angle_alpha 90.000000
_cell_angle_beta 90.000000
_cell_angle_gamma 90.000000
_cell_volume 3013.510410
_symmetry_space_group_name_H-M "P N N M"
_symmetry_group_IT_number 58
_symmetry_cell_setting 'orthorhombic'
loop_
_space_group_symop_operation_xyz
x,y,z
-x,-y,z
1/2+x,1/2-y,1/2-z
1/2-x,1/2+y,1/2-z
-x,-y,-z
x,y,-z
1/2-x,1/2+y,1/2+z
1/2+x,1/2-y,1/2+z
loop_
_atom_site_type_symbol
_atom_site_label
_atom_site_fract_x
_atom_site_fract_y
_atom_site_fract_z
Si Si1 0.151244 0.587411 0.673257
Si Si2 0.415657 0.964811 0.333567
Si Si3 0.693915 0.386521 0.832937
Si Si4 0.513499 0.155497 0.173184
Si Si5 0.048093 0.194085 0.666924
Si Si6 0.947264 0.936306 0.825825
O O1 0.163288 0.579063 0.500000
O O2 0.144783 0.512077 0.743305
O O3 0.225815 0.625473 0.743840
O O4 0.075224 0.632941 0.711116
O O5 0.384329 0.955351 0.500000
O O6 0.422780 0.891453 0.256142
O O7 0.500000 0.000000 0.331282
O O8 0.643765 0.315689 0.832289
O O9 0.638707 0.443584 0.752428
O O10 0.712839 0.410029 0.000000
O O11 0.525319 0.232328 0.231658
O O12 0.531059 0.149552 0.000000
O O13 0.015305 0.186737 0.500000
O O14 0.010630 0.133670 0.767803
O O15 0.935421 0.932597 0.000000
O O16 0.000000 0.000000 0.777676
#
# Coordination Sequence:
#
# PCOD8235433 Si02
#       6
#     8   8   8   8   8   8
#     4  10  18  29  49  72  96 126 160 199 241 288
#     4   9  17  28  44  69  97 124 158 196 233 279
#     4   9  18  31  49  69  94 123 157 198 240 286
#     4   9  17  31  49  70  96 127 161 195 238 288
#     4   8  17  31  49  70  94 126 160 195 237 286
#     4   9  17  30  50  72  93 118 157 200 235 279
#
# _framework density 15.928267999999999
#
# number of rings (size 3 to 8) (size 9 to 14) (size 15 to 20)
#    1.000    2.000    0.000    1.500    0.000    4.667 
#    0.000    0.000    3.667    0.000    0.000    0.000 
#    0.000    0.000    0.000    0.000    0.000    0.000 
#
# Total GULP energy -594791.199720 kJ/mol
# GULP energy per Si atom -12391.483327 kJ/mol
# Density = 1.589201 g / cm^3
# Si number density = 15.928268 Si / 1000 Ang^3
#
#
#
# Elastic Constant Matrix: (Units=GPa)
#
#
# Indices 1 2 3 4 5 6 
#
# 1 64.0983 39.3413 37.7467 0.0000 0.0000 0.0000
# 2 39.3413 123.3815 50.0044 0.0000 0.0000 0.0000
# 3 37.7467 50.0044 90.1577 0.0000 0.0000 0.0000
# 4 0.0000 0.0000 0.0000 21.6626 0.0000 0.0000
# 5 0.0000 0.0000 0.0000 0.0000 24.8239 0.0000
# 6 0.0000 0.0000 0.0000 0.0000 0.0000 17.5961
#
#
#
# Elastic Compliance Matrix: (Units=1/GPa)
#
#
# Indices 1 2 3 4 5 6 
#
# 1 0.022345 -0.004300 -0.006970 0.000000 0.000000 0.000000
# 2 -0.004300 0.011283 -0.004457 0.000000 0.000000 0.000000
# 3 -0.006970 -0.004457 0.016482 0.000000 0.000000 0.000000
# 4 0.000000 0.000000 0.000000 0.046162 0.000000 0.000000
# 5 0.000000 0.000000 0.000000 0.000000 0.040284 0.000000
# 6 0.000000 0.000000 0.000000 0.000000 0.000000 0.056831
#
#
# Mechanical properties :
#
#
# Convention : Reuss Voigt Hill
#
# Bulk Modulus (GPa) = 53.60692 59.09135 56.34913
# Shear Modulus (GPa) = 21.63940 22.85287 22.24614
#
# Velocity S-wave (km/s) = 3.68985 3.79190 3.74123
# Velocity P-wave (km/s) = 7.20289 7.50668 7.35636
#
# Compressibility (1/GPa) = 0.01865431
#
# Stress axis : x y z
#
# Youngs Moduli (GPa) = 44.75289 88.63277 60.67150
#
# Poissons Ratio (x) = 0.38111 0.42290
# Poissons Ratio (y) = 0.19243 0.27044
# Poissons Ratio (z) = 0.31194 0.39507
#
# Static dielectric constant tensor:
#      x y z
#    x 2.775880 0.000000 0.000000 
#    y 0.000000 2.951330 0.000000 
#    z 0.000000 0.000000 3.091890 
# 
# 
# High freq. dielectric constant tensor:
#      x y z
#    x 1.582560 0.000000 0.000000 
#    y 0.000000 1.594790 0.000000 
#    z 0.000000 0.000000 1.625410 
# 
# From -- ./inp_files/8070.got.cif
#   From: 2010.06.25/outbox.cif.g09.slc.cpg/sg58_5_cif.got.tgz:8070.got - 2010.06.26 21:38:00.
