data_PCOD8235083
_publ_section_title
;
Structure prediction by ZEFSAII (Michael W. Deem and Ramdas Pophale) SiO2 
 PCOD8235083
Probable space group: P B C M
;
_chemical_formula_sum "Si O2"
_cell_formula_units_Z 40
_cell_length_a 13.464778
_cell_length_b 9.177119
_cell_length_c 14.372942
_cell_angle_alpha 90.000000
_cell_angle_beta 90.000000
_cell_angle_gamma 90.000000
_cell_volume 1776.033829
_symmetry_space_group_name_H-M "P B C M"
_symmetry_group_IT_number 57
_symmetry_cell_setting 'orthorhombic'
loop_
_space_group_symop_operation_xyz
x,y,z
-x,-y,1/2+z
x,1/2-y,-z
-x,1/2+y,1/2-z
-x,-y,-z
x,y,1/2-z
-x,1/2+y,z
x,1/2-y,1/2+z
loop_
_atom_site_type_symbol
_atom_site_label
_atom_site_fract_x
_atom_site_fract_y
_atom_site_fract_z
Si Si1 0.565222 0.472419 0.750000
Si Si2 0.743362 0.880986 0.563467
Si Si3 0.674705 0.115225 0.435616
Si Si4 0.369517 0.304888 0.750000
Si Si5 0.900174 0.323998 0.595997
Si Si6 0.071699 0.521531 0.649905
O O1 0.608011 0.400117 0.656036
O O2 0.448947 0.435202 0.750000
O O3 0.579738 0.646081 0.750000
O O4 0.780990 0.750000 0.500000
O O5 0.697313 0.821379 0.658556
O O6 0.839220 0.981863 0.580113
O O7 0.664664 0.974901 0.503227
O O8 0.639920 0.250000 0.500000
O O9 0.785705 0.132109 0.396524
O O10 0.929766 0.250000 0.500000
O O11 0.965596 0.467743 0.611985
O O12 0.928213 0.195416 0.667677
O O13 0.091210 0.447292 0.750000
#
# Coordination Sequence:
#
# PCOD8235083 Si02
#       6
#     4   8   8   4   8   8
#     4  12  30  50  75 112 139 182 235 296 362 428
#     4  12  25  48  72 104 144 186 239 286 356 418
#     4  11  26  47  76 104 144 192 235 295 349 424
#     4  12  30  50  77 108 141 180 235 298 358 438
#     4  11  24  42  64  98 139 188 237 282 345 411
#     4  12  25  40  65 101 140 188 234 289 341 414
#
# _framework density 22.522093999999999
#
# number of rings (size 3 to 8) (size 9 to 14) (size 15 to 20)
#    0.000    0.400    7.000    1.800    8.400    1.600 
#    0.000    0.000    0.000    0.000    0.000    0.000 
#    0.000    0.000    0.000    0.000    0.000    0.000 
#
# Total GULP energy -495977.857363 kJ/mol
# GULP energy per Si atom -12399.446434 kJ/mol
# Density = 2.247083 g / cm^3
# Si number density = 22.522094 Si / 1000 Ang^3
#
#
#
# Elastic Constant Matrix: (Units=GPa)
#
#
# Indices 1 2 3 4 5 6 
#
# 1 68.0612 10.4015 18.6751 0.0000 0.0000 0.0000
# 2 10.4015 93.9930 6.7122 0.0000 0.0000 0.0000
# 3 18.6751 6.7122 117.0398 0.0000 0.0000 0.0000
# 4 0.0000 0.0000 0.0000 31.7584 0.0000 0.0000
# 5 0.0000 0.0000 0.0000 0.0000 -12.5644 0.0000
# 6 0.0000 0.0000 0.0000 0.0000 0.0000 35.9759
#
#
#
# Elastic Compliance Matrix: (Units=1/GPa)
#
#
# Indices 1 2 3 4 5 6 
#
# 1 0.015588 -0.001554 -0.002398 0.000000 0.000000 0.000000
# 2 -0.001554 0.010838 -0.000374 0.000000 0.000000 0.000000
# 3 -0.002398 -0.000374 0.008948 0.000000 0.000000 0.000000
# 4 0.000000 0.000000 0.000000 0.031488 0.000000 0.000000
# 5 0.000000 0.000000 0.000000 0.000000 -0.079590 0.000000
# 6 0.000000 0.000000 0.000000 0.000000 0.000000 0.027796
#
#
# Mechanical properties :
#
#
# Convention : Reuss Voigt Hill
#
# Bulk Modulus (GPa) = 37.42104 38.96351 38.19227
# Shear Modulus (GPa) = 153.24711 27.25433 90.25072
#
# Velocity S-wave (km/s) = 8.25777 3.48244 6.33712
# Velocity P-wave (km/s) = 10.37171 5.78857 8.39881
#
# Compressibility (1/GPa) = 0.02672294
#
# Stress axis : x y z
#
# Youngs Moduli (GPa) = 64.15134 92.27041 111.75452
#
# Poissons Ratio (x) = 0.14337 0.26801
# Poissons Ratio (y) = 0.09968 0.04175
# Poissons Ratio (z) = 0.15385 0.03447
#
# Static dielectric constant tensor:
#      x y z
#    x 3.703400 0.000000 0.000000 
#    y 0.000000 4.348840 0.000000 
#    z 0.000000 0.000000 4.368960 
# 
# 
# High freq. dielectric constant tensor:
#      x y z
#    x 1.865920 0.000000 0.000000 
#    y 0.000000 1.898540 0.000000 
#    z 0.000000 0.000000 1.915870 
# 
# From -- ./inp_files/18275.got.cif
#   From: 2010.03.12/outbox.cif.g09.slc.cpg/sg57_10_cif.got.tgz:18275.got - 2010.04.16 15:48:40.
