data_PCOD8235040
_publ_section_title
;
Structure prediction by ZEFSAII (Michael W. Deem and Ramdas Pophale) SiO2 
 PCOD8235040
Probable space group: P B C M
;
_chemical_formula_sum "Si O2"
_cell_formula_units_Z 40
_cell_length_a 6.867205
_cell_length_b 15.107250
_cell_length_c 18.753854
_cell_angle_alpha 90.000000
_cell_angle_beta 90.000000
_cell_angle_gamma 90.000000
_cell_volume 1945.610758
_symmetry_space_group_name_H-M "P B C M"
_symmetry_group_IT_number 57
_symmetry_cell_setting 'orthorhombic'
loop_
_space_group_symop_operation_xyz
x,y,z
-x,-y,1/2+z
x,1/2-y,-z
-x,1/2+y,1/2-z
-x,-y,-z
x,y,1/2-z
-x,1/2+y,z
x,1/2-y,1/2+z
loop_
_atom_site_type_symbol
_atom_site_label
_atom_site_fract_x
_atom_site_fract_y
_atom_site_fract_z
Si Si1 0.828679 0.789638 0.169432
Si Si2 0.965703 0.961349 0.104135
Si Si3 0.303301 0.041479 0.471264
Si Si4 0.845669 0.352447 0.667534
Si Si5 0.488346 0.285191 0.577321
O O1 0.751538 0.789831 0.250000
O O2 0.954424 0.878453 0.157207
O O3 0.640057 0.788329 0.118217
O O4 0.960016 0.703696 0.155627
O O5 0.878096 0.048112 0.141029
O O6 0.843202 0.935320 0.034615
O O7 0.192332 0.974885 0.082872
O O8 0.352128 0.129373 0.428257
O O9 0.500000 0.000000 0.500000
O O10 0.781777 0.354127 0.750000
O O11 0.679473 0.306448 0.621562
O O12 0.553100 0.250000 0.500000
#
# Coordination Sequence:
#
# PCOD8235040 Si02
#       5
#     8   8   8   8   8
#     4  11  25  44  64  95 133 174 223 272 328 399
#     4  11  23  41  69  94 130 173 218 270 329 392
#     4  11  23  40  63  99 129 162 219 272 326 386
#     4  11  25  44  65  94 132 177 221 268 331 401
#     4  12  24  41  69  95 131 173 218 278 336 387
#
# _framework density 20.559097999999999
#
# number of rings (size 3 to 8) (size 9 to 14) (size 15 to 20)
#    0.000    0.800    6.000    1.200    2.800    0.800 
#    0.000    0.000    0.000    0.000    0.000    0.000 
#    0.000    0.000    0.000    0.000    0.000    0.000 
#
# Total GULP energy -496159.118944 kJ/mol
# GULP energy per Si atom -12403.977974 kJ/mol
# Density = 2.051230 g / cm^3
# Si number density = 20.559098 Si / 1000 Ang^3
#
#
#
# Elastic Constant Matrix: (Units=GPa)
#
#
# Indices 1 2 3 4 5 6 
#
# 1 97.0325 13.7850 54.4433 0.0000 0.0000 0.0000
# 2 13.7850 73.8470 21.3710 0.0000 0.0000 0.0000
# 3 54.4433 21.3710 125.0699 0.0000 0.0000 0.0000
# 4 0.0000 0.0000 0.0000 34.6301 0.0000 0.0000
# 5 0.0000 0.0000 0.0000 0.0000 23.3771 0.0000
# 6 0.0000 0.0000 0.0000 0.0000 0.0000 29.4068
#
#
#
# Elastic Compliance Matrix: (Units=1/GPa)
#
#
# Indices 1 2 3 4 5 6 
#
# 1 0.013690 -0.000874 -0.005810 0.000000 0.000000 0.000000
# 2 -0.000874 0.014302 -0.002063 0.000000 0.000000 0.000000
# 3 -0.005810 -0.002063 0.010877 0.000000 0.000000 0.000000
# 4 0.000000 0.000000 0.000000 0.028877 0.000000 0.000000
# 5 0.000000 0.000000 0.000000 0.000000 0.042777 0.000000
# 6 0.000000 0.000000 0.000000 0.000000 0.000000 0.034006
#
#
# Mechanical properties :
#
#
# Convention : Reuss Voigt Hill
#
# Bulk Modulus (GPa) = 46.78531 52.79421 49.78976
# Shear Modulus (GPa) = 29.56003 31.23946 30.39974
#
# Velocity S-wave (km/s) = 3.79596 3.90230 3.84950
# Velocity P-wave (km/s) = 6.48215 6.78520 6.63541
#
# Compressibility (1/GPa) = 0.02137423
#
# Stress axis : x y z
#
# Youngs Moduli (GPa) = 73.04697 69.92135 91.93602
#
# Poissons Ratio (x) = 0.06112 0.53413
# Poissons Ratio (y) = 0.06385 0.18969
# Poissons Ratio (z) = 0.42439 0.14427
#
# Static dielectric constant tensor:
#      x y z
#    x 3.708750 0.000000 0.000000 
#    y 0.000000 5.055780 0.000000 
#    z 0.000000 0.000000 3.815500 
# 
# 
# High freq. dielectric constant tensor:
#      x y z
#    x 1.804850 0.000000 0.000000 
#    y 0.000000 1.811190 0.000000 
#    z 0.000000 0.000000 1.811640 
# 
# From -- ./inp_files/19984.got.cif
#   From: 2010.03.12/outbox.cif.g09.slc.cpg/sg57_10_cif.got.tgz:19984.got - 2010.04.16 15:48:40.
