data_PCOD8235904
_publ_section_title
;
Structure prediction by ZEFSAII (Michael W. Deem and Ramdas Pophale) SiO2 
 PCOD8235904
Probable space group: P N N M
;
_chemical_formula_sum "Si O2"
_cell_formula_units_Z 56
_cell_length_a 22.065279
_cell_length_b 10.524167
_cell_length_c 13.429120
_cell_angle_alpha 90.000000
_cell_angle_beta 90.000000
_cell_angle_gamma 90.000000
_cell_volume 3118.492535
_symmetry_space_group_name_H-M "P N N M"
_symmetry_group_IT_number 58
_symmetry_cell_setting 'orthorhombic'
loop_
_space_group_symop_operation_xyz
x,y,z
-x,-y,z
1/2+x,1/2-y,1/2-z
1/2-x,1/2+y,1/2-z
-x,-y,-z
x,y,-z
1/2-x,1/2+y,1/2+z
1/2+x,1/2-y,1/2+z
loop_
_atom_site_type_symbol
_atom_site_label
_atom_site_fract_x
_atom_site_fract_y
_atom_site_fract_z
Si Si1 0.781719 0.673032 0.885326
Si Si2 0.440315 0.243545 0.887188
Si Si3 0.666819 0.386306 0.259154
Si Si4 0.203706 0.585114 0.199280
Si Si5 0.161197 0.835433 0.747016
Si Si6 0.138101 0.504135 0.611153
Si Si7 0.079081 0.235512 0.384666
O O1 0.828344 0.780762 0.845720
O O2 0.812610 0.532908 0.872802
O O3 0.718588 0.678933 0.826706
O O4 0.768679 0.699952 0.000000
O O5 0.400182 0.332714 0.816791
O O6 0.419003 0.097940 0.878220
O O7 0.509571 0.250411 0.852325
O O8 0.433618 0.293378 0.000000
O O9 0.725806 0.379854 0.188190
O O10 0.662343 0.529823 0.304683
O O11 0.609193 0.367750 0.187535
O O12 0.164713 0.714026 0.176931
O O13 0.191574 0.541483 0.313607
O O14 0.165712 0.511209 0.500000
O O15 0.114208 0.365400 0.636112
O O16 0.084724 0.194215 0.500000
#
# Coordination Sequence:
#
# PCOD8235904 Si02
#       7
#     8   8   8   8   8   8   8
#     4  10  19  34  54  73  99 135 176 216 254 293
#     4   9  17  29  48  76 107 139 169 196 245 317
#     4  10  20  32  48  73 106 136 171 207 252 302
#     4   9  18  33  52  71  98 133 174 213 248 296
#     4   9  19  33  51  73 106 135 165 206 256 309
#     4   9  16  30  52  77 104 134 169 211 252 295
#     4  10  19  30  48  77 111 139 165 202 250 308
#
# _framework density 17.957395000000002
#
# number of rings (size 3 to 8) (size 9 to 14) (size 15 to 20)
#    0.000    2.571    1.429    0.857    0.000    8.571 
#    0.000    2.143    0.000    0.000    0.000   10.000 
#    0.000    0.000    0.000    0.000    0.000    0.000 
#
# Total GULP energy -694063.489076 kJ/mol
# GULP energy per Si atom -12393.990876 kJ/mol
# Density = 1.791652 g / cm^3
# Si number density = 17.957395 Si / 1000 Ang^3
#
#
#
# Elastic Constant Matrix: (Units=GPa)
#
#
# Indices 1 2 3 4 5 6 
#
# 1 44.2987 2.3626 10.4986 0.0000 0.0000 0.0000
# 2 2.3626 119.1355 21.8951 0.0000 0.0000 0.0000
# 3 10.4986 21.8951 38.6989 0.0000 0.0000 0.0000
# 4 0.0000 0.0000 0.0000 13.4869 0.0000 0.0000
# 5 0.0000 0.0000 0.0000 0.0000 25.4239 0.0000
# 6 0.0000 0.0000 0.0000 0.0000 0.0000 19.4169
#
#
#
# Elastic Compliance Matrix: (Units=1/GPa)
#
#
# Indices 1 2 3 4 5 6 
#
# 1 0.024195 0.000811 -0.007023 0.000000 0.000000 0.000000
# 2 0.000811 0.009395 -0.005536 0.000000 0.000000 0.000000
# 3 -0.007023 -0.005536 0.030878 0.000000 0.000000 0.000000
# 4 0.000000 0.000000 0.000000 0.074146 0.000000 0.000000
# 5 0.000000 0.000000 0.000000 0.000000 0.039333 0.000000
# 6 0.000000 0.000000 0.000000 0.000000 0.000000 0.051502
#
#
# Mechanical properties :
#
#
# Convention : Reuss Voigt Hill
#
# Bulk Modulus (GPa) = 24.40625 30.18287 27.29456
# Shear Modulus (GPa) = 18.75464 22.82400 20.78932
#
# Velocity S-wave (km/s) = 3.23522 3.56899 3.40619
# Velocity P-wave (km/s) = 5.25131 5.81619 5.54095
#
# Compressibility (1/GPa) = 0.04097312
#
# Stress axis : x y z
#
# Youngs Moduli (GPa) = 41.33066 106.43895 32.38597
#
# Poissons Ratio (x) = -0.08630 0.22743
# Poissons Ratio (y) = -0.03351 0.17927
# Poissons Ratio (z) = 0.29025 0.58919
#
# Static dielectric constant tensor:
#      x y z
#    x 3.179540 0.000000 0.000000 
#    y 0.000000 3.742860 0.000000 
#    z 0.000000 0.000000 2.954430 
# 
# 
# High freq. dielectric constant tensor:
#      x y z
#    x 1.677350 0.000000 0.000000 
#    y 0.000000 1.718000 0.000000 
#    z 0.000000 0.000000 1.645300 
# 
# From -- ./inp_files/14772.got.cif
#   From: 2010.06.25/outbox.cif.g09.slc.cpg/sg58_8_cif.got.tgz:14772.got - 2010.06.26 21:38:00.
