data_PCOD8235354
_publ_section_title
;
Structure prediction by ZEFSAII (Michael W. Deem and Ramdas Pophale) SiO2 
 PCOD8235354
Probable space group: P N N M
;
_chemical_formula_sum "Si O2"
_cell_formula_units_Z 56
_cell_length_a 8.223272
_cell_length_b 20.425494
_cell_length_c 19.016582
_cell_angle_alpha 90.000000
_cell_angle_beta 90.000000
_cell_angle_gamma 90.000000
_cell_volume 3194.108651
_symmetry_space_group_name_H-M "P N N M"
_symmetry_group_IT_number 58
_symmetry_cell_setting 'orthorhombic'
loop_
_space_group_symop_operation_xyz
x,y,z
-x,-y,z
1/2+x,1/2-y,1/2-z
1/2-x,1/2+y,1/2-z
-x,-y,-z
x,y,-z
1/2-x,1/2+y,1/2+z
1/2+x,1/2-y,1/2+z
loop_
_atom_site_type_symbol
_atom_site_label
_atom_site_fract_x
_atom_site_fract_y
_atom_site_fract_z
Si Si1 0.107803 0.850909 0.358145
Si Si2 0.127708 0.667314 0.708091
Si Si3 0.141559 0.715520 0.918702
Si Si4 0.470457 0.780833 0.079978
Si Si5 0.685987 0.518943 0.923313
Si Si6 0.615987 0.231352 0.691130
Si Si7 0.766021 0.902954 0.671548
O O1 0.199706 0.904454 0.405882
O O2 0.245494 0.824907 0.304824
O O3 0.054242 0.789351 0.405871
O O4 0.957678 0.886099 0.317540
O O5 0.306453 0.698203 0.704534
O O6 0.161668 0.601882 0.754778
O O7 0.045930 0.661545 0.630500
O O8 0.012238 0.718820 0.747676
O O9 0.277356 0.772198 0.907125
O O10 0.197401 0.648152 0.884172
O O11 0.972120 0.737096 0.884284
O O12 0.111759 0.702036 0.000000
O O13 0.505893 0.802244 0.000000
O O14 0.500000 0.500000 0.929629
O O15 0.765545 0.474644 0.861465
O O16 0.768944 0.506649 0.000000
#
# Coordination Sequence:
#
# PCOD8235354 Si02
#       7
#     8   8   8   8   8   8   8
#     4   9  17  28  45  66  89 117 154 184 209 253
#     4  10  18  29  43  60  85 115 149 184 220 263
#     4   9  17  28  41  60  86 114 145 179 218 263
#     4   9  17  29  45  63  85 114 145 181 225 266
#     4   9  16  27  44  65  91 123 156 183 206 245
#     4  10  18  28  43  62  85 116 150 181 219 258
#     4   9  17  29  44  62  87 122 156 182 215 251
#
# _framework density 17.532277000000001
#
# number of rings (size 3 to 8) (size 9 to 14) (size 15 to 20)
#    0.000    2.714    0.000    4.286    0.000    6.286 
#    0.000    2.857    0.000    4.286    0.000    0.000 
#    0.000    7.429    0.000    2.286    0.000    3.143 
#
# Total GULP energy -693799.459500 kJ/mol
# GULP energy per Si atom -12389.276063 kJ/mol
# Density = 1.749237 g / cm^3
# Si number density = 17.532277 Si / 1000 Ang^3
#
#
#
# Elastic Constant Matrix: (Units=GPa)
#
#
# Indices 1 2 3 4 5 6 
#
# 1 61.0094 4.4161 24.3959 0.0000 0.0000 0.0000
# 2 4.4161 40.8702 24.6744 0.0000 0.0000 0.0000
# 3 24.3959 24.6744 102.1186 0.0000 0.0000 0.0000
# 4 0.0000 0.0000 0.0000 21.7303 0.0000 0.0000
# 5 0.0000 0.0000 0.0000 0.0000 18.1443 0.0000
# 6 0.0000 0.0000 0.0000 0.0000 0.0000 16.0590
#
#
#
# Elastic Compliance Matrix: (Units=1/GPa)
#
#
# Indices 1 2 3 4 5 6 
#
# 1 0.018143 0.000768 -0.004520 0.000000 0.000000 0.000000
# 2 0.000768 0.028679 -0.007113 0.000000 0.000000 0.000000
# 3 -0.004520 -0.007113 0.012591 0.000000 0.000000 0.000000
# 4 0.000000 0.000000 0.000000 0.046019 0.000000 0.000000
# 5 0.000000 0.000000 0.000000 0.000000 0.055114 0.000000
# 6 0.000000 0.000000 0.000000 0.000000 0.000000 0.062270
#
#
# Mechanical properties :
#
#
# Convention : Reuss Voigt Hill
#
# Bulk Modulus (GPa) = 26.53678 34.55234 30.54456
# Shear Modulus (GPa) = 19.44724 21.22084 20.33404
#
# Velocity S-wave (km/s) = 3.33412 3.48284 3.40929
# Velocity P-wave (km/s) = 5.47637 5.99368 5.74085
#
# Compressibility (1/GPa) = 0.03768354
#
# Stress axis : x y z
#
# Youngs Moduli (GPa) = 55.11862 34.86863 79.42145
#
# Poissons Ratio (x) = -0.02680 0.35898
# Poissons Ratio (y) = -0.04236 0.56494
# Poissons Ratio (z) = 0.24913 0.24803
#
# Static dielectric constant tensor:
#      x y z
#    x 3.498530 0.000000 0.000000 
#    y 0.000000 2.981020 0.000000 
#    z 0.000000 0.000000 3.404130 
# 
# 
# High freq. dielectric constant tensor:
#      x y z
#    x 1.683740 0.000000 0.000000 
#    y 0.000000 1.621030 0.000000 
#    z 0.000000 0.000000 1.671310 
# 
# From -- ./inp_files/25600.got.cif
#   From: 2010.06.25/outbox.cif.g09.slc.cpg/sg58_13_cif.got.tgz:25600.got - 2010.06.26 21:38:00.
