data_PCOD8235646
_publ_section_title
;
Structure prediction by ZEFSAII (Michael W. Deem and Ramdas Pophale) SiO2 
 PCOD8235646
Probable space group: P N N M
;
_chemical_formula_sum "Si O2"
_cell_formula_units_Z 64
_cell_length_a 14.805006
_cell_length_b 24.377883
_cell_length_c 9.220303
_cell_angle_alpha 90.000000
_cell_angle_beta 90.000000
_cell_angle_gamma 90.000000
_cell_volume 3327.742929
_symmetry_space_group_name_H-M "P N N M"
_symmetry_group_IT_number 58
_symmetry_cell_setting 'orthorhombic'
loop_
_space_group_symop_operation_xyz
x,y,z
-x,-y,z
1/2+x,1/2-y,1/2-z
1/2-x,1/2+y,1/2-z
-x,-y,-z
x,y,-z
1/2-x,1/2+y,1/2+z
1/2+x,1/2-y,1/2+z
loop_
_atom_site_type_symbol
_atom_site_label
_atom_site_fract_x
_atom_site_fract_y
_atom_site_fract_z
Si Si1 0.996662 0.668025 0.174037
Si Si2 0.372096 0.743086 0.826349
Si Si3 0.450626 0.943237 0.828890
Si Si4 0.747968 0.548990 0.335824
Si Si5 0.622346 0.644617 0.664016
Si Si6 0.098908 0.015371 0.335059
Si Si7 0.541936 0.369087 0.163517
Si Si8 0.332693 0.237991 0.328557
O O1 0.096355 0.690930 0.218654
O O2 0.917827 0.705408 0.245027
O O3 0.993503 0.606732 0.238265
O O4 0.984053 0.667244 0.000000
O O5 0.420604 0.687672 0.773231
O O6 0.269658 0.731510 0.772436
O O7 0.376984 0.752773 0.000000
O O8 0.348634 0.952252 0.773449
O O9 0.500000 0.000000 0.792591
O O10 0.454958 0.929009 0.000000
O O11 0.747083 0.527485 0.500000
O O12 0.716273 0.612080 0.325650
O O13 0.682181 0.509575 0.249507
O O14 0.588555 0.649357 0.500000
O O15 0.546688 0.611405 0.750759
O O16 0.632641 0.704331 0.735585
O O17 0.103611 0.994068 0.500000
O O18 0.113365 0.081250 0.325206
O O19 0.000000 0.000000 0.270700
O O20 0.511905 0.359249 0.000000
O O21 0.328923 0.241935 0.500000
#
# Coordination Sequence:
#
# PCOD8235646 Si02
#       8
#     8   8   8   8   8   8   8   8
#     4  11  22  38  62  91 119 148 191 245 293 341
#     4  10  20  37  59  82 115 157 195 232 282 349
#     4  10  23  44  65  84 113 153 197 242 288 342
#     4  10  21  36  59  86 109 150 201 238 282 342
#     4  10  18  32  54  77 108 145 185 232 280 334
#     4  10  20  34  52  79 118 153 183 231 289 340
#     4  10  20  33  52  79 110 148 188 227 280 338
#     4   9  19  35  56  82 114 152 190 232 288 344
#
# _framework density 19.232254999999999
#
# number of rings (size 3 to 8) (size 9 to 14) (size 15 to 20)
#    0.000    2.000    2.500    1.125    0.000    4.500 
#    0.000    4.375    0.000    0.000    0.000    0.000 
#    0.000    0.000    0.000    0.000    0.000    0.000 
#
# Total GULP energy -793310.651553 kJ/mol
# GULP energy per Si atom -12395.478931 kJ/mol
# Density = 1.918848 g / cm^3
# Si number density = 19.232255 Si / 1000 Ang^3
#
#
#
# Elastic Constant Matrix: (Units=GPa)
#
#
# Indices 1 2 3 4 5 6 
#
# 1 142.0269 59.3442 44.0412 0.0000 0.0000 0.0000
# 2 59.3442 127.5063 43.5541 0.0000 0.0000 0.0000
# 3 44.0412 43.5541 54.1482 0.0000 0.0000 0.0000
# 4 0.0000 0.0000 0.0000 -0.3733 0.0000 0.0000
# 5 0.0000 0.0000 0.0000 0.0000 23.7129 0.0000
# 6 0.0000 0.0000 0.0000 0.0000 0.0000 29.0440
#
#
#
# Elastic Compliance Matrix: (Units=1/GPa)
#
#
# Indices 1 2 3 4 5 6 
#
# 1 0.009998 -0.002586 -0.006052 0.000000 0.000000 0.000000
# 2 -0.002586 0.011483 -0.007133 0.000000 0.000000 0.000000
# 3 -0.006052 -0.007133 0.029127 0.000000 0.000000 0.000000
# 4 0.000000 0.000000 0.000000 -2.679021 0.000000 0.000000
# 5 0.000000 0.000000 0.000000 0.000000 0.042171 0.000000
# 6 0.000000 0.000000 0.000000 0.000000 0.000000 0.034431
#
#
# Mechanical properties :
#
#
# Convention : Reuss Voigt Hill
#
# Bulk Modulus (GPa) = 52.44713 68.61783 60.53248
# Shear Modulus (GPa) = -1.98893 22.25950 10.13528
#
# Velocity S-wave (km/s) = -1.01804 3.40576 2.29813
# Velocity P-wave (km/s) = 5.09389 7.15692 6.21165
#
# Compressibility (1/GPa) = 0.01906682
#
# Stress axis : x y z
#
# Youngs Moduli (GPa) = 100.01894 87.08634 34.33211
#
# Poissons Ratio (x) = 0.22522 0.20777
# Poissons Ratio (y) = 0.25866 0.24488
# Poissons Ratio (z) = 0.60529 0.62117
#
# Static dielectric constant tensor:
#      x y z
#    x 3.620610 0.000000 0.000000 
#    y 0.000000 3.630600 0.000000 
#    z 0.000000 0.000000 3.306560 
# 
# 
# High freq. dielectric constant tensor:
#      x y z
#    x 1.748730 0.000000 0.000000 
#    y 0.000000 1.758540 0.000000 
#    z 0.000000 0.000000 1.725930 
# 
# From -- ./inp_files/6786.got.cif
#   From: 2010.06.25/outbox.cif.g09.slc.cpg/sg58_4_cif.got.tgz:6786.got - 2010.06.26 21:38:00.
