data_PCOD8235347
_publ_section_title
;
Structure prediction by ZEFSAII (Michael W. Deem and Ramdas Pophale) SiO2 
 PCOD8235347
Probable space group: P N N M
;
_chemical_formula_sum "Si O2"
_cell_formula_units_Z 48
_cell_length_a 16.804899
_cell_length_b 12.639159
_cell_length_c 13.787667
_cell_angle_alpha 90.000000
_cell_angle_beta 90.000000
_cell_angle_gamma 90.000000
_cell_volume 2928.497581
_symmetry_space_group_name_H-M "P N N M"
_symmetry_group_IT_number 58
_symmetry_cell_setting 'orthorhombic'
loop_
_space_group_symop_operation_xyz
x,y,z
-x,-y,z
1/2+x,1/2-y,1/2-z
1/2-x,1/2+y,1/2-z
-x,-y,-z
x,y,-z
1/2-x,1/2+y,1/2+z
1/2+x,1/2-y,1/2+z
loop_
_atom_site_type_symbol
_atom_site_label
_atom_site_fract_x
_atom_site_fract_y
_atom_site_fract_z
Si Si1 0.499425 0.682706 0.278762
Si Si2 0.209784 0.322961 0.109218
Si Si3 0.838269 0.066796 0.265479
Si Si4 0.534042 0.112447 0.611271
Si Si5 0.570752 0.417037 0.893748
Si Si6 0.643560 0.407731 0.611124
O O1 0.587124 0.637059 0.266860
O O2 0.506124 0.801011 0.319149
O O3 0.455365 0.681615 0.173762
O O4 0.446747 0.608671 0.349959
O O5 0.270236 0.357472 0.193037
O O6 0.128980 0.389126 0.123266
O O7 0.193151 0.199433 0.124576
O O8 0.243679 0.341902 0.000000
O O9 0.855260 0.979860 0.348406
O O10 0.811739 0.001245 0.169908
O O11 0.511208 0.139204 0.500000
O O12 0.500000 0.000000 0.643848
O O13 0.500000 0.500000 0.900785
O O14 0.593751 0.373092 0.000000
O O15 0.638597 0.442428 0.500000
#
# Coordination Sequence:
#
# PCOD8235347 Si02
#       6
#     8   8   8   8   8   8
#     4   9  17  28  46  71  93 119 155 192 234 280
#     4   9  18  32  48  67  94 125 156 192 231 274
#     4  10  18  27  47  74  93 117 153 194 237 275
#     4   9  18  33  51  68  90 125 164 196 229 275
#     4   8  14  25  41  64  92 117 146 184 224 271
#     4   9  18  32  48  68  97 128 154 187 235 285
#
# _framework density 16.390657000000001
#
# number of rings (size 3 to 8) (size 9 to 14) (size 15 to 20)
#    0.000    3.000    0.000    3.500    0.000    4.000 
#    0.000    0.000    0.000   10.500    0.000    0.000 
#    0.000    0.000    0.000    0.000    0.000    0.000 
#
# Total GULP energy -594938.199645 kJ/mol
# GULP energy per Si atom -12394.545826 kJ/mol
# Density = 1.635335 g / cm^3
# Si number density = 16.390657 Si / 1000 Ang^3
#
#
#
# Elastic Constant Matrix: (Units=GPa)
#
#
# Indices 1 2 3 4 5 6 
#
# 1 69.5761 42.2752 47.8710 0.0000 0.0000 0.0000
# 2 42.2752 90.5053 66.3741 0.0000 0.0000 0.0000
# 3 47.8710 66.3741 143.1421 0.0000 0.0000 0.0000
# 4 0.0000 0.0000 0.0000 31.4004 0.0000 0.0000
# 5 0.0000 0.0000 0.0000 0.0000 23.9227 0.0000
# 6 0.0000 0.0000 0.0000 0.0000 0.0000 16.9852
#
#
#
# Elastic Compliance Matrix: (Units=1/GPa)
#
#
# Indices 1 2 3 4 5 6 
#
# 1 0.021360 -0.007180 -0.003814 0.000000 0.000000 0.000000
# 2 -0.007180 0.019156 -0.006481 0.000000 0.000000 0.000000
# 3 -0.003814 -0.006481 0.011267 0.000000 0.000000 0.000000
# 4 0.000000 0.000000 0.000000 0.031847 0.000000 0.000000
# 5 0.000000 0.000000 0.000000 0.000000 0.041801 0.000000
# 6 0.000000 0.000000 0.000000 0.000000 0.000000 0.058875
#
#
# Mechanical properties :
#
#
# Convention : Reuss Voigt Hill
#
# Bulk Modulus (GPa) = 59.41088 68.47377 63.94233
# Shear Modulus (GPa) = 22.23536 24.24185 23.23861
#
# Velocity S-wave (km/s) = 3.68718 3.84995 3.76945
# Velocity P-wave (km/s) = 7.37920 7.85046 7.61847
#
# Compressibility (1/GPa) = 0.01683193
#
# Stress axis : x y z
#
# Youngs Moduli (GPa) = 46.81739 52.20251 88.75542
#
# Poissons Ratio (x) = 0.37482 0.33851
# Poissons Ratio (y) = 0.33615 0.57526
# Poissons Ratio (z) = 0.17856 0.33834
#
# Static dielectric constant tensor:
#      x y z
#    x 2.847860 0.000000 0.000000 
#    y 0.000000 2.962130 0.000000 
#    z 0.000000 0.000000 3.436620 
# 
# 
# High freq. dielectric constant tensor:
#      x y z
#    x 1.605560 0.000000 0.000000 
#    y 0.000000 1.613960 0.000000 
#    z 0.000000 0.000000 1.638860 
# 
# From -- ./inp_files/15605.got.cif
#   From: 2010.06.25/outbox.cif.g09.slc.cpg/sg58_8_cif.got.tgz:15605.got - 2010.06.26 21:38:00.
