data_PCOD8235328
_publ_section_title
;
Structure prediction by ZEFSAII (Michael W. Deem and Ramdas Pophale) SiO2 
 PCOD8235328
Probable space group: P N N M
;
_chemical_formula_sum "Si O2"
_cell_formula_units_Z 64
_cell_length_a 26.247638
_cell_length_b 18.512517
_cell_length_c 8.926764
_cell_angle_alpha 90.000000
_cell_angle_beta 90.000000
_cell_angle_gamma 90.000000
_cell_volume 4337.602509
_symmetry_space_group_name_H-M "P N N M"
_symmetry_group_IT_number 58
_symmetry_cell_setting 'orthorhombic'
loop_
_space_group_symop_operation_xyz
x,y,z
-x,-y,z
1/2+x,1/2-y,1/2-z
1/2-x,1/2+y,1/2-z
-x,-y,-z
x,y,-z
1/2-x,1/2+y,1/2+z
1/2+x,1/2-y,1/2+z
loop_
_atom_site_type_symbol
_atom_site_label
_atom_site_fract_x
_atom_site_fract_y
_atom_site_fract_z
Si Si1 0.197826 0.709683 0.824212
Si Si2 0.146747 0.166137 0.323372
Si Si3 0.057613 0.916058 0.827320
Si Si4 0.356571 0.329475 0.823411
Si Si5 0.259485 0.417485 0.174181
Si Si6 0.440071 0.581122 0.326934
Si Si7 0.294363 0.779401 0.675019
Si Si8 0.255865 0.576218 0.177200
O O1 0.150367 0.747913 0.741141
O O2 0.249572 0.747457 0.774731
O O3 0.206179 0.624938 0.779912
O O4 0.189705 0.719115 0.000000
O O5 0.148036 0.178927 0.500000
O O6 0.092845 0.133098 0.277347
O O7 0.153780 0.243997 0.239717
O O8 0.191531 0.112557 0.266131
O O9 0.089701 0.861362 0.726832
O O10 0.998647 0.898704 0.798645
O O11 0.069934 0.998231 0.780371
O O12 0.071731 0.903958 0.000000
O O13 0.310693 0.380003 0.760491
O O14 0.354875 0.323401 0.000000
O O15 0.209626 0.366445 0.198646
O O16 0.250373 0.496130 0.249670
O O17 0.269510 0.429519 0.000000
O O18 0.425573 0.592938 0.500000
O O19 0.287152 0.760329 0.500000
O O20 0.259114 0.571105 0.000000
#
# Coordination Sequence:
#
# PCOD8235328 Si02
#       8
#     8   8   8   8   8   8   8   8
#     4   9  16  26  40  57  79 106 135 169 205 241
#     4  10  18  27  41  59  81 110 140 168 199 239
#     4   9  18  31  44  59  81 107 135 170 209 243
#     4  10  18  27  41  59  81 110 140 168 199 239
#     4   8  14  24  38  57  79 103 133 167 200 233
#     4   9  18  31  44  59  81 107 135 170 209 243
#     4   9  16  26  40  57  79 106 135 169 205 241
#     4   8  14  24  38  57  79 103 133 167 200 233
#
# _framework density 14.754694000000001
#
# number of rings (size 3 to 8) (size 9 to 14) (size 15 to 20)
#    0.000    3.000    0.000    4.500    0.000    2.000 
#    0.000    1.250    0.000   15.000    0.000    0.000 
#    0.000    1.000    0.000   11.500    0.000    3.250 
#
# Total GULP energy -792987.314215 kJ/mol
# GULP energy per Si atom -12390.426785 kJ/mol
# Density = 1.472111 g / cm^3
# Si number density = 14.754694 Si / 1000 Ang^3
#
#
#
# Elastic Constant Matrix: (Units=GPa)
#
#
# Indices 1 2 3 4 5 6 
#
# 1 61.7533 44.8092 27.2548 0.0000 0.0000 0.0000
# 2 44.8092 98.9912 32.8266 0.0000 0.0000 0.0000
# 3 27.2548 32.8266 45.7546 0.0000 0.0000 0.0000
# 4 0.0000 0.0000 0.0000 17.4029 0.0000 0.0000
# 5 0.0000 0.0000 0.0000 0.0000 22.5250 0.0000
# 6 0.0000 0.0000 0.0000 0.0000 0.0000 27.4396
#
#
#
# Elastic Compliance Matrix: (Units=1/GPa)
#
#
# Indices 1 2 3 4 5 6 
#
# 1 0.026981 -0.009032 -0.009591 0.000000 0.000000 0.000000
# 2 -0.009032 0.016279 -0.006299 0.000000 0.000000 0.000000
# 3 -0.009591 -0.006299 0.032088 0.000000 0.000000 0.000000
# 4 0.000000 0.000000 0.000000 0.057462 0.000000 0.000000
# 5 0.000000 0.000000 0.000000 0.000000 0.044395 0.000000
# 6 0.000000 0.000000 0.000000 0.000000 0.000000 0.036444
#
#
# Mechanical properties :
#
#
# Convention : Reuss Voigt Hill
#
# Bulk Modulus (GPa) = 39.21201 46.25340 42.73270
# Shear Modulus (GPa) = 18.38262 20.24740 19.31501
#
# Velocity S-wave (km/s) = 3.53354 3.70843 3.62204
# Velocity P-wave (km/s) = 6.57887 7.05358 6.82035
#
# Compressibility (1/GPa) = 0.02550239
#
# Stress axis : x y z
#
# Youngs Moduli (GPa) = 37.06354 61.42723 31.16387
#
# Poissons Ratio (x) = 0.55484 0.29890
# Poissons Ratio (y) = 0.33477 0.19631
# Poissons Ratio (z) = 0.35549 0.38695
#
# Static dielectric constant tensor:
#      x y z
#    x 2.688700 0.000000 0.000000 
#    y 0.000000 3.290410 0.000000 
#    z 0.000000 0.000000 2.759930 
# 
# 
# High freq. dielectric constant tensor:
#      x y z
#    x 1.528180 0.000000 0.000000 
#    y 0.000000 1.558050 0.000000 
#    z 0.000000 0.000000 1.559140 
# 
# From -- ./inp_files/8528.got.cif
#   From: 2010.06.25/outbox.cif.g09.slc.cpg/sg58_5_cif.got.tgz:8528.got - 2010.06.26 21:38:00.
