data_PCOD8235165
_publ_section_title
;
Structure prediction by ZEFSAII (Michael W. Deem and Ramdas Pophale) SiO2 
 PCOD8235165
Probable space group: P B C M
;
_chemical_formula_sum "Si O2"
_cell_formula_units_Z 40
_cell_length_a 20.712694
_cell_length_b 8.952408
_cell_length_c 10.020340
_cell_angle_alpha 90.000000
_cell_angle_beta 90.000000
_cell_angle_gamma 90.000000
_cell_volume 1858.056490
_symmetry_space_group_name_H-M "P B C M"
_symmetry_group_IT_number 57
_symmetry_cell_setting 'orthorhombic'
loop_
_space_group_symop_operation_xyz
x,y,z
-x,-y,1/2+z
x,1/2-y,-z
-x,1/2+y,1/2-z
-x,-y,-z
x,y,1/2-z
-x,1/2+y,z
x,1/2-y,1/2+z
loop_
_atom_site_type_symbol
_atom_site_label
_atom_site_fract_x
_atom_site_fract_y
_atom_site_fract_z
Si Si1 0.127443 0.082227 0.511778
Si Si2 0.671225 0.250000 0.000000
Si Si3 0.580936 0.221769 0.750000
Si Si4 0.627163 0.750000 0.500000
Si Si5 0.058083 0.915399 0.750000
Si Si6 0.732131 0.529658 0.902892
Si Si7 0.551443 0.618487 0.250000
Si Si8 0.080217 0.940773 0.250000
O O1 0.097551 0.250000 0.500000
O O2 0.201718 0.105551 0.551547
O O3 0.089776 0.986084 0.620103
O O4 0.122609 0.988110 0.376578
O O5 0.625414 0.248019 0.125450
O O6 0.719283 0.110270 0.001487
O O7 0.523080 0.338772 0.750000
O O8 0.550982 0.058747 0.750000
O O9 0.671893 0.638591 0.582082
O O10 0.583890 0.671867 0.387502
O O11 0.065709 0.736028 0.750000
O O12 0.983495 0.958266 0.750000
O O13 0.737928 0.478244 0.750000
#
# Coordination Sequence:
#
# PCOD8235165 Si02
#       8
#     8   4   4   4   4   8   4   4
#     4  12  26  45  75 109 145 187 242 299 358 426
#     4  12  27  46  72 102 139 184 230 294 348 424
#     4  12  28  46  68 102 138 181 235 287 351 414
#     4  12  25  46  72 100 137 186 230 282 352 420
#     4  12  26  50  72 103 150 199 237 300 355 418
#     4  12  26  45  74 104 142 181 232 289 357 424
#     4  12  28  44  70 101 136 181 235 288 343 424
#     4  12  28  46  74 106 146 193 251 291 357 426
#
# _framework density 21.527871000000001
#
# number of rings (size 3 to 8) (size 9 to 14) (size 15 to 20)
#    0.000    0.000    6.000    3.600    5.600    3.200 
#    0.000    0.000    0.000    0.000    0.000    0.000 
#    0.000    0.000    0.000    0.000    0.000    0.000 
#
# Total GULP energy -496159.276817 kJ/mol
# GULP energy per Si atom -12403.981920 kJ/mol
# Density = 2.147887 g / cm^3
# Si number density = 21.527871 Si / 1000 Ang^3
#
#
#
# Elastic Constant Matrix: (Units=GPa)
#
#
# Indices 1 2 3 4 5 6 
#
# 1 76.1610 10.6415 38.9788 0.0000 0.0000 0.0000
# 2 10.6415 123.3066 7.0772 0.0000 0.0000 0.0000
# 3 38.9788 7.0772 128.0552 0.0000 0.0000 0.0000
# 4 0.0000 0.0000 0.0000 34.4445 0.0000 0.0000
# 5 0.0000 0.0000 0.0000 0.0000 33.4561 0.0000
# 6 0.0000 0.0000 0.0000 0.0000 0.0000 35.1650
#
#
#
# Elastic Compliance Matrix: (Units=1/GPa)
#
#
# Indices 1 2 3 4 5 6 
#
# 1 0.015696 -0.001084 -0.004718 0.000000 0.000000 0.000000
# 2 -0.001084 0.008211 -0.000124 0.000000 0.000000 0.000000
# 3 -0.004718 -0.000124 0.009252 0.000000 0.000000 0.000000
# 4 0.000000 0.000000 0.000000 0.029032 0.000000 0.000000
# 5 0.000000 0.000000 0.000000 0.000000 0.029890 0.000000
# 6 0.000000 0.000000 0.000000 0.000000 0.000000 0.028437
#
#
# Mechanical properties :
#
#
# Convention : Reuss Voigt Hill
#
# Bulk Modulus (GPa) = 46.93163 48.99088 47.96126
# Shear Modulus (GPa) = 35.84956 38.66813 37.25884
#
# Velocity S-wave (km/s) = 4.08519 4.24275 4.16471
# Velocity P-wave (km/s) = 6.64074 6.84160 6.74192
#
# Compressibility (1/GPa) = 0.02130759
#
# Stress axis : x y z
#
# Youngs Moduli (GPa) = 63.71019 121.79515 108.08416
#
# Poissons Ratio (x) = 0.13200 0.50992
# Poissons Ratio (y) = 0.06905 0.01339
# Poissons Ratio (z) = 0.30057 0.01509
#
# Static dielectric constant tensor:
#      x y z
#    x 3.965030 0.000000 0.000000 
#    y 0.000000 3.815810 0.000000 
#    z 0.000000 0.000000 4.021270 
# 
# 
# High freq. dielectric constant tensor:
#      x y z
#    x 1.855900 0.000000 0.000000 
#    y 0.000000 1.860860 0.000000 
#    z 0.000000 0.000000 1.863940 
# 
# From -- ./inp_files/9056.got.cif
#   From: 2010.03.12/outbox.cif.g09.slc.cpg/sg57_5_cif.got.tgz:9056.got - 2010.04.16 15:48:40.
