data_PCOD8235468
_publ_section_title
;
Structure prediction by ZEFSAII (Michael W. Deem and Ramdas Pophale) SiO2 
 PCOD8235468
Probable space group: P N N M
;
_chemical_formula_sum "Si O2"
_cell_formula_units_Z 64
_cell_length_a 19.597503
_cell_length_b 19.924488
_cell_length_c 9.185479
_cell_angle_alpha 90.000000
_cell_angle_beta 90.000000
_cell_angle_gamma 90.000000
_cell_volume 3586.655945
_symmetry_space_group_name_H-M "P N N M"
_symmetry_group_IT_number 58
_symmetry_cell_setting 'orthorhombic'
loop_
_space_group_symop_operation_xyz
x,y,z
-x,-y,z
1/2+x,1/2-y,1/2-z
1/2-x,1/2+y,1/2-z
-x,-y,-z
x,y,-z
1/2-x,1/2+y,1/2+z
1/2+x,1/2-y,1/2+z
loop_
_atom_site_type_symbol
_atom_site_label
_atom_site_fract_x
_atom_site_fract_y
_atom_site_fract_z
Si Si1 0.204863 0.012329 0.672255
Si Si2 0.468119 0.930295 0.673780
Si Si3 0.074707 0.674547 0.829977
Si Si4 0.608591 0.680201 0.331585
Si Si5 0.818529 0.587458 0.167218
Si Si6 0.258757 0.282102 0.832875
Si Si7 0.727040 0.848065 0.671370
Si Si8 0.070387 0.967358 0.169950
O O1 0.195165 0.004381 0.500000
O O2 0.233250 0.085170 0.715770
O O3 0.258672 0.958146 0.737018
O O4 0.132018 0.002304 0.745977
O O5 0.464548 0.925283 0.500000
O O6 0.514334 0.869905 0.740263
O O7 0.392024 0.925567 0.740982
O O8 0.500000 0.000000 0.725777
O O9 0.063256 0.753656 0.794698
O O10 0.148621 0.649721 0.772255
O O11 0.073114 0.660529 0.000000
O O12 0.631576 0.682943 0.500000
O O13 0.675722 0.681076 0.234034
O O14 0.566693 0.612560 0.297408
O O15 0.803537 0.666245 0.182815
O O16 0.822523 0.564737 0.000000
O O17 0.236713 0.214725 0.749534
O O18 0.274449 0.265072 0.000000
O O19 0.729398 0.835219 0.500000
O O20 0.081195 0.981495 0.000000
O O21 0.000000 0.000000 0.225713
#
# Coordination Sequence:
#
# PCOD8235468 Si02
#       8
#     8   8   8   8   8   8   8   8
#     4  10  19  34  54  75 102 134 170 211 255 308
#     4   9  15  24  41  68 100 128 157 198 247 293
#     4   8  14  26  45  69  95 129 167 198 237 293
#     4   9  17  32  52  71  95 131 170 204 247 307
#     4   9  17  28  45  73 103 129 161 206 254 295
#     4  10  18  30  49  74 102 130 164 210 256 296
#     4   9  18  32  51  74 101 135 172 207 246 301
#     4  10  21  36  52  74 102 131 167 216 268 314
#
# _framework density 17.843919
#
# number of rings (size 3 to 8) (size 9 to 14) (size 15 to 20)
#    0.000    2.750    1.250    1.875    0.000    3.750 
#    2.250    0.000    0.000    0.000    0.000    4.375 
#    0.000   17.500    0.000    0.000    0.000    0.000 
#
# Total GULP energy -793345.741965 kJ/mol
# GULP energy per Si atom -12396.027218 kJ/mol
# Density = 1.780331 g / cm^3
# Si number density = 17.843919 Si / 1000 Ang^3
#
#
#
# Elastic Constant Matrix: (Units=GPa)
#
#
# Indices 1 2 3 4 5 6 
#
# 1 140.8670 84.3892 30.0787 0.0000 0.0000 0.0000
# 2 84.3892 150.4036 36.1753 0.0000 0.0000 0.0000
# 3 30.0787 36.1753 32.8255 0.0000 0.0000 0.0000
# 4 0.0000 0.0000 0.0000 22.9035 0.0000 0.0000
# 5 0.0000 0.0000 0.0000 0.0000 15.4163 0.0000
# 6 0.0000 0.0000 0.0000 0.0000 0.0000 31.9128
#
#
#
# Elastic Compliance Matrix: (Units=1/GPa)
#
#
# Indices 1 2 3 4 5 6 
#
# 1 0.011167 -0.005177 -0.004528 0.000000 0.000000 0.000000
# 2 -0.005177 0.011446 -0.007871 0.000000 0.000000 0.000000
# 3 -0.004528 -0.007871 0.043287 0.000000 0.000000 0.000000
# 4 0.000000 0.000000 0.000000 0.043661 0.000000 0.000000
# 5 0.000000 0.000000 0.000000 0.000000 0.064866 0.000000
# 6 0.000000 0.000000 0.000000 0.000000 0.000000 0.031335
#
#
# Mechanical properties :
#
#
# Convention : Reuss Voigt Hill
#
# Bulk Modulus (GPa) = 32.52038 69.48694 51.00366
# Shear Modulus (GPa) = 19.90732 25.61006 22.75869
#
# Velocity S-wave (km/s) = 3.34374 3.79255 3.57519
# Velocity P-wave (km/s) = 5.75951 7.62915 6.75929
#
# Compressibility (1/GPa) = 0.03074994
#
# Stress axis : x y z
#
# Youngs Moduli (GPa) = 89.55165 87.36337 23.10149
#
# Poissons Ratio (x) = 0.45224 0.10459
# Poissons Ratio (y) = 0.46357 0.18184
# Poissons Ratio (z) = 0.40545 0.68765
#
# Static dielectric constant tensor:
#      x y z
#    x 3.350870 0.000000 0.000000 
#    y 0.000000 3.538210 0.000000 
#    z 0.000000 0.000000 2.925600 
# 
# 
# High freq. dielectric constant tensor:
#      x y z
#    x 1.680000 0.000000 0.000000 
#    y 0.000000 1.707130 0.000000 
#    z 0.000000 0.000000 1.645480 
# 
# From -- ./inp_files/8409.got.cif
#   From: 2010.06.25/outbox.cif.g09.slc.cpg/sg58_5_cif.got.tgz:8409.got - 2010.06.26 21:38:00.
