data_PCOD8235574
_publ_section_title
;
Structure prediction by ZEFSAII (Michael W. Deem and Ramdas Pophale) SiO2 
 PCOD8235574
Probable space group: P N N M
;
_chemical_formula_sum "Si O2"
_cell_formula_units_Z 56
_cell_length_a 12.042396
_cell_length_b 12.121284
_cell_length_c 21.556618
_cell_angle_alpha 90.000000
_cell_angle_beta 90.000000
_cell_angle_gamma 90.000000
_cell_volume 3146.604482
_symmetry_space_group_name_H-M "P N N M"
_symmetry_group_IT_number 58
_symmetry_cell_setting 'orthorhombic'
loop_
_space_group_symop_operation_xyz
x,y,z
-x,-y,z
1/2+x,1/2-y,1/2-z
1/2-x,1/2+y,1/2-z
-x,-y,-z
x,y,-z
1/2-x,1/2+y,1/2+z
1/2+x,1/2-y,1/2+z
loop_
_atom_site_type_symbol
_atom_site_label
_atom_site_fract_x
_atom_site_fract_y
_atom_site_fract_z
Si Si1 0.804397 0.072490 0.845982
Si Si2 0.735070 0.383718 0.430319
Si Si3 0.130753 0.997784 0.710262
Si Si4 0.000154 0.628330 0.856767
Si Si5 0.756900 0.704425 0.832939
Si Si6 0.225207 0.697973 0.796782
Si Si7 0.482183 0.333444 0.432418
O O1 0.831739 0.013631 0.781405
O O2 0.743182 0.188948 0.833001
O O3 0.919034 0.099948 0.879876
O O4 0.729849 0.991633 0.889483
O O5 0.786783 0.388020 0.500000
O O6 0.769902 0.270528 0.396258
O O7 0.602798 0.386724 0.434050
O O8 0.174719 0.898846 0.667775
O O9 0.183038 0.109405 0.682487
O O10 0.000000 0.000000 0.704393
O O11 0.100696 0.654526 0.809811
O O12 0.015120 0.702222 0.918347
O O13 0.000000 0.500000 0.875428
O O14 0.883757 0.662941 0.825494
O O15 0.730869 0.785724 0.776610
O O16 0.425329 0.347549 0.500000
#
# Coordination Sequence:
#
# PCOD8235574 Si02
#       7
#     8   8   8   8   8   8   8
#     4  10  19  31  51  76 109 142 167 216 265 320
#     4  10  18  31  53  78 109 141 175 213 260 320
#     4  11  21  34  55  78 109 140 176 222 268 321
#     4  10  19  34  51  74 111 144 172 218 264 313
#     4  10  21  34  53  79 110 139 178 217 266 318
#     4  10  21  33  51  78 109 141 176 215 268 314
#     4   9  18  29  47  77 109 142 173 204 258 328
#
# _framework density 17.796962000000001
#
# number of rings (size 3 to 8) (size 9 to 14) (size 15 to 20)
#    0.000    2.000    2.857    1.714    6.000    1.429 
#    0.000    0.000    0.000    0.429    0.000    1.000 
#    0.000    0.000    0.000    0.000    0.000    0.000 
#
# Total GULP energy -694149.079797 kJ/mol
# GULP energy per Si atom -12395.519282 kJ/mol
# Density = 1.775645 g / cm^3
# Si number density = 17.796962 Si / 1000 Ang^3
#
#
#
# Elastic Constant Matrix: (Units=GPa)
#
#
# Indices 1 2 3 4 5 6 
#
# 1 64.4368 41.9033 21.2733 0.0000 0.0000 0.0000
# 2 41.9033 143.2033 50.0886 0.0000 0.0000 0.0000
# 3 21.2733 50.0886 97.6225 0.0000 0.0000 0.0000
# 4 0.0000 0.0000 0.0000 21.3942 0.0000 0.0000
# 5 0.0000 0.0000 0.0000 0.0000 18.5300 0.0000
# 6 0.0000 0.0000 0.0000 0.0000 0.0000 15.2540
#
#
#
# Elastic Compliance Matrix: (Units=1/GPa)
#
#
# Indices 1 2 3 4 5 6 
#
# 1 0.019369 -0.005108 -0.001600 0.000000 0.000000 0.000000
# 2 -0.005108 0.009857 -0.003945 0.000000 0.000000 0.000000
# 3 -0.001600 -0.003945 0.012616 0.000000 0.000000 0.000000
# 4 0.000000 0.000000 0.000000 0.046742 0.000000 0.000000
# 5 0.000000 0.000000 0.000000 0.000000 0.053967 0.000000
# 6 0.000000 0.000000 0.000000 0.000000 0.000000 0.065557
#
#
# Mechanical properties :
#
#
# Convention : Reuss Voigt Hill
#
# Bulk Modulus (GPa) = 48.69150 59.08812 53.88981
# Shear Modulus (GPa) = 21.16327 23.83548 22.49937
#
# Velocity S-wave (km/s) = 3.45215 3.66362 3.55945
# Velocity P-wave (km/s) = 6.58093 7.15328 6.87306
#
# Compressibility (1/GPa) = 0.02053747
#
# Stress axis : x y z
#
# Youngs Moduli (GPa) = 51.62880 101.44588 79.26382
#
# Poissons Ratio (x) = 0.51819 0.12682
# Poissons Ratio (y) = 0.26372 0.31266
# Poissons Ratio (z) = 0.08260 0.40016
#
# Static dielectric constant tensor:
#      x y z
#    x 3.014980 0.000000 0.000000 
#    y 0.000000 3.625430 0.000000 
#    z 0.000000 0.000000 3.402760 
# 
# 
# High freq. dielectric constant tensor:
#      x y z
#    x 1.647990 0.000000 0.000000 
#    y 0.000000 1.714730 0.000000 
#    z 0.000000 0.000000 1.675240 
# 
# From -- ./inp_files/29603.got.cif
#   From: 2010.06.25/outbox.cif.g09.slc.cpg/sg58_15_cif.got.tgz:29603.got - 2010.06.26 21:38:00.
