data_PCOD8235409
_publ_section_title
;
Structure prediction by ZEFSAII (Michael W. Deem and Ramdas Pophale) SiO2 
 PCOD8235409
Probable space group: P N N M
;
_chemical_formula_sum "Si O2"
_cell_formula_units_Z 56
_cell_length_a 8.173518
_cell_length_b 20.049793
_cell_length_c 19.044800
_cell_angle_alpha 90.000000
_cell_angle_beta 90.000000
_cell_angle_gamma 90.000000
_cell_volume 3121.011241
_symmetry_space_group_name_H-M "P N N M"
_symmetry_group_IT_number 58
_symmetry_cell_setting 'orthorhombic'
loop_
_space_group_symop_operation_xyz
x,y,z
-x,-y,z
1/2+x,1/2-y,1/2-z
1/2-x,1/2+y,1/2-z
-x,-y,-z
x,y,-z
1/2-x,1/2+y,1/2+z
1/2+x,1/2-y,1/2+z
loop_
_atom_site_type_symbol
_atom_site_label
_atom_site_fract_x
_atom_site_fract_y
_atom_site_fract_z
Si Si1 0.682629 0.854604 0.864941
Si Si2 0.812119 0.986279 0.079537
Si Si3 0.955816 0.770628 0.189704
Si Si4 0.160670 0.404713 0.669442
Si Si5 0.215090 0.782251 0.918883
Si Si6 0.702554 0.665297 0.209081
Si Si7 0.547678 0.717196 0.920630
O O1 0.767789 0.908253 0.916138
O O2 0.821790 0.830039 0.810933
O O3 0.532634 0.889645 0.823384
O O4 0.629114 0.789774 0.909436
O O5 0.693602 0.023878 0.134524
O O6 0.778564 0.010709 0.000000
O O7 0.000000 0.000000 0.100396
O O8 0.877968 0.700010 0.207279
O O9 0.044976 0.759237 0.115026
O O10 0.081366 0.784841 0.251340
O O11 0.237506 0.351121 0.617295
O O12 0.257463 0.401331 0.745362
O O13 0.353423 0.725463 0.907363
O O14 0.185957 0.797071 0.000000
O O15 0.624553 0.659695 0.130736
O O16 0.582120 0.693505 0.000000
#
# Coordination Sequence:
#
# PCOD8235409 Si02
#       7
#     8   8   8   8   8   8   8
#     4  10  20  32  48  68  94 125 161 195 230 276
#     4  11  22  34  48  68  96 129 164 197 227 268
#     4  10  18  29  46  66  90 124 160 193 234 274
#     4  10  20  32  46  66  93 128 164 194 232 274
#     4   9  17  29  44  65  93 123 157 191 227 277
#     4  10  18  30  46  65  91 121 158 196 233 279
#     4   9  18  31  48  69  93 123 155 191 237 282
#
# _framework density 17.942903000000001
#
# number of rings (size 3 to 8) (size 9 to 14) (size 15 to 20)
#    0.000    2.143    0.000    6.429    0.000    6.286 
#    0.000    0.000    0.000    0.000    0.000    0.000 
#    0.000    7.429    0.000    2.286    0.000    4.429 
#
# Total GULP energy -693991.408976 kJ/mol
# GULP energy per Si atom -12392.703732 kJ/mol
# Density = 1.790206 g / cm^3
# Si number density = 17.942903 Si / 1000 Ang^3
#
#
#
# Elastic Constant Matrix: (Units=GPa)
#
#
# Indices 1 2 3 4 5 6 
#
# 1 90.1421 13.5025 35.0548 0.0000 0.0000 0.0000
# 2 13.5025 39.2766 25.4792 0.0000 0.0000 0.0000
# 3 35.0548 25.4792 105.5938 0.0000 0.0000 0.0000
# 4 0.0000 0.0000 0.0000 20.0965 0.0000 0.0000
# 5 0.0000 0.0000 0.0000 0.0000 26.9150 0.0000
# 6 0.0000 0.0000 0.0000 0.0000 0.0000 22.5842
#
#
#
# Elastic Compliance Matrix: (Units=1/GPa)
#
#
# Indices 1 2 3 4 5 6 
#
# 1 0.012864 -0.001959 -0.003798 0.000000 0.000000 0.000000
# 2 -0.001959 0.030484 -0.006705 0.000000 0.000000 0.000000
# 3 -0.003798 -0.006705 0.012349 0.000000 0.000000 0.000000
# 4 0.000000 0.000000 0.000000 0.049760 0.000000 0.000000
# 5 0.000000 0.000000 0.000000 0.000000 0.037154 0.000000
# 6 0.000000 0.000000 0.000000 0.000000 0.000000 0.044279
#
#
# Mechanical properties :
#
#
# Convention : Reuss Voigt Hill
#
# Bulk Modulus (GPa) = 32.49616 42.56505 37.53060
# Shear Modulus (GPa) = 22.51535 24.65085 23.58310
#
# Velocity S-wave (km/s) = 3.54621 3.71057 3.62932
# Velocity P-wave (km/s) = 5.90911 6.49090 6.20683
#
# Compressibility (1/GPa) = 0.03077287
#
# Stress axis : x y z
#
# Youngs Moduli (GPa) = 77.73670 32.80456 80.97798
#
# Poissons Ratio (x) = 0.06425 0.30755
# Poissons Ratio (y) = 0.15225 0.54298
# Poissons Ratio (z) = 0.29524 0.21996
#
# Static dielectric constant tensor:
#      x y z
#    x 3.699330 0.000000 0.000000 
#    y 0.000000 2.909050 0.000000 
#    z 0.000000 0.000000 3.416640 
# 
# 
# High freq. dielectric constant tensor:
#      x y z
#    x 1.718060 0.000000 0.000000 
#    y 0.000000 1.635760 0.000000 
#    z 0.000000 0.000000 1.686330 
# 
# From -- ./inp_files/25606.got.cif
#   From: 2010.06.25/outbox.cif.g09.slc.cpg/sg58_13_cif.got.tgz:25606.got - 2010.06.26 21:38:00.
