data_PCOD8235110
_publ_section_title
;
Structure prediction by ZEFSAII (Michael W. Deem and Ramdas Pophale) SiO2 
 PCOD8235110
Probable space group: P B C M
;
_chemical_formula_sum "Si O2"
_cell_formula_units_Z 64
_cell_length_a 9.320874
_cell_length_b 18.949784
_cell_length_c 17.672327
_cell_angle_alpha 90.000000
_cell_angle_beta 90.000000
_cell_angle_gamma 90.000000
_cell_volume 3121.437475
_symmetry_space_group_name_H-M "P B C M"
_symmetry_group_IT_number 57
_symmetry_cell_setting 'orthorhombic'
loop_
_space_group_symop_operation_xyz
x,y,z
-x,-y,1/2+z
x,1/2-y,-z
-x,1/2+y,1/2-z
-x,-y,-z
x,y,1/2-z
-x,1/2+y,z
x,1/2-y,1/2+z
loop_
_atom_site_type_symbol
_atom_site_label
_atom_site_fract_x
_atom_site_fract_y
_atom_site_fract_z
Si Si1 0.392549 0.005550 0.428889
Si Si2 0.832603 0.351163 0.573438
Si Si3 0.433073 0.611346 0.337137
Si Si4 0.796090 0.803144 0.429459
Si Si5 0.724177 0.144156 0.904402
Si Si6 0.523896 0.767566 0.161132
Si Si7 0.905731 0.931673 0.519870
Si Si8 0.056650 0.724371 0.836387
O O1 0.466361 0.047327 0.361324
O O2 0.242842 0.044265 0.444282
O O3 0.500000 0.000000 0.500000
O O4 0.357323 0.929106 0.396524
O O5 0.715980 0.397423 0.617965
O O6 0.771488 0.340024 0.489805
O O7 0.846625 0.276664 0.613879
O O8 0.989525 0.387898 0.575405
O O9 0.393958 0.604472 0.250000
O O10 0.519503 0.683609 0.353973
O O11 0.798881 0.750000 0.500000
O O12 0.640052 0.806186 0.392134
O O13 0.856522 0.880537 0.451091
O O14 0.893506 0.772472 0.362553
O O15 0.625771 0.204162 0.868504
O O16 0.869911 0.147817 0.853279
O O17 0.548518 0.784494 0.250000
O O18 0.000000 0.000000 0.500000
O O19 0.063931 0.747082 0.750000
#
# Coordination Sequence:
#
# PCOD8235110 Si02
#       8
#     8   8   8   8   8   8   8   8
#     4  12  24  44  69 101 137 185 223 284 346 413
#     4  12  23  42  68  98 130 178 230 279 341 404
#     4  11  25  44  66  99 140 180 228 285 351 415
#     4  12  23  40  67 100 129 173 226 284 337 411
#     4  12  23  42  70  97 130 176 237 275 333 413
#     4  11  26  43  65 100 137 177 223 288 353 411
#     4  12  23  43  68 103 134 170 233 286 338 408
#     4  12  24  41  64  97 138 176 221 286 347 404
#
# _framework density 20.503374000000001
#
# number of rings (size 3 to 8) (size 9 to 14) (size 15 to 20)
#    0.000    0.250    6.250    3.000    1.750    1.000 
#    0.000    0.625    0.000    3.750    0.000    0.000 
#    0.000    0.000    0.000    0.000    0.000    0.000 
#
# Total GULP energy -793361.187307 kJ/mol
# GULP energy per Si atom -12396.268552 kJ/mol
# Density = 2.045671 g / cm^3
# Si number density = 20.503374 Si / 1000 Ang^3
#
#
#
# Elastic Constant Matrix: (Units=GPa)
#
#
# Indices 1 2 3 4 5 6 
#
# 1 123.5249 24.6897 44.9225 0.0000 0.0000 0.0000
# 2 24.6897 81.9023 42.1616 0.0000 0.0000 0.0000
# 3 44.9225 42.1616 107.6891 0.0000 0.0000 0.0000
# 4 0.0000 0.0000 0.0000 20.8808 0.0000 0.0000
# 5 0.0000 0.0000 0.0000 0.0000 22.1296 0.0000
# 6 0.0000 0.0000 0.0000 0.0000 0.0000 29.4582
#
#
#
# Elastic Compliance Matrix: (Units=1/GPa)
#
#
# Indices 1 2 3 4 5 6 
#
# 1 0.009614 -0.001044 -0.003602 0.000000 0.000000 0.000000
# 2 -0.001044 0.015405 -0.005596 0.000000 0.000000 0.000000
# 3 -0.003602 -0.005596 0.012979 0.000000 0.000000 0.000000
# 4 0.000000 0.000000 0.000000 0.047891 0.000000 0.000000
# 5 0.000000 0.000000 0.000000 0.000000 0.045188 0.000000
# 6 0.000000 0.000000 0.000000 0.000000 0.000000 0.033946
#
#
# Mechanical properties :
#
#
# Convention : Reuss Voigt Hill
#
# Bulk Modulus (GPa) = 57.09316 59.62933 58.36125
# Shear Modulus (GPa) = 26.13079 27.91657 27.02368
#
# Velocity S-wave (km/s) = 3.57383 3.69394 3.63438
# Velocity P-wave (km/s) = 6.70343 6.88036 6.79247
#
# Compressibility (1/GPa) = 0.01751523
#
# Stress axis : x y z
#
# Youngs Moduli (GPa) = 104.01419 64.91424 77.04621
#
# Poissons Ratio (x) = 0.06778 0.27750
# Poissons Ratio (y) = 0.10860 0.43113
# Poissons Ratio (z) = 0.37463 0.36324
#
# Static dielectric constant tensor:
#      x y z
#    x 4.823010 0.000000 0.000000 
#    y 0.000000 4.271560 0.000000 
#    z 0.000000 0.000000 3.647270 
# 
# 
# High freq. dielectric constant tensor:
#      x y z
#    x 1.828160 0.000000 0.000000 
#    y 0.000000 1.801770 0.000000 
#    z 0.000000 0.000000 1.790800 
# 
# From -- ./inp_files/21425.got.cif
#   From: 2010.03.12/outbox.cif.g09.slc.cpg/sg57_11_cif.got.tgz:21425.got - 2010.04.16 15:48:40.
