data_PCOD8235248
_publ_section_title
;
Structure prediction by ZEFSAII (Michael W. Deem and Ramdas Pophale) SiO2 
 PCOD8235248
Probable space group: P N N M
;
_chemical_formula_sum "Si O2"
_cell_formula_units_Z 64
_cell_length_a 19.148764
_cell_length_b 23.648348
_cell_length_c 8.942637
_cell_angle_alpha 90.000000
_cell_angle_beta 90.000000
_cell_angle_gamma 90.000000
_cell_volume 4049.553646
_symmetry_space_group_name_H-M "P N N M"
_symmetry_group_IT_number 58
_symmetry_cell_setting 'orthorhombic'
loop_
_space_group_symop_operation_xyz
x,y,z
-x,-y,z
1/2+x,1/2-y,1/2-z
1/2-x,1/2+y,1/2-z
-x,-y,-z
x,y,-z
1/2-x,1/2+y,1/2+z
1/2+x,1/2-y,1/2+z
loop_
_atom_site_type_symbol
_atom_site_label
_atom_site_fract_x
_atom_site_fract_y
_atom_site_fract_z
Si Si1 0.996217 0.253258 0.175379
Si Si2 0.640882 0.936942 0.323477
Si Si3 0.271928 0.835030 0.675597
Si Si4 0.857630 0.562351 0.178528
Si Si5 0.857134 0.233619 0.323709
Si Si6 0.229374 0.667677 0.176116
Si Si7 0.999808 0.618225 0.177915
Si Si8 0.649673 0.275387 0.324587
O O1 0.002192 0.317290 0.235591
O O2 0.067687 0.219826 0.211856
O O3 0.933985 0.221090 0.260626
O O4 0.980104 0.252563 0.000000
O O5 0.631626 0.941223 0.500000
O O6 0.705067 0.895783 0.282426
O O7 0.568540 0.912408 0.256857
O O8 0.655744 0.999412 0.256848
O O9 0.282751 0.837919 0.500000
O O10 0.297131 0.895431 0.741676
O O11 0.191677 0.820574 0.716915
O O12 0.322029 0.784935 0.735014
O O13 0.932235 0.584787 0.237258
O O14 0.856941 0.561094 0.000000
O O15 0.859621 0.243404 0.500000
O O16 0.825562 0.289550 0.249480
O O17 0.307689 0.675523 0.239242
O O18 0.228184 0.678147 0.000000
O O19 0.000070 0.618763 0.000000
O O20 0.664598 0.281860 0.500000
#
# Coordination Sequence:
#
# PCOD8235248 Si02
#       8
#     8   8   8   8   8   8   8   8
#     4  10  17  28  46  66  90 116 143 180 221 261
#     4   9  16  23  36  62  90 114 144 177 215 253
#     4   8  14  25  39  58  84 112 141 176 215 253
#     4   9  14  22  38  60  87 116 143 177 215 253
#     4  10  19  29  43  63  88 117 149 180 216 262
#     4  10  18  29  43  63  90 116 144 182 218 253
#     4   9  14  22  36  59  90 116 140 172 207 246
#     4   9  17  29  45  64  86 114 146 178 219 266
#
# _framework density 15.804211
#
# number of rings (size 3 to 8) (size 9 to 14) (size 15 to 20)
#    0.000    2.750    2.500    1.875    0.000    2.000 
#    0.000    0.000    0.000    0.000    0.000   12.250 
#    0.000    7.000    0.000    0.000    0.000    0.000 
#
# Total GULP energy -793214.436033 kJ/mol
# GULP energy per Si atom -12393.975563 kJ/mol
# Density = 1.576824 g / cm^3
# Si number density = 15.804211 Si / 1000 Ang^3
#
#
#
# Elastic Constant Matrix: (Units=GPa)
#
#
# Indices 1 2 3 4 5 6 
#
# 1 136.1043 73.6182 37.5517 0.0000 0.0000 0.0000
# 2 73.6182 105.6230 22.8594 0.0000 0.0000 0.0000
# 3 37.5517 22.8594 33.9799 0.0000 0.0000 0.0000
# 4 0.0000 0.0000 0.0000 12.2992 0.0000 0.0000
# 5 0.0000 0.0000 0.0000 0.0000 23.1398 0.0000
# 6 0.0000 0.0000 0.0000 0.0000 0.0000 25.2826
#
#
#
# Elastic Compliance Matrix: (Units=1/GPa)
#
#
# Indices 1 2 3 4 5 6 
#
# 1 0.014557 -0.007800 -0.010840 0.000000 0.000000 0.000000
# 2 -0.007800 0.015261 -0.001646 0.000000 0.000000 0.000000
# 3 -0.010840 -0.001646 0.042516 0.000000 0.000000 0.000000
# 4 0.000000 0.000000 0.000000 0.081306 0.000000 0.000000
# 5 0.000000 0.000000 0.000000 0.000000 0.043216 0.000000
# 6 0.000000 0.000000 0.000000 0.000000 0.000000 0.039553
#
#
# Mechanical properties :
#
#
# Convention : Reuss Voigt Hill
#
# Bulk Modulus (GPa) = 31.48504 60.41842 45.95173
# Shear Modulus (GPa) = 17.38721 21.58951 19.48836
#
# Velocity S-wave (km/s) = 3.32047 3.70004 3.51538
# Velocity P-wave (km/s) = 5.88777 7.52104 6.75396
#
# Compressibility (1/GPa) = 0.03176111
#
# Stress axis : x y z
#
# Youngs Moduli (GPa) = 68.69482 65.52847 23.52062
#
# Poissons Ratio (x) = 0.51113 0.25496
# Poissons Ratio (y) = 0.53583 0.03872
# Poissons Ratio (z) = 0.74464 0.10787
#
# Static dielectric constant tensor:
#      x y z
#    x 3.148480 0.000000 0.000000 
#    y 0.000000 3.131820 0.000000 
#    z 0.000000 0.000000 2.631700 
# 
# 
# High freq. dielectric constant tensor:
#      x y z
#    x 1.606890 0.000000 0.000000 
#    y 0.000000 1.584460 0.000000 
#    z 0.000000 0.000000 1.565800 
# 
# From -- ./inp_files/9430.got.cif
#   From: 2010.06.25/outbox.cif.g09.slc.cpg/sg58_5_cif.got.tgz:9430.got - 2010.06.26 21:38:00.
