data_PCOD8235806
_publ_section_title
;
Structure prediction by ZEFSAII (Michael W. Deem and Ramdas Pophale) SiO2 
 PCOD8235806
Probable space group: P N N M
;
_chemical_formula_sum "Si O2"
_cell_formula_units_Z 48
_cell_length_a 18.715401
_cell_length_b 9.286541
_cell_length_c 14.595985
_cell_angle_alpha 90.000000
_cell_angle_beta 90.000000
_cell_angle_gamma 90.000000
_cell_volume 2536.801733
_symmetry_space_group_name_H-M "P N N M"
_symmetry_group_IT_number 58
_symmetry_cell_setting 'orthorhombic'
loop_
_space_group_symop_operation_xyz
x,y,z
-x,-y,z
1/2+x,1/2-y,1/2-z
1/2-x,1/2+y,1/2-z
-x,-y,-z
x,y,-z
1/2-x,1/2+y,1/2+z
1/2+x,1/2-y,1/2+z
loop_
_atom_site_type_symbol
_atom_site_label
_atom_site_fract_x
_atom_site_fract_y
_atom_site_fract_z
Si Si1 0.797952 0.383752 0.000000
Si Si2 0.454403 0.871653 0.658136
Si Si3 0.374263 0.399710 0.500000
Si Si4 0.679234 0.984934 0.700532
Si Si5 0.367094 0.730242 0.500000
Si Si6 0.313568 0.310575 0.802506
Si Si7 0.711035 0.634327 0.000000
Si Si8 0.552156 0.627989 0.691181
O O1 0.805195 0.209197 0.000000
O O2 0.834600 0.438812 0.905701
O O3 0.717739 0.456377 0.000000
O O4 0.414451 0.766600 0.587793
O O5 0.510813 0.775675 0.714959
O O6 0.500000 0.000000 0.610550
O O7 0.395288 0.938222 0.728114
O O8 0.345504 0.562221 0.500000
O O9 0.425020 0.369763 0.585617
O O10 0.697056 0.849402 0.764036
O O11 0.742473 0.098039 0.714785
O O12 0.294091 0.818167 0.500000
O O13 0.329535 0.305171 0.911359
O O14 0.378842 0.390287 0.754487
O O15 0.500000 0.500000 0.715557
#
# Coordination Sequence:
#
# PCOD8235806 Si02
#       8
#     4   8   4   8   4   8   4   8
#     4  10  18  39  59  92 119 161 194 243 314 380
#     4  12  21  38  58  91 128 161 198 248 321 387
#     4  12  22  36  55  98 140 157 191 245 328 395
#     4  11  23  39  64  88 126 164 206 256 314 388
#     4  12  22  36  59  95 133 165 193 252 324 397
#     4  11  24  42  62  90 123 170 219 257 310 374
#     4  10  24  42  65  85 123 175 218 257 308 369
#     4  12  25  38  60  94 131 167 204 261 318 387
#
# _framework density 18.921464
#
# number of rings (size 3 to 8) (size 9 to 14) (size 15 to 20)
#    0.000    0.667    8.333    1.000    4.667    0.000 
#    0.000    0.417    0.000    2.000    0.000    0.000 
#    0.000    0.000    0.000    0.000    0.000    0.000 
#
# Total GULP energy -594918.907482 kJ/mol
# GULP energy per Si atom -12394.143906 kJ/mol
# Density = 1.887840 g / cm^3
# Si number density = 18.921464 Si / 1000 Ang^3
#
#
#
# Elastic Constant Matrix: (Units=GPa)
#
#
# Indices 1 2 3 4 5 6 
#
# 1 105.9437 51.0611 49.4612 0.0000 0.0000 0.0000
# 2 51.0611 147.0196 40.6315 0.0000 0.0000 0.0000
# 3 49.4612 40.6315 94.4770 0.0000 0.0000 0.0000
# 4 0.0000 0.0000 0.0000 29.4702 0.0000 0.0000
# 5 0.0000 0.0000 0.0000 0.0000 56.7645 0.0000
# 6 0.0000 0.0000 0.0000 0.0000 0.0000 43.8127
#
#
#
# Elastic Compliance Matrix: (Units=1/GPa)
#
#
# Indices 1 2 3 4 5 6 
#
# 1 0.013661 -0.003141 -0.005801 0.000000 0.000000 0.000000
# 2 -0.003141 0.008442 -0.001986 0.000000 0.000000 0.000000
# 3 -0.005801 -0.001986 0.014476 0.000000 0.000000 0.000000
# 4 0.000000 0.000000 0.000000 0.033933 0.000000 0.000000
# 5 0.000000 0.000000 0.000000 0.000000 0.017617 0.000000
# 6 0.000000 0.000000 0.000000 0.000000 0.000000 0.022824
#
#
# Mechanical properties :
#
#
# Convention : Reuss Voigt Hill
#
# Bulk Modulus (GPa) = 67.92576 69.97199 68.94888
# Shear Modulus (GPa) = 36.30649 39.76190 38.03419
#
# Velocity S-wave (km/s) = 4.38516 4.58910 4.48829
# Velocity P-wave (km/s) = 7.84960 8.07095 7.96105
#
# Compressibility (1/GPa) = 0.01472195
#
# Stress axis : x y z
#
# Youngs Moduli (GPa) = 73.19921 118.45953 69.08164
#
# Poissons Ratio (x) = 0.37214 0.40074
# Poissons Ratio (y) = 0.22995 0.13719
# Poissons Ratio (z) = 0.42463 0.23524
#
# Static dielectric constant tensor:
#      x y z
#    x 3.477230 0.000000 0.000000 
#    y 0.000000 3.826560 0.000000 
#    z 0.000000 0.000000 3.371240 
# 
# 
# High freq. dielectric constant tensor:
#      x y z
#    x 1.725690 0.000000 0.000000 
#    y 0.000000 1.757070 0.000000 
#    z 0.000000 0.000000 1.699940 
# 
# From -- ./inp_files/19915.got.cif
#   From: 2010.06.25/outbox.cif.g09.slc.cpg/sg58_10_cif.got.tgz:19915.got - 2010.06.26 21:38:00.
