data_PCOD8235294
_publ_section_title
;
Structure prediction by ZEFSAII (Michael W. Deem and Ramdas Pophale) SiO2 
 PCOD8235294
Probable space group: P N N M
;
_chemical_formula_sum "Si O2"
_cell_formula_units_Z 56
_cell_length_a 11.318219
_cell_length_b 18.255318
_cell_length_c 13.130068
_cell_angle_alpha 90.000000
_cell_angle_beta 90.000000
_cell_angle_gamma 90.000000
_cell_volume 2712.904281
_symmetry_space_group_name_H-M "P N N M"
_symmetry_group_IT_number 58
_symmetry_cell_setting 'orthorhombic'
loop_
_space_group_symop_operation_xyz
x,y,z
-x,-y,z
1/2+x,1/2-y,1/2-z
1/2-x,1/2+y,1/2-z
-x,-y,-z
x,y,-z
1/2-x,1/2+y,1/2+z
1/2+x,1/2-y,1/2+z
loop_
_atom_site_type_symbol
_atom_site_label
_atom_site_fract_x
_atom_site_fract_y
_atom_site_fract_z
Si Si1 0.315060 0.965660 0.614708
Si Si2 0.917273 0.356530 0.612676
Si Si3 0.066532 0.767399 0.885060
Si Si4 0.308048 0.718846 0.317631
Si Si5 0.936350 0.792504 0.386055
Si Si6 0.342485 0.353512 0.204405
Si Si7 0.444948 0.101828 0.678060
O O1 0.266255 0.959313 0.500000
O O2 0.216402 0.933612 0.692405
O O3 0.436927 0.920283 0.619842
O O4 0.337177 0.050647 0.641336
O O5 0.926684 0.391909 0.500000
O O6 0.779902 0.342888 0.640481
O O7 0.993922 0.283406 0.618830
O O8 0.966134 0.410729 0.700306
O O9 0.138578 0.828347 0.821430
O O10 0.089414 0.686561 0.839301
O O11 0.928964 0.787223 0.879571
O O12 0.112615 0.771399 0.000000
O O13 0.329683 0.709044 0.195346
O O14 0.251627 0.797412 0.344591
O O15 0.886564 0.807494 0.500000
O O16 0.032582 0.854076 0.355118
#
# Coordination Sequence:
#
# PCOD8235294 Si02
#       7
#     8   8   8   8   8   8   8
#     4  11  22  36  58  82 114 151 174 221 282 333
#     4  10  19  34  53  75 107 147 184 223 274 321
#     4  11  20  33  55  82 114 143 181 235 275 316
#     4  10  17  32  50  81 108 136 181 224 265 321
#     4   9  17  29  48  74 106 136 174 224 269 312
#     4  10  19  33  50  79 111 141 185 216 269 333
#     4  11  20  36  53  86 114 138 188 223 266 337
#
# _framework density 20.642085000000002
#
# number of rings (size 3 to 8) (size 9 to 14) (size 15 to 20)
#    0.000    1.714    5.714    2.571    0.000    1.714 
#    0.000    2.857    0.000    3.429    0.000   10.000 
#    0.000    0.000    0.000    0.000    0.000    0.000 
#
# Total GULP energy -694143.120171 kJ/mol
# GULP energy per Si atom -12395.412860 kJ/mol
# Density = 2.059510 g / cm^3
# Si number density = 20.642085 Si / 1000 Ang^3
#
#
#
# Elastic Constant Matrix: (Units=GPa)
#
#
# Indices 1 2 3 4 5 6 
#
# 1 35.4430 -1.4554 1.7522 0.0000 0.0000 0.0000
# 2 -1.4554 30.1226 25.1493 0.0000 0.0000 0.0000
# 3 1.7522 25.1493 157.8833 0.0000 0.0000 0.0000
# 4 0.0000 0.0000 0.0000 23.5456 0.0000 0.0000
# 5 0.0000 0.0000 0.0000 0.0000 27.3990 0.0000
# 6 0.0000 0.0000 0.0000 0.0000 0.0000 20.5415
#
#
#
# Elastic Compliance Matrix: (Units=1/GPa)
#
#
# Indices 1 2 3 4 5 6 
#
# 1 0.028322 0.001881 -0.000614 0.000000 0.000000 0.000000
# 2 0.001881 0.038415 -0.006140 0.000000 0.000000 0.000000
# 3 -0.000614 -0.006140 0.007319 0.000000 0.000000 0.000000
# 4 0.000000 0.000000 0.000000 0.042471 0.000000 0.000000
# 5 0.000000 0.000000 0.000000 0.000000 0.036498 0.000000
# 6 0.000000 0.000000 0.000000 0.000000 0.000000 0.048682
#
#
# Mechanical properties :
#
#
# Convention : Reuss Voigt Hill
#
# Bulk Modulus (GPa) = 15.54983 30.48235 23.01609
# Shear Modulus (GPa) = 21.46954 27.49742 24.48348
#
# Velocity S-wave (km/s) = 3.22854 3.65376 3.44771
# Velocity P-wave (km/s) = 4.63113 5.70956 5.19839
#
# Compressibility (1/GPa) = 0.06430938
#
# Stress axis : x y z
#
# Youngs Moduli (GPa) = 35.30838 26.03162 136.63728
#
# Poissons Ratio (x) = -0.04896 0.08389
# Poissons Ratio (y) = -0.06641 0.83895
# Poissons Ratio (z) = 0.02168 0.15983
#
# Static dielectric constant tensor:
#      x y z
#    x 3.724370 0.000000 0.000000 
#    y 0.000000 3.335560 0.000000 
#    z 0.000000 0.000000 4.044740 
# 
# 
# High freq. dielectric constant tensor:
#      x y z
#    x 1.807360 0.000000 0.000000 
#    y 0.000000 1.755170 0.000000 
#    z 0.000000 0.000000 1.816240 
# 
# From -- ./inp_files/14606.got.cif
#   From: 2010.06.25/outbox.cif.g09.slc.cpg/sg58_8_cif.got.tgz:14606.got - 2010.06.26 21:38:00.
