data_PCOD8235772
_publ_section_title
;
Structure prediction by ZEFSAII (Michael W. Deem and Ramdas Pophale) SiO2 
 PCOD8235772
Probable space group: P N N M
;
_chemical_formula_sum "Si O2"
_cell_formula_units_Z 64
_cell_length_a 24.543029
_cell_length_b 14.805695
_cell_length_c 9.046515
_cell_angle_alpha 90.000000
_cell_angle_beta 90.000000
_cell_angle_gamma 90.000000
_cell_volume 3287.291878
_symmetry_space_group_name_H-M "P N N M"
_symmetry_group_IT_number 58
_symmetry_cell_setting 'orthorhombic'
loop_
_space_group_symop_operation_xyz
x,y,z
-x,-y,z
1/2+x,1/2-y,1/2-z
1/2-x,1/2+y,1/2-z
-x,-y,-z
x,y,-z
1/2-x,1/2+y,1/2+z
1/2+x,1/2-y,1/2+z
loop_
_atom_site_type_symbol
_atom_site_label
_atom_site_fract_x
_atom_site_fract_y
_atom_site_fract_z
Si Si1 0.738090 0.623938 0.824958
Si Si2 0.518605 0.596888 0.328928
Si Si3 0.553951 0.258043 0.173700
Si Si4 0.766410 0.327280 0.673102
Si Si5 0.171872 0.498276 0.676768
Si Si6 0.362756 0.446644 0.335116
Si Si7 0.355169 0.648107 0.333892
Si Si8 0.551657 0.054120 0.175269
O O1 0.728030 0.725872 0.762872
O O2 0.790462 0.579595 0.747412
O O3 0.683068 0.570870 0.786261
O O4 0.747945 0.622225 0.000000
O O5 0.500000 0.500000 0.263899
O O6 0.501493 0.603062 0.500000
O O7 0.491221 0.678467 0.243647
O O8 0.583283 0.611967 0.306082
O O9 0.614550 0.284344 0.224338
O O10 0.543716 0.156556 0.227974
O O11 0.550116 0.267033 0.000000
O O12 0.775238 0.321207 0.500000
O O13 0.809233 0.401933 0.734094
O O14 0.706987 0.363751 0.716174
O O15 0.177476 0.489954 0.500000
O O16 0.109679 0.485036 0.731558
O O17 0.338978 0.428194 0.500000
O O18 0.383083 0.550212 0.325378
O O19 0.358359 0.688063 0.500000
O O20 0.500000 0.000000 0.242158
O O21 0.551394 0.047207 0.000000
#
# Coordination Sequence:
#
# PCOD8235772 Si02
#       8
#     8   8   8   8   8   8   8   8
#     4  11  22  35  54  87 122 144 177 235 292 330
#     4  10  20  37  57  78 107 150 192 223 268 338
#     4  11  22  34  55  89 117 142 185 240 294 329
#     4   9  19  34  56  82 108 149 193 224 271 336
#     4  10  19  38  63  81 108 153 199 230 269 340
#     4  10  20  36  58  79 106 149 194 225 266 337
#     4  10  18  35  58  78 107 150 195 226 265 338
#     4   9  20  38  60  85 112 148 194 240 280 330
#
# _framework density 19.468914000000002
#
# number of rings (size 3 to 8) (size 9 to 14) (size 15 to 20)
#    0.000    2.000    2.500    1.500    0.000    2.250 
#    0.000    5.000    0.000    3.375    0.000    0.000 
#    0.000    0.000    0.000    0.000    0.000    0.000 
#
# Total GULP energy -793461.354772 kJ/mol
# GULP energy per Si atom -12397.833668 kJ/mol
# Density = 1.942460 g / cm^3
# Si number density = 19.468914 Si / 1000 Ang^3
#
#
#
# Elastic Constant Matrix: (Units=GPa)
#
#
# Indices 1 2 3 4 5 6 
#
# 1 137.2472 78.3252 34.6901 0.0000 0.0000 0.0000
# 2 78.3252 148.1066 37.9915 0.0000 0.0000 0.0000
# 3 34.6901 37.9915 44.7097 0.0000 0.0000 0.0000
# 4 0.0000 0.0000 0.0000 22.1941 0.0000 0.0000
# 5 0.0000 0.0000 0.0000 0.0000 23.8630 0.0000
# 6 0.0000 0.0000 0.0000 0.0000 0.0000 31.7176
#
#
#
# Elastic Compliance Matrix: (Units=1/GPa)
#
#
# Indices 1 2 3 4 5 6 
#
# 1 0.011145 -0.004700 -0.004653 0.000000 0.000000 0.000000
# 2 -0.004700 0.010616 -0.005374 0.000000 0.000000 0.000000
# 3 -0.004653 -0.005374 0.030543 0.000000 0.000000 0.000000
# 4 0.000000 0.000000 0.000000 0.045057 0.000000 0.000000
# 5 0.000000 0.000000 0.000000 0.000000 0.041906 0.000000
# 6 0.000000 0.000000 0.000000 0.000000 0.000000 0.031528
#
#
# Mechanical properties :
#
#
# Convention : Reuss Voigt Hill
#
# Bulk Modulus (GPa) = 43.76486 70.23077 56.99782
# Shear Modulus (GPa) = 24.05393 27.49204 25.77299
#
# Velocity S-wave (km/s) = 3.51879 3.76187 3.64236
# Velocity P-wave (km/s) = 6.24798 7.41758 6.85776
#
# Compressibility (1/GPa) = 0.02284938
#
# Stress axis : x y z
#
# Youngs Moduli (GPa) = 89.73012 94.19715 32.74029
#
# Poissons Ratio (x) = 0.44274 0.15235
# Poissons Ratio (y) = 0.42174 0.17595
# Poissons Ratio (z) = 0.41753 0.50622
#
# Static dielectric constant tensor:
#      x y z
#    x 3.647670 0.000000 0.000000 
#    y 0.000000 3.776920 0.000000 
#    z 0.000000 0.000000 3.239230 
# 
# 
# High freq. dielectric constant tensor:
#      x y z
#    x 1.767560 0.000000 0.000000 
#    y 0.000000 1.762650 0.000000 
#    z 0.000000 0.000000 1.723060 
# 
# From -- ./inp_files/6879.got.cif
#   From: 2010.06.25/outbox.cif.g09.slc.cpg/sg58_4_cif.got.tgz:6879.got - 2010.06.26 21:38:00.
