data_PCOD8235043
_publ_section_title
;
Structure prediction by ZEFSAII (Michael W. Deem and Ramdas Pophale) SiO2 
 PCOD8235043
Probable space group: P B C M
;
_chemical_formula_sum "Si O2"
_cell_formula_units_Z 48
_cell_length_a 14.877888
_cell_length_b 18.861991
_cell_length_c 8.624955
_cell_angle_alpha 90.000000
_cell_angle_beta 90.000000
_cell_angle_gamma 90.000000
_cell_volume 2420.391707
_symmetry_space_group_name_H-M "P B C M"
_symmetry_group_IT_number 57
_symmetry_cell_setting 'orthorhombic'
loop_
_space_group_symop_operation_xyz
x,y,z
-x,-y,1/2+z
x,1/2-y,-z
-x,1/2+y,1/2-z
-x,-y,-z
x,y,1/2-z
-x,1/2+y,z
x,1/2-y,1/2+z
loop_
_atom_site_type_symbol
_atom_site_label
_atom_site_fract_x
_atom_site_fract_y
_atom_site_fract_z
Si Si1 0.630364 0.326037 0.929236
Si Si2 0.276237 0.077108 0.930840
Si Si3 0.024420 0.575253 0.570790
Si Si4 0.231536 0.570756 0.571330
Si Si5 0.464353 0.427783 0.928942
Si Si6 0.877769 0.827413 0.932012
O O1 0.658369 0.321355 0.750000
O O2 0.538620 0.368322 0.951655
O O3 0.612251 0.250000 0.000000
O O4 0.710690 0.361512 0.024560
O O5 0.263470 0.091951 0.750000
O O6 0.376097 0.098873 0.981693
O O7 0.205875 0.123548 0.025121
O O8 0.260378 0.994477 0.964086
O O9 0.998175 0.572884 0.750000
O O10 0.128574 0.591478 0.543157
O O11 0.000000 0.500000 0.500000
O O12 0.969874 0.638498 0.492042
O O13 0.248717 0.550149 0.750000
O O14 0.440596 0.440837 0.750000
O O15 0.500000 0.500000 0.000000
O O16 0.884225 0.820999 0.750000
O O17 0.863369 0.750000 0.000000
#
# Coordination Sequence:
#
# PCOD8235043 Si02
#       6
#     8   8   8   8   8   8
#     4  11  25  43  65  94 130 170 212 265 325 382
#     4  12  24  40  66  97 130 170 217 266 322 387
#     4  11  23  40  66  98 130 170 216 265 320 381
#     4  11  23  40  66  96 129 169 216 265 318 381
#     4  11  23  40  65  96 129 169 218 266 320 382
#     4  12  26  45  67  95 132 172 215 271 330 388
#
# _framework density 19.831502
#
# number of rings (size 3 to 8) (size 9 to 14) (size 15 to 20)
#    0.000    0.667    3.333    5.000    0.000    5.333 
#    0.000    1.667    0.000    0.000    0.000    0.000 
#    0.000    0.000    0.000    0.000    0.000    0.000 
#
# Total GULP energy -595576.707302 kJ/mol
# GULP energy per Si atom -12407.848069 kJ/mol
# Density = 1.978636 g / cm^3
# Si number density = 19.831502 Si / 1000 Ang^3
#
#
#
# Elastic Constant Matrix: (Units=GPa)
#
#
# Indices 1 2 3 4 5 6 
#
# 1 122.0424 33.8515 49.6218 0.0000 0.0000 0.0000
# 2 33.8515 107.4953 27.7225 0.0000 0.0000 0.0000
# 3 49.6218 27.7225 124.6685 0.0000 0.0000 0.0000
# 4 0.0000 0.0000 0.0000 38.3622 0.0000 0.0000
# 5 0.0000 0.0000 0.0000 0.0000 32.3714 0.0000
# 6 0.0000 0.0000 0.0000 0.0000 0.0000 9.3904
#
#
#
# Elastic Compliance Matrix: (Units=1/GPa)
#
#
# Indices 1 2 3 4 5 6 
#
# 1 0.010293 -0.002318 -0.003582 0.000000 0.000000 0.000000
# 2 -0.002318 0.010391 -0.001388 0.000000 0.000000 0.000000
# 3 -0.003582 -0.001388 0.009755 0.000000 0.000000 0.000000
# 4 0.000000 0.000000 0.000000 0.026067 0.000000 0.000000
# 5 0.000000 0.000000 0.000000 0.000000 0.030891 0.000000
# 6 0.000000 0.000000 0.000000 0.000000 0.000000 0.106492
#
#
# Mechanical properties :
#
#
# Convention : Reuss Voigt Hill
#
# Bulk Modulus (GPa) = 63.03383 64.06641 63.55012
# Shear Modulus (GPa) = 23.39153 32.22551 27.80852
#
# Velocity S-wave (km/s) = 3.43813 4.03546 3.74871
# Velocity P-wave (km/s) = 6.90034 7.35451 7.13104
#
# Compressibility (1/GPa) = 0.01586450
#
# Stress axis : x y z
#
# Youngs Moduli (GPa) = 97.15363 96.24110 102.50648
#
# Poissons Ratio (x) = 0.22306 0.36713
# Poissons Ratio (y) = 0.22517 0.14228
# Poissons Ratio (z) = 0.34796 0.13359
#
# Static dielectric constant tensor:
#      x y z
#    x 1.209250 0.000000 0.000000 
#    y 0.000000 3.514410 0.000000 
#    z 0.000000 0.000000 3.842310 
# 
# 
# High freq. dielectric constant tensor:
#      x y z
#    x 1.791940 0.000000 0.000000 
#    y 0.000000 1.771590 0.000000 
#    z 0.000000 0.000000 1.794140 
# 
# From -- ./inp_files/4711.got.cif
#   From: 2010.03.12/outbox.cif.g09.slc.cpg/sg57_3_cif.got.tgz:4711.got - 2010.04.16 15:48:40.
