data_PCOD8235410
_publ_section_title
;
Structure prediction by ZEFSAII (Michael W. Deem and Ramdas Pophale) SiO2 
 PCOD8235410
Probable space group: P N N M
;
_chemical_formula_sum "Si O2"
_cell_formula_units_Z 56
_cell_length_a 18.356370
_cell_length_b 20.767058
_cell_length_c 8.906253
_cell_angle_alpha 90.000000
_cell_angle_beta 90.000000
_cell_angle_gamma 90.000000
_cell_volume 3395.133116
_symmetry_space_group_name_H-M "P N N M"
_symmetry_group_IT_number 58
_symmetry_cell_setting 'orthorhombic'
loop_
_space_group_symop_operation_xyz
x,y,z
-x,-y,z
1/2+x,1/2-y,1/2-z
1/2-x,1/2+y,1/2-z
-x,-y,-z
x,y,-z
1/2-x,1/2+y,1/2+z
1/2+x,1/2-y,1/2+z
loop_
_atom_site_type_symbol
_atom_site_label
_atom_site_fract_x
_atom_site_fract_y
_atom_site_fract_z
Si Si1 0.346066 0.875482 0.176917
Si Si2 0.717942 0.680883 0.175844
Si Si3 0.084982 0.497340 0.825819
Si Si4 0.925165 0.246479 0.671120
Si Si5 0.074821 0.255333 0.175509
Si Si6 0.713100 0.310656 0.324923
Si Si7 0.153738 0.617422 0.326324
O O1 0.261744 0.874868 0.235747
O O2 0.379410 0.943197 0.223766
O O3 0.396890 0.819106 0.242567
O O4 0.346779 0.869501 0.000000
O O5 0.631611 0.688269 0.208967
O O6 0.754998 0.745022 0.242308
O O7 0.731987 0.670455 0.000000
O O8 0.119296 0.565630 0.783107
O O9 0.000000 0.500000 0.789916
O O10 0.099990 0.482773 0.000000
O O11 0.951515 0.240374 0.500000
O O12 0.888692 0.315662 0.696622
O O13 0.993919 0.236706 0.777579
O O14 0.126446 0.192185 0.211060
O O15 0.077018 0.271008 0.000000
O O16 0.730038 0.307518 0.500000
O O17 0.761384 0.371769 0.270357
O O18 0.149169 0.594668 0.500000
#
# Coordination Sequence:
#
# PCOD8235410 Si02
#       7
#     8   8   8   8   8   8   8
#     4  11  21  32  47  66  90 122 159 193 225 268
#     4   8  15  30  48  65  90 121 150 184 228 272
#     4  11  23  35  46  64  91 122 154 187 226 270
#     4   9  17  29  47  71  97 123 150 185 229 273
#     4  10  18  29  46  68  96 125 151 185 229 272
#     4   7  13  27  45  63  85 117 150 180 221 267
#     4   9  17  31  48  64  87 120 156 188 219 262
#
# _framework density 16.494198000000001
#
# number of rings (size 3 to 8) (size 9 to 14) (size 15 to 20)
#    0.000    2.714    0.000    5.571    0.000    4.571 
#    0.000    6.429    0.000    0.000    0.000    1.000 
#    0.000    8.000    0.000    0.000    0.000    0.000 
#
# Total GULP energy -693736.906144 kJ/mol
# GULP energy per Si atom -12388.159038 kJ/mol
# Density = 1.645666 g / cm^3
# Si number density = 16.494198 Si / 1000 Ang^3
#
#
#
# Elastic Constant Matrix: (Units=GPa)
#
#
# Indices 1 2 3 4 5 6 
#
# 1 121.9569 46.0548 54.0823 0.0000 0.0000 0.0000
# 2 46.0548 49.9941 31.1103 0.0000 0.0000 0.0000
# 3 54.0823 31.1103 81.6179 0.0000 0.0000 0.0000
# 4 0.0000 0.0000 0.0000 17.3990 0.0000 0.0000
# 5 0.0000 0.0000 0.0000 0.0000 20.0264 0.0000
# 6 0.0000 0.0000 0.0000 0.0000 0.0000 25.8516
#
#
#
# Elastic Compliance Matrix: (Units=1/GPa)
#
#
# Indices 1 2 3 4 5 6 
#
# 1 0.014461 -0.009647 -0.005905 0.000000 0.000000 0.000000
# 2 -0.009647 0.032658 -0.006056 0.000000 0.000000 0.000000
# 3 -0.005905 -0.006056 0.018473 0.000000 0.000000 0.000000
# 4 0.000000 0.000000 0.000000 0.057475 0.000000 0.000000
# 5 0.000000 0.000000 0.000000 0.000000 0.049934 0.000000
# 6 0.000000 0.000000 0.000000 0.000000 0.000000 0.038682
#
#
# Mechanical properties :
#
#
# Convention : Reuss Voigt Hill
#
# Bulk Modulus (GPa) = 44.69015 57.34043 51.01529
# Shear Modulus (GPa) = 19.05787 20.81016 19.93401
#
# Velocity S-wave (km/s) = 3.40285 3.55585 3.48019
# Velocity P-wave (km/s) = 6.52629 7.19015 6.86625
#
# Compressibility (1/GPa) = 0.02237630
#
# Stress axis : x y z
#
# Youngs Moduli (GPa) = 69.14930 30.62064 54.13166
#
# Poissons Ratio (x) = 0.29540 0.31967
# Poissons Ratio (y) = 0.66710 0.32780
# Poissons Ratio (z) = 0.40835 0.18543
#
# Static dielectric constant tensor:
#      x y z
#    x 3.425830 0.000000 0.000000 
#    y 0.000000 2.866150 0.000000 
#    z 0.000000 0.000000 2.990330 
# 
# 
# High freq. dielectric constant tensor:
#      x y z
#    x 1.643870 0.000000 0.000000 
#    y 0.000000 1.592960 0.000000 
#    z 0.000000 0.000000 1.628770 
# 
# From -- ./inp_files/8198.got.cif
#   From: 2010.06.25/outbox.cif.g09.slc.cpg/sg58_5_cif.got.tgz:8198.got - 2010.06.26 21:38:00.
