data_PCOD8235442
_publ_section_title
;
Structure prediction by ZEFSAII (Michael W. Deem and Ramdas Pophale) SiO2 
 PCOD8235442
Probable space group: P N N M
;
_chemical_formula_sum "Si O2"
_cell_formula_units_Z 56
_cell_length_a 22.001916
_cell_length_b 15.338173
_cell_length_c 9.126486
_cell_angle_alpha 90.000000
_cell_angle_beta 90.000000
_cell_angle_gamma 90.000000
_cell_volume 3079.907874
_symmetry_space_group_name_H-M "P N N M"
_symmetry_group_IT_number 58
_symmetry_cell_setting 'orthorhombic'
loop_
_space_group_symop_operation_xyz
x,y,z
-x,-y,z
1/2+x,1/2-y,1/2-z
1/2-x,1/2+y,1/2-z
-x,-y,-z
x,y,-z
1/2-x,1/2+y,1/2+z
1/2+x,1/2-y,1/2+z
loop_
_atom_site_type_symbol
_atom_site_label
_atom_site_fract_x
_atom_site_fract_y
_atom_site_fract_z
Si Si1 0.060546 0.541679 0.664880
Si Si2 0.317732 0.050847 0.672334
Si Si3 0.984749 0.864383 0.164421
Si Si4 0.318486 0.249383 0.326514
Si Si5 0.559209 0.755050 0.836123
Si Si6 0.214265 0.916039 0.327039
Si Si7 0.899611 0.013063 0.834461
O O1 0.070317 0.506105 0.500000
O O2 0.119749 0.517394 0.757693
O O3 0.048999 0.643403 0.664286
O O4 0.000000 0.500000 0.735860
O O5 0.327082 0.050135 0.500000
O O6 0.300958 0.150429 0.721870
O O7 0.265962 0.984067 0.723633
O O8 0.995983 0.786068 0.278292
O O9 0.041477 0.928248 0.181233
O O10 0.981274 0.826721 0.000000
O O11 0.921828 0.914327 0.201103
O O12 0.315352 0.261424 0.500000
O O13 0.386366 0.272046 0.272506
O O14 0.274906 0.321809 0.250876
O O15 0.574294 0.721317 0.000000
O O16 0.215547 0.901305 0.500000
O O17 0.150694 0.958885 0.281489
O O18 0.873197 0.018936 0.000000
#
# Coordination Sequence:
#
# PCOD8235442 Si02
#       7
#     8   8   8   8   8   8   8
#     4   9  19  36  56  78 103 131 168 214 259 305
#     4   9  21  38  55  78 107 137 173 215 258 310
#     4   9  17  30  47  71 103 135 170 206 241 295
#     4  10  19  34  54  74 100 138 177 211 255 312
#     4  10  18  29  50  78 103 130 169 214 257 300
#     4  11  21  34  53  79 107 135 173 220 261 301
#     4   9  18  31  48  71 102 139 171 200 242 300
#
# _framework density 18.182362000000001
#
# number of rings (size 3 to 8) (size 9 to 14) (size 15 to 20)
#    0.000    2.429    1.429    2.143    0.000    3.143 
#    0.000    2.857    0.000    8.571    0.000    0.000 
#    0.000    0.000    0.000    0.000    0.000    0.000 
#
# Total GULP energy -694157.056053 kJ/mol
# GULP energy per Si atom -12395.661715 kJ/mol
# Density = 1.814098 g / cm^3
# Si number density = 18.182362 Si / 1000 Ang^3
#
#
#
# Elastic Constant Matrix: (Units=GPa)
#
#
# Indices 1 2 3 4 5 6 
#
# 1 80.8226 54.8141 34.2371 0.0000 0.0000 0.0000
# 2 54.8141 81.9615 40.4964 0.0000 0.0000 0.0000
# 3 34.2371 40.4964 69.4631 0.0000 0.0000 0.0000
# 4 0.0000 0.0000 0.0000 19.1132 0.0000 0.0000
# 5 0.0000 0.0000 0.0000 0.0000 23.1693 0.0000
# 6 0.0000 0.0000 0.0000 0.0000 0.0000 34.7835
#
#
#
# Elastic Compliance Matrix: (Units=1/GPa)
#
#
# Indices 1 2 3 4 5 6 
#
# 1 0.023186 -0.013849 -0.003354 0.000000 0.000000 0.000000
# 2 -0.013849 0.025409 -0.007987 0.000000 0.000000 0.000000
# 3 -0.003354 -0.007987 0.020706 0.000000 0.000000 0.000000
# 4 0.000000 0.000000 0.000000 0.052320 0.000000 0.000000
# 5 0.000000 0.000000 0.000000 0.000000 0.043161 0.000000
# 6 0.000000 0.000000 0.000000 0.000000 0.000000 0.028749
#
#
# Mechanical properties :
#
#
# Convention : Reuss Voigt Hill
#
# Bulk Modulus (GPa) = 52.85403 54.59362 53.72383
# Shear Modulus (GPa) = 19.98246 22.25984 21.12115
#
# Velocity S-wave (km/s) = 3.31872 3.50273 3.41196
# Velocity P-wave (km/s) = 6.61945 6.81539 6.71814
#
# Compressibility (1/GPa) = 0.01892003
#
# Stress axis : x y z
#
# Youngs Moduli (GPa) = 43.12916 39.35550 48.29540
#
# Poissons Ratio (x) = 0.54504 0.16199
# Poissons Ratio (y) = 0.59730 0.38576
# Poissons Ratio (z) = 0.14466 0.31435
#
# Static dielectric constant tensor:
#      x y z
#    x 3.543310 0.000000 0.000000 
#    y 0.000000 3.722140 0.000000 
#    z 0.000000 0.000000 3.426370 
# 
# 
# High freq. dielectric constant tensor:
#      x y z
#    x 1.675280 0.000000 0.000000 
#    y 0.000000 1.706780 0.000000 
#    z 0.000000 0.000000 1.705880 
# 
# From -- ./inp_files/9189.got.cif
#   From: 2010.06.25/outbox.cif.g09.slc.cpg/sg58_5_cif.got.tgz:9189.got - 2010.06.26 21:38:00.
