data_PCOD8235977
_publ_section_title
;
Structure prediction by ZEFSAII (Michael W. Deem and Ramdas Pophale) SiO2 
 PCOD8235977
Probable space group: P N N M
;
_chemical_formula_sum "Si O2"
_cell_formula_units_Z 40
_cell_length_a 13.353601
_cell_length_b 18.429591
_cell_length_c 9.562108
_cell_angle_alpha 90.000000
_cell_angle_beta 90.000000
_cell_angle_gamma 90.000000
_cell_volume 2353.248212
_symmetry_space_group_name_H-M "P N N M"
_symmetry_group_IT_number 58
_symmetry_cell_setting 'orthorhombic'
loop_
_space_group_symop_operation_xyz
x,y,z
-x,-y,z
1/2+x,1/2-y,1/2-z
1/2-x,1/2+y,1/2-z
-x,-y,-z
x,y,-z
1/2-x,1/2+y,1/2+z
1/2+x,1/2-y,1/2+z
loop_
_atom_site_type_symbol
_atom_site_label
_atom_site_fract_x
_atom_site_fract_y
_atom_site_fract_z
Si Si1 0.086078 0.708540 0.337285
Si Si2 0.395282 0.782685 0.661332
Si Si3 0.385033 0.492280 0.334684
Si Si4 0.310761 0.359397 0.841436
Si Si5 0.788476 0.859541 0.834030
O O1 0.062691 0.696634 0.500000
O O2 0.119331 0.790846 0.307525
O O3 0.174451 0.654599 0.285532
O O4 0.988284 0.688215 0.249966
O O5 0.427924 0.776844 0.500000
O O6 0.305060 0.839195 0.679606
O O7 0.361558 0.704102 0.721428
O O8 0.500000 0.500000 0.290056
O O9 0.373830 0.483309 0.500000
O O10 0.336927 0.422696 0.264512
O O11 0.326253 0.563075 0.278827
O O12 0.329367 0.385546 0.000000
O O13 0.792005 0.854475 0.000000
#
# Coordination Sequence:
#
# PCOD8235977 Si02
#       5
#     8   8   8   8   8
#     4   9  17  31  50  69  92 123 156 190 231 277
#     4   9  17  32  52  70  92 123 158 195 231 270
#     4  10  19  31  50  73  94 121 158 195 230 274
#     4   9  19  33  48  70  99 126 151 188 240 284
#     4   8  16  31  48  68  95 123 152 190 234 275
#
# _framework density 16.997782999999998
#
# number of rings (size 3 to 8) (size 9 to 14) (size 15 to 20)
#    0.000    3.000    0.000    3.600    0.000    3.600 
#    0.000    6.000    0.000    6.000    0.000    0.000 
#    0.000    0.000    0.000    0.000    0.000    0.000 
#
# Total GULP energy -495942.974809 kJ/mol
# GULP energy per Si atom -12398.574370 kJ/mol
# Density = 1.695910 g / cm^3
# Si number density = 16.997783 Si / 1000 Ang^3
#
#
#
# Elastic Constant Matrix: (Units=GPa)
#
#
# Indices 1 2 3 4 5 6 
#
# 1 117.3443 45.3473 48.2411 0.0000 0.0000 0.0000
# 2 45.3473 96.9196 36.6468 0.0000 0.0000 0.0000
# 3 48.2411 36.6468 48.4982 0.0000 0.0000 0.0000
# 4 0.0000 0.0000 0.0000 25.7004 0.0000 0.0000
# 5 0.0000 0.0000 0.0000 0.0000 32.7871 0.0000
# 6 0.0000 0.0000 0.0000 0.0000 0.0000 19.0825
#
#
#
# Elastic Compliance Matrix: (Units=1/GPa)
#
#
# Indices 1 2 3 4 5 6 
#
# 1 0.014659 -0.001883 -0.013158 0.000000 0.000000 0.000000
# 2 -0.001883 0.014687 -0.009224 0.000000 0.000000 0.000000
# 3 -0.013158 -0.009224 0.040678 0.000000 0.000000 0.000000
# 4 0.000000 0.000000 0.000000 0.038910 0.000000 0.000000
# 5 0.000000 0.000000 0.000000 0.000000 0.030500 0.000000
# 6 0.000000 0.000000 0.000000 0.000000 0.000000 0.052404
#
#
# Mechanical properties :
#
#
# Convention : Reuss Voigt Hill
#
# Bulk Modulus (GPa) = 46.52913 58.13694 52.33303
# Shear Modulus (GPa) = 20.19916 24.34912 22.27414
#
# Velocity S-wave (km/s) = 3.45097 3.78893 3.62389
# Velocity P-wave (km/s) = 6.58119 7.30878 6.95450
#
# Compressibility (1/GPa) = 0.02149191
#
# Stress axis : x y z
#
# Youngs Moduli (GPa) = 68.21606 68.08733 24.58312
#
# Poissons Ratio (x) = 0.12824 0.32347
# Poissons Ratio (y) = 0.12848 0.22677
# Poissons Ratio (z) = 0.89761 0.62807
#
# Static dielectric constant tensor:
#      x y z
#    x 3.232220 0.000000 0.000000 
#    y 0.000000 3.181360 0.000000 
#    z 0.000000 0.000000 2.904070 
# 
# 
# High freq. dielectric constant tensor:
#      x y z
#    x 1.663230 0.000000 0.000000 
#    y 0.000000 1.646150 0.000000 
#    z 0.000000 0.000000 1.633600 
# 
# From -- ./inp_files/3796.got.cif
#   From: 2010.06.25/outbox.cif.g09.slc.cpg/sg58_2_cif.got.tgz:3796.got - 2010.06.26 21:38:00.
