data_PCOD8235234
_publ_section_title
;
Structure prediction by ZEFSAII (Michael W. Deem and Ramdas Pophale) SiO2 
 PCOD8235234
Probable space group: P N N M
;
_chemical_formula_sum "Si O2"
_cell_formula_units_Z 52
_cell_length_a 12.625979
_cell_length_b 11.513805
_cell_length_c 20.596474
_cell_angle_alpha 90.000000
_cell_angle_beta 90.000000
_cell_angle_gamma 90.000000
_cell_volume 2994.172453
_symmetry_space_group_name_H-M "P N N M"
_symmetry_group_IT_number 58
_symmetry_cell_setting 'orthorhombic'
loop_
_space_group_symop_operation_xyz
x,y,z
-x,-y,z
1/2+x,1/2-y,1/2-z
1/2-x,1/2+y,1/2-z
-x,-y,-z
x,y,-z
1/2-x,1/2+y,1/2+z
1/2+x,1/2-y,1/2+z
loop_
_atom_site_type_symbol
_atom_site_label
_atom_site_fract_x
_atom_site_fract_y
_atom_site_fract_z
Si Si1 0.064116 0.798021 0.767679
Si Si2 0.637851 0.228917 0.331556
Si Si3 0.206205 0.108799 0.349790
Si Si4 0.303091 0.103506 0.790428
Si Si5 0.378839 0.976928 0.576286
Si Si6 0.207648 0.353444 0.694296
Si Si7 0.000000 0.000000 0.325418
O O1 0.093746 0.679841 0.727886
O O2 0.165423 0.854435 0.801366
O O3 0.982435 0.774992 0.826563
O O4 0.012332 0.885529 0.717365
O O5 0.725042 0.329806 0.339918
O O6 0.654678 0.144810 0.392329
O O7 0.657989 0.162082 0.264809
O O8 0.238641 0.078076 0.276013
O O9 0.176476 0.247174 0.354049
O O10 0.104406 0.028590 0.368649
O O11 0.303491 0.080147 0.397564
O O12 0.332464 0.982025 0.826673
O O13 0.363846 0.967368 0.500000
O O14 0.500000 0.000000 0.596114
#
# Coordination Sequence:
#
# PCOD8235234 Si02
#       7
#     8   8   8   8   8   8   4
#     4  10  17  26  46  68 105 138 157 206 265 317
#     4  10  18  30  47  73 102 133 170 209 262 318
#     4  10  19  32  49  75 108 137 174 214 266 318
#     4  10  18  29  47  74 105 133 166 211 270 314
#     4  11  22  37  55  74 104 144 186 226 254 299
#     4  10  18  29  46  75 105 136 168 209 269 319
#     4  12  16  32  49  78 113 138 164 218 272 326
#
# _framework density 17.367068
#
# number of rings (size 3 to 8) (size 9 to 14) (size 15 to 20)
#    0.000    2.000    6.154    2.769    0.000    0.000 
#    0.000    0.385    0.000    0.923    0.000    5.923 
#    0.000    2.462    0.000    0.000    0.000    0.000 
#
# Total GULP energy -644399.603839 kJ/mol
# GULP energy per Si atom -12392.300074 kJ/mol
# Density = 1.732754 g / cm^3
# Si number density = 17.367068 Si / 1000 Ang^3
#
#
#
# Elastic Constant Matrix: (Units=GPa)
#
#
# Indices 1 2 3 4 5 6 
#
# 1 67.5126 29.1831 20.5149 0.0000 0.0000 0.0000
# 2 29.1831 138.6756 29.3948 0.0000 0.0000 0.0000
# 3 20.5149 29.3948 47.5992 0.0000 0.0000 0.0000
# 4 0.0000 0.0000 0.0000 17.3921 0.0000 0.0000
# 5 0.0000 0.0000 0.0000 0.0000 17.8380 0.0000
# 6 0.0000 0.0000 0.0000 0.0000 0.0000 27.5775
#
#
#
# Elastic Compliance Matrix: (Units=1/GPa)
#
#
# Indices 1 2 3 4 5 6 
#
# 1 0.017728 -0.002429 -0.006141 0.000000 0.000000 0.000000
# 2 -0.002429 0.008630 -0.004283 0.000000 0.000000 0.000000
# 3 -0.006141 -0.004283 0.026300 0.000000 0.000000 0.000000
# 4 0.000000 0.000000 0.000000 0.057498 0.000000 0.000000
# 5 0.000000 0.000000 0.000000 0.000000 0.056060 0.000000
# 6 0.000000 0.000000 0.000000 0.000000 0.000000 0.036261
#
#
# Mechanical properties :
#
#
# Convention : Reuss Voigt Hill
#
# Bulk Modulus (GPa) = 37.10080 45.77478 41.43779
# Shear Modulus (GPa) = 21.08229 24.20782 22.64505
#
# Velocity S-wave (km/s) = 3.48792 3.73754 3.61488
# Velocity P-wave (km/s) = 6.13432 6.71119 6.42923
#
# Compressibility (1/GPa) = 0.02695360
#
# Stress axis : x y z
#
# Youngs Moduli (GPa) = 56.40805 115.87463 38.02285
#
# Poissons Ratio (x) = 0.28147 0.23348
# Poissons Ratio (y) = 0.13702 0.16283
# Poissons Ratio (z) = 0.34638 0.49624
#
# Static dielectric constant tensor:
#      x y z
#    x 3.506540 0.000000 0.000000 
#    y 0.000000 3.547130 0.000000 
#    z 0.000000 0.000000 2.599290 
# 
# 
# High freq. dielectric constant tensor:
#      x y z
#    x 1.688370 0.000000 0.000000 
#    y 0.000000 1.686120 0.000000 
#    z 0.000000 0.000000 1.583710 
# 
# From -- ./inp_files/30107.got.cif
#   From: 2010.06.25/outbox.cif.g09.slc.cpg/sg58_16_cif.got.tgz:30107.got - 2010.06.26 21:38:00.
