data_PCOD8235699
_publ_section_title
;
Structure prediction by ZEFSAII (Michael W. Deem and Ramdas Pophale) SiO2 
 PCOD8235699
Probable space group: P N N M
;
_chemical_formula_sum "Si O2"
_cell_formula_units_Z 48
_cell_length_a 20.832203
_cell_length_b 11.878778
_cell_length_c 9.936073
_cell_angle_alpha 90.000000
_cell_angle_beta 90.000000
_cell_angle_gamma 90.000000
_cell_volume 2458.791700
_symmetry_space_group_name_H-M "P N N M"
_symmetry_group_IT_number 58
_symmetry_cell_setting 'orthorhombic'
loop_
_space_group_symop_operation_xyz
x,y,z
-x,-y,z
1/2+x,1/2-y,1/2-z
1/2-x,1/2+y,1/2-z
-x,-y,-z
x,y,-z
1/2-x,1/2+y,1/2+z
1/2+x,1/2-y,1/2+z
loop_
_atom_site_type_symbol
_atom_site_label
_atom_site_fract_x
_atom_site_fract_y
_atom_site_fract_z
Si Si1 0.293353 0.900379 0.342673
Si Si2 0.150348 0.972594 0.655936
Si Si3 0.515621 0.179603 0.279361
Si Si4 0.046412 0.902973 0.149497
Si Si5 0.863598 0.766884 0.347869
Si Si6 0.088177 0.531020 0.147924
O O1 0.300054 0.867769 0.500000
O O2 0.314350 0.794715 0.252122
O O3 0.222237 0.938306 0.305774
O O4 0.338454 0.008692 0.307707
O O5 0.135244 0.948540 0.500000
O O6 0.137465 0.102328 0.692413
O O7 0.104969 0.893187 0.746050
O O8 0.494185 0.288880 0.360415
O O9 0.563088 0.218408 0.158908
O O10 0.449471 0.109979 0.242900
O O11 0.555842 0.092427 0.369863
O O12 0.072209 0.932155 0.000000
O O13 0.000000 0.000000 0.204036
O O14 0.839044 0.750137 0.500000
O O15 0.085936 0.589388 0.000000
#
# Coordination Sequence:
#
# PCOD8235699 Si02
#       6
#     8   8   8   8   8   8
#     4   9  20  38  59  81 107 144 193 236 277 333
#     4  10  22  40  58  81 113 154 191 225 281 353
#     4  10  18  33  54  83 112 147 185 231 281 334
#     4  11  22  34  54  87 116 144 185 239 283 325
#     4  10  21  37  58  81 113 152 187 231 287 341
#     4   9  17  32  57  82 106 144 188 235 278 331
#
# _framework density 19.521785000000001
#
# number of rings (size 3 to 8) (size 9 to 14) (size 15 to 20)
#    0.000    2.167    1.667    2.000    0.000    5.000 
#    0.000    8.333    0.000    4.000    0.000    0.000 
#    0.000    0.000    0.000    0.000    0.000    0.000 
#
# Total GULP energy -594694.316765 kJ/mol
# GULP energy per Si atom -12389.464933 kJ/mol
# Density = 1.947735 g / cm^3
# Si number density = 19.521785 Si / 1000 Ang^3
#
#
#
# Elastic Constant Matrix: (Units=GPa)
#
#
# Indices 1 2 3 4 5 6 
#
# 1 122.2300 38.9291 45.6460 0.0000 0.0000 0.0000
# 2 38.9291 89.9784 26.5464 0.0000 0.0000 0.0000
# 3 45.6460 26.5464 72.4128 0.0000 0.0000 0.0000
# 4 0.0000 0.0000 0.0000 23.4731 0.0000 0.0000
# 5 0.0000 0.0000 0.0000 0.0000 30.1660 0.0000
# 6 0.0000 0.0000 0.0000 0.0000 0.0000 27.7633
#
#
#
# Elastic Compliance Matrix: (Units=1/GPa)
#
#
# Indices 1 2 3 4 5 6 
#
# 1 0.011452 -0.003168 -0.006058 0.000000 0.000000 0.000000
# 2 -0.003168 0.013338 -0.002893 0.000000 0.000000 0.000000
# 3 -0.006058 -0.002893 0.018689 0.000000 0.000000 0.000000
# 4 0.000000 0.000000 0.000000 0.042602 0.000000 0.000000
# 5 0.000000 0.000000 0.000000 0.000000 0.033150 0.000000
# 6 0.000000 0.000000 0.000000 0.000000 0.000000 0.036019
#
#
# Mechanical properties :
#
#
# Convention : Reuss Voigt Hill
#
# Bulk Modulus (GPa) = 51.96883 56.31824 54.14353
# Shear Modulus (GPa) = 26.89611 27.84712 27.37162
#
# Velocity S-wave (km/s) = 3.71583 3.78095 3.74853
# Velocity P-wave (km/s) = 6.71480 6.92621 6.82132
#
# Compressibility (1/GPa) = 0.01924231
#
# Stress axis : x y z
#
# Youngs Moduli (GPa) = 87.31764 74.97528 53.50774
#
# Poissons Ratio (x) = 0.23749 0.32414
# Poissons Ratio (y) = 0.27659 0.15479
# Poissons Ratio (z) = 0.52896 0.21689
#
# Static dielectric constant tensor:
#      x y z
#    x 3.750410 0.000000 0.000000 
#    y 0.000000 3.556950 0.000000 
#    z 0.000000 0.000000 3.240550 
# 
# 
# High freq. dielectric constant tensor:
#      x y z
#    x 1.765220 0.000000 0.000000 
#    y 0.000000 1.758440 0.000000 
#    z 0.000000 0.000000 1.731720 
# 
# From -- ./inp_files/16344.got.cif
#   From: 2010.06.25/outbox.cif.g09.slc.cpg/sg58_9_cif.got.tgz:16344.got - 2010.06.26 21:38:00.
