data_PCOD8235260
_publ_section_title
;
Structure prediction by ZEFSAII (Michael W. Deem and Ramdas Pophale) SiO2 
 PCOD8235260
Probable space group: P N N M
;
_chemical_formula_sum "Si O2"
_cell_formula_units_Z 48
_cell_length_a 9.686396
_cell_length_b 22.473192
_cell_length_c 14.156398
_cell_angle_alpha 90.000000
_cell_angle_beta 90.000000
_cell_angle_gamma 90.000000
_cell_volume 3081.624699
_symmetry_space_group_name_H-M "P N N M"
_symmetry_group_IT_number 58
_symmetry_cell_setting 'orthorhombic'
loop_
_space_group_symop_operation_xyz
x,y,z
-x,-y,z
1/2+x,1/2-y,1/2-z
1/2-x,1/2+y,1/2-z
-x,-y,-z
x,y,-z
1/2-x,1/2+y,1/2+z
1/2+x,1/2-y,1/2+z
loop_
_atom_site_type_symbol
_atom_site_label
_atom_site_fract_x
_atom_site_fract_y
_atom_site_fract_z
Si Si1 0.391522 0.189716 0.255397
Si Si2 0.952463 0.177076 0.243039
Si Si3 0.812838 0.446704 0.500000
Si Si4 0.683803 0.348854 0.605077
Si Si5 0.335836 0.837985 0.825025
Si Si6 0.161503 0.201133 0.390109
Si Si7 0.365432 0.920636 0.000000
O O1 0.452469 0.253499 0.280593
O O2 0.292114 0.191766 0.163178
O O3 0.524863 0.148141 0.235154
O O4 0.298140 0.169959 0.344830
O O5 0.796068 0.152599 0.243590
O O6 0.038607 0.146047 0.158917
O O7 0.027294 0.168818 0.344314
O O8 0.744842 0.415975 0.593160
O O9 0.783854 0.516788 0.500000
O O10 0.973073 0.431569 0.500000
O O11 0.664472 0.320153 0.500000
O O12 0.340713 0.771611 0.868596
O O13 0.320080 0.884814 0.908291
O O14 0.159833 0.187939 0.500000
#
# Coordination Sequence:
#
# PCOD8235260 Si02
#       7
#     8   8   4   8   8   8   4
#     4   9  17  29  43  64  88 124 164 189 221 284
#     4   9  19  27  43  66  92 122 164 188 231 289
#     4   9  20  31  47  71  91 135 163 185 230 292
#     4   9  17  32  45  61  96 130 150 190 231 278
#     4  10  17  29  43  68  94 125 153 200 232 268
#     4   9  17  30  45  63  92 129 164 185 233 283
#     4  11  18  29  51  71  95 127 165 193 228 288
#
# _framework density 15.576199000000001
#
# number of rings (size 3 to 8) (size 9 to 14) (size 15 to 20)
#    0.500    2.167    2.500    1.000    1.167    1.333 
#    0.000    2.500    0.000    0.000    0.000    0.000 
#    0.000   21.333    0.000    0.333    0.000    0.000 
#
# Total GULP energy -594672.307203 kJ/mol
# GULP energy per Si atom -12389.006400 kJ/mol
# Density = 1.554075 g / cm^3
# Si number density = 15.576199 Si / 1000 Ang^3
#
#
#
# Elastic Constant Matrix: (Units=GPa)
#
#
# Indices 1 2 3 4 5 6 
#
# 1 116.5409 13.6602 60.7523 0.0000 0.0000 0.0000
# 2 13.6602 46.8532 22.0360 0.0000 0.0000 0.0000
# 3 60.7523 22.0360 125.0301 0.0000 0.0000 0.0000
# 4 0.0000 0.0000 0.0000 13.5420 0.0000 0.0000
# 5 0.0000 0.0000 0.0000 0.0000 21.8261 0.0000
# 6 0.0000 0.0000 0.0000 0.0000 0.0000 12.8729
#
#
#
# Elastic Compliance Matrix: (Units=1/GPa)
#
#
# Indices 1 2 3 4 5 6 
#
# 1 0.011518 -0.000792 -0.005457 0.000000 0.000000 0.000000
# 2 -0.000792 0.023327 -0.003727 0.000000 0.000000 0.000000
# 3 -0.005457 -0.003727 0.011307 0.000000 0.000000 0.000000
# 4 0.000000 0.000000 0.000000 0.073844 0.000000 0.000000
# 5 0.000000 0.000000 0.000000 0.000000 0.045817 0.000000
# 6 0.000000 0.000000 0.000000 0.000000 0.000000 0.077683
#
#
# Mechanical properties :
#
#
# Convention : Reuss Voigt Hill
#
# Bulk Modulus (GPa) = 38.16685 53.48014 45.82349
# Shear Modulus (GPa) = 18.37022 22.44659 20.40840
#
# Velocity S-wave (km/s) = 3.43793 3.80028 3.62364
# Velocity P-wave (km/s) = 6.34946 7.32565 6.85496
#
# Compressibility (1/GPa) = 0.02620075
#
# Stress axis : x y z
#
# Youngs Moduli (GPa) = 86.81841 42.86930 88.44430
#
# Poissons Ratio (x) = 0.03393 0.48266
# Poissons Ratio (y) = 0.06872 0.32960
# Poissons Ratio (z) = 0.47379 0.15976
#
# Static dielectric constant tensor:
#      x y z
#    x 3.293930 0.000000 0.000000 
#    y 0.000000 2.659880 0.000000 
#    z 0.000000 0.000000 2.909350 
# 
# 
# High freq. dielectric constant tensor:
#      x y z
#    x 1.618090 0.000000 0.000000 
#    y 0.000000 1.541480 0.000000 
#    z 0.000000 0.000000 1.584280 
# 
# From -- ./inp_files/20192.got.cif
#   From: 2010.06.25/outbox.cif.g09.slc.cpg/sg58_11_cif.got.tgz:20192.got - 2010.06.26 21:38:00.
