data_PCOD8235008
_publ_section_title
;
Structure prediction by ZEFSAII (Michael W. Deem and Ramdas Pophale) SiO2 
 PCOD8235008
Probable space group: P B C M
;
_chemical_formula_sum "Si O2"
_cell_formula_units_Z 56
_cell_length_a 11.435445
_cell_length_b 10.554883
_cell_length_c 22.701981
_cell_angle_alpha 90.000000
_cell_angle_beta 90.000000
_cell_angle_gamma 90.000000
_cell_volume 2740.124204
_symmetry_space_group_name_H-M "P B C M"
_symmetry_group_IT_number 57
_symmetry_cell_setting 'orthorhombic'
loop_
_space_group_symop_operation_xyz
x,y,z
-x,-y,1/2+z
x,1/2-y,-z
-x,1/2+y,1/2-z
-x,-y,-z
x,y,1/2-z
-x,1/2+y,z
x,1/2-y,1/2+z
loop_
_atom_site_type_symbol
_atom_site_label
_atom_site_fract_x
_atom_site_fract_y
_atom_site_fract_z
Si Si1 0.432870 0.307722 0.250000
Si Si2 0.659316 0.748399 0.129470
Si Si3 0.171143 0.403452 0.433485
Si Si4 0.639964 0.394050 0.750000
Si Si5 0.757385 0.155246 0.125630
Si Si6 0.905270 0.330200 0.442074
Si Si7 0.720420 0.969022 0.548106
Si Si8 0.443213 0.698826 0.560289
O O1 0.359183 0.246312 0.301822
O O2 0.429214 0.466200 0.250000
O O3 0.559111 0.234272 0.250000
O O4 0.781474 0.815711 0.118209
O O5 0.669669 0.608148 0.103262
O O6 0.551106 0.830004 0.103134
O O7 0.178544 0.545227 0.410439
O O8 0.256494 0.383734 0.490210
O O9 0.041902 0.354518 0.445300
O O10 0.724170 0.383968 0.807481
O O11 0.856885 0.264468 0.118373
O O12 0.640312 0.200094 0.092585
O O13 0.865701 0.250000 0.500000
O O14 0.847129 0.468580 0.441666
O O15 0.623318 0.074703 0.539334
O O16 0.498344 0.750000 0.500000
#
# Coordination Sequence:
#
# PCOD8235008 Si02
#       8
#     4   8   8   4   8   8   8   8
#     4  12  28  46  73  95 135 195 240 287 336 421
#     4  12  27  39  63 101 132 177 234 279 338 412
#     4  12  23  41  68 100 139 174 219 280 344 410
#     4  12  26  50  71  97 137 189 240 283 346 409
#     4  11  23  43  68  97 132 178 226 281 340 409
#     4  11  23  42  72 100 135 180 224 275 353 420
#     4  11  23  40  65 101 140 174 219 282 346 418
#     4  11  22  40  64  99 138 173 212 277 357 415
#
# _framework density 20.43703
#
# number of rings (size 3 to 8) (size 9 to 14) (size 15 to 20)
#    0.000    0.571    5.714    3.429    6.000    1.143 
#    0.000    1.429    0.000    0.000    0.000    0.000 
#    0.000    0.000    0.000    0.000    0.000    0.000 
#
# Total GULP energy -693826.047920 kJ/mol
# GULP energy per Si atom -12389.750856 kJ/mol
# Density = 2.039051 g / cm^3
# Si number density = 20.437030 Si / 1000 Ang^3
#
#
#
# Elastic Constant Matrix: (Units=GPa)
#
#
# Indices 1 2 3 4 5 6 
#
# 1 94.7819 37.2554 41.7219 0.0000 0.0000 0.0000
# 2 37.2554 59.9902 30.1683 0.0000 0.0000 0.0000
# 3 41.7219 30.1683 133.9249 0.0000 0.0000 0.0000
# 4 0.0000 0.0000 0.0000 21.1123 0.0000 0.0000
# 5 0.0000 0.0000 0.0000 0.0000 18.0972 0.0000
# 6 0.0000 0.0000 0.0000 0.0000 0.0000 33.1980
#
#
#
# Elastic Compliance Matrix: (Units=1/GPa)
#
#
# Indices 1 2 3 4 5 6 
#
# 1 0.014882 -0.007793 -0.002881 0.000000 0.000000 0.000000
# 2 -0.007793 0.022880 -0.002726 0.000000 0.000000 0.000000
# 3 -0.002881 -0.002726 0.008978 0.000000 0.000000 0.000000
# 4 0.000000 0.000000 0.000000 0.047366 0.000000 0.000000
# 5 0.000000 0.000000 0.000000 0.000000 0.055257 0.000000
# 6 0.000000 0.000000 0.000000 0.000000 0.000000 0.030122
#
#
# Mechanical properties :
#
#
# Convention : Reuss Voigt Hill
#
# Bulk Modulus (GPa) = 50.15013 56.33202 53.24107
# Shear Modulus (GPa) = 23.48159 26.45160 24.96660
#
# Velocity S-wave (km/s) = 3.39333 3.60154 3.49898
# Velocity P-wave (km/s) = 6.32021 6.70211 6.51396
#
# Compressibility (1/GPa) = 0.01994013
#
# Stress axis : x y z
#
# Youngs Moduli (GPa) = 67.19598 43.70590 111.37863
#
# Poissons Ratio (x) = 0.34062 0.32084
# Poissons Ratio (y) = 0.52368 0.30364
# Poissons Ratio (z) = 0.19357 0.11915
#
# Static dielectric constant tensor:
#      x y z
#    x 3.864700 0.000000 0.000000 
#    y 0.000000 4.066830 0.000000 
#    z 0.000000 0.000000 3.733800 
# 
# 
# High freq. dielectric constant tensor:
#      x y z
#    x 1.798560 0.000000 0.000000 
#    y 0.000000 1.812340 0.000000 
#    z 0.000000 0.000000 1.785720 
# 
# From -- ./inp_files/25068.got.cif
#   From: 2010.03.12/outbox.cif.g09.slc.cpg/sg57_13_cif.got.tgz:25068.got - 2010.04.16 15:48:40.
