data_PCOD8235655
_publ_section_title
;
Structure prediction by ZEFSAII (Michael W. Deem and Ramdas Pophale) SiO2 
 PCOD8235655
Probable space group: P N N M
;
_chemical_formula_sum "Si O2"
_cell_formula_units_Z 44
_cell_length_a 19.581067
_cell_length_b 12.647260
_cell_length_c 9.880622
_cell_angle_alpha 90.000000
_cell_angle_beta 90.000000
_cell_angle_gamma 90.000000
_cell_volume 2446.904869
_symmetry_space_group_name_H-M "P N N M"
_symmetry_group_IT_number 58
_symmetry_cell_setting 'orthorhombic'
loop_
_space_group_symop_operation_xyz
x,y,z
-x,-y,z
1/2+x,1/2-y,1/2-z
1/2-x,1/2+y,1/2-z
-x,-y,-z
x,y,-z
1/2-x,1/2+y,1/2+z
1/2+x,1/2-y,1/2+z
loop_
_atom_site_type_symbol
_atom_site_label
_atom_site_fract_x
_atom_site_fract_y
_atom_site_fract_z
Si Si1 0.923874 0.800067 0.346112
Si Si2 0.521215 0.886690 0.160261
Si Si3 0.500000 0.500000 0.247026
Si Si4 0.306762 0.633765 0.654608
Si Si5 0.635400 0.589978 0.349968
Si Si6 0.159206 0.717310 0.341629
O O1 0.900554 0.778551 0.500000
O O2 0.966221 0.909396 0.345358
O O3 0.857371 0.802392 0.252104
O O4 0.970472 0.705028 0.288532
O O5 0.598170 0.859555 0.206486
O O6 0.500000 0.000000 0.223654
O O7 0.517224 0.892359 0.000000
O O8 0.557111 0.552288 0.341724
O O9 0.323123 0.666743 0.500000
O O10 0.314606 0.508748 0.674316
O O11 0.229573 0.660445 0.694855
O O12 0.646691 0.637797 0.500000
O O13 0.654682 0.672915 0.236151
O O14 0.152650 0.743973 0.500000
#
# Coordination Sequence:
#
# PCOD8235655 Si02
#       6
#     8   8   4   8   8   8
#     4  10  19  32  55  84 108 137 183 236 274 317
#     4   9  18  33  54  79 105 140 184 226 270 321
#     4  10  18  32  54  84 110 138 174 232 286 326
#     4   9  21  37  53  77 112 149 178 217 279 337
#     4  10  20  34  55  82 109 142 181 224 275 332
#     4  10  20  37  56  78 109 146 183 226 276 326
#
# _framework density 17.981901000000001
#
# number of rings (size 3 to 8) (size 9 to 14) (size 15 to 20)
#    0.000    2.364    1.818    0.545    0.000    5.818 
#    0.000    3.636    0.000    2.182    0.000    0.000 
#    0.000    0.000    0.000    0.000    0.000    0.000 
#
# Total GULP energy -545599.000567 kJ/mol
# GULP energy per Si atom -12399.977286 kJ/mol
# Density = 1.794097 g / cm^3
# Si number density = 17.981901 Si / 1000 Ang^3
#
#
#
# Elastic Constant Matrix: (Units=GPa)
#
#
# Indices 1 2 3 4 5 6 
#
# 1 159.4167 79.7202 58.6144 0.0000 0.0000 0.0000
# 2 79.7202 110.4131 45.6306 0.0000 0.0000 0.0000
# 3 58.6144 45.6306 66.1897 0.0000 0.0000 0.0000
# 4 0.0000 0.0000 0.0000 22.8747 0.0000 0.0000
# 5 0.0000 0.0000 0.0000 0.0000 24.9888 0.0000
# 6 0.0000 0.0000 0.0000 0.0000 0.0000 26.2155
#
#
#
# Elastic Compliance Matrix: (Units=1/GPa)
#
#
# Indices 1 2 3 4 5 6 
#
# 1 0.011372 -0.005662 -0.006167 0.000000 0.000000 0.000000
# 2 -0.005662 0.015484 -0.005661 0.000000 0.000000 0.000000
# 3 -0.006167 -0.005661 0.024472 0.000000 0.000000 0.000000
# 4 0.000000 0.000000 0.000000 0.043716 0.000000 0.000000
# 5 0.000000 0.000000 0.000000 0.000000 0.040018 0.000000
# 6 0.000000 0.000000 0.000000 0.000000 0.000000 0.038145
#
#
# Mechanical properties :
#
#
# Convention : Reuss Voigt Hill
#
# Bulk Modulus (GPa) = 61.16810 78.21665 69.69237
# Shear Modulus (GPa) = 23.40421 24.95274 24.17848
#
# Velocity S-wave (km/s) = 3.61160 3.72917 3.67086
# Velocity P-wave (km/s) = 7.17509 7.88252 7.53711
#
# Compressibility (1/GPa) = 0.01634839
#
# Stress axis : x y z
#
# Youngs Moduli (GPa) = 87.93723 64.58107 40.86342
#
# Poissons Ratio (x) = 0.36566 0.25200
# Poissons Ratio (y) = 0.49790 0.23132
# Poissons Ratio (z) = 0.54230 0.36558
#
# Static dielectric constant tensor:
#      x y z
#    x 3.444560 0.000000 0.000000 
#    y 0.000000 3.439850 0.000000 
#    z 0.000000 0.000000 3.115960 
# 
# 
# High freq. dielectric constant tensor:
#      x y z
#    x 1.702320 0.000000 0.000000 
#    y 0.000000 1.693380 0.000000 
#    z 0.000000 0.000000 1.677150 
# 
# From -- ./inp_files/7645.got.cif
#   From: 2010.06.25/outbox.cif.g09.slc.cpg/sg58_4_cif.got.tgz:7645.got - 2010.06.26 21:38:00.
