data_PCOD8235671
_publ_section_title
;
Structure prediction by ZEFSAII (Michael W. Deem and Ramdas Pophale) SiO2 
 PCOD8235671
Probable space group: P N N M
;
_chemical_formula_sum "Si O2"
_cell_formula_units_Z 56
_cell_length_a 21.686715
_cell_length_b 9.521498
_cell_length_c 14.164317
_cell_angle_alpha 90.000000
_cell_angle_beta 90.000000
_cell_angle_gamma 90.000000
_cell_volume 2924.790009
_symmetry_space_group_name_H-M "P N N M"
_symmetry_group_IT_number 58
_symmetry_cell_setting 'orthorhombic'
loop_
_space_group_symop_operation_xyz
x,y,z
-x,-y,z
1/2+x,1/2-y,1/2-z
1/2-x,1/2+y,1/2-z
-x,-y,-z
x,y,-z
1/2-x,1/2+y,1/2+z
1/2+x,1/2-y,1/2+z
loop_
_atom_site_type_symbol
_atom_site_label
_atom_site_fract_x
_atom_site_fract_y
_atom_site_fract_z
Si Si1 0.223443 0.254927 0.891673
Si Si2 0.594683 0.719530 0.389942
Si Si3 0.985898 0.162246 0.394480
Si Si4 0.348941 0.397541 0.106245
Si Si5 0.883838 0.536699 0.891306
Si Si6 0.034601 0.251216 0.794122
Si Si7 0.855689 0.956442 0.208969
O O1 0.293957 0.291274 0.868558
O O2 0.181052 0.389731 0.867047
O O3 0.205150 0.120920 0.829080
O O4 0.214617 0.211528 0.000000
O O5 0.593908 0.683450 0.500000
O O6 0.525738 0.708267 0.351105
O O7 0.638883 0.610231 0.336803
O O8 0.622971 0.872596 0.369294
O O9 0.009045 0.201292 0.500000
O O10 0.912712 0.188392 0.385027
O O11 0.020925 0.258379 0.318258
O O12 0.000000 0.000000 0.371735
O O13 0.348971 0.528805 0.177901
O O14 0.341052 0.458550 0.000000
O O15 0.939063 0.598741 0.827139
O O16 0.902782 0.561836 0.000000
O O17 0.084540 0.132771 0.818916
#
# Coordination Sequence:
#
# PCOD8235671 Si02
#       7
#     8   8   8   8   8   8   8
#     4   9  20  38  57  81 113 146 185 234 286 338
#     4  11  21  33  53  82 116 153 187 226 284 347
#     4  10  18  32  55  84 114 146 194 244 282 331
#     4  10  20  36  57  81 112 151 189 232 288 339
#     4   9  20  36  54  79 115 155 187 223 282 353
#     4  11  19  33  53  82 115 144 185 234 284 331
#     4  11  21  34  57  86 110 142 190 238 280 327
#
# _framework density 19.146674000000001
#
# number of rings (size 3 to 8) (size 9 to 14) (size 15 to 20)
#    0.000    1.857    2.857    1.714    0.000    4.571 
#    0.000    0.000    0.000    3.429    0.000    0.000 
#    0.000    0.000    0.000    0.000    0.000    0.000 
#
# Total GULP energy -694516.397765 kJ/mol
# GULP energy per Si atom -12402.078532 kJ/mol
# Density = 1.910310 g / cm^3
# Si number density = 19.146674 Si / 1000 Ang^3
#
#
#
# Elastic Constant Matrix: (Units=GPa)
#
#
# Indices 1 2 3 4 5 6 
#
# 1 93.1583 40.6044 33.3110 0.0000 0.0000 0.0000
# 2 40.6044 97.2175 47.2422 0.0000 0.0000 0.0000
# 3 33.3110 47.2422 101.9409 0.0000 0.0000 0.0000
# 4 0.0000 0.0000 0.0000 26.7657 0.0000 0.0000
# 5 0.0000 0.0000 0.0000 0.0000 27.3633 0.0000
# 6 0.0000 0.0000 0.0000 0.0000 0.0000 23.4672
#
#
#
# Elastic Compliance Matrix: (Units=1/GPa)
#
#
# Indices 1 2 3 4 5 6 
#
# 1 0.013538 -0.004523 -0.002328 0.000000 0.000000 0.000000
# 2 -0.004523 0.014787 -0.005375 0.000000 0.000000 0.000000
# 3 -0.002328 -0.005375 0.013061 0.000000 0.000000 0.000000
# 4 0.000000 0.000000 0.000000 0.037361 0.000000 0.000000
# 5 0.000000 0.000000 0.000000 0.000000 0.036545 0.000000
# 6 0.000000 0.000000 0.000000 0.000000 0.000000 0.042613
#
#
# Mechanical properties :
#
#
# Convention : Reuss Voigt Hill
#
# Bulk Modulus (GPa) = 59.04895 59.40354 59.22624
# Shear Modulus (GPa) = 26.59543 26.92986 26.76264
#
# Velocity S-wave (km/s) = 3.73102 3.75441 3.74273
# Velocity P-wave (km/s) = 7.03335 7.06307 7.04822
#
# Compressibility (1/GPa) = 0.01693510
#
# Stress axis : x y z
#
# Youngs Moduli (GPa) = 73.86453 67.62560 76.56382
#
# Poissons Ratio (x) = 0.30590 0.17821
# Poissons Ratio (y) = 0.33412 0.41151
# Poissons Ratio (z) = 0.17193 0.36347
#
# Static dielectric constant tensor:
#      x y z
#    x 3.526700 0.000000 0.000000 
#    y 0.000000 3.318110 0.000000 
#    z 0.000000 0.000000 3.709200 
# 
# 
# High freq. dielectric constant tensor:
#      x y z
#    x 1.743630 0.000000 0.000000 
#    y 0.000000 1.717180 0.000000 
#    z 0.000000 0.000000 1.754290 
# 
# From -- ./inp_files/20150.got.cif
#   From: 2010.06.25/outbox.cif.g09.slc.cpg/sg58_11_cif.got.tgz:20150.got - 2010.06.26 21:38:00.
