data_PCOD8235615
_publ_section_title
;
Structure prediction by ZEFSAII (Michael W. Deem and Ramdas Pophale) SiO2 
 PCOD8235615
Probable space group: P N N M
;
_chemical_formula_sum "Si O2"
_cell_formula_units_Z 56
_cell_length_a 14.121277
_cell_length_b 17.333081
_cell_length_c 13.129614
_cell_angle_alpha 90.000000
_cell_angle_beta 90.000000
_cell_angle_gamma 90.000000
_cell_volume 3213.673096
_symmetry_space_group_name_H-M "P N N M"
_symmetry_group_IT_number 58
_symmetry_cell_setting 'orthorhombic'
loop_
_space_group_symop_operation_xyz
x,y,z
-x,-y,z
1/2+x,1/2-y,1/2-z
1/2-x,1/2+y,1/2-z
-x,-y,-z
x,y,-z
1/2-x,1/2+y,1/2+z
1/2+x,1/2-y,1/2+z
loop_
_atom_site_type_symbol
_atom_site_label
_atom_site_fract_x
_atom_site_fract_y
_atom_site_fract_z
Si Si1 0.257472 0.799963 0.116113
Si Si2 0.038281 0.416901 0.120375
Si Si3 0.704802 0.445544 0.121414
Si Si4 0.249754 0.393272 0.807134
Si Si5 0.138116 0.665829 0.192145
Si Si6 0.076931 0.190641 0.379813
Si Si7 0.372109 0.259267 0.883328
O O1 0.239438 0.873978 0.187255
O O2 0.171874 0.738747 0.124926
O O3 0.353175 0.758582 0.157492
O O4 0.265951 0.828632 0.000000
O O5 0.141566 0.405232 0.164967
O O6 0.000000 0.500000 0.154687
O O7 0.970937 0.350799 0.166572
O O8 0.041434 0.408991 0.000000
O O9 0.690244 0.529821 0.169332
O O10 0.801663 0.409645 0.164428
O O11 0.616060 0.392757 0.156616
O O12 0.713920 0.452330 0.000000
O O13 0.290961 0.323414 0.874405
O O14 0.150511 0.685778 0.312245
O O15 0.080775 0.191020 0.500000
O O16 0.970530 0.203874 0.341640
O O17 0.379806 0.230927 0.000000
#
# Coordination Sequence:
#
# PCOD8235615 Si02
#       7
#     8   8   8   8   8   8   8
#     4   9  18  34  53  73  98 133 173 204 238 298
#     4  11  20  31  50  75 104 130 160 208 253 293
#     4  10  18  32  51  74  99 126 165 208 249 297
#     4  11  21  31  50  78 104 129 164 208 256 296
#     4  10  19  32  53  74  98 135 170 201 245 299
#     4   8  16  31  52  70  93 128 162 201 247 292
#     4  10  20  34  50  74 104 132 163 207 252 296
#
# _framework density 17.425543000000001
#
# number of rings (size 3 to 8) (size 9 to 14) (size 15 to 20)
#    0.000    2.143    1.429    4.286    0.000    0.571 
#    0.000    2.857    0.000    0.857    0.000   10.000 
#    0.000    0.000    0.000    0.000    0.000    0.000 
#
# Total GULP energy -694356.089724 kJ/mol
# GULP energy per Si atom -12399.215888 kJ/mol
# Density = 1.738588 g / cm^3
# Si number density = 17.425543 Si / 1000 Ang^3
#
#
#
# Elastic Constant Matrix: (Units=GPa)
#
#
# Indices 1 2 3 4 5 6 
#
# 1 67.0716 16.3782 21.1914 0.0000 0.0000 0.0000
# 2 16.3782 75.5723 44.6664 0.0000 0.0000 0.0000
# 3 21.1914 44.6664 94.8044 0.0000 0.0000 0.0000
# 4 0.0000 0.0000 0.0000 26.5579 0.0000 0.0000
# 5 0.0000 0.0000 0.0000 0.0000 17.9607 0.0000
# 6 0.0000 0.0000 0.0000 0.0000 0.0000 -47.7001
#
#
#
# Elastic Compliance Matrix: (Units=1/GPa)
#
#
# Indices 1 2 3 4 5 6 
#
# 1 0.016238 -0.001904 -0.002733 0.000000 0.000000 0.000000
# 2 -0.001904 0.018562 -0.008320 0.000000 0.000000 0.000000
# 3 -0.002733 -0.008320 0.015079 0.000000 0.000000 0.000000
# 4 0.000000 0.000000 0.000000 0.037654 0.000000 0.000000
# 5 0.000000 0.000000 0.000000 0.000000 0.055677 0.000000
# 6 0.000000 0.000000 0.000000 0.000000 0.000000 -0.020964
#
#
# Mechanical properties :
#
#
# Convention : Reuss Voigt Hill
#
# Bulk Modulus (GPa) = 41.72600 44.65782 43.19191
# Shear Modulus (GPa) = 32.02112 9.71118 20.86615
#
# Velocity S-wave (km/s) = 4.29137 2.36327 3.46417
# Velocity P-wave (km/s) = 6.96791 5.75588 6.39069
#
# Compressibility (1/GPa) = 0.02396587
#
# Stress axis : x y z
#
# Youngs Moduli (GPa) = 61.58500 53.87220 66.31869
#
# Poissons Ratio (x) = 0.10258 0.18122
# Poissons Ratio (y) = 0.11726 0.55177
# Poissons Ratio (z) = 0.16828 0.44821
#
# Static dielectric constant tensor:
#      x y z
#    x 3.569410 0.000000 0.000000 
#    y 0.000000 2.707230 0.000000 
#    z 0.000000 0.000000 3.127550 
# 
# 
# High freq. dielectric constant tensor:
#      x y z
#    x 1.679850 0.000000 0.000000 
#    y 0.000000 1.661300 0.000000 
#    z 0.000000 0.000000 1.657620 
# 
# From -- ./inp_files/22192.got.cif
#   From: 2010.06.25/outbox.cif.g09.slc.cpg/sg58_12_cif.got.tgz:22192.got - 2010.06.26 21:38:00.
