data_PCOD8235981
_publ_section_title
;
Structure prediction by ZEFSAII (Michael W. Deem and Ramdas Pophale) SiO2 
 PCOD8235981
Probable space group: P N N M
;
_chemical_formula_sum "Si O2"
_cell_formula_units_Z 48
_cell_length_a 31.346576
_cell_length_b 9.813843
_cell_length_c 8.832030
_cell_angle_alpha 90.000000
_cell_angle_beta 90.000000
_cell_angle_gamma 90.000000
_cell_volume 2717.000705
_symmetry_space_group_name_H-M "P N N M"
_symmetry_group_IT_number 58
_symmetry_cell_setting 'orthorhombic'
loop_
_space_group_symop_operation_xyz
x,y,z
-x,-y,z
1/2+x,1/2-y,1/2-z
1/2-x,1/2+y,1/2-z
-x,-y,-z
x,y,-z
1/2-x,1/2+y,1/2+z
1/2+x,1/2-y,1/2+z
loop_
_atom_site_type_symbol
_atom_site_label
_atom_site_fract_x
_atom_site_fract_y
_atom_site_fract_z
Si Si1 0.217319 0.373174 0.319385
Si Si2 0.462408 0.604781 0.323985
Si Si3 0.535276 0.106462 0.181452
Si Si4 0.373443 0.903188 0.834893
Si Si5 0.376630 0.580447 0.832465
Si Si6 0.710234 0.416198 0.321175
O O1 0.213534 0.354872 0.500000
O O2 0.172034 0.436531 0.254895
O O3 0.255045 0.472472 0.271322
O O4 0.225767 0.226424 0.247259
O O5 0.500000 0.500000 0.292227
O O6 0.454846 0.632282 0.500000
O O7 0.475925 0.746032 0.246169
O O8 0.419460 0.538249 0.255831
O O9 0.581866 0.053942 0.245391
O O10 0.500000 0.000000 0.237928
O O11 0.537111 0.117365 0.000000
O O12 0.375270 0.741283 0.848534
O O13 0.372900 0.972486 0.000000
O O14 0.334905 0.530526 0.742189
O O15 0.376912 0.513431 0.000000
O O16 0.706813 0.401237 0.500000
#
# Coordination Sequence:
#
# PCOD8235981 Si02
#       6
#     8   8   8   8   8   8
#     4   9  18  32  49  70  98 131 166 205 245 289
#     4  10  20  33  50  73 101 131 163 201 243 288
#     4   9  17  30  50  74  98 128 166 204 242 287
#     4   7  12  26  46  65  88 121 159 195 231 276
#     4   9  17  31  51  71  94 127 165 202 242 293
#     4  10  19  31  50  74  99 129 165 204 247 293
#
# _framework density 17.666539
#
# number of rings (size 3 to 8) (size 9 to 14) (size 15 to 20)
#    0.000    3.000    0.000    3.500    0.000    3.000 
#    0.000    1.667    0.000    2.000    0.000    0.000 
#    0.000    0.000    0.000    0.000    0.000    0.000 
#
# Total GULP energy -594692.257506 kJ/mol
# GULP energy per Si atom -12389.422031 kJ/mol
# Density = 1.762633 g / cm^3
# Si number density = 17.666539 Si / 1000 Ang^3
#
#
#
# Elastic Constant Matrix: (Units=GPa)
#
#
# Indices 1 2 3 4 5 6 
#
# 1 180.1668 65.9261 53.0131 0.0000 0.0000 0.0000
# 2 65.9261 64.4172 33.2938 0.0000 0.0000 0.0000
# 3 53.0131 33.2938 63.4214 0.0000 0.0000 0.0000
# 4 0.0000 0.0000 0.0000 21.7414 0.0000 0.0000
# 5 0.0000 0.0000 0.0000 0.0000 25.7221 0.0000
# 6 0.0000 0.0000 0.0000 0.0000 0.0000 29.7404
#
#
#
# Elastic Compliance Matrix: (Units=1/GPa)
#
#
# Indices 1 2 3 4 5 6 
#
# 1 0.009530 -0.007734 -0.003906 0.000000 0.000000 0.000000
# 2 -0.007734 0.027581 -0.008014 0.000000 0.000000 0.000000
# 3 -0.003906 -0.008014 0.023239 0.000000 0.000000 0.000000
# 4 0.000000 0.000000 0.000000 0.045995 0.000000 0.000000
# 5 0.000000 0.000000 0.000000 0.000000 0.038877 0.000000
# 6 0.000000 0.000000 0.000000 0.000000 0.000000 0.033624
#
#
# Mechanical properties :
#
#
# Convention : Reuss Voigt Hill
#
# Bulk Modulus (GPa) = 47.52327 68.05239 57.78783
# Shear Modulus (GPa) = 22.20553 25.82560 24.01557
#
# Velocity S-wave (km/s) = 3.54916 3.82755 3.69098
# Velocity P-wave (km/s) = 6.61468 7.62480 7.13763
#
# Compressibility (1/GPa) = 0.02104232
#
# Stress axis : x y z
#
# Youngs Moduli (GPa) = 104.93472 36.25631 43.03071
#
# Poissons Ratio (x) = 0.28042 0.16806
# Poissons Ratio (y) = 0.81161 0.34485
# Poissons Ratio (z) = 0.40982 0.29056
#
# Static dielectric constant tensor:
#      x y z
#    x 3.963220 0.000000 0.000000 
#    y 0.000000 2.864750 0.000000 
#    z 0.000000 0.000000 3.206050 
# 
# 
# High freq. dielectric constant tensor:
#      x y z
#    x 1.709620 0.000000 0.000000 
#    y 0.000000 1.637700 0.000000 
#    z 0.000000 0.000000 1.671020 
# 
# From -- ./inp_files/4325.got.cif
#   From: 2010.06.25/outbox.cif.g09.slc.cpg/sg58_3_cif.got.tgz:4325.got - 2010.06.26 21:38:00.
