data_PCOD8235215
_publ_section_title
;
Structure prediction by ZEFSAII (Michael W. Deem and Ramdas Pophale) SiO2 
 PCOD8235215
Probable space group: P N N M
;
_chemical_formula_sum "Si O2"
_cell_formula_units_Z 64
_cell_length_a 20.757670
_cell_length_b 22.202742
_cell_length_c 9.123199
_cell_angle_alpha 90.000000
_cell_angle_beta 90.000000
_cell_angle_gamma 90.000000
_cell_volume 4204.674333
_symmetry_space_group_name_H-M "P N N M"
_symmetry_group_IT_number 58
_symmetry_cell_setting 'orthorhombic'
loop_
_space_group_symop_operation_xyz
x,y,z
-x,-y,z
1/2+x,1/2-y,1/2-z
1/2-x,1/2+y,1/2-z
-x,-y,-z
x,y,-z
1/2-x,1/2+y,1/2+z
1/2+x,1/2-y,1/2+z
loop_
_atom_site_type_symbol
_atom_site_label
_atom_site_fract_x
_atom_site_fract_y
_atom_site_fract_z
Si Si1 0.938073 0.849812 0.666415
Si Si2 0.738130 0.836541 0.827784
Si Si3 0.838698 0.756597 0.331493
Si Si4 0.325277 0.431477 0.827874
Si Si5 0.737582 0.150430 0.838783
Si Si6 0.654170 0.752371 0.337202
Si Si7 0.814791 0.930511 0.330011
Si Si8 0.068848 0.853035 0.173380
O O1 0.962288 0.859279 0.500000
O O2 0.911534 0.781196 0.688661
O O3 0.881618 0.896790 0.704981
O O4 0.996031 0.862449 0.776229
O O5 0.795108 0.791531 0.784766
O O6 0.670556 0.809130 0.766979
O O7 0.755068 0.901598 0.758943
O O8 0.731997 0.843260 0.000000
O O9 0.816729 0.771819 0.500000
O O10 0.831004 0.684162 0.303009
O O11 0.258171 0.399678 0.778746
O O12 0.321943 0.500714 0.781070
O O13 0.386461 0.403096 0.747716
O O14 0.333924 0.422716 0.000000
O O15 0.787648 0.205174 0.838247
O O16 0.735387 0.120083 0.000000
O O17 0.641976 0.777913 0.500000
O O18 0.591869 0.714560 0.281586
O O19 0.797391 0.924987 0.500000
O O20 0.074547 0.862046 0.000000
#
# Coordination Sequence:
#
# PCOD8235215 Si02
#       8
#     8   8   8   8   8   8   8   8
#     4   9  17  30  45  58  77 110 148 176 198 238
#     4  10  17  24  41  65  81  97 130 175 211 239
#     4   8  15  28  43  58  80 109 133 159 208 261
#     4  10  19  30  44  60  80 111 148 177 201 240
#     4   8  14  26  43  61  81 104 131 167 211 251
#     4   8  15  28  42  55  78 109 132 157 206 261
#     4   9  19  33  44  56  81 116 145 169 206 251
#     4  10  20  31  42  59  84 112 140 174 213 243
#
# _framework density 15.221155
#
# number of rings (size 3 to 8) (size 9 to 14) (size 15 to 20)
#    0.000    3.000    0.000    4.125    0.000    8.500 
#    0.000    2.500    0.000    0.000    0.000    0.000 
#    0.000    1.000    0.000   11.250    0.000    5.500 
#
# Total GULP energy -792972.214115 kJ/mol
# GULP energy per Si atom -12390.190846 kJ/mol
# Density = 1.518651 g / cm^3
# Si number density = 15.221155 Si / 1000 Ang^3
#
#
#
# Elastic Constant Matrix: (Units=GPa)
#
#
# Indices 1 2 3 4 5 6 
#
# 1 34.0513 56.1844 30.5471 0.0000 0.0000 0.0000
# 2 56.1844 96.6376 52.6542 0.0000 0.0000 0.0000
# 3 30.5471 52.6542 76.4544 0.0000 0.0000 0.0000
# 4 0.0000 0.0000 0.0000 22.4750 0.0000 0.0000
# 5 0.0000 0.0000 0.0000 0.0000 15.6541 0.0000
# 6 0.0000 0.0000 0.0000 0.0000 0.0000 16.0803
#
#
#
# Elastic Compliance Matrix: (Units=1/GPa)
#
#
# Indices 1 2 3 4 5 6 
#
# 1 0.721490 -0.420009 0.000992 0.000000 0.000000 0.000000
# 2 -0.420009 0.261068 -0.011985 0.000000 0.000000 0.000000
# 3 0.000992 -0.011985 0.020937 0.000000 0.000000 0.000000
# 4 0.000000 0.000000 0.000000 0.044494 0.000000 0.000000
# 5 0.000000 0.000000 0.000000 0.000000 0.063881 0.000000
# 6 0.000000 0.000000 0.000000 0.000000 0.000000 0.062188
#
#
# Mechanical properties :
#
#
# Convention : Reuss Voigt Hill
#
# Bulk Modulus (GPa) = 7.06756 53.99051 30.52904
# Shear Modulus (GPa) = 2.40012 15.35907 8.87959
#
# Velocity S-wave (km/s) = 1.25708 3.18002 2.41793
# Velocity P-wave (km/s) = 2.60007 7.00222 5.28164
#
# Compressibility (1/GPa) = 0.14149146
#
# Stress axis : x y z
#
# Youngs Moduli (GPa) = 1.38602 3.83041 47.76195
#
# Poissons Ratio (x) = 1.60881 -0.04740
# Poissons Ratio (y) = 0.58214 0.57242
# Poissons Ratio (z) = -0.00138 0.04591
#
# Static dielectric constant tensor:
#      x y z
#    x 2.884430 0.000000 0.000000 
#    y 0.000000 3.055300 0.000000 
#    z 0.000000 0.000000 2.898350 
# 
# 
# High freq. dielectric constant tensor:
#      x y z
#    x 1.546770 0.000000 0.000000 
#    y 0.000000 1.565270 0.000000 
#    z 0.000000 0.000000 1.587330 
# 
# From -- ./inp_files/9480.got.cif
#   From: 2010.06.25/outbox.cif.g09.slc.cpg/sg58_5_cif.got.tgz:9480.got - 2010.06.26 21:38:00.
