data_PCOD8235529
_publ_section_title
;
Structure prediction by ZEFSAII (Michael W. Deem and Ramdas Pophale) SiO2 
 PCOD8235529
Probable space group: P N N M
;
_chemical_formula_sum "Si O2"
_cell_formula_units_Z 64
_cell_length_a 19.014104
_cell_length_b 23.512856
_cell_length_c 8.597244
_cell_angle_alpha 90.000000
_cell_angle_beta 90.000000
_cell_angle_gamma 90.000000
_cell_volume 3843.620507
_symmetry_space_group_name_H-M "P N N M"
_symmetry_group_IT_number 58
_symmetry_cell_setting 'orthorhombic'
loop_
_space_group_symop_operation_xyz
x,y,z
-x,-y,z
1/2+x,1/2-y,1/2-z
1/2-x,1/2+y,1/2-z
-x,-y,-z
x,y,-z
1/2-x,1/2+y,1/2+z
1/2+x,1/2-y,1/2+z
loop_
_atom_site_type_symbol
_atom_site_label
_atom_site_fract_x
_atom_site_fract_y
_atom_site_fract_z
Si Si1 0.654502 0.729948 0.681325
Si Si2 0.778925 0.670425 0.181974
Si Si3 0.003816 0.618560 0.815012
Si Si4 0.643422 0.275932 0.818364
Si Si5 0.862521 0.562495 0.183403
Si Si6 0.149184 0.564374 0.814920
Si Si7 0.230686 0.663631 0.317499
Si Si8 0.501707 0.247317 0.682230
O O1 0.670395 0.723514 0.500000
O O2 0.697773 0.681310 0.772735
O O3 0.678654 0.792681 0.731487
O O4 0.572269 0.721881 0.718048
O O5 0.829458 0.713354 0.273342
O O6 0.800253 0.606276 0.228202
O O7 0.790531 0.681498 0.000000
O O8 0.936725 0.584500 0.747269
O O9 0.001382 0.683024 0.752691
O O10 0.074308 0.588079 0.755819
O O11 0.002618 0.619078 0.000000
O O12 0.688819 0.323726 0.729458
O O13 0.562102 0.282362 0.770335
O O14 0.652289 0.285992 0.000000
O O15 0.843507 0.500183 0.247732
O O16 0.871585 0.558055 0.000000
O O17 0.211475 0.600113 0.735729
O O18 0.156453 0.568669 0.000000
O O19 0.221247 0.671240 0.500000
O O20 0.518600 0.247090 0.500000
#
# Coordination Sequence:
#
# PCOD8235529 Si02
#       8
#     8   8   8   8   8   8   8   8
#     4  10  19  32  50  71  95 127 163 201 243 290
#     4  10  18  31  48  70  98 129 163 203 243 284
#     4   9  15  27  46  69  97 129 166 200 229 272
#     4  11  21  32  49  71  95 125 161 201 245 291
#     4   9  17  28  48  72  95 128 171 204 235 276
#     4  10  18  31  50  71  94 129 172 207 233 278
#     4  11  21  33  48  68  96 129 162 202 246 287
#     4  10  18  31  50  71  97 128 161 197 241 291
#
# _framework density 16.650967999999999
#
# number of rings (size 3 to 8) (size 9 to 14) (size 15 to 20)
#    0.000    2.000    2.500    4.875    0.000    2.500 
#    0.000    1.250    0.000    0.750    0.000    0.875 
#    0.000    7.000    0.000    0.000    0.000    0.000 
#
# Total GULP energy -793595.467368 kJ/mol
# GULP energy per Si atom -12399.929178 kJ/mol
# Density = 1.661307 g / cm^3
# Si number density = 16.650968 Si / 1000 Ang^3
#
#
#
# Elastic Constant Matrix: (Units=GPa)
#
#
# Indices 1 2 3 4 5 6 
#
# 1 111.2290 55.8738 20.4720 0.0000 0.0000 0.0000
# 2 55.8738 97.1410 11.1805 0.0000 0.0000 0.0000
# 3 20.4720 11.1805 30.5422 0.0000 0.0000 0.0000
# 4 0.0000 0.0000 0.0000 18.4380 0.0000 0.0000
# 5 0.0000 0.0000 0.0000 0.0000 24.0522 0.0000
# 6 0.0000 0.0000 0.0000 0.0000 0.0000 25.7758
#
#
#
# Elastic Compliance Matrix: (Units=1/GPa)
#
#
# Indices 1 2 3 4 5 6 
#
# 1 0.013821 -0.007186 -0.006634 0.000000 0.000000 0.000000
# 2 -0.007186 0.014484 -0.000485 0.000000 0.000000 0.000000
# 3 -0.006634 -0.000485 0.037366 0.000000 0.000000 0.000000
# 4 0.000000 0.000000 0.000000 0.054236 0.000000 0.000000
# 5 0.000000 0.000000 0.000000 0.000000 0.041576 0.000000
# 6 0.000000 0.000000 0.000000 0.000000 0.000000 0.038796
#
#
# Mechanical properties :
#
#
# Convention : Reuss Voigt Hill
#
# Bulk Modulus (GPa) = 26.98285 45.99606 36.48946
# Shear Modulus (GPa) = 20.72607 23.74557 22.23582
#
# Velocity S-wave (km/s) = 3.53191 3.78044 3.65829
# Velocity P-wave (km/s) = 5.73347 6.83661 6.30920
#
# Compressibility (1/GPa) = 0.03706058
#
# Stress axis : x y z
#
# Youngs Moduli (GPa) = 72.35229 69.04384 26.76261
#
# Poissons Ratio (x) = 0.49617 0.17753
# Poissons Ratio (y) = 0.51994 0.01298
# Poissons Ratio (z) = 0.47995 0.03349
#
# Static dielectric constant tensor:
#      x y z
#    x 3.243050 0.000000 0.000000 
#    y 0.000000 3.097640 0.000000 
#    z 0.000000 0.000000 2.941330 
# 
# 
# High freq. dielectric constant tensor:
#      x y z
#    x 1.639500 0.000000 0.000000 
#    y 0.000000 1.614370 0.000000 
#    z 0.000000 0.000000 1.627380 
# 
# From -- ./inp_files/8507.got.cif
#   From: 2010.06.25/outbox.cif.g09.slc.cpg/sg58_5_cif.got.tgz:8507.got - 2010.06.26 21:38:00.
