data_PCOD8235560
_publ_section_title
;
Structure prediction by ZEFSAII (Michael W. Deem and Ramdas Pophale) SiO2 
 PCOD8235560
Probable space group: P N N M
;
_chemical_formula_sum "Si O2"
_cell_formula_units_Z 64
_cell_length_a 18.455175
_cell_length_b 21.401710
_cell_length_c 8.947809
_cell_angle_alpha 90.000000
_cell_angle_beta 90.000000
_cell_angle_gamma 90.000000
_cell_volume 3534.136731
_symmetry_space_group_name_H-M "P N N M"
_symmetry_group_IT_number 58
_symmetry_cell_setting 'orthorhombic'
loop_
_space_group_symop_operation_xyz
x,y,z
-x,-y,z
1/2+x,1/2-y,1/2-z
1/2-x,1/2+y,1/2-z
-x,-y,-z
x,y,-z
1/2-x,1/2+y,1/2+z
1/2+x,1/2-y,1/2+z
loop_
_atom_site_type_symbol
_atom_site_label
_atom_site_fract_x
_atom_site_fract_y
_atom_site_fract_z
Si Si1 0.318385 0.413162 0.675473
Si Si2 0.416681 0.515277 0.826314
Si Si3 0.534465 0.815112 0.167357
Si Si4 0.519456 0.068736 0.324716
Si Si5 0.422979 0.644721 0.323628
Si Si6 0.578019 0.697737 0.673105
Si Si7 0.324191 0.880179 0.675874
Si Si8 0.373543 0.762150 0.830611
O O1 0.305498 0.421389 0.500000
O O2 0.370642 0.467017 0.731387
O O3 0.353914 0.345892 0.711940
O O4 0.242751 0.420070 0.762094
O O5 0.500000 0.500000 0.798719
O O6 0.398737 0.583478 0.764338
O O7 0.395555 0.511187 0.000000
O O8 0.535590 0.881409 0.251792
O O9 0.587128 0.763719 0.242016
O O10 0.454151 0.788358 0.172846
O O11 0.561890 0.826507 0.000000
O O12 0.506583 0.073219 0.500000
O O13 0.602580 0.082927 0.282132
O O14 0.500000 0.000000 0.263616
O O15 0.414020 0.634830 0.500000
O O16 0.505394 0.661093 0.278371
O O17 0.369546 0.699335 0.267186
O O18 0.573063 0.714400 0.500000
O O19 0.317361 0.870291 0.500000
O O20 0.321059 0.812833 0.755559
O O21 0.347820 0.749079 0.000000
#
# Coordination Sequence:
#
# PCOD8235560 Si02
#       8
#     8   8   8   8   8   8   8   8
#     4  11  22  36  54  76 106 146 185 224 273 329
#     4  11  22  34  51  78 111 146 186 229 272 321
#     4   9  17  28  48  78 106 129 161 211 261 305
#     4   9  18  34  57  81 106 139 177 218 268 328
#     4  10  18  31  52  77 105 137 177 222 265 311
#     4   9  18  31  49  73 102 137 174 212 260 315
#     4  10  20  35  55  80 107 137 178 225 274 328
#     4   9  17  31  51  76 103 132 168 211 262 315
#
# _framework density 18.109089000000001
#
# number of rings (size 3 to 8) (size 9 to 14) (size 15 to 20)
#    0.000    2.250    1.250    2.250    0.000    5.750 
#    0.000    0.000    2.750    0.000    0.000    0.000 
#    0.000    0.000    0.000    0.000    0.000    0.000 
#
# Total GULP energy -793696.166344 kJ/mol
# GULP energy per Si atom -12401.502599 kJ/mol
# Density = 1.806787 g / cm^3
# Si number density = 18.109089 Si / 1000 Ang^3
#
#
#
# Elastic Constant Matrix: (Units=GPa)
#
#
# Indices 1 2 3 4 5 6 
#
# 1 51.6910 28.1592 27.2182 0.0000 0.0000 0.0000
# 2 28.1592 123.7364 40.4238 0.0000 0.0000 0.0000
# 3 27.2182 40.4238 66.2213 0.0000 0.0000 0.0000
# 4 0.0000 0.0000 0.0000 33.4759 0.0000 0.0000
# 5 0.0000 0.0000 0.0000 0.0000 23.3890 0.0000
# 6 0.0000 0.0000 0.0000 0.0000 0.0000 17.7669
#
#
#
# Elastic Compliance Matrix: (Units=1/GPa)
#
#
# Indices 1 2 3 4 5 6 
#
# 1 0.025537 -0.002976 -0.008680 0.000000 0.000000 0.000000
# 2 -0.002976 0.010442 -0.005151 0.000000 0.000000 0.000000
# 3 -0.008680 -0.005151 0.021813 0.000000 0.000000 0.000000
# 4 0.000000 0.000000 0.000000 0.029872 0.000000 0.000000
# 5 0.000000 0.000000 0.000000 0.000000 0.042755 0.000000
# 6 0.000000 0.000000 0.000000 0.000000 0.000000 0.056284
#
#
# Mechanical properties :
#
#
# Convention : Reuss Voigt Hill
#
# Bulk Modulus (GPa) = 41.35874 48.13901 44.74887
# Shear Modulus (GPa) = 21.89377 24.64954 23.27166
#
# Velocity S-wave (km/s) = 3.48083 3.69341 3.58869
# Velocity P-wave (km/s) = 6.24845 6.69543 6.47580
#
# Compressibility (1/GPa) = 0.02417869
#
# Stress axis : x y z
#
# Youngs Moduli (GPa) = 39.15848 95.77002 45.84521
#
# Poissons Ratio (x) = 0.28502 0.39792
# Poissons Ratio (y) = 0.11654 0.23614
# Poissons Ratio (z) = 0.33988 0.49329
#
# Static dielectric constant tensor:
#      x y z
#    x 2.738240 0.000000 0.000000 
#    y 0.000000 3.500510 0.000000 
#    z 0.000000 0.000000 3.431610 
# 
# 
# High freq. dielectric constant tensor:
#      x y z
#    x 1.662960 0.000000 0.000000 
#    y 0.000000 1.705890 0.000000 
#    z 0.000000 0.000000 1.713170 
# 
# From -- ./inp_files/8387.got.cif
#   From: 2010.06.25/outbox.cif.g09.slc.cpg/sg58_5_cif.got.tgz:8387.got - 2010.06.26 21:38:00.
