data_PCOD8235206
_publ_section_title
;
Structure prediction by ZEFSAII (Michael W. Deem and Ramdas Pophale) SiO2 
 PCOD8235206
Probable space group: P N N M
;
_chemical_formula_sum "Si O2"
_cell_formula_units_Z 56
_cell_length_a 16.623000
_cell_length_b 8.623406
_cell_length_c 23.968867
_cell_angle_alpha 90.000000
_cell_angle_beta 90.000000
_cell_angle_gamma 90.000000
_cell_volume 3435.862252
_symmetry_space_group_name_H-M "P N N M"
_symmetry_group_IT_number 58
_symmetry_cell_setting 'orthorhombic'
loop_
_space_group_symop_operation_xyz
x,y,z
-x,-y,z
1/2+x,1/2-y,1/2-z
1/2-x,1/2+y,1/2-z
-x,-y,-z
x,y,-z
1/2-x,1/2+y,1/2+z
1/2+x,1/2-y,1/2+z
loop_
_atom_site_type_symbol
_atom_site_label
_atom_site_fract_x
_atom_site_fract_y
_atom_site_fract_z
Si Si1 0.492953 0.317416 0.060958
Si Si2 0.887064 0.834008 0.343128
Si Si3 0.286838 0.896592 0.216857
Si Si4 0.430866 0.110825 0.774970
Si Si5 0.464375 0.661898 0.278675
Si Si6 0.205336 0.189829 0.183126
Si Si7 0.850272 0.181995 0.632723
O O1 0.500000 0.500000 0.057231
O O2 0.555285 0.263972 0.108716
O O3 0.400370 0.275991 0.076929
O O4 0.512121 0.242982 0.000000
O O5 0.817241 0.706915 0.335122
O O6 0.934094 0.855344 0.285021
O O7 0.847186 0.997085 0.359423
O O8 0.254336 0.785991 0.265677
O O9 0.358400 0.999734 0.243721
O O10 0.216329 0.006411 0.194197
O O11 0.467883 0.203096 0.721320
O O12 0.400132 0.237814 0.818124
O O13 0.500000 0.000000 0.801587
O O14 0.500000 0.500000 0.300575
O O15 0.390844 0.714267 0.319742
O O16 0.258463 0.248698 0.130040
#
# Coordination Sequence:
#
# PCOD8235206 Si02
#       7
#     8   8   8   8   8   8   8
#     4   9  16  27  47  69  86 115 154 187 221 261
#     4  10  16  29  44  61  85 118 148 187 216 260
#     4  10  20  27  42  60  84 113 156 182 218 262
#     4  11  17  27  42  58  79 116 144 183 211 256
#     4  11  18  29  42  59  84 118 154 180 220 254
#     4  10  20  28  40  61  82 115 150 184 218 266
#     4  10  18  29  43  59  89 114 145 188 220 261
#
# _framework density 16.298673999999998
#
# number of rings (size 3 to 8) (size 9 to 14) (size 15 to 20)
#    0.000    1.857    5.714    2.143    2.000    0.000 
#    0.000    0.000    0.000   10.714    0.000    0.000 
#    0.000    0.571    0.000    2.571    0.000    0.857 
#
# Total GULP energy -693757.089522 kJ/mol
# GULP energy per Si atom -12388.519456 kJ/mol
# Density = 1.626158 g / cm^3
# Si number density = 16.298674 Si / 1000 Ang^3
#
#
#
# Elastic Constant Matrix: (Units=GPa)
#
#
# Indices 1 2 3 4 5 6 
#
# 1 69.4978 19.2520 22.6359 0.0000 0.0000 0.0000
# 2 19.2520 77.6906 6.6272 0.0000 0.0000 0.0000
# 3 22.6359 6.6272 43.5685 0.0000 0.0000 0.0000
# 4 0.0000 0.0000 0.0000 5.2632 0.0000 0.0000
# 5 0.0000 0.0000 0.0000 0.0000 14.5461 0.0000
# 6 0.0000 0.0000 0.0000 0.0000 0.0000 34.4935
#
#
#
# Elastic Compliance Matrix: (Units=1/GPa)
#
#
# Indices 1 2 3 4 5 6 
#
# 1 0.018356 -0.003784 -0.008961 0.000000 0.000000 0.000000
# 2 -0.003784 0.013821 -0.000136 0.000000 0.000000 0.000000
# 3 -0.008961 -0.000136 0.027629 0.000000 0.000000 0.000000
# 4 0.000000 0.000000 0.000000 0.189999 0.000000 0.000000
# 5 0.000000 0.000000 0.000000 0.000000 0.068747 0.000000
# 6 0.000000 0.000000 0.000000 0.000000 0.000000 0.028991
#
#
# Mechanical properties :
#
#
# Convention : Reuss Voigt Hill
#
# Bulk Modulus (GPa) = 29.37507 31.97634 30.67570
# Shear Modulus (GPa) = 12.99873 20.34336 16.67104
#
# Velocity S-wave (km/s) = 2.82713 3.53676 3.20167
# Velocity P-wave (km/s) = 5.35901 6.02825 5.70346
#
# Compressibility (1/GPa) = 0.03404248
#
# Stress axis : x y z
#
# Youngs Moduli (GPa) = 54.47822 72.35398 36.19403
#
# Poissons Ratio (x) = 0.27381 0.32434
# Poissons Ratio (y) = 0.20616 0.00493
# Poissons Ratio (z) = 0.48819 0.00986
#
# Static dielectric constant tensor:
#      x y z
#    x 3.242060 0.000000 0.000000 
#    y 0.000000 3.389350 0.000000 
#    z 0.000000 0.000000 2.895040 
# 
# 
# High freq. dielectric constant tensor:
#      x y z
#    x 1.626010 0.000000 0.000000 
#    y 0.000000 1.645580 0.000000 
#    z 0.000000 0.000000 1.544320 
# 
# From -- ./inp_files/30229.got.cif
#   From: 2010.06.25/outbox.cif.g09.slc.cpg/sg58_16_cif.got.tgz:30229.got - 2010.06.26 21:38:00.
