data_PCOD8235829
_publ_section_title
;
Structure prediction by ZEFSAII (Michael W. Deem and Ramdas Pophale) SiO2 
 PCOD8235829
Probable space group: P N N M
;
_chemical_formula_sum "Si O2"
_cell_formula_units_Z 64
_cell_length_a 32.230657
_cell_length_b 9.574219
_cell_length_c 13.372355
_cell_angle_alpha 90.000000
_cell_angle_beta 90.000000
_cell_angle_gamma 90.000000
_cell_volume 4126.486352
_symmetry_space_group_name_H-M "P N N M"
_symmetry_group_IT_number 58
_symmetry_cell_setting 'orthorhombic'
loop_
_space_group_symop_operation_xyz
x,y,z
-x,-y,z
1/2+x,1/2-y,1/2-z
1/2-x,1/2+y,1/2-z
-x,-y,-z
x,y,-z
1/2-x,1/2+y,1/2+z
1/2+x,1/2-y,1/2+z
loop_
_atom_site_type_symbol
_atom_site_label
_atom_site_fract_x
_atom_site_fract_y
_atom_site_fract_z
Si Si1 0.519256 0.361019 0.618429
Si Si2 0.769722 0.470366 0.615416
Si Si3 0.966878 0.395668 0.881837
Si Si4 0.776761 0.787769 0.616321
Si Si5 0.808892 0.296166 0.219541
Si Si6 0.877833 0.480112 0.882618
Si Si7 0.388055 0.698458 0.617534
Si Si8 0.683657 0.472052 0.718525
O O1 0.500000 0.500000 0.665797
O O2 0.523645 0.370329 0.500000
O O3 0.483264 0.254670 0.649133
O O4 0.565036 0.322894 0.659770
O O5 0.775238 0.437214 0.500000
O O6 0.786277 0.625694 0.642127
O O7 0.796695 0.356082 0.672683
O O8 0.721376 0.451412 0.641792
O O9 0.921574 0.426308 0.838734
O O10 0.000000 0.500000 0.833435
O O11 0.964813 0.419959 0.000000
O O12 0.783937 0.820112 0.500000
O O13 0.728862 0.814102 0.642441
O O14 0.806494 0.891134 0.678244
O O15 0.844777 0.390716 0.175986
O O16 0.823231 0.136863 0.236427
O O17 0.872956 0.644422 0.859887
O O18 0.873423 0.449844 0.000000
O O19 0.386478 0.667079 0.500000
O O20 0.358238 0.589556 0.672334
#
# Coordination Sequence:
#
# PCOD8235829 Si02
#       8
#     8   8   8   8   8   8   8   8
#     4   9  17  27  40  60  86 119 154 186 223 266
#     4   9  18  34  51  65  88 122 154 186 226 269
#     4   9  15  27  42  58  84 119 156 186 217 261
#     4   9  18  34  51  65  89 122 153 186 227 271
#     4  10  20  31  46  71  94 116 152 191 226 268
#     4  10  19  29  44  64  91 126 158 189 223 265
#     4  10  19  30  43  63  93 126 157 188 225 268
#     4  10  20  31  46  70  95 117 149 191 228 269
#
# _framework density 15.509563999999999
#
# number of rings (size 3 to 8) (size 9 to 14) (size 15 to 20)
#    0.000    2.500    1.250    1.500    1.750    3.000 
#    0.000    0.000    0.000    0.000    0.000    0.000 
#    0.000    2.000    0.000    0.125    0.000    0.000 
#
# Total GULP energy -793342.179995 kJ/mol
# GULP energy per Si atom -12395.971562 kJ/mol
# Density = 1.547426 g / cm^3
# Si number density = 15.509564 Si / 1000 Ang^3
#
#
#
# Elastic Constant Matrix: (Units=GPa)
#
#
# Indices 1 2 3 4 5 6 
#
# 1 89.0747 53.5089 32.8056 0.0000 0.0000 0.0000
# 2 53.5089 108.2759 41.2256 0.0000 0.0000 0.0000
# 3 32.8056 41.2256 56.6127 0.0000 0.0000 0.0000
# 4 0.0000 0.0000 0.0000 21.3223 0.0000 0.0000
# 5 0.0000 0.0000 0.0000 0.0000 16.7754 0.0000
# 6 0.0000 0.0000 0.0000 0.0000 0.0000 30.1763
#
#
#
# Elastic Compliance Matrix: (Units=1/GPa)
#
#
# Indices 1 2 3 4 5 6 
#
# 1 0.016991 -0.006431 -0.005163 0.000000 0.000000 0.000000
# 2 -0.006431 0.015213 -0.007351 0.000000 0.000000 0.000000
# 3 -0.005163 -0.007351 0.026009 0.000000 0.000000 0.000000
# 4 0.000000 0.000000 0.000000 0.046899 0.000000 0.000000
# 5 0.000000 0.000000 0.000000 0.000000 0.059611 0.000000
# 6 0.000000 0.000000 0.000000 0.000000 0.000000 0.033139
#
#
# Mechanical properties :
#
#
# Convention : Reuss Voigt Hill
#
# Bulk Modulus (GPa) = 49.20695 56.56040 52.88367
# Shear Modulus (GPa) = 20.61628 22.08303 21.34965
#
# Velocity S-wave (km/s) = 3.64986 3.77746 3.71421
# Velocity P-wave (km/s) = 7.03972 7.45472 7.25019
#
# Compressibility (1/GPa) = 0.02032233
#
# Stress axis : x y z
#
# Youngs Moduli (GPa) = 58.85357 65.73358 38.44845
#
# Poissons Ratio (x) = 0.42275 0.19850
# Poissons Ratio (y) = 0.37850 0.28265
# Poissons Ratio (z) = 0.30385 0.48323
#
# Static dielectric constant tensor:
#      x y z
#    x 3.017710 0.000000 0.000000 
#    y 0.000000 3.255760 0.000000 
#    z 0.000000 0.000000 2.603050 
# 
# 
# High freq. dielectric constant tensor:
#      x y z
#    x 1.594600 0.000000 0.000000 
#    y 0.000000 1.613470 0.000000 
#    z 0.000000 0.000000 1.545330 
# 
# From -- ./inp_files/23805.got.cif
#   From: 2010.06.25/outbox.cif.g09.slc.cpg/sg58_12_cif.got.tgz:23805.got - 2010.06.26 21:38:00.
