data_PCOD8235291
_publ_section_title
;
Structure prediction by ZEFSAII (Michael W. Deem and Ramdas Pophale) SiO2 
 PCOD8235291
Probable space group: P N N M
;
_chemical_formula_sum "Si O2"
_cell_formula_units_Z 64
_cell_length_a 11.982948
_cell_length_b 30.845659
_cell_length_c 9.143253
_cell_angle_alpha 90.000000
_cell_angle_beta 90.000000
_cell_angle_gamma 90.000000
_cell_volume 3379.546800
_symmetry_space_group_name_H-M "P N N M"
_symmetry_group_IT_number 58
_symmetry_cell_setting 'orthorhombic'
loop_
_space_group_symop_operation_xyz
x,y,z
-x,-y,z
1/2+x,1/2-y,1/2-z
1/2-x,1/2+y,1/2-z
-x,-y,-z
x,y,-z
1/2-x,1/2+y,1/2+z
1/2+x,1/2-y,1/2+z
loop_
_atom_site_type_symbol
_atom_site_label
_atom_site_fract_x
_atom_site_fract_y
_atom_site_fract_z
Si Si1 0.235317 0.052440 0.174106
Si Si2 0.264757 0.457741 0.330818
Si Si3 0.764954 0.802494 0.330772
Si Si4 0.886646 0.368789 0.326177
Si Si5 0.139828 0.374149 0.674207
Si Si6 0.708891 0.705058 0.669880
Si Si7 0.495007 0.417625 0.669122
Si Si8 0.990772 0.169549 0.672852
O O1 0.322598 0.088207 0.231047
O O2 0.111465 0.064102 0.230543
O O3 0.268789 0.004751 0.236426
O O4 0.233617 0.050568 0.000000
O O5 0.232596 0.457636 0.500000
O O6 0.196229 0.417863 0.258751
O O7 0.398079 0.453082 0.310793
O O8 0.744925 0.813513 0.500000
O O9 0.668907 0.825823 0.238695
O O10 0.764866 0.751321 0.302140
O O11 0.884390 0.819366 0.276269
O O12 0.880522 0.365566 0.500000
O O13 0.013162 0.371430 0.268889
O O14 0.142640 0.375316 0.500000
O O15 0.206936 0.331937 0.729420
O O16 0.681641 0.697424 0.500000
O O17 0.593834 0.704510 0.759698
O O18 0.505517 0.403356 0.500000
O O19 0.456855 0.376778 0.763534
O O20 0.978995 0.170217 0.500000
#
# Coordination Sequence:
#
# PCOD8235291 Si02
#       8
#     8   8   8   8   8   8   8   8
#     4   9  17  28  48  82 111 136 178 228 268 314
#     4   9  16  28  50  79 110 139 174 224 277 316
#     4  10  23  39  56  79 110 144 176 217 271 324
#     4  10  20  34  55  81 109 141 183 226 264 316
#     4   9  18  32  53  79 107 140 175 222 274 315
#     4  10  21  39  58  78 106 142 180 216 266 324
#     4  10  17  31  54  79 108 144 179 219 269 323
#     4  11  22  36  57  84 110 139 176 224 270 313
#
# _framework density 18.937450999999999
#
# number of rings (size 3 to 8) (size 9 to 14) (size 15 to 20)
#    0.000    2.250    2.500    0.750    1.750    3.000 
#    0.000    3.125    0.000    2.250    0.000    0.875 
#    0.000    0.000    0.000    0.000    0.000    0.000 
#
# Total GULP energy -793554.987415 kJ/mol
# GULP energy per Si atom -12399.296678 kJ/mol
# Density = 1.889435 g / cm^3
# Si number density = 18.937451 Si / 1000 Ang^3
#
#
#
# Elastic Constant Matrix: (Units=GPa)
#
#
# Indices 1 2 3 4 5 6 
#
# 1 129.4239 50.2542 24.0557 0.0000 0.0000 0.0000
# 2 50.2542 124.4287 21.4792 0.0000 0.0000 0.0000
# 3 24.0557 21.4792 27.9263 0.0000 0.0000 0.0000
# 4 0.0000 0.0000 0.0000 18.6429 0.0000 0.0000
# 5 0.0000 0.0000 0.0000 0.0000 16.7287 0.0000
# 6 0.0000 0.0000 0.0000 0.0000 0.0000 25.5477
#
#
#
# Elastic Compliance Matrix: (Units=1/GPa)
#
#
# Indices 1 2 3 4 5 6 
#
# 1 0.010064 -0.002961 -0.006392 0.000000 0.000000 0.000000
# 2 -0.002961 0.010139 -0.005247 0.000000 0.000000 0.000000
# 3 -0.006392 -0.005247 0.045350 0.000000 0.000000 0.000000
# 4 0.000000 0.000000 0.000000 0.053640 0.000000 0.000000
# 5 0.000000 0.000000 0.000000 0.000000 0.059778 0.000000
# 6 0.000000 0.000000 0.000000 0.000000 0.000000 0.039142
#
#
# Mechanical properties :
#
#
# Convention : Reuss Voigt Hill
#
# Bulk Modulus (GPa) = 27.50825 52.59523 40.05174
# Shear Modulus (GPa) = 19.27297 24.58318 21.92808
#
# Velocity S-wave (km/s) = 3.19363 3.60686 3.40652
# Velocity P-wave (km/s) = 5.30626 6.72156 6.05540
#
# Compressibility (1/GPa) = 0.03635273
#
# Stress axis : x y z
#
# Youngs Moduli (GPa) = 99.35923 98.63350 22.05070
#
# Poissons Ratio (x) = 0.29210 0.14094
# Poissons Ratio (y) = 0.29425 0.11570
# Poissons Ratio (z) = 0.63508 0.51752
#
# Static dielectric constant tensor:
#      x y z
#    x 3.629170 0.000000 0.000000 
#    y 0.000000 3.671340 0.000000 
#    z 0.000000 0.000000 2.983190 
# 
# 
# High freq. dielectric constant tensor:
#      x y z
#    x 1.742990 0.000000 0.000000 
#    y 0.000000 1.748550 0.000000 
#    z 0.000000 0.000000 1.681110 
# 
# From -- ./inp_files/4674.got.cif
#   From: 2010.06.25/outbox.cif.g09.slc.cpg/sg58_3_cif.got.tgz:4674.got - 2010.06.26 21:38:00.
