data_PCOD8235046
_publ_section_title
;
Structure prediction by ZEFSAII (Michael W. Deem and Ramdas Pophale) SiO2 
 PCOD8235046
Probable space group: P B C M
;
_chemical_formula_sum "Si O2"
_cell_formula_units_Z 48
_cell_length_a 11.752913
_cell_length_b 11.790882
_cell_length_c 17.419672
_cell_angle_alpha 90.000000
_cell_angle_beta 90.000000
_cell_angle_gamma 90.000000
_cell_volume 2413.969551
_symmetry_space_group_name_H-M "P B C M"
_symmetry_group_IT_number 57
_symmetry_cell_setting 'orthorhombic'
loop_
_space_group_symop_operation_xyz
x,y,z
-x,-y,1/2+z
x,1/2-y,-z
-x,1/2+y,1/2-z
-x,-y,-z
x,y,1/2-z
-x,1/2+y,z
x,1/2-y,1/2+z
loop_
_atom_site_type_symbol
_atom_site_label
_atom_site_fract_x
_atom_site_fract_y
_atom_site_fract_z
Si Si1 0.907573 0.102182 0.839465
Si Si2 0.663507 0.467657 0.661026
Si Si3 0.444573 0.977558 0.083015
Si Si4 0.244672 0.393244 0.841125
Si Si5 0.285416 0.765067 0.414882
Si Si6 0.843736 0.649034 0.658669
O O1 0.924323 0.113388 0.750000
O O2 0.821132 0.200331 0.863444
O O3 0.031561 0.123585 0.877056
O O4 0.858272 0.979125 0.861390
O O5 0.681627 0.442322 0.750000
O O6 0.542753 0.527235 0.646952
O O7 0.663116 0.351377 0.614919
O O8 0.761484 0.549969 0.628282
O O9 0.386467 0.855557 0.085957
O O10 0.354457 0.074433 0.107952
O O11 0.500000 0.000000 0.000000
O O12 0.274116 0.398175 0.750000
O O13 0.203251 0.270366 0.869108
O O14 0.237705 0.750000 0.500000
O O15 0.845808 0.648952 0.750000
#
# Coordination Sequence:
#
# PCOD8235046 Si02
#       6
#     8   8   8   8   8   8
#     4   9  19  37  63  89 118 158 202 250 304 360
#     4  11  24  39  63  92 119 157 210 255 300 367
#     4  11  23  41  61  86 122 164 201 251 311 365
#     4   9  19  37  61  89 121 158 204 250 301 364
#     4  11  23  41  61  88 124 163 201 251 311 364
#     4   9  20  37  61  94 123 155 201 255 304 355
#
# _framework density 19.884260999999999
#
# number of rings (size 3 to 8) (size 9 to 14) (size 15 to 20)
#    0.000    2.000    1.667    1.000    4.667    2.000 
#    0.000    2.500    0.000    0.000    0.000    0.000 
#    0.000    0.000    0.000    0.000    0.000    0.000 
#
# Total GULP energy -595236.816090 kJ/mol
# GULP energy per Si atom -12400.767002 kJ/mol
# Density = 1.983900 g / cm^3
# Si number density = 19.884261 Si / 1000 Ang^3
#
#
#
# Elastic Constant Matrix: (Units=GPa)
#
#
# Indices 1 2 3 4 5 6 
#
# 1 166.9837 73.5560 29.5521 0.0000 0.0000 0.0000
# 2 73.5560 128.8470 25.6664 0.0000 0.0000 0.0000
# 3 29.5521 25.6664 38.3991 0.0000 0.0000 0.0000
# 4 0.0000 0.0000 0.0000 19.8549 0.0000 0.0000
# 5 0.0000 0.0000 0.0000 0.0000 16.0925 0.0000
# 6 0.0000 0.0000 0.0000 0.0000 0.0000 55.0252
#
#
#
# Elastic Compliance Matrix: (Units=1/GPa)
#
#
# Indices 1 2 3 4 5 6 
#
# 1 0.008451 -0.004071 -0.003783 0.000000 0.000000 0.000000
# 2 -0.004071 0.010914 -0.004162 0.000000 0.000000 0.000000
# 3 -0.003783 -0.004162 0.031736 0.000000 0.000000 0.000000
# 4 0.000000 0.000000 0.000000 0.050365 0.000000 0.000000
# 5 0.000000 0.000000 0.000000 0.000000 0.062141 0.000000
# 6 0.000000 0.000000 0.000000 0.000000 0.000000 0.018174
#
#
# Mechanical properties :
#
#
# Convention : Reuss Voigt Hill
#
# Bulk Modulus (GPa) = 36.94274 65.75318 51.34796
# Shear Modulus (GPa) = 23.27348 31.89154 27.58251
#
# Velocity S-wave (km/s) = 3.42489 4.00916 3.72849
# Velocity P-wave (km/s) = 5.85312 7.38721 6.66446
#
# Compressibility (1/GPa) = 0.02706892
#
# Stress axis : x y z
#
# Youngs Moduli (GPa) = 118.32274 91.62220 31.51019
#
# Poissons Ratio (x) = 0.37301 0.11920
# Poissons Ratio (y) = 0.48171 0.13115
# Poissons Ratio (z) = 0.44762 0.38134
#
# Static dielectric constant tensor:
#      x y z
#    x 3.927430 0.000000 0.000000 
#    y 0.000000 3.659930 0.000000 
#    z 0.000000 0.000000 3.445070 
# 
# 
# High freq. dielectric constant tensor:
#      x y z
#    x 1.787550 0.000000 0.000000 
#    y 0.000000 1.783400 0.000000 
#    z 0.000000 0.000000 1.755750 
# 
# From -- ./inp_files/21823.got.cif
#   From: 2010.03.12/outbox.cif.g09.slc.cpg/sg57_11_cif.got.tgz:21823.got - 2010.04.16 15:48:40.
