data_PCOD8235320
_publ_section_title
;
Structure prediction by ZEFSAII (Michael W. Deem and Ramdas Pophale) SiO2 
 PCOD8235320
Probable space group: P N N M
;
_chemical_formula_sum "Si O2"
_cell_formula_units_Z 56
_cell_length_a 8.800464
_cell_length_b 13.517255
_cell_length_c 30.261018
_cell_angle_alpha 90.000000
_cell_angle_beta 90.000000
_cell_angle_gamma 90.000000
_cell_volume 3599.793690
_symmetry_space_group_name_H-M "P N N M"
_symmetry_group_IT_number 58
_symmetry_cell_setting 'orthorhombic'
loop_
_space_group_symop_operation_xyz
x,y,z
-x,-y,z
1/2+x,1/2-y,1/2-z
1/2-x,1/2+y,1/2-z
-x,-y,-z
x,y,-z
1/2-x,1/2+y,1/2+z
1/2+x,1/2-y,1/2+z
loop_
_atom_site_type_symbol
_atom_site_label
_atom_site_fract_x
_atom_site_fract_y
_atom_site_fract_z
Si Si1 0.168541 0.805360 0.302434
Si Si2 0.665919 0.100077 0.185055
Si Si3 0.097096 0.660263 0.625123
Si Si4 0.908000 0.601336 0.450836
Si Si5 0.335759 0.698592 0.228964
Si Si6 0.824961 0.007501 0.108274
Si Si7 0.669382 0.004843 0.720016
O O1 0.137869 0.764228 0.351745
O O2 0.284545 0.729769 0.278285
O O3 0.239071 0.913823 0.307985
O O4 0.017442 0.815359 0.272350
O O5 0.503441 0.094469 0.159497
O O6 0.707862 0.213563 0.195532
O O7 0.658192 0.035001 0.228895
O O8 0.802971 0.060700 0.155259
O O9 0.248012 0.600695 0.611526
O O10 0.996686 0.679221 0.580856
O O11 0.890628 0.646588 0.500000
O O12 0.744119 0.575536 0.430619
O O13 0.000000 0.500000 0.451788
O O14 0.251550 0.599593 0.213850
O O15 0.000000 0.000000 0.096835
O O16 0.500000 0.000000 0.700230
#
# Coordination Sequence:
#
# PCOD8235320 Si02
#       7
#     8   8   8   8   8   8   8
#     4  10  20  31  44  61  85 116 150 185 216 252
#     4   9  18  30  42  55  81 118 151 176 205 253
#     4   9  17  31  45  60  85 115 147 175 208 256
#     4   8  15  29  46  62  84 115 142 167 208 261
#     4  10  19  30  42  59  82 113 150 185 219 248
#     4  10  18  25  41  66  88 111 139 176 214 251
#     4  11  20  30  43  60  84 116 151 185 219 251
#
# _framework density 15.556447
#
# number of rings (size 3 to 8) (size 9 to 14) (size 15 to 20)
#    0.000    2.429    0.000    6.000    0.000    6.000 
#    0.000    0.000    0.000    0.000    0.000    0.000 
#    0.000   21.143    0.000    0.000    0.000   15.571 
#
# Total GULP energy -694243.263476 kJ/mol
# GULP energy per Si atom -12397.201133 kJ/mol
# Density = 1.552104 g / cm^3
# Si number density = 15.556447 Si / 1000 Ang^3
#
#
#
# Elastic Constant Matrix: (Units=GPa)
#
#
# Indices 1 2 3 4 5 6 
#
# 1 113.1918 40.5923 37.1173 0.0000 0.0000 0.0000
# 2 40.5923 76.7809 16.9831 0.0000 0.0000 0.0000
# 3 37.1173 16.9831 74.4496 0.0000 0.0000 0.0000
# 4 0.0000 0.0000 0.0000 15.5749 0.0000 0.0000
# 5 0.0000 0.0000 0.0000 0.0000 11.5832 0.0000
# 6 0.0000 0.0000 0.0000 0.0000 0.0000 24.2544
#
#
#
# Elastic Compliance Matrix: (Units=1/GPa)
#
#
# Indices 1 2 3 4 5 6 
#
# 1 0.012418 -0.005472 -0.004943 0.000000 0.000000 0.000000
# 2 -0.005472 0.016127 -0.000951 0.000000 0.000000 0.000000
# 3 -0.004943 -0.000951 0.016113 0.000000 0.000000 0.000000
# 4 0.000000 0.000000 0.000000 0.064206 0.000000 0.000000
# 5 0.000000 0.000000 0.000000 0.000000 0.086332 0.000000
# 6 0.000000 0.000000 0.000000 0.000000 0.000000 0.041230
#
#
# Mechanical properties :
#
#
# Convention : Reuss Voigt Hill
#
# Bulk Modulus (GPa) = 45.60536 50.42307 48.01421
# Shear Modulus (GPa) = 18.76419 21.59779 20.18099
#
# Velocity S-wave (km/s) = 3.47681 3.73010 3.60568
# Velocity P-wave (km/s) = 6.74517 7.14387 6.94738
#
# Compressibility (1/GPa) = 0.02192725
#
# Stress axis : x y z
#
# Youngs Moduli (GPa) = 80.53118 62.00739 62.06148
#
# Poissons Ratio (x) = 0.33928 0.30675
# Poissons Ratio (y) = 0.44063 0.05902
# Poissons Ratio (z) = 0.39804 0.05896
#
# Static dielectric constant tensor:
#      x y z
#    x 3.031720 0.000000 0.000000 
#    y 0.000000 2.853300 0.000000 
#    z 0.000000 0.000000 3.002440 
# 
# 
# High freq. dielectric constant tensor:
#      x y z
#    x 1.603020 0.000000 0.000000 
#    y 0.000000 1.577220 0.000000 
#    z 0.000000 0.000000 1.565650 
# 
# From -- ./inp_files/34792.got.cif
#   From: 2010.06.25/outbox.cif.g09.slc.cpg/sg58_18_cif.got.tgz:34792.got - 2010.06.26 21:38:00.
