data_PCOD8235058
_publ_section_title
;
Structure prediction by ZEFSAII (Michael W. Deem and Ramdas Pophale) SiO2 
 PCOD8235058
Probable space group: P B C M
;
_chemical_formula_sum "Si O2"
_cell_formula_units_Z 64
_cell_length_a 17.616294
_cell_length_b 11.837851
_cell_length_c 14.665027
_cell_angle_alpha 90.000000
_cell_angle_beta 90.000000
_cell_angle_gamma 90.000000
_cell_volume 3058.230997
_symmetry_space_group_name_H-M "P B C M"
_symmetry_group_IT_number 57
_symmetry_cell_setting 'orthorhombic'
loop_
_space_group_symop_operation_xyz
x,y,z
-x,-y,1/2+z
x,1/2-y,-z
-x,1/2+y,1/2-z
-x,-y,-z
x,y,1/2-z
-x,1/2+y,z
x,1/2-y,1/2+z
loop_
_atom_site_type_symbol
_atom_site_label
_atom_site_fract_x
_atom_site_fract_y
_atom_site_fract_z
Si Si1 0.839012 0.902815 0.351147
Si Si2 0.221568 0.778100 0.104170
Si Si3 0.194425 0.032609 0.355816
Si Si4 0.610824 0.258080 0.146246
Si Si5 0.073878 0.299470 0.595745
Si Si6 0.084373 0.875543 0.852283
Si Si7 0.295245 0.124373 0.993782
Si Si8 0.421462 0.564141 0.006817
O O1 0.810329 0.938652 0.250000
O O2 0.894329 0.795325 0.335681
O O3 0.766565 0.879593 0.413492
O O4 0.889308 0.004643 0.394730
O O5 0.298557 0.751318 0.157504
O O6 0.155916 0.705896 0.148794
O O7 0.195072 0.905883 0.109828
O O8 0.237628 0.750000 0.000000
O O9 0.214084 0.041141 0.250000
O O10 0.111200 0.080766 0.379175
O O11 0.257395 0.104854 0.408120
O O12 0.577039 0.263623 0.250000
O O13 0.591576 0.370877 0.088738
O O14 0.577951 0.149442 0.092829
O O15 0.102528 0.250000 0.500000
O O16 0.983596 0.317552 0.592076
O O17 0.053924 0.893406 0.750000
O O18 0.331913 0.250000 0.000000
O O19 0.357543 0.029478 0.974948
O O20 0.500000 0.500000 0.000000
#
# Coordination Sequence:
#
# PCOD8235058 Si02
#       8
#     8   8   8   8   8   8   8   8
#     4  11  23  43  65  90 132 177 229 285 338 403
#     4  12  23  42  69 100 129 174 230 286 333 399
#     4  12  23  41  67  95 134 178 225 278 335 399
#     4  11  23  46  75 104 140 182 231 284 337 402
#     4  12  25  42  61  90 132 180 228 286 348 404
#     4  11  25  39  60  92 128 174 228 286 349 403
#     4  12  24  43  69 100 134 176 230 274 341 411
#     4  11  26  46  74 106 144 181 221 279 344 415
#
# _framework density 20.927129999999998
#
# number of rings (size 3 to 8) (size 9 to 14) (size 15 to 20)
#    0.000    0.500    5.000    4.125    3.500    2.500 
#    0.000    0.000    0.000    0.000    0.000    0.000 
#    0.000    0.000    0.000    0.000    0.000    0.000 
#
# Total GULP energy -793655.514459 kJ/mol
# GULP energy per Si atom -12400.867413 kJ/mol
# Density = 2.087950 g / cm^3
# Si number density = 20.927130 Si / 1000 Ang^3
#
#
#
# Elastic Constant Matrix: (Units=GPa)
#
#
# Indices 1 2 3 4 5 6 
#
# 1 119.1703 60.6906 22.8998 0.0000 0.0000 0.0000
# 2 60.6906 158.6306 40.1321 0.0000 0.0000 0.0000
# 3 22.8998 40.1321 127.5188 0.0000 0.0000 0.0000
# 4 0.0000 0.0000 0.0000 19.7864 0.0000 0.0000
# 5 0.0000 0.0000 0.0000 0.0000 23.1128 0.0000
# 6 0.0000 0.0000 0.0000 0.0000 0.0000 40.3280
#
#
#
# Elastic Compliance Matrix: (Units=1/GPa)
#
#
# Indices 1 2 3 4 5 6 
#
# 1 0.010475 -0.003837 -0.000673 0.000000 0.000000 0.000000
# 2 -0.003837 0.008255 -0.001909 0.000000 0.000000 0.000000
# 3 -0.000673 -0.001909 0.008564 0.000000 0.000000 0.000000
# 4 0.000000 0.000000 0.000000 0.050540 0.000000 0.000000
# 5 0.000000 0.000000 0.000000 0.000000 0.043266 0.000000
# 6 0.000000 0.000000 0.000000 0.000000 0.000000 0.024797
#
#
# Mechanical properties :
#
#
# Convention : Reuss Voigt Hill
#
# Bulk Modulus (GPa) = 69.18275 72.52942 70.85609
# Shear Modulus (GPa) = 30.57102 35.41858 32.99480
#
# Velocity S-wave (km/s) = 3.82623 4.11843 3.97502
# Velocity P-wave (km/s) = 7.25608 7.57289 7.41617
#
# Compressibility (1/GPa) = 0.01445447
#
# Stress axis : x y z
#
# Youngs Moduli (GPa) = 95.46554 121.13894 116.77238
#
# Poissons Ratio (x) = 0.46484 0.07864
# Poissons Ratio (y) = 0.36633 0.22290
# Poissons Ratio (z) = 0.06429 0.23124
#
# Static dielectric constant tensor:
#      x y z
#    x 3.630840 0.000000 0.000000 
#    y 0.000000 4.125900 0.000000 
#    z 0.000000 0.000000 4.187220 
# 
# 
# High freq. dielectric constant tensor:
#      x y z
#    x 1.800360 0.000000 0.000000 
#    y 0.000000 1.839110 0.000000 
#    z 0.000000 0.000000 1.828960 
# 
# From -- ./inp_files/19099.got.cif
#   From: 2010.03.12/outbox.cif.g09.slc.cpg/sg57_10_cif.got.tgz:19099.got - 2010.04.16 15:48:40.
