data_PCOD8235121
_publ_section_title
;
Structure prediction by ZEFSAII (Michael W. Deem and Ramdas Pophale) SiO2 
 PCOD8235121
Probable space group: P B C M
;
_chemical_formula_sum "Si O2"
_cell_formula_units_Z 40
_cell_length_a 5.407970
_cell_length_b 18.248599
_cell_length_c 17.941841
_cell_angle_alpha 90.000000
_cell_angle_beta 90.000000
_cell_angle_gamma 90.000000
_cell_volume 1770.642179
_symmetry_space_group_name_H-M "P B C M"
_symmetry_group_IT_number 57
_symmetry_cell_setting 'orthorhombic'
loop_
_space_group_symop_operation_xyz
x,y,z
-x,-y,1/2+z
x,1/2-y,-z
-x,1/2+y,1/2-z
-x,-y,-z
x,y,1/2-z
-x,1/2+y,z
x,1/2-y,1/2+z
loop_
_atom_site_type_symbol
_atom_site_label
_atom_site_fract_x
_atom_site_fract_y
_atom_site_fract_z
Si Si1 0.356909 0.866555 0.333585
Si Si2 0.325917 0.048244 0.948187
Si Si3 0.717814 0.278919 0.583501
Si Si4 0.791009 0.869055 0.913729
Si Si5 0.024325 0.496420 0.832444
O O1 0.470918 0.864711 0.250000
O O2 0.552817 0.894118 0.392884
O O3 0.274000 0.785993 0.356695
O O4 0.126106 0.921386 0.334925
O O5 0.164009 0.098316 0.003348
O O6 0.178108 0.990147 0.897817
O O7 0.500000 0.000000 0.000000
O O8 0.738307 0.250000 0.500000
O O9 0.463087 0.323941 0.592412
O O10 0.963015 0.323711 0.604734
O O11 0.769381 0.935509 0.853443
O O12 0.916198 0.480030 0.750000
#
# Coordination Sequence:
#
# PCOD8235121 Si02
#       5
#     8   8   8   8   8
#     4  11  26  46  72 105 148 196 244 305 373 440
#     4  12  23  45  74 111 141 188 252 310 367 438
#     4  12  26  46  70 107 144 191 245 301 369 436
#     4  12  26  45  76 105 144 191 246 304 363 439
#     4  11  26  46  72 106 146 192 244 304 373 440
#
# _framework density 22.590675000000001
#
# number of rings (size 3 to 8) (size 9 to 14) (size 15 to 20)
#    0.000    0.400    4.000    4.200    2.800    1.600 
#    0.000    0.000    0.000    0.000    0.000    0.000 
#    0.000    0.000    0.000    0.000    0.000    0.000 
#
# Total GULP energy -495925.493134 kJ/mol
# GULP energy per Si atom -12398.137328 kJ/mol
# Density = 2.253926 g / cm^3
# Si number density = 22.590675 Si / 1000 Ang^3
#
#
#
# Elastic Constant Matrix: (Units=GPa)
#
#
# Indices 1 2 3 4 5 6 
#
# 1 116.7362 52.0746 43.4089 0.0000 0.0000 0.0000
# 2 52.0746 131.1171 74.9473 0.0000 0.0000 0.0000
# 3 43.4089 74.9473 172.5563 0.0000 0.0000 0.0000
# 4 0.0000 0.0000 0.0000 36.3639 0.0000 0.0000
# 5 0.0000 0.0000 0.0000 0.0000 94.8314 0.0000
# 6 0.0000 0.0000 0.0000 0.0000 0.0000 34.7037
#
#
#
# Elastic Compliance Matrix: (Units=1/GPa)
#
#
# Indices 1 2 3 4 5 6 
#
# 1 0.010569 -0.003562 -0.001112 0.000000 0.000000 0.000000
# 2 -0.003562 0.011346 -0.004032 0.000000 0.000000 0.000000
# 3 -0.001112 -0.004032 0.007826 0.000000 0.000000 0.000000
# 4 0.000000 0.000000 0.000000 0.027500 0.000000 0.000000
# 5 0.000000 0.000000 0.000000 0.000000 0.010545 0.000000
# 6 0.000000 0.000000 0.000000 0.000000 0.000000 0.028815
#
#
# Mechanical properties :
#
#
# Convention : Reuss Voigt Hill
#
# Bulk Modulus (GPa) = 81.10491 84.58568 82.84529
# Shear Modulus (GPa) = 42.32904 49.84504 46.08704
#
# Velocity S-wave (km/s) = 4.33337 4.70238 4.52164
# Velocity P-wave (km/s) = 7.81136 8.18579 8.00076
#
# Compressibility (1/GPa) = 0.01232971
#
# Stress axis : x y z
#
# Youngs Moduli (GPa) = 94.61934 88.13535 127.77831
#
# Poissons Ratio (x) = 0.31395 0.14203
# Poissons Ratio (y) = 0.33704 0.51520
# Poissons Ratio (z) = 0.10517 0.35536
#
# Static dielectric constant tensor:
#      x y z
#    x 3.927650 0.000000 0.000000 
#    y 0.000000 4.467580 0.000000 
#    z 0.000000 0.000000 4.406250 
# 
# 
# High freq. dielectric constant tensor:
#      x y z
#    x 1.880110 0.000000 0.000000 
#    y 0.000000 1.906820 0.000000 
#    z 0.000000 0.000000 1.904440 
# 
# From -- ./inp_files/19964.got.cif
#   From: 2010.03.12/outbox.cif.g09.slc.cpg/sg57_10_cif.got.tgz:19964.got - 2010.04.16 15:48:40.
