data_PCOD8235240
_publ_section_title
;
Structure prediction by ZEFSAII (Michael W. Deem and Ramdas Pophale) SiO2 
 PCOD8235240
Probable space group: P N N M
;
_chemical_formula_sum "Si O2"
_cell_formula_units_Z 56
_cell_length_a 12.246654
_cell_length_b 17.995951
_cell_length_c 16.078117
_cell_angle_alpha 90.000000
_cell_angle_beta 90.000000
_cell_angle_gamma 90.000000
_cell_volume 3543.459185
_symmetry_space_group_name_H-M "P N N M"
_symmetry_group_IT_number 58
_symmetry_cell_setting 'orthorhombic'
loop_
_space_group_symop_operation_xyz
x,y,z
-x,-y,z
1/2+x,1/2-y,1/2-z
1/2-x,1/2+y,1/2-z
-x,-y,-z
x,y,-z
1/2-x,1/2+y,1/2+z
1/2+x,1/2-y,1/2+z
loop_
_atom_site_type_symbol
_atom_site_label
_atom_site_fract_x
_atom_site_fract_y
_atom_site_fract_z
Si Si1 0.228150 0.942094 0.176056
Si Si2 0.767228 0.432669 0.093701
Si Si3 0.691555 0.517187 0.500000
Si Si4 0.034662 0.832199 0.166242
Si Si5 0.590402 0.441906 0.775970
Si Si6 0.399815 0.947596 0.314836
Si Si7 0.965134 0.895280 0.000000
Si Si8 0.466535 0.175631 0.597278
O O1 0.154201 0.868343 0.174339
O O2 0.335070 0.925374 0.230912
O O3 0.161666 0.014371 0.207238
O O4 0.262186 0.960157 0.080871
O O5 0.661388 0.413520 0.147387
O O6 0.819456 0.509775 0.123241
O O7 0.851843 0.366005 0.102013
O O8 0.727770 0.443343 0.000000
O O9 0.571094 0.552501 0.500000
O O10 0.656179 0.431236 0.500000
O O11 0.045278 0.743264 0.163030
O O12 0.961162 0.866179 0.239841
O O13 0.970704 0.846428 0.081565
O O14 0.500000 0.500000 0.808533
O O15 0.437551 0.875721 0.366031
O O16 0.500000 0.000000 0.287839
O O17 0.490941 0.196412 0.500000
#
# Coordination Sequence:
#
# PCOD8235240 Si02
#       8
#     8   8   4   8   8   8   4   8
#     4   9  17  28  46  69  93 120 151 185 227 269
#     4   9  18  32  48  66  89 119 157 194 227 264
#     4   9  14  24  45  68  92 120 143 182 228 266
#     4  10  17  27  45  71  97 115 144 183 230 278
#     4   9  17  29  46  70  95 119 147 184 229 276
#     4   9  18  33  48  63  89 122 157 193 224 263
#     4   9  14  24  42  68  97 116 137 182 227 269
#     4  10  19  30  47  68  89 117 153 190 229 269
#
# _framework density 15.803766
#
# number of rings (size 3 to 8) (size 9 to 14) (size 15 to 20)
#    0.000    2.714    2.143    0.429    0.000    3.143 
#    0.000    0.357    0.000    0.000    0.000    0.000 
#    0.000    0.000    0.000    0.000    0.000    0.000 
#
# Total GULP energy -693986.201602 kJ/mol
# GULP energy per Si atom -12392.610743 kJ/mol
# Density = 1.576780 g / cm^3
# Si number density = 15.803766 Si / 1000 Ang^3
#
#
#
# Elastic Constant Matrix: (Units=GPa)
#
#
# Indices 1 2 3 4 5 6 
#
# 1 67.5006 27.4070 57.6322 0.0000 0.0000 0.0000
# 2 27.4070 83.1796 43.2936 0.0000 0.0000 0.0000
# 3 57.6322 43.2936 120.0670 0.0000 0.0000 0.0000
# 4 0.0000 0.0000 0.0000 13.2891 0.0000 0.0000
# 5 0.0000 0.0000 0.0000 0.0000 169.7041 0.0000
# 6 0.0000 0.0000 0.0000 0.0000 0.0000 11.7465
#
#
#
# Elastic Compliance Matrix: (Units=1/GPa)
#
#
# Indices 1 2 3 4 5 6 
#
# 1 0.025518 -0.002502 -0.011347 0.000000 0.000000 0.000000
# 2 -0.002502 0.015045 -0.004224 0.000000 0.000000 0.000000
# 3 -0.011347 -0.004224 0.015298 0.000000 0.000000 0.000000
# 4 0.000000 0.000000 0.000000 0.075250 0.000000 0.000000
# 5 0.000000 0.000000 0.000000 0.000000 0.005893 0.000000
# 6 0.000000 0.000000 0.000000 0.000000 0.000000 0.085132
#
#
# Mechanical properties :
#
#
# Convention : Reuss Voigt Hill
#
# Bulk Modulus (GPa) = 50.71998 58.60141 54.66070
# Shear Modulus (GPa) = 18.87836 48.44222 33.66029
#
# Velocity S-wave (km/s) = 3.45997 5.54246 4.62008
# Velocity P-wave (km/s) = 6.93723 8.83853 7.94496
#
# Compressibility (1/GPa) = 0.01971610
#
# Stress axis : x y z
#
# Youngs Moduli (GPa) = 39.18734 66.46676 65.36784
#
# Poissons Ratio (x) = 0.16633 0.74170
# Poissons Ratio (y) = 0.09806 0.27610
# Poissons Ratio (z) = 0.44464 0.28074
#
# Static dielectric constant tensor:
#      x y z
#    x 2.852980 0.000000 0.000000 
#    y 0.000000 2.909860 0.000000 
#    z 0.000000 0.000000 3.132360 
# 
# 
# High freq. dielectric constant tensor:
#      x y z
#    x 1.584260 0.000000 0.000000 
#    y 0.000000 1.596490 0.000000 
#    z 0.000000 0.000000 1.607910 
# 
# From -- ./inp_files/22427.got.cif
#   From: 2010.06.25/outbox.cif.g09.slc.cpg/sg58_12_cif.got.tgz:22427.got - 2010.06.26 21:38:00.
