data_PCOD8235128
_publ_section_title
;
Structure prediction by ZEFSAII (Michael W. Deem and Ramdas Pophale) SiO2 
 PCOD8235128
Probable space group: P B C M
;
_chemical_formula_sum "Si O2"
_cell_formula_units_Z 24
_cell_length_a 6.378739
_cell_length_b 18.789174
_cell_length_c 9.467618
_cell_angle_alpha 90.000000
_cell_angle_beta 90.000000
_cell_angle_gamma 90.000000
_cell_volume 1134.705728
_symmetry_space_group_name_H-M "P B C M"
_symmetry_group_IT_number 57
_symmetry_cell_setting 'orthorhombic'
loop_
_space_group_symop_operation_xyz
x,y,z
-x,-y,1/2+z
x,1/2-y,-z
-x,1/2+y,1/2-z
-x,-y,-z
x,y,1/2-z
-x,1/2+y,z
x,1/2-y,1/2+z
loop_
_atom_site_type_symbol
_atom_site_label
_atom_site_fract_x
_atom_site_fract_y
_atom_site_fract_z
Si Si1 0.678324 0.115967 0.250000
Si Si2 0.154454 0.374694 0.250000
Si Si3 0.059199 0.015675 0.250000
Si Si4 0.299306 0.386161 0.945648
Si Si5 0.055513 0.213261 0.250000
O O1 0.823834 0.046654 0.250000
O O2 0.537242 0.115378 0.108916
O O3 0.814982 0.187847 0.250000
O O4 0.960874 0.430441 0.250000
O O5 0.302198 0.385977 0.385593
O O6 0.049804 0.297697 0.250000
O O7 0.183645 0.042571 0.111234
O O8 0.174025 0.317223 0.888082
#
# Coordination Sequence:
#
# PCOD8235128 Si02
#       5
#     4   4   4   8   4
#     4   8  18  42  60  74 114 158 182 226 288 334
#     4  12  20  34  62  90 114 146 190 240 284 330
#     4   9  20  38  59  83 117 155 187 227 282 338
#     4   9  20  39  57  81 117 150 189 235 277 334
#     4   9  20  40  59  77 113 155 189 231 284 334
#
# _framework density 21.150859000000001
#
# number of rings (size 3 to 8) (size 9 to 14) (size 15 to 20)
#    0.000    3.333    0.000    2.000    0.000    1.333 
#    0.000   43.333    0.000    0.000    0.000    0.000 
#    0.000    0.000    0.000    0.000    0.000    0.000 
#
# Total GULP energy -297571.232245 kJ/mol
# GULP energy per Si atom -12398.801344 kJ/mol
# Density = 2.110272 g / cm^3
# Si number density = 21.150859 Si / 1000 Ang^3
#
#
#
# Elastic Constant Matrix: (Units=GPa)
#
#
# Indices 1 2 3 4 5 6 
#
# 1 129.0977 15.5826 37.3835 0.0000 0.0000 0.0000
# 2 15.5826 112.9967 8.7053 0.0000 0.0000 0.0000
# 3 37.3835 8.7053 175.9166 0.0000 0.0000 0.0000
# 4 0.0000 0.0000 0.0000 17.4669 0.0000 0.0000
# 5 0.0000 0.0000 0.0000 0.0000 3.4530 0.0000
# 6 0.0000 0.0000 0.0000 0.0000 0.0000 11.4262
#
#
#
# Elastic Compliance Matrix: (Units=1/GPa)
#
#
# Indices 1 2 3 4 5 6 
#
# 1 0.008370 -0.001021 -0.001728 0.000000 0.000000 0.000000
# 2 -0.001021 0.009008 -0.000229 0.000000 0.000000 0.000000
# 3 -0.001728 -0.000229 0.006063 0.000000 0.000000 0.000000
# 4 0.000000 0.000000 0.000000 0.057251 0.000000 0.000000
# 5 0.000000 0.000000 0.000000 0.000000 0.289606 0.000000
# 6 0.000000 0.000000 0.000000 0.000000 0.000000 0.087518
#
#
# Mechanical properties :
#
#
# Convention : Reuss Voigt Hill
#
# Bulk Modulus (GPa) = 57.19150 60.15042 58.67096
# Shear Modulus (GPa) = 10.64735 30.22518 20.43627
#
# Velocity S-wave (km/s) = 2.24609 3.78435 3.11177
# Velocity P-wave (km/s) = 5.81593 6.89895 6.38046
#
# Compressibility (1/GPa) = 0.01748512
#
# Stress axis : x y z
#
# Youngs Moduli (GPa) = 119.47808 111.00928 164.93304
#
# Poissons Ratio (x) = 0.11335 0.28502
# Poissons Ratio (y) = 0.12200 0.03774
# Poissons Ratio (z) = 0.20647 0.02540
#
# Static dielectric constant tensor:
#      x y z
#    x 3.613260 0.000000 0.000000 
#    y 0.000000 3.754380 0.000000 
#    z 0.000000 0.000000 3.769240 
# 
# 
# High freq. dielectric constant tensor:
#      x y z
#    x 1.816410 0.000000 0.000000 
#    y 0.000000 1.824350 0.000000 
#    z 0.000000 0.000000 1.827450 
# 
# From -- ./inp_files/10554.got.cif
#   From: 2010.03.12/outbox.cif.g09.slc.cpg/sg57_6_cif.got.tgz:10554.got - 2010.04.16 15:48:40.
