data_PCOD8235909
_publ_section_title
;
Structure prediction by ZEFSAII (Michael W. Deem and Ramdas Pophale) SiO2 
 PCOD8235909
Probable space group: P N N M
;
_chemical_formula_sum "Si O2"
_cell_formula_units_Z 64
_cell_length_a 8.708920
_cell_length_b 29.165582
_cell_length_c 13.927549
_cell_angle_alpha 90.000000
_cell_angle_beta 90.000000
_cell_angle_gamma 90.000000
_cell_volume 3537.607479
_symmetry_space_group_name_H-M "P N N M"
_symmetry_group_IT_number 58
_symmetry_cell_setting 'orthorhombic'
loop_
_space_group_symop_operation_xyz
x,y,z
-x,-y,z
1/2+x,1/2-y,1/2-z
1/2-x,1/2+y,1/2-z
-x,-y,-z
x,y,-z
1/2-x,1/2+y,1/2+z
1/2+x,1/2-y,1/2+z
loop_
_atom_site_type_symbol
_atom_site_label
_atom_site_fract_x
_atom_site_fract_y
_atom_site_fract_z
Si Si1 0.724126 0.075124 0.892694
Si Si2 0.941432 0.313348 0.111173
Si Si3 0.837790 0.214555 0.113533
Si Si4 0.955252 0.128563 0.218248
Si Si5 0.540811 0.049532 0.722600
Si Si6 0.223473 0.375219 0.887174
Si Si7 0.806561 0.374329 0.252577
Si Si8 0.966084 0.668459 0.394089
O O1 0.889123 0.087926 0.848609
O O2 0.639033 0.040418 0.820214
O O3 0.629976 0.121970 0.894075
O O4 0.739134 0.053990 0.000000
O O5 0.903373 0.262919 0.151804
O O6 0.818003 0.349949 0.149656
O O7 0.114072 0.331250 0.135955
O O8 0.912729 0.312373 0.000000
O O9 0.938989 0.177617 0.169032
O O10 0.654942 0.208332 0.137419
O O11 0.862855 0.207655 0.000000
O O12 0.876822 0.129665 0.323867
O O13 0.132534 0.116441 0.222874
O O14 0.635553 0.078348 0.643770
O O15 0.386681 0.076257 0.752069
O O16 0.500000 0.000000 0.678261
O O17 0.265418 0.377806 0.000000
O O18 0.890649 0.337391 0.323141
O O19 0.032336 0.678976 0.500000
#
# Coordination Sequence:
#
# PCOD8235909 Si02
#       8
#     8   8   8   8   8   8   8   8
#     4   8  15  30  49  69  97 130 159 193 243 296
#     4   9  18  33  51  70  95 129 169 208 243 286
#     4   9  17  31  51  73  98 131 168 202 239 286
#     4  10  19  30  49  73 101 133 162 199 243 295
#     4   9  18  34  55  75  94 124 169 213 254 304
#     4   9  19  36  54  72  99 135 169 204 252 301
#     4  10  20  31  48  74 100 128 163 206 253 296
#     4   8  15  29  48  68  93 126 161 195 232 278
#
# _framework density 18.091324
#
# number of rings (size 3 to 8) (size 9 to 14) (size 15 to 20)
#    0.000    3.000    0.000    3.375    0.000    4.000 
#    0.000    2.500    0.000    6.750    0.000    0.000 
#    0.000    0.000    0.000    0.000    0.000    0.000 
#
# Total GULP energy -793135.096285 kJ/mol
# GULP energy per Si atom -12392.735879 kJ/mol
# Density = 1.805015 g / cm^3
# Si number density = 18.091324 Si / 1000 Ang^3
#
#
#
# Elastic Constant Matrix: (Units=GPa)
#
#
# Indices 1 2 3 4 5 6 
#
# 1 115.9952 33.7599 35.6417 0.0000 0.0000 0.0000
# 2 33.7599 86.5267 23.8638 0.0000 0.0000 0.0000
# 3 35.6417 23.8638 63.9748 0.0000 0.0000 0.0000
# 4 0.0000 0.0000 0.0000 18.6398 0.0000 0.0000
# 5 0.0000 0.0000 0.0000 0.0000 13.6030 0.0000
# 6 0.0000 0.0000 0.0000 0.0000 0.0000 12.2799
#
#
#
# Elastic Compliance Matrix: (Units=1/GPa)
#
#
# Indices 1 2 3 4 5 6 
#
# 1 0.011020 -0.002905 -0.005056 0.000000 0.000000 0.000000
# 2 -0.002905 0.013648 -0.003473 0.000000 0.000000 0.000000
# 3 -0.005056 -0.003473 0.019743 0.000000 0.000000 0.000000
# 4 0.000000 0.000000 0.000000 0.053649 0.000000 0.000000
# 5 0.000000 0.000000 0.000000 0.000000 0.073513 0.000000
# 6 0.000000 0.000000 0.000000 0.000000 0.000000 0.081434
#
#
# Mechanical properties :
#
#
# Convention : Reuss Voigt Hill
#
# Bulk Modulus (GPa) = 46.41571 50.33640 48.37606
# Shear Modulus (GPa) = 17.66434 20.45328 19.05881
#
# Velocity S-wave (km/s) = 3.12813 3.36602 3.24925
# Velocity P-wave (km/s) = 6.22567 6.55673 6.39334
#
# Compressibility (1/GPa) = 0.02154443
#
# Stress axis : x y z
#
# Youngs Moduli (GPa) = 90.74320 73.26867 50.65052
#
# Poissons Ratio (x) = 0.21287 0.25608
# Poissons Ratio (y) = 0.26364 0.17588
# Poissons Ratio (z) = 0.45878 0.25443
#
# Static dielectric constant tensor:
#      x y z
#    x 3.181820 0.000000 0.000000 
#    y 0.000000 3.174930 0.000000 
#    z 0.000000 0.000000 3.582490 
# 
# 
# High freq. dielectric constant tensor:
#      x y z
#    x 1.682900 0.000000 0.000000 
#    y 0.000000 1.674920 0.000000 
#    z 0.000000 0.000000 1.708570 
# 
# From -- ./inp_files/20421.got.cif
#   From: 2010.06.25/outbox.cif.g09.slc.cpg/sg58_11_cif.got.tgz:20421.got - 2010.06.26 21:38:00.
