data_PCOD8235669
_publ_section_title
;
Structure prediction by ZEFSAII (Michael W. Deem and Ramdas Pophale) SiO2 
 PCOD8235669
Probable space group: P N N M
;
_chemical_formula_sum "Si O2"
_cell_formula_units_Z 64
_cell_length_a 29.381383
_cell_length_b 12.153308
_cell_length_c 9.114863
_cell_angle_alpha 90.000000
_cell_angle_beta 90.000000
_cell_angle_gamma 90.000000
_cell_volume 3254.744368
_symmetry_space_group_name_H-M "P N N M"
_symmetry_group_IT_number 58
_symmetry_cell_setting 'orthorhombic'
loop_
_space_group_symop_operation_xyz
x,y,z
-x,-y,z
1/2+x,1/2-y,1/2-z
1/2-x,1/2+y,1/2-z
-x,-y,-z
x,y,-z
1/2-x,1/2+y,1/2+z
1/2+x,1/2-y,1/2+z
loop_
_atom_site_type_symbol
_atom_site_label
_atom_site_fract_x
_atom_site_fract_y
_atom_site_fract_z
Si Si1 0.278082 0.457051 0.169732
Si Si2 0.682407 0.965707 0.328523
Si Si3 0.661293 0.741443 0.174221
Si Si4 0.477134 0.758325 0.665173
Si Si5 0.569540 0.472940 0.667384
Si Si6 0.881368 0.660594 0.829265
Si Si7 0.349319 0.633341 0.829508
Si Si8 0.941238 0.188757 0.326848
O O1 0.226442 0.465708 0.229164
O O2 0.307393 0.357258 0.240959
O O3 0.300468 0.576942 0.195750
O O4 0.276901 0.427940 0.000000
O O5 0.687791 0.937680 0.500000
O O6 0.679323 0.854557 0.238944
O O7 0.637436 0.038798 0.299433
O O8 0.609030 0.725145 0.223158
O O9 0.664154 0.747042 0.000000
O O10 0.490434 0.792978 0.500000
O O11 0.463395 0.631006 0.672046
O O12 0.434207 0.831779 0.721318
O O13 0.521076 0.777008 0.769250
O O14 0.580529 0.505801 0.500000
O O15 0.615610 0.448375 0.753210
O O16 0.545784 0.574303 0.749117
O O17 0.849811 0.746229 0.741753
O O18 0.878234 0.694152 0.000000
O O19 0.361983 0.642850 0.000000
O O20 0.945381 0.176141 0.500000
#
# Coordination Sequence:
#
# PCOD8235669 Si02
#       8
#     8   8   8   8   8   8   8   8
#     4   9  19  37  58  82 116 148 179 232 288 334
#     4  10  22  40  62  84 110 150 196 236 280 340
#     4  10  22  41  59  82 118 151 184 235 291 334
#     4   9  19  34  52  78 112 148 187 234 286 335
#     4  10  19  32  51  79 116 151 184 230 281 332
#     4   9  20  38  57  81 115 149 187 237 285 330
#     4  10  18  32  55  82 114 150 184 225 279 336
#     4  11  21  34  54  80 112 152 191 232 287 342
#
# _framework density 19.663602999999998
#
# number of rings (size 3 to 8) (size 9 to 14) (size 15 to 20)
#    0.000    2.250    1.250    2.250    1.750    5.500 
#    0.000    1.875    0.000    3.750    0.000    0.000 
#    0.000    0.000    0.000    0.000    0.000    0.000 
#
# Total GULP energy -793429.135644 kJ/mol
# GULP energy per Si atom -12397.330244 kJ/mol
# Density = 1.961885 g / cm^3
# Si number density = 19.663603 Si / 1000 Ang^3
#
#
#
# Elastic Constant Matrix: (Units=GPa)
#
#
# Indices 1 2 3 4 5 6 
#
# 1 111.3888 39.9192 29.8689 0.0000 0.0000 0.0000
# 2 39.9192 76.1154 21.5247 0.0000 0.0000 0.0000
# 3 29.8689 21.5247 60.3202 0.0000 0.0000 0.0000
# 4 0.0000 0.0000 0.0000 25.4973 0.0000 0.0000
# 5 0.0000 0.0000 0.0000 0.0000 27.2744 0.0000
# 6 0.0000 0.0000 0.0000 0.0000 0.0000 17.3529
#
#
#
# Elastic Compliance Matrix: (Units=1/GPa)
#
#
# Indices 1 2 3 4 5 6 
#
# 1 0.011892 -0.005085 -0.004074 0.000000 0.000000 0.000000
# 2 -0.005085 0.016787 -0.003472 0.000000 0.000000 0.000000
# 3 -0.004074 -0.003472 0.019835 0.000000 0.000000 0.000000
# 4 0.000000 0.000000 0.000000 0.039220 0.000000 0.000000
# 5 0.000000 0.000000 0.000000 0.000000 0.036664 0.000000
# 6 0.000000 0.000000 0.000000 0.000000 0.000000 0.057627
#
#
# Mechanical properties :
#
#
# Convention : Reuss Voigt Hill
#
# Bulk Modulus (GPa) = 43.00910 47.82777 45.41843
# Shear Modulus (GPa) = 23.25162 24.45900 23.85531
#
# Velocity S-wave (km/s) = 3.44244 3.53068 3.48684
# Velocity P-wave (km/s) = 6.14170 6.40287 6.27364
#
# Compressibility (1/GPa) = 0.02325089
#
# Stress axis : x y z
#
# Youngs Moduli (GPa) = 84.08743 59.57109 50.41662
#
# Poissons Ratio (x) = 0.30291 0.20541
# Poissons Ratio (y) = 0.42757 0.17506
# Poissons Ratio (z) = 0.34260 0.20685
#
# Static dielectric constant tensor:
#      x y z
#    x 3.909500 0.000000 0.000000 
#    y 0.000000 3.364410 0.000000 
#    z 0.000000 0.000000 3.450350 
# 
# 
# High freq. dielectric constant tensor:
#      x y z
#    x 1.776260 0.000000 0.000000 
#    y 0.000000 1.745650 0.000000 
#    z 0.000000 0.000000 1.750500 
# 
# From -- ./inp_files/10980.got.cif
#   From: 2010.06.25/outbox.cif.g09.slc.cpg/sg58_6_cif.got.tgz:10980.got - 2010.06.26 21:38:00.
