data_PCOD8235566
_publ_section_title
;
Structure prediction by ZEFSAII (Michael W. Deem and Ramdas Pophale) SiO2 
 PCOD8235566
Probable space group: P N N M
;
_chemical_formula_sum "Si O2"
_cell_formula_units_Z 64
_cell_length_a 30.332445
_cell_length_b 8.065653
_cell_length_c 12.723092
_cell_angle_alpha 90.000000
_cell_angle_beta 90.000000
_cell_angle_gamma 90.000000
_cell_volume 3112.716876
_symmetry_space_group_name_H-M "P N N M"
_symmetry_group_IT_number 58
_symmetry_cell_setting 'orthorhombic'
loop_
_space_group_symop_operation_xyz
x,y,z
-x,-y,z
1/2+x,1/2-y,1/2-z
1/2-x,1/2+y,1/2-z
-x,-y,-z
x,y,-z
1/2-x,1/2+y,1/2+z
1/2+x,1/2-y,1/2+z
loop_
_atom_site_type_symbol
_atom_site_label
_atom_site_fract_x
_atom_site_fract_y
_atom_site_fract_z
Si Si1 0.673817 0.115663 0.120196
Si Si2 0.643724 0.544052 0.382519
Si Si3 0.285953 0.372294 0.879511
Si Si4 0.526486 0.164559 0.122200
Si Si5 0.058004 0.840588 0.382020
Si Si6 0.363873 0.200096 0.218490
Si Si7 0.239816 0.029690 0.823785
Si Si8 0.103872 0.156225 0.699644
O O1 0.651070 0.291868 0.147574
O O2 0.654311 0.983656 0.203846
O O3 0.726459 0.116446 0.138745
O O4 0.663275 0.064804 0.000000
O O5 0.624581 0.542806 0.500000
O O6 0.641385 0.732405 0.337618
O O7 0.694360 0.488482 0.385489
O O8 0.613468 0.416670 0.315079
O O9 0.337239 0.334230 0.854416
O O10 0.259413 0.205373 0.854964
O O11 0.267787 0.515426 0.802288
O O12 0.280110 0.429998 0.000000
O O13 0.493826 0.321392 0.144698
O O14 0.570268 0.186228 0.195684
O O15 0.500000 0.000000 0.154955
O O16 0.541273 0.156458 0.000000
O O17 0.064789 0.779543 0.500000
O O18 0.085105 0.708577 0.312358
O O19 0.076940 0.024540 0.369651
#
# Coordination Sequence:
#
# PCOD8235566 Si02
#       8
#     8   8   8   8   8   8   8   8
#     4  11  20  33  53  81 117 146 179 229 283 341
#     4  10  21  39  57  74 104 145 193 242 283 327
#     4  10  19  34  51  72 106 138 176 229 278 328
#     4  10  20  34  55  84 120 157 188 226 284 351
#     4  10  18  31  52  79 114 150 183 222 274 337
#     4   9  19  33  53  76 100 138 184 225 275 331
#     4  10  20  35  55  79 106 147 190 229 284 340
#     4  11  22  34  54  84 114 147 187 229 283 343
#
# _framework density 20.560815000000002
#
# number of rings (size 3 to 8) (size 9 to 14) (size 15 to 20)
#    0.000    1.875    0.000    6.000    0.000    2.000 
#    0.000   12.500    0.000    6.375    0.000    0.000 
#    0.000    0.000    0.000    0.000    0.000    0.000 
#
# Total GULP energy -793243.820934 kJ/mol
# GULP energy per Si atom -12394.434702 kJ/mol
# Density = 2.051402 g / cm^3
# Si number density = 20.560815 Si / 1000 Ang^3
#
#
#
# Elastic Constant Matrix: (Units=GPa)
#
#
# Indices 1 2 3 4 5 6 
#
# 1 94.5208 11.8606 33.3815 0.0000 0.0000 0.0000
# 2 11.8606 49.6575 24.3184 0.0000 0.0000 0.0000
# 3 33.3815 24.3184 139.7149 0.0000 0.0000 0.0000
# 4 0.0000 0.0000 0.0000 25.3533 0.0000 0.0000
# 5 0.0000 0.0000 0.0000 0.0000 20.4806 0.0000
# 6 0.0000 0.0000 0.0000 0.0000 0.0000 31.2047
#
#
#
# Elastic Compliance Matrix: (Units=1/GPa)
#
#
# Indices 1 2 3 4 5 6 
#
# 1 0.011663 -0.001553 -0.002516 0.000000 0.000000 0.000000
# 2 -0.001553 0.022221 -0.003497 0.000000 0.000000 0.000000
# 3 -0.002516 -0.003497 0.008367 0.000000 0.000000 0.000000
# 4 0.000000 0.000000 0.000000 0.039443 0.000000 0.000000
# 5 0.000000 0.000000 0.000000 0.000000 0.048827 0.000000
# 6 0.000000 0.000000 0.000000 0.000000 0.000000 0.032046
#
#
# Mechanical properties :
#
#
# Convention : Reuss Voigt Hill
#
# Bulk Modulus (GPa) = 36.87435 47.00160 41.93797
# Shear Modulus (GPa) = 26.77520 29.69657 28.23589
#
# Velocity S-wave (km/s) = 3.61258 3.80456 3.70981
# Velocity P-wave (km/s) = 5.94762 6.49684 6.22829
#
# Compressibility (1/GPa) = 0.02711912
#
# Stress axis : x y z
#
# Youngs Moduli (GPa) = 85.73925 45.00177 119.51360
#
# Poissons Ratio (x) = 0.06991 0.30073
# Poissons Ratio (y) = 0.13319 0.41789
# Poissons Ratio (z) = 0.21574 0.15735
#
# Static dielectric constant tensor:
#      x y z
#    x 4.100050 0.000000 0.000000 
#    y 0.000000 3.758920 0.000000 
#    z 0.000000 0.000000 3.481130 
# 
# 
# High freq. dielectric constant tensor:
#      x y z
#    x 1.816010 0.000000 0.000000 
#    y 0.000000 1.803490 0.000000 
#    z 0.000000 0.000000 1.762290 
# 
# From -- ./inp_files/17996.got.cif
#   From: 2010.06.25/outbox.cif.g09.slc.cpg/sg58_9_cif.got.tgz:17996.got - 2010.06.26 21:38:00.
