data_PCOD8235577
_publ_section_title
;
Structure prediction by ZEFSAII (Michael W. Deem and Ramdas Pophale) SiO2 
 PCOD8235577
Probable space group: P N N M
;
_chemical_formula_sum "Si O2"
_cell_formula_units_Z 56
_cell_length_a 15.679345
_cell_length_b 21.939007
_cell_length_c 8.870343
_cell_angle_alpha 90.000000
_cell_angle_beta 90.000000
_cell_angle_gamma 90.000000
_cell_volume 3051.302722
_symmetry_space_group_name_H-M "P N N M"
_symmetry_group_IT_number 58
_symmetry_cell_setting 'orthorhombic'
loop_
_space_group_symop_operation_xyz
x,y,z
-x,-y,z
1/2+x,1/2-y,1/2-z
1/2-x,1/2+y,1/2-z
-x,-y,-z
x,y,-z
1/2-x,1/2+y,1/2+z
1/2+x,1/2-y,1/2+z
loop_
_atom_site_type_symbol
_atom_site_label
_atom_site_fract_x
_atom_site_fract_y
_atom_site_fract_z
Si Si1 0.743583 0.684855 0.172003
Si Si2 0.946991 0.058093 0.824669
Si Si3 0.426004 0.781082 0.321972
Si Si4 0.011098 0.398793 0.329415
Si Si5 0.132946 0.513159 0.670150
Si Si6 0.447300 0.315234 0.820588
Si Si7 0.723880 0.546422 0.829614
O O1 0.826982 0.719936 0.240098
O O2 0.649453 0.699781 0.243030
O O3 0.765162 0.613331 0.188228
O O4 0.737553 0.704662 0.000000
O O5 0.850361 0.040436 0.791215
O O6 0.974856 0.117382 0.730540
O O7 0.960304 0.072369 0.000000
O O8 0.000000 0.000000 0.770450
O O9 0.428067 0.769954 0.500000
O O10 0.468047 0.846238 0.288490
O O11 0.481882 0.730234 0.240812
O O12 0.017244 0.372894 0.500000
O O13 0.072228 0.455691 0.308168
O O14 0.915610 0.423532 0.296662
O O15 0.169028 0.513737 0.500000
O O16 0.208904 0.506253 0.789575
O O17 0.446097 0.313210 0.000000
O O18 0.690425 0.536934 0.000000
#
# Coordination Sequence:
#
# PCOD8235577 Si02
#       7
#     8   8   8   8   8   8   8
#     4   8  17  33  52  75 104 138 176 219 267 320
#     4  10  21  38  59  82 106 135 174 222 274 322
#     4  11  20  34  55  80 109 144 184 224 272 325
#     4   9  18  31  48  74 108 144 178 217 263 310
#     4   9  17  30  48  74 108 142 179 219 261 309
#     4  10  21  38  58  82 110 141 180 224 272 325
#     4  10  18  31  53  80 108 140 180 222 266 318
#
# _framework density 18.352816000000001
#
# number of rings (size 3 to 8) (size 9 to 14) (size 15 to 20)
#    0.000    2.429    1.429    3.429    0.000    1.714 
#    0.000    5.000    0.000    3.429    0.000    0.000 
#    0.000    0.000    0.000    0.000    0.000    0.000 
#
# Total GULP energy -693944.251069 kJ/mol
# GULP energy per Si atom -12391.861626 kJ/mol
# Density = 1.831104 g / cm^3
# Si number density = 18.352816 Si / 1000 Ang^3
#
#
#
# Elastic Constant Matrix: (Units=GPa)
#
#
# Indices 1 2 3 4 5 6 
#
# 1 106.0895 65.5243 34.5263 0.0000 0.0000 0.0000
# 2 65.5243 82.0407 34.9790 0.0000 0.0000 0.0000
# 3 34.5263 34.9790 57.4091 0.0000 0.0000 0.0000
# 4 0.0000 0.0000 0.0000 29.6995 0.0000 0.0000
# 5 0.0000 0.0000 0.0000 0.0000 26.9319 0.0000
# 6 0.0000 0.0000 0.0000 0.0000 0.0000 32.7104
#
#
#
# Elastic Compliance Matrix: (Units=1/GPa)
#
#
# Indices 1 2 3 4 5 6 
#
# 1 0.018963 -0.013892 -0.002940 0.000000 0.000000 0.000000
# 2 -0.013892 0.026643 -0.007879 0.000000 0.000000 0.000000
# 3 -0.002940 -0.007879 0.023988 0.000000 0.000000 0.000000
# 4 0.000000 0.000000 0.000000 0.033671 0.000000 0.000000
# 5 0.000000 0.000000 0.000000 0.000000 0.037131 0.000000
# 6 0.000000 0.000000 0.000000 0.000000 0.000000 0.030571
#
#
# Mechanical properties :
#
#
# Convention : Reuss Voigt Hill
#
# Bulk Modulus (GPa) = 49.57372 57.28872 53.43122
# Shear Modulus (GPa) = 22.01552 25.23569 23.62561
#
# Velocity S-wave (km/s) = 3.46724 3.71216 3.59179
# Velocity P-wave (km/s) = 6.56499 7.04674 6.81013
#
# Compressibility (1/GPa) = 0.02017198
#
# Stress axis : x y z
#
# Youngs Moduli (GPa) = 52.73487 37.53288 41.68777
#
# Poissons Ratio (x) = 0.52139 0.12258
# Poissons Ratio (y) = 0.73257 0.32846
# Poissons Ratio (z) = 0.15506 0.29573
#
# Static dielectric constant tensor:
#      x y z
#    x 3.738110 0.000000 0.000000 
#    y 0.000000 3.357100 0.000000 
#    z 0.000000 0.000000 3.265190 
# 
# 
# High freq. dielectric constant tensor:
#      x y z
#    x 1.714680 0.000000 0.000000 
#    y 0.000000 1.686890 0.000000 
#    z 0.000000 0.000000 1.702350 
# 
# From -- ./inp_files/6320.got.cif
#   From: 2010.06.25/outbox.cif.g09.slc.cpg/sg58_4_cif.got.tgz:6320.got - 2010.06.26 21:38:00.
