data_PCOD8235548
_publ_section_title
;
Structure prediction by ZEFSAII (Michael W. Deem and Ramdas Pophale) SiO2 
 PCOD8235548
Probable space group: P N N M
;
_chemical_formula_sum "Si O2"
_cell_formula_units_Z 48
_cell_length_a 28.813478
_cell_length_b 10.392324
_cell_length_c 9.196805
_cell_angle_alpha 90.000000
_cell_angle_beta 90.000000
_cell_angle_gamma 90.000000
_cell_volume 2753.882083
_symmetry_space_group_name_H-M "P N N M"
_symmetry_group_IT_number 58
_symmetry_cell_setting 'orthorhombic'
loop_
_space_group_symop_operation_xyz
x,y,z
-x,-y,z
1/2+x,1/2-y,1/2-z
1/2-x,1/2+y,1/2-z
-x,-y,-z
x,y,-z
1/2-x,1/2+y,1/2+z
1/2+x,1/2-y,1/2+z
loop_
_atom_site_type_symbol
_atom_site_label
_atom_site_fract_x
_atom_site_fract_y
_atom_site_fract_z
Si Si1 0.979644 0.370683 0.829691
Si Si2 0.280215 0.496525 0.169894
Si Si3 0.886488 0.992250 0.669674
Si Si4 0.468096 0.620169 0.671467
Si Si5 0.386614 0.249753 0.332722
Si Si6 0.218602 0.733352 0.169246
O O1 0.924352 0.361058 0.798297
O O2 0.000000 0.500000 0.755698
O O3 0.006667 0.247243 0.767533
O O4 0.989236 0.375191 0.000000
O O5 0.332841 0.538398 0.203700
O O6 0.248149 0.612695 0.228339
O O7 0.266806 0.364196 0.249945
O O8 0.272151 0.471939 0.000000
O O9 0.897212 0.989645 0.500000
O O10 0.918295 0.887271 0.749641
O O11 0.899220 0.131804 0.730667
O O12 0.500000 0.500000 0.715432
O O13 0.459437 0.624515 0.500000
O O14 0.391404 0.296326 0.500000
O O15 0.335138 0.197409 0.300916
O O16 0.228544 0.756169 0.000000
#
# Coordination Sequence:
#
# PCOD8235548 Si02
#       6
#     8   8   8   8   8   8
#     4   9  17  30  48  71  99 125 153 199 250 287
#     4   9  19  35  51  74 105 132 164 209 254 296
#     4  10  19  31  50  73 100 131 164 200 244 294
#     4  10  18  31  51  74  97 123 161 207 243 280
#     4   9  16  31  53  72  94 127 167 201 239 289
#     4   9  18  33  54  75  97 130 169 207 247 295
#
# _framework density 17.429939000000001
#
# number of rings (size 3 to 8) (size 9 to 14) (size 15 to 20)
#    0.000    2.667    1.667    0.500    0.000    1.667 
#    3.000    0.000    0.000    2.000    0.000    0.000 
#    0.000    0.000    0.000    0.000    0.000    0.000 
#
# Total GULP energy -595115.634107 kJ/mol
# GULP energy per Si atom -12398.242377 kJ/mol
# Density = 1.739027 g / cm^3
# Si number density = 17.429939 Si / 1000 Ang^3
#
#
#
# Elastic Constant Matrix: (Units=GPa)
#
#
# Indices 1 2 3 4 5 6 
#
# 1 121.7020 87.9780 37.4761 0.0000 0.0000 0.0000
# 2 87.9780 146.8679 37.7649 0.0000 0.0000 0.0000
# 3 37.4761 37.7649 39.4923 0.0000 0.0000 0.0000
# 4 0.0000 0.0000 0.0000 18.1953 0.0000 0.0000
# 5 0.0000 0.0000 0.0000 0.0000 24.3899 0.0000
# 6 0.0000 0.0000 0.0000 0.0000 0.0000 34.4093
#
#
#
# Elastic Compliance Matrix: (Units=1/GPa)
#
#
# Indices 1 2 3 4 5 6 
#
# 1 0.016236 -0.007644 -0.008098 0.000000 0.000000 0.000000
# 2 -0.007644 0.012627 -0.004822 0.000000 0.000000 0.000000
# 3 -0.008098 -0.004822 0.037617 0.000000 0.000000 0.000000
# 4 0.000000 0.000000 0.000000 0.054959 0.000000 0.000000
# 5 0.000000 0.000000 0.000000 0.000000 0.041001 0.000000
# 6 0.000000 0.000000 0.000000 0.000000 0.000000 0.029062
#
#
# Mechanical properties :
#
#
# Convention : Reuss Voigt Hill
#
# Bulk Modulus (GPa) = 39.44197 70.50003 54.97100
# Shear Modulus (GPa) = 20.74012 25.05512 22.89762
#
# Velocity S-wave (km/s) = 3.45325 3.79552 3.62842
# Velocity P-wave (km/s) = 6.21111 7.72939 7.01147
#
# Compressibility (1/GPa) = 0.02535370
#
# Stress axis : x y z
#
# Youngs Moduli (GPa) = 61.59213 79.19312 26.58404
#
# Poissons Ratio (x) = 0.60531 0.21527
# Poissons Ratio (y) = 0.47078 0.12818
# Poissons Ratio (z) = 0.49876 0.38185
#
# Static dielectric constant tensor:
#      x y z
#    x 3.427160 0.000000 0.000000 
#    y 0.000000 3.299420 0.000000 
#    z 0.000000 0.000000 3.058280 
# 
# 
# High freq. dielectric constant tensor:
#      x y z
#    x 1.683400 0.000000 0.000000 
#    y 0.000000 1.658250 0.000000 
#    z 0.000000 0.000000 1.651090 
# 
# From -- ./inp_files/2964.got.cif
#   From: 2010.06.25/outbox.cif.g09.slc.cpg/sg58_2_cif.got.tgz:2964.got - 2010.06.26 21:38:00.
