data_PCOD8235052
_publ_section_title
;
Structure prediction by ZEFSAII (Michael W. Deem and Ramdas Pophale) SiO2 
 PCOD8235052
Probable space group: P B C M
;
_chemical_formula_sum "Si O2"
_cell_formula_units_Z 48
_cell_length_a 16.536922
_cell_length_b 9.837961
_cell_length_c 14.205559
_cell_angle_alpha 90.000000
_cell_angle_beta 90.000000
_cell_angle_gamma 90.000000
_cell_volume 2311.096622
_symmetry_space_group_name_H-M "P B C M"
_symmetry_group_IT_number 57
_symmetry_cell_setting 'orthorhombic'
loop_
_space_group_symop_operation_xyz
x,y,z
-x,-y,1/2+z
x,1/2-y,-z
-x,1/2+y,1/2-z
-x,-y,-z
x,y,1/2-z
-x,1/2+y,z
x,1/2-y,1/2+z
loop_
_atom_site_type_symbol
_atom_site_label
_atom_site_fract_x
_atom_site_fract_y
_atom_site_fract_z
Si Si1 0.157191 0.524631 0.356170
Si Si2 0.421365 0.039545 0.250000
Si Si3 0.000109 0.125884 0.066580
Si Si4 0.167153 0.215158 0.140359
Si Si5 0.584413 0.210382 0.250000
Si Si6 0.332791 0.377794 0.941903
Si Si7 0.683492 0.128422 0.068213
O O1 0.187735 0.516520 0.250000
O O2 0.071732 0.602151 0.358893
O O3 0.153721 0.369927 0.395455
O O4 0.221412 0.612410 0.413489
O O5 0.504242 0.121127 0.250000
O O6 0.375879 0.089998 0.156437
O O7 0.431110 0.874420 0.250000
O O8 0.083841 0.136079 0.122739
O O9 0.979530 0.250000 0.000000
O O10 0.000000 0.000000 0.000000
O O11 0.189417 0.208021 0.250000
O O12 0.238083 0.145505 0.080629
O O13 0.634870 0.161421 0.161327
O O14 0.368920 0.250000 0.000000
O O15 0.349417 0.495958 0.016242
O O16 0.668414 0.250000 0.000000
#
# Coordination Sequence:
#
# PCOD8235052 Si02
#       7
#     8   4   8   8   4   8   8
#     4  11  23  41  67  99 138 188 242 296 354 415
#     4  12  30  52  76 113 150 185 234 297 358 433
#     4  12  23  41  60  95 140 182 241 296 347 416
#     4  11  23  42  67  99 140 186 243 295 354 423
#     4  12  30  52  76 113 150 183 236 295 360 433
#     4  12  25  46  78 109 144 193 243 289 363 431
#     4  12  25  47  75 107 148 187 236 299 352 428
#
# _framework density 20.769361
#
# number of rings (size 3 to 8) (size 9 to 14) (size 15 to 20)
#    0.000    0.333    6.667    2.500    2.333    1.333 
#    0.000    1.667    0.000    0.000    0.000    0.000 
#    0.000    0.000    0.000    0.000    0.000    0.000 
#
# Total GULP energy -595108.709358 kJ/mol
# GULP energy per Si atom -12398.098112 kJ/mol
# Density = 2.072209 g / cm^3
# Si number density = 20.769361 Si / 1000 Ang^3
#
#
#
# Elastic Constant Matrix: (Units=GPa)
#
#
# Indices 1 2 3 4 5 6 
#
# 1 120.3195 55.3167 55.0750 0.0000 0.0000 0.0000
# 2 55.3167 167.1178 72.9487 0.0000 0.0000 0.0000
# 3 55.0750 72.9487 138.7930 0.0000 0.0000 0.0000
# 4 0.0000 0.0000 0.0000 43.9778 0.0000 0.0000
# 5 0.0000 0.0000 0.0000 0.0000 64.9881 0.0000
# 6 0.0000 0.0000 0.0000 0.0000 0.0000 41.5002
#
#
#
# Elastic Compliance Matrix: (Units=1/GPa)
#
#
# Indices 1 2 3 4 5 6 
#
# 1 0.010745 -0.002200 -0.003107 0.000000 0.000000 0.000000
# 2 -0.002200 0.008216 -0.003445 0.000000 0.000000 0.000000
# 3 -0.003107 -0.003445 0.010249 0.000000 0.000000 0.000000
# 4 0.000000 0.000000 0.000000 0.022739 0.000000 0.000000
# 5 0.000000 0.000000 0.000000 0.000000 0.015387 0.000000
# 6 0.000000 0.000000 0.000000 0.000000 0.000000 0.024096
#
#
# Mechanical properties :
#
#
# Convention : Reuss Voigt Hill
#
# Bulk Modulus (GPa) = 85.43897 88.10125 86.77011
# Shear Modulus (GPa) = 44.31079 46.28588 45.29834
#
# Velocity S-wave (km/s) = 4.62396 4.72589 4.67520
# Velocity P-wave (km/s) = 8.35071 8.50233 8.42686
#
# Compressibility (1/GPa) = 0.01170426
#
# Stress axis : x y z
#
# Youngs Moduli (GPa) = 93.06526 121.71444 97.57274
#
# Poissons Ratio (x) = 0.26781 0.30319
# Poissons Ratio (y) = 0.20477 0.33615
# Poissons Ratio (z) = 0.28919 0.41932
#
# Static dielectric constant tensor:
#      x y z
#    x 3.395480 0.000000 0.000000 
#    y 0.000000 3.441680 0.000000 
#    z 0.000000 0.000000 3.937100 
# 
# 
# High freq. dielectric constant tensor:
#      x y z
#    x 1.810080 0.000000 0.000000 
#    y 0.000000 1.823550 0.000000 
#    z 0.000000 0.000000 1.836980 
# 
# From -- ./inp_files/18987.got.cif
#   From: 2010.03.12/outbox.cif.g09.slc.cpg/sg57_10_cif.got.tgz:18987.got - 2010.04.16 15:48:40.
