data_PCOD8235301
_publ_section_title
;
Structure prediction by ZEFSAII (Michael W. Deem and Ramdas Pophale) SiO2 
 PCOD8235301
Probable space group: P N N M
;
_chemical_formula_sum "Si O2"
_cell_formula_units_Z 64
_cell_length_a 9.479158
_cell_length_b 19.707649
_cell_length_c 18.624088
_cell_angle_alpha 90.000000
_cell_angle_beta 90.000000
_cell_angle_gamma 90.000000
_cell_volume 3479.201613
_symmetry_space_group_name_H-M "P N N M"
_symmetry_group_IT_number 58
_symmetry_cell_setting 'orthorhombic'
loop_
_space_group_symop_operation_xyz
x,y,z
-x,-y,z
1/2+x,1/2-y,1/2-z
1/2-x,1/2+y,1/2-z
-x,-y,-z
x,y,-z
1/2-x,1/2+y,1/2+z
1/2+x,1/2-y,1/2+z
loop_
_atom_site_type_symbol
_atom_site_label
_atom_site_fract_x
_atom_site_fract_y
_atom_site_fract_z
Si Si1 0.010615 0.740870 0.921636
Si Si2 0.192310 0.854895 0.878697
Si Si3 0.836946 0.997311 0.081841
Si Si4 0.696932 0.704035 0.079347
Si Si5 0.481063 0.822073 0.920110
Si Si6 0.576568 0.818190 0.722284
Si Si7 0.398284 0.063988 0.820481
Si Si8 0.747497 0.689135 0.768680
O O1 0.050520 0.819159 0.906314
O O2 0.082552 0.689794 0.864233
O O3 0.842153 0.745527 0.918898
O O4 0.062083 0.716337 0.000000
O O5 0.218485 0.926093 0.916605
O O6 0.318352 0.804491 0.903363
O O7 0.186649 0.861703 0.791778
O O8 0.748520 0.954604 0.140172
O O9 0.818724 0.969281 0.000000
O O10 0.000000 0.000000 0.105734
O O11 0.568314 0.754233 0.092674
O O12 0.707266 0.657631 0.151870
O O13 0.681794 0.667292 0.000000
O O14 0.520125 0.884000 0.870001
O O15 0.503987 0.848766 0.000000
O O16 0.626822 0.894251 0.745858
O O17 0.677839 0.763618 0.760619
O O18 0.414703 0.804055 0.744763
O O19 0.500000 0.000000 0.805617
#
# Coordination Sequence:
#
# PCOD8235301 Si02
#       8
#     8   8   8   8   8   8   8   8
#     4   9  19  33  53  76 104 133 165 216 267 312
#     4  11  20  33  51  72 101 134 170 209 249 303
#     4  11  25  38  50  71 103 142 180 211 247 300
#     4   9  18  30  48  74 101 130 163 203 254 304
#     4  11  20  31  48  71  99 134 173 206 246 297
#     4  10  20  32  53  76 100 135 172 217 265 314
#     4  12  22  36  51  74 104 141 182 215 255 303
#     4  10  17  33  50  73  99 127 170 210 260 306
#
# _framework density 18.395026000000001
#
# number of rings (size 3 to 8) (size 9 to 14) (size 15 to 20)
#    0.000    1.625    3.750    1.500    1.750    1.500 
#    0.000    0.000    0.000    0.375    0.000    0.875 
#    0.000    1.000    0.000    0.000    0.000    0.000 
#
# Total GULP energy -792842.617662 kJ/mol
# GULP energy per Si atom -12388.165901 kJ/mol
# Density = 1.835316 g / cm^3
# Si number density = 18.395026 Si / 1000 Ang^3
#
#
#
# Elastic Constant Matrix: (Units=GPa)
#
#
# Indices 1 2 3 4 5 6 
#
# 1 75.4108 8.3679 26.0363 0.0000 0.0000 0.0000
# 2 8.3679 30.6414 16.2013 0.0000 0.0000 0.0000
# 3 26.0363 16.2013 111.8757 0.0000 0.0000 0.0000
# 4 0.0000 0.0000 0.0000 23.7642 0.0000 0.0000
# 5 0.0000 0.0000 0.0000 0.0000 22.0560 0.0000
# 6 0.0000 0.0000 0.0000 0.0000 0.0000 15.5167
#
#
#
# Elastic Compliance Matrix: (Units=1/GPa)
#
#
# Indices 1 2 3 4 5 6 
#
# 1 0.014576 -0.002368 -0.003049 0.000000 0.000000 0.000000
# 2 -0.002368 0.035726 -0.004623 0.000000 0.000000 0.000000
# 3 -0.003049 -0.004623 0.010318 0.000000 0.000000 0.000000
# 4 0.000000 0.000000 0.000000 0.042080 0.000000 0.000000
# 5 0.000000 0.000000 0.000000 0.000000 0.045339 0.000000
# 6 0.000000 0.000000 0.000000 0.000000 0.000000 0.064447
#
#
# Mechanical properties :
#
#
# Convention : Reuss Voigt Hill
#
# Bulk Modulus (GPa) = 24.66706 35.45987 30.06346
# Shear Modulus (GPa) = 20.31861 23.42222 21.87042
#
# Velocity S-wave (km/s) = 3.32711 3.57219 3.45183
# Velocity P-wave (km/s) = 5.31021 6.02767 5.68028
#
# Compressibility (1/GPa) = 0.04053990
#
# Stress axis : x y z
#
# Youngs Moduli (GPa) = 68.60454 27.99045 96.92217
#
# Poissons Ratio (x) = 0.06629 0.29554
# Poissons Ratio (y) = 0.16248 0.44803
# Poissons Ratio (z) = 0.20920 0.12939
#
# Static dielectric constant tensor:
#      x y z
#    x 3.550280 0.000000 0.000000 
#    y 0.000000 3.113820 0.000000 
#    z 0.000000 0.000000 4.103710 
# 
# 
# High freq. dielectric constant tensor:
#      x y z
#    x 1.725410 0.000000 0.000000 
#    y 0.000000 1.650610 0.000000 
#    z 0.000000 0.000000 1.733730 
# 
# From -- ./inp_files/29136.got.cif
#   From: 2010.06.25/outbox.cif.g09.slc.cpg/sg58_15_cif.got.tgz:29136.got - 2010.06.26 21:38:00.
