data_PCOD8235616
_publ_section_title
;
Structure prediction by ZEFSAII (Michael W. Deem and Ramdas Pophale) SiO2 
 PCOD8235616
Probable space group: P N N M
;
_chemical_formula_sum "Si O2"
_cell_formula_units_Z 64
_cell_length_a 20.601903
_cell_length_b 19.592684
_cell_length_c 8.920357
_cell_angle_alpha 90.000000
_cell_angle_beta 90.000000
_cell_angle_gamma 90.000000
_cell_volume 3600.671553
_symmetry_space_group_name_H-M "P N N M"
_symmetry_group_IT_number 58
_symmetry_cell_setting 'orthorhombic'
loop_
_space_group_symop_operation_xyz
x,y,z
-x,-y,z
1/2+x,1/2-y,1/2-z
1/2-x,1/2+y,1/2-z
-x,-y,-z
x,y,-z
1/2-x,1/2+y,1/2+z
1/2+x,1/2-y,1/2+z
loop_
_atom_site_type_symbol
_atom_site_label
_atom_site_fract_x
_atom_site_fract_y
_atom_site_fract_z
Si Si1 0.062648 0.540227 0.678468
Si Si2 0.816807 0.960901 0.177060
Si Si3 0.931949 0.037729 0.670540
Si Si4 0.362435 0.823032 0.822249
Si Si5 0.007969 0.678340 0.321698
Si Si6 0.359520 0.671671 0.822652
Si Si7 0.507138 0.672898 0.177917
Si Si8 0.689065 0.036078 0.178654
O O1 0.063816 0.536201 0.500000
O O2 0.056408 0.618918 0.734561
O O3 0.128480 0.507546 0.743261
O O4 0.000000 0.500000 0.739866
O O5 0.814513 0.884527 0.243601
O O6 0.881192 0.000661 0.223778
O O7 0.755136 0.002936 0.240318
O O8 0.814148 0.954947 0.000000
O O9 0.905388 0.038141 0.500000
O O10 0.943918 0.114288 0.735301
O O11 0.000000 0.000000 0.676740
O O12 0.435260 0.834853 0.759809
O O13 0.336232 0.748039 0.773423
O O14 0.316912 0.885109 0.764075
O O15 0.365909 0.824842 0.000000
O O16 0.004895 0.677923 0.500000
O O17 0.032500 0.752911 0.266059
O O18 0.433481 0.660594 0.766518
O O19 0.354029 0.661578 0.000000
O O20 0.505036 0.669379 0.000000
O O21 0.688275 0.034374 0.000000
#
# Coordination Sequence:
#
# PCOD8235616 Si02
#       8
#     8   8   8   8   8   8   8   8
#     4   9  13  20  38  63  92 123 151 184 230 283
#     4  11  22  32  44  68 105 135 154 185 239 299
#     4  10  18  32  52  69  88 117 162 211 242 270
#     4   8  13  24  45  67  86 115 159 201 229 267
#     4   8  12  19  37  66  91 112 148 194 238 276
#     4   9  16  30  51  70  88 118 164 203 230 268
#     4   8  14  25  43  67  89 110 146 204 248 264
#     4   9  17  28  40  63  99 131 154 186 236 285
#
# _framework density 17.774460999999999
#
# number of rings (size 3 to 8) (size 9 to 14) (size 15 to 20)
#    0.000    3.000    2.500    1.875    0.000    0.250 
#    0.000    1.250    0.000    3.000    0.000    0.000 
#    0.000    6.000    0.000    0.500    0.000    0.000 
#
# Total GULP energy -792968.521577 kJ/mol
# GULP energy per Si atom -12390.133150 kJ/mol
# Density = 1.773401 g / cm^3
# Si number density = 17.774461 Si / 1000 Ang^3
#
#
#
# Elastic Constant Matrix: (Units=GPa)
#
#
# Indices 1 2 3 4 5 6 
#
# 1 79.9476 64.9470 15.9166 0.0000 0.0000 0.0000
# 2 64.9470 188.2104 22.0511 0.0000 0.0000 0.0000
# 3 15.9166 22.0511 19.9400 0.0000 0.0000 0.0000
# 4 0.0000 0.0000 0.0000 13.9808 0.0000 0.0000
# 5 0.0000 0.0000 0.0000 0.0000 8.1897 0.0000
# 6 0.0000 0.0000 0.0000 0.0000 0.0000 30.4454
#
#
#
# Elastic Compliance Matrix: (Units=1/GPa)
#
#
# Indices 1 2 3 4 5 6 
#
# 1 0.018671 -0.005396 -0.008936 0.000000 0.000000 0.000000
# 2 -0.005396 0.007663 -0.004168 0.000000 0.000000 0.000000
# 3 -0.008936 -0.004168 0.061893 0.000000 0.000000 0.000000
# 4 0.000000 0.000000 0.000000 0.071527 0.000000 0.000000
# 5 0.000000 0.000000 0.000000 0.000000 0.122105 0.000000
# 6 0.000000 0.000000 0.000000 0.000000 0.000000 0.032846
#
#
# Mechanical properties :
#
#
# Convention : Reuss Voigt Hill
#
# Bulk Modulus (GPa) = 19.52094 54.88083 37.20088
# Shear Modulus (GPa) = 13.55822 22.86872 18.21347
#
# Velocity S-wave (km/s) = 2.76487 3.59082 3.20456
# Velocity P-wave (km/s) = 4.60424 6.93796 5.88788
#
# Compressibility (1/GPa) = 0.05122705
#
# Stress axis : x y z
#
# Youngs Moduli (GPa) = 53.55985 130.48896 16.15701
#
# Poissons Ratio (x) = 0.70410 0.14438
# Poissons Ratio (y) = 0.28900 0.06734
# Poissons Ratio (z) = 0.47863 0.54385
#
# Static dielectric constant tensor:
#      x y z
#    x 3.216660 0.000000 0.000000 
#    y 0.000000 4.039090 0.000000 
#    z 0.000000 0.000000 2.646530 
# 
# 
# High freq. dielectric constant tensor:
#      x y z
#    x 1.657340 0.000000 0.000000 
#    y 0.000000 1.715750 0.000000 
#    z 0.000000 0.000000 1.617750 
# 
# From -- ./inp_files/8346.got.cif
#   From: 2010.06.25/outbox.cif.g09.slc.cpg/sg58_5_cif.got.tgz:8346.got - 2010.06.26 21:38:00.
