data_PCOD8235053
_publ_section_title
;
Structure prediction by ZEFSAII (Michael W. Deem and Ramdas Pophale) SiO2 
 PCOD8235053
Probable space group: P B C M
;
_chemical_formula_sum "Si O2"
_cell_formula_units_Z 40
_cell_length_a 12.277762
_cell_length_b 8.120418
_cell_length_c 17.764903
_cell_angle_alpha 90.000000
_cell_angle_beta 90.000000
_cell_angle_gamma 90.000000
_cell_volume 1771.170769
_symmetry_space_group_name_H-M "P B C M"
_symmetry_group_IT_number 57
_symmetry_cell_setting 'orthorhombic'
loop_
_space_group_symop_operation_xyz
x,y,z
-x,-y,1/2+z
x,1/2-y,-z
-x,1/2+y,1/2-z
-x,-y,-z
x,y,1/2-z
-x,1/2+y,z
x,1/2-y,1/2+z
loop_
_atom_site_type_symbol
_atom_site_label
_atom_site_fract_x
_atom_site_fract_y
_atom_site_fract_z
Si Si1 0.410141 0.168751 0.580650
Si Si2 0.791796 0.747663 0.335809
Si Si3 0.844585 0.369111 0.336651
Si Si4 0.354008 0.712905 0.416928
Si Si5 0.040948 0.369813 0.059734
O O1 0.387409 0.250000 0.500000
O O2 0.334392 0.261245 0.640756
O O3 0.536422 0.186078 0.601779
O O4 0.379904 0.978600 0.585472
O O5 0.800595 0.801897 0.250000
O O6 0.840315 0.565663 0.349296
O O7 0.857683 0.891428 0.382250
O O8 0.872377 0.329262 0.250000
O O9 0.734221 0.272804 0.356606
O O10 0.940539 0.300424 0.390286
O O11 0.308478 0.750000 0.500000
O O12 0.094583 0.250000 0.000000
O O13 0.000000 0.500000 0.000000
#
# Coordination Sequence:
#
# PCOD8235053 Si02
#       5
#     8   8   8   8   8
#     4  11  23  41  69  99 135 175 223 273 327 395
#     4  11  25  44  65  95 137 178 221 278 338 399
#     4  11  25  44  66  97 138 177 222 279 339 399
#     4  11  23  41  68 100 132 175 223 272 329 395
#     4  12  25  44  70  97 129 174 223 277 335 403
#
# _framework density 22.583931
#
# number of rings (size 3 to 8) (size 9 to 14) (size 15 to 20)
#    0.000    0.800    2.000    6.600    5.600    1.600 
#    0.000    0.000    0.000    0.000    0.000    0.000 
#    0.000    0.000    0.000    0.000    0.000    0.000 
#
# Total GULP energy -495621.632555 kJ/mol
# GULP energy per Si atom -12390.540814 kJ/mol
# Density = 2.253253 g / cm^3
# Si number density = 22.583931 Si / 1000 Ang^3
#
#
#
# Elastic Constant Matrix: (Units=GPa)
#
#
# Indices 1 2 3 4 5 6 
#
# 1 116.6887 14.0238 73.9564 0.0000 0.0000 0.0000
# 2 14.0238 54.7552 29.7264 0.0000 0.0000 0.0000
# 3 73.9564 29.7264 162.7521 0.0000 0.0000 0.0000
# 4 0.0000 0.0000 0.0000 30.6204 0.0000 0.0000
# 5 0.0000 0.0000 0.0000 0.0000 37.6588 0.0000
# 6 0.0000 0.0000 0.0000 0.0000 0.0000 37.2235
#
#
#
# Elastic Compliance Matrix: (Units=1/GPa)
#
#
# Indices 1 2 3 4 5 6 
#
# 1 0.012037 -0.000126 -0.005447 0.000000 0.000000 0.000000
# 2 -0.000126 0.020275 -0.003646 0.000000 0.000000 0.000000
# 3 -0.005447 -0.003646 0.009285 0.000000 0.000000 0.000000
# 4 0.000000 0.000000 0.000000 0.032658 0.000000 0.000000
# 5 0.000000 0.000000 0.000000 0.000000 0.026554 0.000000
# 6 0.000000 0.000000 0.000000 0.000000 0.000000 0.026865
#
#
# Mechanical properties :
#
#
# Convention : Reuss Voigt Hill
#
# Bulk Modulus (GPa) = 43.17812 63.28992 53.23402
# Shear Modulus (GPa) = 32.50318 35.53318 34.01818
#
# Velocity S-wave (km/s) = 3.79782 3.97089 3.88532
# Velocity P-wave (km/s) = 6.19610 7.00779 6.61441
#
# Compressibility (1/GPa) = 0.02315988
#
# Stress axis : x y z
#
# Youngs Moduli (GPa) = 83.07672 49.32258 107.69691
#
# Poissons Ratio (x) = 0.00621 0.58660
# Poissons Ratio (y) = 0.01046 0.39266
# Poissons Ratio (z) = 0.45250 0.17983
#
# Static dielectric constant tensor:
#      x y z
#    x 4.362030 0.000000 0.000000 
#    y 0.000000 3.884930 0.000000 
#    z 0.000000 0.000000 4.342520 
# 
# 
# High freq. dielectric constant tensor:
#      x y z
#    x 1.901210 0.000000 0.000000 
#    y 0.000000 1.887840 0.000000 
#    z 0.000000 0.000000 1.897500 
# 
# From -- ./inp_files/21593.got.cif
#   From: 2010.03.12/outbox.cif.g09.slc.cpg/sg57_11_cif.got.tgz:21593.got - 2010.04.16 15:48:40.
