data_PCOD8235535
_publ_section_title
;
Structure prediction by ZEFSAII (Michael W. Deem and Ramdas Pophale) SiO2 
 PCOD8235535
Probable space group: P N N M
;
_chemical_formula_sum "Si O2"
_cell_formula_units_Z 64
_cell_length_a 21.376563
_cell_length_b 18.508200
_cell_length_c 9.150677
_cell_angle_alpha 90.000000
_cell_angle_beta 90.000000
_cell_angle_gamma 90.000000
_cell_volume 3620.389435
_symmetry_space_group_name_H-M "P N N M"
_symmetry_group_IT_number 58
_symmetry_cell_setting 'orthorhombic'
loop_
_space_group_symop_operation_xyz
x,y,z
-x,-y,z
1/2+x,1/2-y,1/2-z
1/2-x,1/2+y,1/2-z
-x,-y,-z
x,y,-z
1/2-x,1/2+y,1/2+z
1/2+x,1/2-y,1/2+z
loop_
_atom_site_type_symbol
_atom_site_label
_atom_site_fract_x
_atom_site_fract_y
_atom_site_fract_z
Si Si1 0.697272 0.073434 0.328262
Si Si2 0.979657 0.418749 0.830972
Si Si3 0.091563 0.315569 0.168837
Si Si4 0.570269 0.481749 0.171278
Si Si5 0.684157 0.536189 0.664601
Si Si6 0.143034 0.564692 0.328596
Si Si7 0.269307 0.626793 0.660600
Si Si8 0.380826 0.674981 0.829873
O O1 0.705877 0.057860 0.500000
O O2 0.658124 0.146359 0.300247
O O3 0.765331 0.084031 0.253759
O O4 0.658157 0.007737 0.260332
O O5 0.920529 0.400124 0.730170
O O6 0.000000 0.500000 0.800980
O O7 0.035834 0.367585 0.780070
O O8 0.961948 0.406991 0.000000
O O9 0.083945 0.241565 0.256658
O O10 0.084656 0.296542 0.000000
O O11 0.500000 0.500000 0.219807
O O12 0.616788 0.536170 0.255900
O O13 0.583633 0.398635 0.213989
O O14 0.580822 0.494483 0.000000
O O15 0.676824 0.566861 0.500000
O O16 0.710186 0.455939 0.661676
O O17 0.138686 0.545332 0.500000
O O18 0.195790 0.626288 0.300844
O O19 0.281288 0.660556 0.500000
O O20 0.308744 0.672490 0.776624
O O21 0.380556 0.688132 0.000000
#
# Coordination Sequence:
#
# PCOD8235535 Si02
#       8
#     8   8   8   8   8   8   8   8
#     4  10  18  31  50  72 100 137 174 207 252 309
#     4  10  19  34  51  73 104 142 186 217 249 311
#     4  10  21  35  52  72 102 143 177 213 263 317
#     4   9  18  34  56  80 105 136 176 215 260 321
#     4   9  17  29  48  78 106 126 159 210 259 299
#     4  10  19  30  49  78 105 131 168 219 263 293
#     4   8  16  31  49  70  99 129 160 200 252 307
#     4  10  20  33  53  79 102 129 171 220 263 310
#
# _framework density 17.677655000000001
#
# number of rings (size 3 to 8) (size 9 to 14) (size 15 to 20)
#    0.000    2.500    1.250    2.250    0.000    6.000 
#    0.000    0.000    2.750    0.000    0.000    0.000 
#    0.000    0.000    0.000    0.000    0.000    0.000 
#
# Total GULP energy -793536.625496 kJ/mol
# GULP energy per Si atom -12399.009773 kJ/mol
# Density = 1.763742 g / cm^3
# Si number density = 17.677655 Si / 1000 Ang^3
#
#
#
# Elastic Constant Matrix: (Units=GPa)
#
#
# Indices 1 2 3 4 5 6 
#
# 1 144.0298 39.4457 64.6331 0.0000 0.0000 0.0000
# 2 39.4457 61.2160 39.0458 0.0000 0.0000 0.0000
# 3 64.6331 39.0458 92.3642 0.0000 0.0000 0.0000
# 4 0.0000 0.0000 0.0000 25.0595 0.0000 0.0000
# 5 0.0000 0.0000 0.0000 0.0000 32.6859 0.0000
# 6 0.0000 0.0000 0.0000 0.0000 0.0000 20.6588
#
#
#
# Elastic Compliance Matrix: (Units=1/GPa)
#
#
# Indices 1 2 3 4 5 6 
#
# 1 0.010470 -0.002839 -0.006126 0.000000 0.000000 0.000000
# 2 -0.002839 0.023136 -0.007794 0.000000 0.000000 0.000000
# 3 -0.006126 -0.007794 0.018408 0.000000 0.000000 0.000000
# 4 0.000000 0.000000 0.000000 0.039905 0.000000 0.000000
# 5 0.000000 0.000000 0.000000 0.000000 0.030594 0.000000
# 6 0.000000 0.000000 0.000000 0.000000 0.000000 0.048405
#
#
# Mechanical properties :
#
#
# Convention : Reuss Voigt Hill
#
# Bulk Modulus (GPa) = 54.06530 64.87325 59.46928
# Shear Modulus (GPa) = 23.74144 25.97987 24.86066
#
# Velocity S-wave (km/s) = 3.66870 3.83775 3.75418
# Velocity P-wave (km/s) = 6.97110 7.51102 7.24609
#
# Compressibility (1/GPa) = 0.01849615
#
# Stress axis : x y z
#
# Youngs Moduli (GPa) = 95.51482 43.22249 54.32303
#
# Poissons Ratio (x) = 0.12270 0.33279
# Poissons Ratio (y) = 0.27115 0.42339
# Poissons Ratio (z) = 0.58514 0.33688
#
# Static dielectric constant tensor:
#      x y z
#    x 3.529370 0.000000 0.000000 
#    y 0.000000 2.947440 0.000000 
#    z 0.000000 0.000000 3.357440 
# 
# 
# High freq. dielectric constant tensor:
#      x y z
#    x 1.689260 0.000000 0.000000 
#    y 0.000000 1.643310 0.000000 
#    z 0.000000 0.000000 1.691070 
# 
# From -- ./inp_files/10152.got.cif
#   From: 2010.06.25/outbox.cif.g09.slc.cpg/sg58_6_cif.got.tgz:10152.got - 2010.06.26 21:38:00.
