data_PCOD8235540
_publ_section_title
;
Structure prediction by ZEFSAII (Michael W. Deem and Ramdas Pophale) SiO2 
 PCOD8235540
Probable space group: P N N M
;
_chemical_formula_sum "Si O2"
_cell_formula_units_Z 56
_cell_length_a 20.973922
_cell_length_b 11.857021
_cell_length_c 13.093372
_cell_angle_alpha 90.000000
_cell_angle_beta 90.000000
_cell_angle_gamma 90.000000
_cell_volume 3256.167555
_symmetry_space_group_name_H-M "P N N M"
_symmetry_group_IT_number 58
_symmetry_cell_setting 'orthorhombic'
loop_
_space_group_symop_operation_xyz
x,y,z
-x,-y,z
1/2+x,1/2-y,1/2-z
1/2-x,1/2+y,1/2-z
-x,-y,-z
x,y,-z
1/2-x,1/2+y,1/2+z
1/2+x,1/2-y,1/2+z
loop_
_atom_site_type_symbol
_atom_site_label
_atom_site_fract_x
_atom_site_fract_y
_atom_site_fract_z
Si Si1 0.375480 0.605754 0.884585
Si Si2 0.986602 0.161357 0.614586
Si Si3 0.780405 0.026541 0.882429
Si Si4 0.455381 0.902263 0.885034
Si Si5 0.145446 0.879575 0.298566
Si Si6 0.330467 0.829191 0.792626
Si Si7 0.255549 0.735628 0.619587
O O1 0.449809 0.594517 0.847003
O O2 0.339956 0.487010 0.871459
O O3 0.334609 0.700375 0.828805
O O4 0.378715 0.647310 0.000000
O O5 0.965696 0.120459 0.500000
O O6 0.929413 0.147813 0.695115
O O7 0.002286 0.292057 0.610701
O O8 0.837978 0.079593 0.816099
O O9 0.717852 0.099469 0.861004
O O10 0.766757 0.895825 0.855099
O O11 0.800484 0.038321 0.000000
O O12 0.398293 0.890205 0.803719
O O13 0.500000 0.000000 0.842017
O O14 0.429734 0.930140 0.000000
O O15 0.186147 0.772425 0.337188
O O16 0.307184 0.817486 0.675227
O O17 0.260327 0.759671 0.500000
#
# Coordination Sequence:
#
# PCOD8235540 Si02
#       7
#     8   8   8   8   8   8   8
#     4  10  18  31  50  77 107 134 161 204 259 309
#     4   9  18  30  48  76 106 131 160 204 257 305
#     4  10  21  36  53  72 102 139 174 213 248 295
#     4   9  18  31  51  80 106 131 164 207 259 311
#     4  11  20  32  52  76 102 133 171 208 256 304
#     4  10  19  34  53  75 102 139 171 204 255 303
#     4  10  21  35  52  75 102 136 176 211 249 296
#
# _framework density 17.198132000000001
#
# number of rings (size 3 to 8) (size 9 to 14) (size 15 to 20)
#    0.000    2.143    1.429    3.857    2.000    1.143 
#    0.000    0.000    0.000    5.571    0.000    0.000 
#    0.000    0.000    0.000    0.000    0.000    0.000 
#
# Total GULP energy -694087.759829 kJ/mol
# GULP energy per Si atom -12394.424283 kJ/mol
# Density = 1.715899 g / cm^3
# Si number density = 17.198132 Si / 1000 Ang^3
#
#
#
# Elastic Constant Matrix: (Units=GPa)
#
#
# Indices 1 2 3 4 5 6 
#
# 1 87.1549 44.7992 51.1742 0.0000 0.0000 0.0000
# 2 44.7992 32.4979 35.1300 0.0000 0.0000 0.0000
# 3 51.1742 35.1300 89.5699 0.0000 0.0000 0.0000
# 4 0.0000 0.0000 0.0000 23.1305 0.0000 0.0000
# 5 0.0000 0.0000 0.0000 0.0000 25.0937 0.0000
# 6 0.0000 0.0000 0.0000 0.0000 0.0000 26.1691
#
#
#
# Elastic Compliance Matrix: (Units=1/GPa)
#
#
# Indices 1 2 3 4 5 6 
#
# 1 0.039601 -0.052313 -0.002108 0.000000 0.000000 0.000000
# 2 -0.052313 0.122524 -0.018167 0.000000 0.000000 0.000000
# 3 -0.002108 -0.018167 0.019494 0.000000 0.000000 0.000000
# 4 0.000000 0.000000 0.000000 0.043233 0.000000 0.000000
# 5 0.000000 0.000000 0.000000 0.000000 0.039851 0.000000
# 6 0.000000 0.000000 0.000000 0.000000 0.000000 0.038213
#
#
# Mechanical properties :
#
#
# Convention : Reuss Voigt Hill
#
# Bulk Modulus (GPa) = 27.43928 52.38104 39.91016
# Shear Modulus (GPa) = 10.86390 20.08661 15.47526
#
# Velocity S-wave (km/s) = 2.51607 3.42124 3.00296
# Velocity P-wave (km/s) = 4.94270 6.79191 5.93971
#
# Compressibility (1/GPa) = 0.03644411
#
# Stress axis : x y z
#
# Youngs Moduli (GPa) = 25.25168 8.16165 51.29758
#
# Poissons Ratio (x) = 0.42696 0.10814
# Poissons Ratio (y) = 1.32098 0.93192
# Poissons Ratio (z) = 0.05323 0.14827
#
# Static dielectric constant tensor:
#      x y z
#    x 3.236390 0.000000 0.000000 
#    y 0.000000 3.388630 0.000000 
#    z 0.000000 0.000000 3.082600 
# 
# 
# High freq. dielectric constant tensor:
#      x y z
#    x 1.656560 0.000000 0.000000 
#    y 0.000000 1.682290 0.000000 
#    z 0.000000 0.000000 1.636480 
# 
# From -- ./inp_files/14571.got.cif
#   From: 2010.06.25/outbox.cif.g09.slc.cpg/sg58_8_cif.got.tgz:14571.got - 2010.06.26 21:38:00.
