data_PCOD8235257
_publ_section_title
;
Structure prediction by ZEFSAII (Michael W. Deem and Ramdas Pophale) SiO2 
 PCOD8235257
Probable space group: P N N M
;
_chemical_formula_sum "Si O2"
_cell_formula_units_Z 56
_cell_length_a 14.339926
_cell_length_b 22.158249
_cell_length_c 9.324163
_cell_angle_alpha 90.000000
_cell_angle_beta 90.000000
_cell_angle_gamma 90.000000
_cell_volume 2962.730890
_symmetry_space_group_name_H-M "P N N M"
_symmetry_group_IT_number 58
_symmetry_cell_setting 'orthorhombic'
loop_
_space_group_symop_operation_xyz
x,y,z
-x,-y,z
1/2+x,1/2-y,1/2-z
1/2-x,1/2+y,1/2-z
-x,-y,-z
x,y,-z
1/2-x,1/2+y,1/2+z
1/2+x,1/2-y,1/2+z
loop_
_atom_site_type_symbol
_atom_site_label
_atom_site_fract_x
_atom_site_fract_y
_atom_site_fract_z
Si Si1 0.508586 0.255079 0.330290
Si Si2 0.395659 0.018530 0.668404
Si Si3 0.579853 0.624526 0.329958
Si Si4 0.767781 0.036224 0.830155
Si Si5 0.399820 0.565348 0.340281
Si Si6 0.303033 0.693310 0.339133
Si Si7 0.629623 0.844387 0.330811
O O1 0.513192 0.262906 0.500000
O O2 0.440565 0.308390 0.268752
O O3 0.615549 0.262525 0.275101
O O4 0.466207 0.190215 0.287127
O O5 0.376826 0.013517 0.500000
O O6 0.376982 0.086813 0.724254
O O7 0.500000 0.000000 0.707556
O O8 0.330095 0.970607 0.749328
O O9 0.565749 0.625295 0.500000
O O10 0.683875 0.600830 0.292054
O O11 0.501188 0.577610 0.268129
O O12 0.837323 0.985471 0.763452
O O13 0.750091 0.028916 0.000000
O O14 0.415593 0.540360 0.500000
O O15 0.342625 0.626567 0.341425
O O16 0.273502 0.713050 0.500000
O O17 0.213253 0.693900 0.237950
O O18 0.644608 0.842730 0.500000
#
# Coordination Sequence:
#
# PCOD8235257 Si02
#       7
#     8   8   8   8   8   8   8
#     4   8  16  31  50  74 101 129 166 203 245 303
#     4  10  22  38  51  66  96 138 177 206 240 291
#     4   8  14  25  45  75 105 125 147 192 249 303
#     4  10  17  28  51  78  99 122 158 204 250 289
#     4   8  13  23  44  74 100 120 147 186 237 295
#     4   9  16  30  52  75  98 125 161 206 247 293
#     4  10  19  34  55  72  94 133 172 206 243 290
#
# _framework density 18.901482000000001
#
# number of rings (size 3 to 8) (size 9 to 14) (size 15 to 20)
#    0.000    3.000    1.429    2.143    0.000    2.000 
#    2.571    0.714    0.000    5.143    0.000    0.000 
#    0.000    0.000    0.000    0.000    0.000    0.000 
#
# Total GULP energy -693769.925745 kJ/mol
# GULP energy per Si atom -12388.748674 kJ/mol
# Density = 1.885846 g / cm^3
# Si number density = 18.901482 Si / 1000 Ang^3
#
#
#
# Elastic Constant Matrix: (Units=GPa)
#
#
# Indices 1 2 3 4 5 6 
#
# 1 107.5593 31.7774 28.7571 0.0000 0.0000 0.0000
# 2 31.7774 40.3768 12.8367 0.0000 0.0000 0.0000
# 3 28.7571 12.8367 24.1636 0.0000 0.0000 0.0000
# 4 0.0000 0.0000 0.0000 12.5909 0.0000 0.0000
# 5 0.0000 0.0000 0.0000 0.0000 25.0214 0.0000
# 6 0.0000 0.0000 0.0000 0.0000 0.0000 28.7208
#
#
#
# Elastic Compliance Matrix: (Units=1/GPa)
#
#
# Indices 1 2 3 4 5 6 
#
# 1 0.015332 -0.007539 -0.014242 0.000000 0.000000 0.000000
# 2 -0.007539 0.033507 -0.008828 0.000000 0.000000 0.000000
# 3 -0.014242 -0.008828 0.063024 0.000000 0.000000 0.000000
# 4 0.000000 0.000000 0.000000 0.079423 0.000000 0.000000
# 5 0.000000 0.000000 0.000000 0.000000 0.039966 0.000000
# 6 0.000000 0.000000 0.000000 0.000000 0.000000 0.034818
#
#
# Mechanical properties :
#
#
# Convention : Reuss Voigt Hill
#
# Bulk Modulus (GPa) = 19.74533 35.42691 27.58612
# Shear Modulus (GPa) = 14.52778 19.84851 17.18814
#
# Velocity S-wave (km/s) = 2.77538 3.24405 3.01882
# Velocity P-wave (km/s) = 4.55406 5.72847 5.17469
#
# Compressibility (1/GPa) = 0.05064490
#
# Stress axis : x y z
#
# Youngs Moduli (GPa) = 65.22196 29.84478 15.86704
#
# Poissons Ratio (x) = 0.22500 0.22598
# Poissons Ratio (y) = 0.49171 0.14007
# Poissons Ratio (z) = 0.92889 0.26347
#
# Static dielectric constant tensor:
#      x y z
#    x 3.641200 0.000000 0.000000 
#    y 0.000000 3.524400 0.000000 
#    z 0.000000 0.000000 2.952640 
# 
# 
# High freq. dielectric constant tensor:
#      x y z
#    x 1.739610 0.000000 0.000000 
#    y 0.000000 1.728640 0.000000 
#    z 0.000000 0.000000 1.670260 
# 
# From -- ./inp_files/14722.got.cif
#   From: 2010.06.25/outbox.cif.g09.slc.cpg/sg58_8_cif.got.tgz:14722.got - 2010.06.26 21:38:00.
