data_PCOD8235998
_publ_section_title
;
Structure prediction by ZEFSAII (Michael W. Deem and Ramdas Pophale) SiO2 
 PCOD8235998
Probable space group: P N N M
;
_chemical_formula_sum "Si O2"
_cell_formula_units_Z 56
_cell_length_a 20.937544
_cell_length_b 11.325373
_cell_length_c 13.643676
_cell_angle_alpha 90.000000
_cell_angle_beta 90.000000
_cell_angle_gamma 90.000000
_cell_volume 3235.263432
_symmetry_space_group_name_H-M "P N N M"
_symmetry_group_IT_number 58
_symmetry_cell_setting 'orthorhombic'
loop_
_space_group_symop_operation_xyz
x,y,z
-x,-y,z
1/2+x,1/2-y,1/2-z
1/2-x,1/2+y,1/2-z
-x,-y,-z
x,y,-z
1/2-x,1/2+y,1/2+z
1/2+x,1/2-y,1/2+z
loop_
_atom_site_type_symbol
_atom_site_label
_atom_site_fract_x
_atom_site_fract_y
_atom_site_fract_z
Si Si1 0.893992 0.314399 0.613998
Si Si2 0.798201 0.138140 0.296944
Si Si3 0.323553 0.973305 0.612550
Si Si4 0.533002 0.252603 0.888281
Si Si5 0.429961 0.963457 0.763409
Si Si6 0.141921 0.079305 0.387837
Si Si7 0.236361 0.725467 0.889199
O O1 0.886427 0.339939 0.500000
O O2 0.831304 0.249211 0.651958
O O3 0.898330 0.439566 0.666766
O O4 0.957628 0.235845 0.636188
O O5 0.731442 0.113133 0.349036
O O6 0.785551 0.169139 0.182914
O O7 0.844002 0.024110 0.309831
O O8 0.334800 0.944329 0.500000
O O9 0.388849 0.943547 0.666793
O O10 0.306341 0.109872 0.629662
O O11 0.567885 0.157755 0.821698
O O12 0.569162 0.377297 0.871903
O O13 0.541272 0.210185 0.000000
O O14 0.500000 0.000000 0.728127
O O15 0.151743 0.031320 0.500000
O O16 0.189885 0.189370 0.370900
O O17 0.226867 0.772402 0.000000
#
# Coordination Sequence:
#
# PCOD8235998 Si02
#       7
#     8   8   8   8   8   8   8
#     4  10  19  31  50  80 108 134 168 212 258 303
#     4  11  19  32  54  75 102 133 169 211 257 305
#     4  10  20  34  51  74 102 133 167 212 257 301
#     4   9  18  32  50  74 109 141 169 206 254 308
#     4  10  19  33  53  76 103 138 178 213 255 301
#     4   9  18  32  51  75 101 134 167 205 255 309
#     4   9  18  33  52  72  99 133 170 204 252 310
#
# _framework density 17.309255
#
# number of rings (size 3 to 8) (size 9 to 14) (size 15 to 20)
#    0.000    2.286    1.429    3.429    0.000    2.571 
#    0.000    2.857    0.000    0.857    0.000    1.000 
#    0.000    0.000    0.000    0.000    0.000    0.000 
#
# Total GULP energy -694334.934121 kJ/mol
# GULP energy per Si atom -12398.838109 kJ/mol
# Density = 1.726986 g / cm^3
# Si number density = 17.309255 Si / 1000 Ang^3
#
#
#
# Elastic Constant Matrix: (Units=GPa)
#
#
# Indices 1 2 3 4 5 6 
#
# 1 68.1482 26.9088 46.8934 0.0000 0.0000 0.0000
# 2 26.9088 56.8376 47.2228 0.0000 0.0000 0.0000
# 3 46.8934 47.2228 119.8220 0.0000 0.0000 0.0000
# 4 0.0000 0.0000 0.0000 33.1278 0.0000 0.0000
# 5 0.0000 0.0000 0.0000 0.0000 26.7642 0.0000
# 6 0.0000 0.0000 0.0000 0.0000 0.0000 27.7225
#
#
#
# Elastic Compliance Matrix: (Units=1/GPa)
#
#
# Indices 1 2 3 4 5 6 
#
# 1 0.020860 -0.004599 -0.006351 0.000000 0.000000 0.000000
# 2 -0.004599 0.027174 -0.008909 0.000000 0.000000 0.000000
# 3 -0.006351 -0.008909 0.014343 0.000000 0.000000 0.000000
# 4 0.000000 0.000000 0.000000 0.030186 0.000000 0.000000
# 5 0.000000 0.000000 0.000000 0.000000 0.037363 0.000000
# 6 0.000000 0.000000 0.000000 0.000000 0.000000 0.036072
#
#
# Mechanical properties :
#
#
# Convention : Reuss Voigt Hill
#
# Bulk Modulus (GPa) = 44.13665 54.09531 49.11598
# Shear Modulus (GPa) = 23.44448 25.77508 24.60978
#
# Velocity S-wave (km/s) = 3.68427 3.86306 3.77473
# Velocity P-wave (km/s) = 6.60702 7.15666 6.88733
#
# Compressibility (1/GPa) = 0.02265691
#
# Stress axis : x y z
#
# Youngs Moduli (GPa) = 47.93795 36.80038 69.72205
#
# Poissons Ratio (x) = 0.16925 0.44283
# Poissons Ratio (y) = 0.22047 0.62119
# Poissons Ratio (z) = 0.30447 0.32787
#
# Static dielectric constant tensor:
#      x y z
#    x 3.330390 0.000000 0.000000 
#    y 0.000000 3.042740 0.000000 
#    z 0.000000 0.000000 3.153560 
# 
# 
# High freq. dielectric constant tensor:
#      x y z
#    x 1.673910 0.000000 0.000000 
#    y 0.000000 1.653710 0.000000 
#    z 0.000000 0.000000 1.657640 
# 
# From -- ./inp_files/14585.got.cif
#   From: 2010.06.25/outbox.cif.g09.slc.cpg/sg58_8_cif.got.tgz:14585.got - 2010.06.26 21:38:00.
