data_PCOD8235470
_publ_section_title
;
Structure prediction by ZEFSAII (Michael W. Deem and Ramdas Pophale) SiO2 
 PCOD8235470
Probable space group: P N N M
;
_chemical_formula_sum "Si O2"
_cell_formula_units_Z 64
_cell_length_a 25.316965
_cell_length_b 14.365460
_cell_length_c 9.206109
_cell_angle_alpha 90.000000
_cell_angle_beta 90.000000
_cell_angle_gamma 90.000000
_cell_volume 3348.168383
_symmetry_space_group_name_H-M "P N N M"
_symmetry_group_IT_number 58
_symmetry_cell_setting 'orthorhombic'
loop_
_space_group_symop_operation_xyz
x,y,z
-x,-y,z
1/2+x,1/2-y,1/2-z
1/2-x,1/2+y,1/2-z
-x,-y,-z
x,y,-z
1/2-x,1/2+y,1/2+z
1/2+x,1/2-y,1/2+z
loop_
_atom_site_type_symbol
_atom_site_label
_atom_site_fract_x
_atom_site_fract_y
_atom_site_fract_z
Si Si1 0.281947 0.906018 0.169510
Si Si2 0.024525 0.228903 0.165788
Si Si3 0.185734 0.809086 0.333173
Si Si4 0.165293 0.110254 0.341033
Si Si5 0.233986 0.617414 0.664353
Si Si6 0.566811 0.647910 0.172361
Si Si7 0.579141 0.470753 0.665315
Si Si8 0.385792 0.805417 0.160404
O O1 0.229836 0.866678 0.246333
O O2 0.335966 0.859990 0.230501
O O3 0.288951 0.015743 0.199433
O O4 0.276566 0.881880 0.000000
O O5 0.049785 0.126814 0.173972
O O6 0.063541 0.307774 0.232988
O O7 0.970552 0.227824 0.259140
O O8 0.012612 0.257087 0.000000
O O9 0.193430 0.837279 0.500000
O O10 0.190493 0.697440 0.312512
O O11 0.127000 0.833080 0.279704
O O12 0.173632 0.063706 0.500000
O O13 0.220140 0.143396 0.275334
O O14 0.137972 0.036280 0.233801
O O15 0.128162 0.198204 0.359260
O O16 0.256294 0.619990 0.500000
O O17 0.548672 0.549306 0.242027
O O18 0.558962 0.646103 0.000000
O O19 0.583798 0.505519 0.500000
O O20 0.399893 0.846540 0.000000
#
# Coordination Sequence:
#
# PCOD8235470 Si02
#       8
#     8   8   8   8   8   8   8   8
#     4  10  20  35  56  81 106 139 179 220 265 316
#     4  10  21  35  53  76 102 137 178 220 267 319
#     4  10  22  37  53  78 112 146 178 218 266 320
#     4  10  18  30  49  74 105 137 173 214 259 310
#     4  10  20  34  53  76 107 143 179 218 266 319
#     4  11  22  35  51  74 106 142 180 220 267 320
#     4  10  20  33  50  75 106 139 177 218 264 319
#     4   9  18  33  52  75 102 132 170 216 259 306
#
# _framework density 19.114929
#
# number of rings (size 3 to 8) (size 9 to 14) (size 15 to 20)
#    0.000    2.000    1.250    2.625    0.000    7.500 
#    0.000    0.000    0.000    0.750    0.000    5.250 
#    0.000    0.000    0.000    0.000    0.000    0.000 
#
# Total GULP energy -793419.279972 kJ/mol
# GULP energy per Si atom -12397.176250 kJ/mol
# Density = 1.907142 g / cm^3
# Si number density = 19.114929 Si / 1000 Ang^3
#
#
#
# Elastic Constant Matrix: (Units=GPa)
#
#
# Indices 1 2 3 4 5 6 
#
# 1 70.6106 21.6739 36.8898 0.0000 0.0000 0.0000
# 2 21.6739 57.8960 24.0124 0.0000 0.0000 0.0000
# 3 36.8898 24.0124 100.6161 0.0000 0.0000 0.0000
# 4 0.0000 0.0000 0.0000 16.7661 0.0000 0.0000
# 5 0.0000 0.0000 0.0000 0.0000 31.2609 0.0000
# 6 0.0000 0.0000 0.0000 0.0000 0.0000 22.2205
#
#
#
# Elastic Compliance Matrix: (Units=1/GPa)
#
#
# Indices 1 2 3 4 5 6 
#
# 1 0.018549 -0.004576 -0.005709 0.000000 0.000000 0.000000
# 2 -0.004576 0.020299 -0.003167 0.000000 0.000000 0.000000
# 3 -0.005709 -0.003167 0.012788 0.000000 0.000000 0.000000
# 4 0.000000 0.000000 0.000000 0.059644 0.000000 0.000000
# 5 0.000000 0.000000 0.000000 0.000000 0.031989 0.000000
# 6 0.000000 0.000000 0.000000 0.000000 0.000000 0.045004
#
#
# Mechanical properties :
#
#
# Convention : Reuss Voigt Hill
#
# Bulk Modulus (GPa) = 40.43275 43.80832 42.12053
# Shear Modulus (GPa) = 22.37938 23.81926 23.09932
#
# Velocity S-wave (km/s) = 3.42538 3.53385 3.48004
# Velocity P-wave (km/s) = 6.06981 6.29436 6.18311
#
# Compressibility (1/GPa) = 0.02473243
#
# Stress axis : x y z
#
# Youngs Moduli (GPa) = 53.91011 49.26379 78.20121
#
# Poissons Ratio (x) = 0.22545 0.44643
# Poissons Ratio (y) = 0.24672 0.24762
# Poissons Ratio (z) = 0.30776 0.15599
#
# Static dielectric constant tensor:
#      x y z
#    x 3.520890 0.000000 0.000000 
#    y 0.000000 3.329810 0.000000 
#    z 0.000000 0.000000 3.690550 
# 
# 
# High freq. dielectric constant tensor:
#      x y z
#    x 1.736060 0.000000 0.000000 
#    y 0.000000 1.714230 0.000000 
#    z 0.000000 0.000000 1.749130 
# 
# From -- ./inp_files/6841.got.cif
#   From: 2010.06.25/outbox.cif.g09.slc.cpg/sg58_4_cif.got.tgz:6841.got - 2010.06.26 21:38:00.
