data_PCOD8235812
_publ_section_title
;
Structure prediction by ZEFSAII (Michael W. Deem and Ramdas Pophale) SiO2 
 PCOD8235812
Probable space group: P N N M
;
_chemical_formula_sum "Si O2"
_cell_formula_units_Z 24
_cell_length_a 16.526007
_cell_length_b 9.621978
_cell_length_c 7.657934
_cell_angle_alpha 90.000000
_cell_angle_beta 90.000000
_cell_angle_gamma 90.000000
_cell_volume 1217.710108
_symmetry_space_group_name_H-M "P N N M"
_symmetry_group_IT_number 58
_symmetry_cell_setting 'orthorhombic'
loop_
_space_group_symop_operation_xyz
x,y,z
-x,-y,z
1/2+x,1/2-y,1/2-z
1/2-x,1/2+y,1/2-z
-x,-y,-z
x,y,-z
1/2-x,1/2+y,1/2+z
1/2+x,1/2-y,1/2+z
loop_
_atom_site_type_symbol
_atom_site_label
_atom_site_fract_x
_atom_site_fract_y
_atom_site_fract_z
Si Si1 0.154338 0.184922 0.697588
Si Si2 0.078820 0.593168 0.000000
Si Si3 0.215080 0.467204 0.192837
Si Si4 0.528504 0.343885 0.500000
O O1 0.125749 0.151116 0.500000
O O2 0.200678 0.332834 0.687985
O O3 0.214496 0.065404 0.770109
O O4 0.078515 0.193476 0.826423
O O5 0.132545 0.559023 0.172667
O O6 0.000000 0.500000 0.000000
O O7 0.053259 0.753770 0.000000
O O8 0.240811 0.413385 0.000000
O O9 0.500000 0.500000 0.500000
#
# Coordination Sequence:
#
# PCOD8235812 Si02
#       4
#     8   4   8   4
#     4  11  23  40  63  94 126 163 215 251 309 391
#     4  10  18  44  64  88 124 166 206 257 312 381
#     4   9  21  38  63  89 126 163 206 256 312 377
#     4  12  26  42  68  90 132 170 206 264 328 355
#
# _framework density 19.709123999999999
#
# number of rings (size 3 to 8) (size 9 to 14) (size 15 to 20)
#    1.000    0.667    5.000    0.000    7.000    0.667 
#    0.000    3.333    0.000    0.000    0.000    0.000 
#    0.000    0.000    0.000    0.000    0.000    0.000 
#
# Total GULP energy -297442.527596 kJ/mol
# GULP energy per Si atom -12393.438650 kJ/mol
# Density = 1.966427 g / cm^3
# Si number density = 19.709124 Si / 1000 Ang^3
#
#
#
# Elastic Constant Matrix: (Units=GPa)
#
#
# Indices 1 2 3 4 5 6 
#
# 1 44.7257 12.6491 20.8575 0.0000 0.0000 0.0000
# 2 12.6491 117.9547 20.0784 0.0000 0.0000 0.0000
# 3 20.8575 20.0784 79.6302 0.0000 0.0000 0.0000
# 4 0.0000 0.0000 0.0000 20.5093 0.0000 0.0000
# 5 0.0000 0.0000 0.0000 0.0000 7.1367 0.0000
# 6 0.0000 0.0000 0.0000 0.0000 0.0000 48.0992
#
#
#
# Elastic Compliance Matrix: (Units=1/GPa)
#
#
# Indices 1 2 3 4 5 6 
#
# 1 0.025787 -0.001688 -0.006329 0.000000 0.000000 0.000000
# 2 -0.001688 0.008969 -0.001819 0.000000 0.000000 0.000000
# 3 -0.006329 -0.001819 0.014674 0.000000 0.000000 0.000000
# 4 0.000000 0.000000 0.000000 0.048758 0.000000 0.000000
# 5 0.000000 0.000000 0.000000 0.000000 0.140122 0.000000
# 6 0.000000 0.000000 0.000000 0.000000 0.000000 0.020790
#
#
# Mechanical properties :
#
#
# Convention : Reuss Voigt Hill
#
# Bulk Modulus (GPa) = 33.60429 38.83117 36.21773
# Shear Modulus (GPa) = 17.31948 27.73074 22.52511
#
# Velocity S-wave (km/s) = 2.96760 3.75507 3.38431
# Velocity P-wave (km/s) = 5.36929 6.20851 5.80409
#
# Compressibility (1/GPa) = 0.02975811
#
# Stress axis : x y z
#
# Youngs Moduli (GPa) = 38.77879 111.50106 68.14565
#
# Poissons Ratio (x) = 0.18822 0.43128
# Poissons Ratio (y) = 0.06546 0.12397
# Poissons Ratio (z) = 0.24542 0.20285
#
# Static dielectric constant tensor:
#      x y z
#    x 3.659840 0.000000 0.000000 
#    y 0.000000 3.725150 0.000000 
#    z 0.000000 0.000000 3.256990 
# 
# 
# High freq. dielectric constant tensor:
#      x y z
#    x 1.758280 0.000000 0.000000 
#    y 0.000000 1.778720 0.000000 
#    z 0.000000 0.000000 1.745040 
# 
# From -- ./inp_files/1831.got.cif
#   From: 2010.06.25/outbox.cif.g09.slc.cpg/sg58_1_cif.got.tgz:1831.got - 2010.06.26 21:38:00.
