data_PCOD8235481
_publ_section_title
;
Structure prediction by ZEFSAII (Michael W. Deem and Ramdas Pophale) SiO2 
 PCOD8235481
Probable space group: P N N M
;
_chemical_formula_sum "Si O2"
_cell_formula_units_Z 64
_cell_length_a 30.167336
_cell_length_b 14.252828
_cell_length_c 8.972194
_cell_angle_alpha 90.000000
_cell_angle_beta 90.000000
_cell_angle_gamma 90.000000
_cell_volume 3857.772919
_symmetry_space_group_name_H-M "P N N M"
_symmetry_group_IT_number 58
_symmetry_cell_setting 'orthorhombic'
loop_
_space_group_symop_operation_xyz
x,y,z
-x,-y,z
1/2+x,1/2-y,1/2-z
1/2-x,1/2+y,1/2-z
-x,-y,-z
x,y,-z
1/2-x,1/2+y,1/2+z
1/2+x,1/2-y,1/2+z
loop_
_atom_site_type_symbol
_atom_site_label
_atom_site_fract_x
_atom_site_fract_y
_atom_site_fract_z
Si Si1 0.283764 0.235738 0.823928
Si Si2 0.325823 0.520098 0.833906
Si Si3 0.045592 0.109746 0.676518
Si Si4 0.630661 0.287119 0.827033
Si Si5 0.861670 0.152050 0.825157
Si Si6 0.775658 0.457031 0.167535
Si Si7 0.196055 0.342055 0.825196
Si Si8 0.447200 0.396362 0.823573
O O1 0.327748 0.276782 0.750350
O O2 0.282252 0.126027 0.784100
O O3 0.239895 0.288812 0.761551
O O4 0.287709 0.248106 0.000000
O O5 0.335916 0.627400 0.795907
O O6 0.348307 0.454363 0.712149
O O7 0.273852 0.503383 0.829636
O O8 0.344439 0.495332 0.000000
O O9 0.047022 0.108629 0.500000
O O10 0.081921 0.184473 0.736379
O O11 0.996177 0.137760 0.729094
O O12 0.058621 0.004729 0.727709
O O13 0.650600 0.198033 0.742604
O O14 0.627950 0.261407 0.000000
O O15 0.911168 0.168103 0.760425
O O16 0.861621 0.169478 0.000000
O O17 0.804523 0.547481 0.215106
O O18 0.787699 0.422525 0.000000
O O19 0.195060 0.325739 0.000000
O O20 0.441502 0.384579 0.000000
#
# Coordination Sequence:
#
# PCOD8235481 Si02
#       8
#     8   8   8   8   8   8   8   8
#     4  11  22  36  52  72  98 132 172 208 246 295
#     4  10  18  31  50  70  99 136 169 207 246 286
#     4   8  15  28  50  74  96 130 168 203 244 297
#     4  10  18  30  50  74  99 130 170 204 241 291
#     4  12  23  32  47  73 102 135 172 207 249 297
#     4  10  20  36  51  69  99 133 168 209 248 284
#     4  10  21  34  49  71 101 133 165 202 249 295
#     4   9  16  31  51  70  97 131 168 205 248 297
#
# _framework density 16.589881999999999
#
# number of rings (size 3 to 8) (size 9 to 14) (size 15 to 20)
#    0.000    2.000    3.750    2.250    0.000    2.000 
#    0.000    1.875    0.000    0.000    0.000    0.875 
#    0.000    7.000    0.000    0.000    0.000    0.000 
#
# Total GULP energy -793416.773840 kJ/mol
# GULP energy per Si atom -12397.137091 kJ/mol
# Density = 1.655212 g / cm^3
# Si number density = 16.589882 Si / 1000 Ang^3
#
#
#
# Elastic Constant Matrix: (Units=GPa)
#
#
# Indices 1 2 3 4 5 6 
#
# 1 103.2619 30.7219 32.1225 0.0000 0.0000 0.0000
# 2 30.7219 52.1078 28.0266 0.0000 0.0000 0.0000
# 3 32.1225 28.0266 58.1059 0.0000 0.0000 0.0000
# 4 0.0000 0.0000 0.0000 26.7921 0.0000 0.0000
# 5 0.0000 0.0000 0.0000 0.0000 22.0328 0.0000
# 6 0.0000 0.0000 0.0000 0.0000 0.0000 28.3426
#
#
#
# Elastic Compliance Matrix: (Units=1/GPa)
#
#
# Indices 1 2 3 4 5 6 
#
# 1 0.012579 -0.004964 -0.004560 0.000000 0.000000 0.000000
# 2 -0.004964 0.027873 -0.010700 0.000000 0.000000 0.000000
# 3 -0.004560 -0.010700 0.024892 0.000000 0.000000 0.000000
# 4 0.000000 0.000000 0.000000 0.037324 0.000000 0.000000
# 5 0.000000 0.000000 0.000000 0.000000 0.045387 0.000000
# 6 0.000000 0.000000 0.000000 0.000000 0.000000 0.035283
#
#
# Mechanical properties :
#
#
# Convention : Reuss Voigt Hill
#
# Bulk Modulus (GPa) = 40.16650 43.91305 42.03977
# Shear Modulus (GPa) = 21.54393 23.60714 22.57553
#
# Velocity S-wave (km/s) = 3.60754 3.77634 3.69291
# Velocity P-wave (km/s) = 6.45109 6.74845 6.60144
#
# Compressibility (1/GPa) = 0.02489637
#
# Stress axis : x y z
#
# Youngs Moduli (GPa) = 79.49449 35.87751 40.17409
#
# Poissons Ratio (x) = 0.17810 0.18319
# Poissons Ratio (y) = 0.39462 0.42985
# Poissons Ratio (z) = 0.36249 0.38388
#
# Static dielectric constant tensor:
#      x y z
#    x 3.398400 0.000000 0.000000 
#    y 0.000000 2.923540 0.000000 
#    z 0.000000 0.000000 2.932100 
# 
# 
# High freq. dielectric constant tensor:
#      x y z
#    x 1.638870 0.000000 0.000000 
#    y 0.000000 1.610160 0.000000 
#    z 0.000000 0.000000 1.621800 
# 
# From -- ./inp_files/7167.got.cif
#   From: 2010.06.25/outbox.cif.g09.slc.cpg/sg58_4_cif.got.tgz:7167.got - 2010.06.26 21:38:00.
