data_PCOD8235443
_publ_section_title
;
Structure prediction by ZEFSAII (Michael W. Deem and Ramdas Pophale) SiO2 
 PCOD8235443
Probable space group: P N N M
;
_chemical_formula_sum "Si O2"
_cell_formula_units_Z 56
_cell_length_a 18.905733
_cell_length_b 18.054029
_cell_length_c 8.561548
_cell_angle_alpha 90.000000
_cell_angle_beta 90.000000
_cell_angle_gamma 90.000000
_cell_volume 2922.267390
_symmetry_space_group_name_H-M "P N N M"
_symmetry_group_IT_number 58
_symmetry_cell_setting 'orthorhombic'
loop_
_space_group_symop_operation_xyz
x,y,z
-x,-y,z
1/2+x,1/2-y,1/2-z
1/2-x,1/2+y,1/2-z
-x,-y,-z
x,y,-z
1/2-x,1/2+y,1/2+z
1/2+x,1/2-y,1/2+z
loop_
_atom_site_type_symbol
_atom_site_label
_atom_site_fract_x
_atom_site_fract_y
_atom_site_fract_z
Si Si1 0.215700 0.496605 0.818221
Si Si2 0.924591 0.528860 0.316880
Si Si3 0.351015 0.541844 0.317006
Si Si4 0.891174 0.697221 0.682002
Si Si5 0.394705 0.387416 0.180119
Si Si6 0.037763 0.164141 0.818546
Si Si7 0.759788 0.155516 0.179403
O O1 0.135788 0.519802 0.772183
O O2 0.276565 0.556301 0.774400
O O3 0.234065 0.427799 0.707714
O O4 0.220425 0.476227 0.000000
O O5 0.915617 0.515070 0.500000
O O6 0.917531 0.615210 0.273183
O O7 0.000000 0.500000 0.256419
O O8 0.336975 0.548243 0.500000
O O9 0.385753 0.462361 0.279154
O O10 0.404675 0.604993 0.259563
O O11 0.905351 0.713105 0.500000
O O12 0.934249 0.753577 0.788339
O O13 0.807291 0.707481 0.721181
O O14 0.466920 0.346806 0.220529
O O15 0.330022 0.330139 0.217419
O O16 0.392897 0.409345 0.000000
O O17 0.020569 0.153362 0.000000
O O18 0.781268 0.165197 0.000000
#
# Coordination Sequence:
#
# PCOD8235443 Si02
#       7
#     8   8   8   8   8   8   8
#     4  10  18  29  50  79 105 129 164 210 257 303
#     4   9  18  35  58  80 104 137 175 216 265 317
#     4  10  20  35  53  74 103 140 180 215 256 313
#     4   9  19  35  55  78 103 135 173 215 261 310
#     4  11  21  33  54  81 106 135 175 221 262 304
#     4  11  23  36  52  75 107 145 177 213 262 315
#     4   9  17  33  55  75  99 132 169 207 252 308
#
# _framework density 19.163201000000001
#
# number of rings (size 3 to 8) (size 9 to 14) (size 15 to 20)
#    0.000    2.143    0.000    6.857    0.000    7.143 
#    0.000    1.429    0.000    1.714    0.000    0.000 
#    0.000    0.000    0.000    0.000    0.000    0.000 
#
# Total GULP energy -694234.396053 kJ/mol
# GULP energy per Si atom -12397.042787 kJ/mol
# Density = 1.911958 g / cm^3
# Si number density = 19.163201 Si / 1000 Ang^3
#
#
#
# Elastic Constant Matrix: (Units=GPa)
#
#
# Indices 1 2 3 4 5 6 
#
# 1 174.0936 45.8471 42.7965 0.0000 0.0000 0.0000
# 2 45.8471 51.6950 15.4801 0.0000 0.0000 0.0000
# 3 42.7965 15.4801 55.1605 0.0000 0.0000 0.0000
# 4 0.0000 0.0000 0.0000 21.4800 0.0000 0.0000
# 5 0.0000 0.0000 0.0000 0.0000 29.1969 0.0000
# 6 0.0000 0.0000 0.0000 0.0000 0.0000 20.4162
#
#
#
# Elastic Compliance Matrix: (Units=1/GPa)
#
#
# Indices 1 2 3 4 5 6 
#
# 1 0.008568 -0.006123 -0.004929 0.000000 0.000000 0.000000
# 2 -0.006123 0.025494 -0.002404 0.000000 0.000000 0.000000
# 3 -0.004929 -0.002404 0.022628 0.000000 0.000000 0.000000
# 4 0.000000 0.000000 0.000000 0.046555 0.000000 0.000000
# 5 0.000000 0.000000 0.000000 0.000000 0.034250 0.000000
# 6 0.000000 0.000000 0.000000 0.000000 0.000000 0.048981
#
#
# Mechanical properties :
#
#
# Convention : Reuss Voigt Hill
#
# Bulk Modulus (GPa) = 33.58204 54.35514 43.96859
# Shear Modulus (GPa) = 22.38983 26.00697 24.19840
#
# Velocity S-wave (km/s) = 3.42186 3.68792 3.55738
# Velocity P-wave (km/s) = 5.75973 6.82351 6.31406
#
# Compressibility (1/GPa) = 0.02977782
#
# Stress axis : x y z
#
# Youngs Moduli (GPa) = 116.70996 39.22426 44.19277
#
# Poissons Ratio (x) = 0.24017 0.21784
# Poissons Ratio (y) = 0.71460 0.10625
# Poissons Ratio (z) = 0.57531 0.09430
#
# Static dielectric constant tensor:
#      x y z
#    x 4.102020 0.000000 0.000000 
#    y 0.000000 3.118840 0.000000 
#    z 0.000000 0.000000 3.401290 
# 
# 
# High freq. dielectric constant tensor:
#      x y z
#    x 1.767140 0.000000 0.000000 
#    y 0.000000 1.696240 0.000000 
#    z 0.000000 0.000000 1.747970 
# 
# From -- ./inp_files/8106.got.cif
#   From: 2010.06.25/outbox.cif.g09.slc.cpg/sg58_5_cif.got.tgz:8106.got - 2010.06.26 21:38:00.
