data_PCOD8235404
_publ_section_title
;
Structure prediction by ZEFSAII (Michael W. Deem and Ramdas Pophale) SiO2 
 PCOD8235404
Probable space group: P N N M
;
_chemical_formula_sum "Si O2"
_cell_formula_units_Z 56
_cell_length_a 13.748026
_cell_length_b 29.094162
_cell_length_c 8.857201
_cell_angle_alpha 90.000000
_cell_angle_beta 90.000000
_cell_angle_gamma 90.000000
_cell_volume 3542.767875
_symmetry_space_group_name_H-M "P N N M"
_symmetry_group_IT_number 58
_symmetry_cell_setting 'orthorhombic'
loop_
_space_group_symop_operation_xyz
x,y,z
-x,-y,z
1/2+x,1/2-y,1/2-z
1/2-x,1/2+y,1/2-z
-x,-y,-z
x,y,-z
1/2-x,1/2+y,1/2+z
1/2+x,1/2-y,1/2+z
loop_
_atom_site_type_symbol
_atom_site_label
_atom_site_fract_x
_atom_site_fract_y
_atom_site_fract_z
Si Si1 0.694414 0.683523 0.822975
Si Si2 0.113493 0.268403 0.175971
Si Si3 0.725548 0.319526 0.679219
Si Si4 0.115345 0.997144 0.330368
Si Si5 0.398094 0.228374 0.679366
Si Si6 0.107628 0.904645 0.176798
Si Si7 0.882863 0.910686 0.176761
O O1 0.809208 0.691248 0.789252
O O2 0.632081 0.721141 0.734233
O O3 0.667686 0.633259 0.766659
O O4 0.672446 0.688765 0.000000
O O5 0.153924 0.220208 0.242435
O O6 0.007526 0.280773 0.241646
O O7 0.099887 0.260515 0.000000
O O8 0.735784 0.316322 0.500000
O O9 0.831558 0.311830 0.751144
O O10 0.683600 0.368459 0.730805
O O11 0.155155 0.991037 0.500000
O O12 0.157341 0.044234 0.261150
O O13 0.148724 0.954024 0.229412
O O14 0.000000 0.000000 0.327907
O O15 0.390607 0.226423 0.500000
O O16 0.994229 0.899434 0.219067
O O17 0.125733 0.898678 0.000000
O O18 0.874003 0.920035 0.000000
#
# Coordination Sequence:
#
# PCOD8235404 Si02
#       7
#     8   8   8   8   8   8   8
#     4  10  19  31  45  63  87 116 147 178 216 257
#     4   8  16  30  45  60  85 118 146 174 212 258
#     4   9  17  30  45  63  87 116 147 177 214 255
#     4   9  17  28  42  63  90 116 144 179 215 252
#     4  10  18  30  46  64  86 114 148 182 214 253
#     4  10  18  29  45  65  88 116 148 178 212 257
#     4   9  17  29  45  63  89 122 148 173 212 261
#
# _framework density 15.806851
#
# number of rings (size 3 to 8) (size 9 to 14) (size 15 to 20)
#    0.000    2.714    0.000    3.429    0.000    5.143 
#    0.000   10.000    0.000    0.000    0.000    1.000 
#    0.000    8.000    0.000    0.000    0.000    0.000 
#
# Total GULP energy -694270.547281 kJ/mol
# GULP energy per Si atom -12397.688344 kJ/mol
# Density = 1.577087 g / cm^3
# Si number density = 15.806851 Si / 1000 Ang^3
#
#
#
# Elastic Constant Matrix: (Units=GPa)
#
#
# Indices 1 2 3 4 5 6 
#
# 1 95.9795 45.6993 26.7646 0.0000 0.0000 0.0000
# 2 45.6993 109.9867 29.4379 0.0000 0.0000 0.0000
# 3 26.7646 29.4379 47.2881 0.0000 0.0000 0.0000
# 4 0.0000 0.0000 0.0000 28.8268 0.0000 0.0000
# 5 0.0000 0.0000 0.0000 0.0000 19.1711 0.0000
# 6 0.0000 0.0000 0.0000 0.0000 0.0000 22.4619
#
#
#
# Elastic Compliance Matrix: (Units=1/GPa)
#
#
# Indices 1 2 3 4 5 6 
#
# 1 0.013960 -0.004423 -0.005148 0.000000 0.000000 0.000000
# 2 -0.004423 0.012311 -0.005161 0.000000 0.000000 0.000000
# 3 -0.005148 -0.005161 0.027273 0.000000 0.000000 0.000000
# 4 0.000000 0.000000 0.000000 0.034690 0.000000 0.000000
# 5 0.000000 0.000000 0.000000 0.000000 0.052162 0.000000
# 6 0.000000 0.000000 0.000000 0.000000 0.000000 0.044520
#
#
# Mechanical properties :
#
#
# Convention : Reuss Voigt Hill
#
# Bulk Modulus (GPa) = 41.52539 50.78423 46.15481
# Shear Modulus (GPa) = 22.48139 24.18212 23.33175
#
# Velocity S-wave (km/s) = 3.77537 3.91557 3.84611
# Velocity P-wave (km/s) = 6.73291 7.25534 6.99900
#
# Compressibility (1/GPa) = 0.02408165
#
# Stress axis : x y z
#
# Youngs Moduli (GPa) = 71.63199 81.22946 36.66572
#
# Poissons Ratio (x) = 0.35924 0.18876
# Poissons Ratio (y) = 0.31679 0.18922
# Poissons Ratio (z) = 0.36878 0.41920
#
# Static dielectric constant tensor:
#      x y z
#    x 2.984900 0.000000 0.000000 
#    y 0.000000 3.053920 0.000000 
#    z 0.000000 0.000000 2.976720 
# 
# 
# High freq. dielectric constant tensor:
#      x y z
#    x 1.578070 0.000000 0.000000 
#    y 0.000000 1.603610 0.000000 
#    z 0.000000 0.000000 1.607310 
# 
# From -- ./inp_files/7123.got.cif
#   From: 2010.06.25/outbox.cif.g09.slc.cpg/sg58_4_cif.got.tgz:7123.got - 2010.06.26 21:38:00.
