data_PCOD8235467
_publ_section_title
;
Structure prediction by ZEFSAII (Michael W. Deem and Ramdas Pophale) SiO2 
 PCOD8235467
Probable space group: P N N M
;
_chemical_formula_sum "Si O2"
_cell_formula_units_Z 56
_cell_length_a 17.531620
_cell_length_b 18.785753
_cell_length_c 9.806866
_cell_angle_alpha 90.000000
_cell_angle_beta 90.000000
_cell_angle_gamma 90.000000
_cell_volume 3229.839174
_symmetry_space_group_name_H-M "P N N M"
_symmetry_group_IT_number 58
_symmetry_cell_setting 'orthorhombic'
loop_
_space_group_symop_operation_xyz
x,y,z
-x,-y,z
1/2+x,1/2-y,1/2-z
1/2-x,1/2+y,1/2-z
-x,-y,-z
x,y,-z
1/2-x,1/2+y,1/2+z
1/2+x,1/2-y,1/2+z
loop_
_atom_site_type_symbol
_atom_site_label
_atom_site_fract_x
_atom_site_fract_y
_atom_site_fract_z
Si Si1 0.148702 0.674677 0.347621
Si Si2 0.581003 0.713958 0.343264
Si Si3 0.599394 0.430922 0.149211
Si Si4 0.174217 0.178743 0.846249
Si Si5 0.068926 0.300728 0.156347
Si Si6 0.920423 0.086870 0.349409
Si Si7 0.006075 0.581907 0.657715
O O1 0.131021 0.705116 0.500000
O O2 0.134854 0.729525 0.228150
O O3 0.237519 0.658598 0.334064
O O4 0.094395 0.605913 0.323167
O O5 0.604569 0.707164 0.500000
O O6 0.494006 0.738770 0.324153
O O7 0.600314 0.640146 0.270821
O O8 0.632222 0.379351 0.259648
O O9 0.509594 0.425048 0.148191
O O10 0.622078 0.512503 0.182906
O O11 0.631801 0.410061 0.000000
O O12 0.148697 0.260136 0.804140
O O13 0.145166 0.169102 0.000000
O O14 0.051036 0.367856 0.254243
O O15 0.069619 0.328804 0.000000
O O16 0.894783 0.115038 0.500000
O O17 0.980519 0.588438 0.500000
O O18 0.000000 0.500000 0.707517
#
# Coordination Sequence:
#
# PCOD8235467 Si02
#       7
#     8   8   8   8   8   8   8
#     4   9  19  34  52  71  99 136 166 202 258 311
#     4  10  18  30  49  73  98 124 162 210 246 287
#     4   9  18  30  47  71  99 132 167 201 239 293
#     4  10  19  33  50  72 102 134 166 205 255 308
#     4   9  18  31  49  74  99 125 160 202 251 302
#     4   9  17  30  47  70  99 130 164 200 243 293
#     4   9  18  34  55  77  97 126 172 216 250 296
#
# _framework density 17.338324
#
# number of rings (size 3 to 8) (size 9 to 14) (size 15 to 20)
#    0.000    2.714    1.429    1.286    0.000    2.571 
#    0.000    2.857    0.000    3.429    0.000    0.000 
#    0.000    0.000    0.000    0.000    0.000    0.000 
#
# Total GULP energy -693860.657232 kJ/mol
# GULP energy per Si atom -12390.368879 kJ/mol
# Density = 1.729886 g / cm^3
# Si number density = 17.338324 Si / 1000 Ang^3
#
#
#
# Elastic Constant Matrix: (Units=GPa)
#
#
# Indices 1 2 3 4 5 6 
#
# 1 54.6798 38.8605 30.2508 0.0000 0.0000 0.0000
# 2 38.8605 130.8610 78.8886 0.0000 0.0000 0.0000
# 3 30.2508 78.8886 111.4765 0.0000 0.0000 0.0000
# 4 0.0000 0.0000 0.0000 26.7297 0.0000 0.0000
# 5 0.0000 0.0000 0.0000 0.0000 15.1801 0.0000
# 6 0.0000 0.0000 0.0000 0.0000 0.0000 14.0886
#
#
#
# Elastic Compliance Matrix: (Units=1/GPa)
#
#
# Indices 1 2 3 4 5 6 
#
# 1 0.023579 -0.005484 -0.002517 0.000000 0.000000 0.000000
# 2 -0.005484 0.014603 -0.008846 0.000000 0.000000 0.000000
# 3 -0.002517 -0.008846 0.015914 0.000000 0.000000 0.000000
# 4 0.000000 0.000000 0.000000 0.037412 0.000000 0.000000
# 5 0.000000 0.000000 0.000000 0.000000 0.065876 0.000000
# 6 0.000000 0.000000 0.000000 0.000000 0.000000 0.070979
#
#
# Mechanical properties :
#
#
# Convention : Reuss Voigt Hill
#
# Bulk Modulus (GPa) = 49.01923 65.89080 57.45502
# Shear Modulus (GPa) = 18.59727 21.13418 19.86573
#
# Velocity S-wave (km/s) = 3.27863 3.49510 3.38859
# Velocity P-wave (km/s) = 6.53193 7.37382 6.96560
#
# Compressibility (1/GPa) = 0.02040016
#
# Stress axis : x y z
#
# Youngs Moduli (GPa) = 42.41129 68.47917 62.83965
#
# Poissons Ratio (x) = 0.37557 0.15818
# Poissons Ratio (y) = 0.23260 0.55587
# Poissons Ratio (z) = 0.10676 0.60575
#
# Static dielectric constant tensor:
#      x y z
#    x 3.380660 0.000000 0.000000 
#    y 0.000000 5.877960 0.000000 
#    z 0.000000 0.000000 3.694570 
# 
# 
# High freq. dielectric constant tensor:
#      x y z
#    x 1.640800 0.000000 0.000000 
#    y 0.000000 1.663600 0.000000 
#    z 0.000000 0.000000 1.678270 
# 
# From -- ./inp_files/9171.got.cif
#   From: 2010.06.25/outbox.cif.g09.slc.cpg/sg58_5_cif.got.tgz:9171.got - 2010.06.26 21:38:00.
