data_PCOD8235637
_publ_section_title
;
Structure prediction by ZEFSAII (Michael W. Deem and Ramdas Pophale) SiO2 
 PCOD8235637
Probable space group: P N N M
;
_chemical_formula_sum "Si O2"
_cell_formula_units_Z 48
_cell_length_a 7.939956
_cell_length_b 8.296223
_cell_length_c 31.413047
_cell_angle_alpha 90.000000
_cell_angle_beta 90.000000
_cell_angle_gamma 90.000000
_cell_volume 2069.229099
_symmetry_space_group_name_H-M "P N N M"
_symmetry_group_IT_number 58
_symmetry_cell_setting 'orthorhombic'
loop_
_space_group_symop_operation_xyz
x,y,z
-x,-y,z
1/2+x,1/2-y,1/2-z
1/2-x,1/2+y,1/2-z
-x,-y,-z
x,y,-z
1/2-x,1/2+y,1/2+z
1/2+x,1/2-y,1/2+z
loop_
_atom_site_type_symbol
_atom_site_label
_atom_site_fract_x
_atom_site_fract_y
_atom_site_fract_z
Si Si1 0.296580 0.282878 0.687246
Si Si2 0.549425 0.665201 0.825990
Si Si3 0.823335 0.810165 0.451478
Si Si4 0.833160 0.161029 0.417914
Si Si5 0.819146 0.421241 0.731838
Si Si6 0.981614 0.306544 0.105894
O O1 0.115360 0.275020 0.663576
O O2 0.317055 0.451565 0.712972
O O3 0.286135 0.133314 0.720085
O O4 0.448528 0.262235 0.653492
O O5 0.500000 0.500000 0.801529
O O6 0.635888 0.606726 0.869456
O O7 0.684378 0.762064 0.797774
O O8 0.794095 0.758898 0.500000
O O9 0.669909 0.741462 0.423508
O O10 0.005585 0.739139 0.435731
O O11 0.818831 0.003820 0.447419
O O12 0.656347 0.260503 0.415421
O O13 0.000000 0.500000 0.730256
O O14 0.000000 0.500000 0.107497
#
# Coordination Sequence:
#
# PCOD8235637 Si02
#       6
#     8   8   8   8   8   8
#     4  11  21  40  55  83 124 164 218 266 328 383
#     4  11  19  36  59  82 119 162 206 253 325 378
#     4  10  19  33  54  89 127 160 202 259 331 394
#     4  10  18  32  53  85 119 161 197 255 319 381
#     4  10  24  37  60  90 121 173 220 277 324 391
#     4  10  20  33  58  84 121 167 206 263 328 392
#
# _framework density 23.197044999999999
#
# number of rings (size 3 to 8) (size 9 to 14) (size 15 to 20)
#    0.000    1.667    3.333    3.500    0.000    6.333 
#    0.000    4.167    0.000    0.000    0.000    3.500 
#    0.000   13.333    0.000    0.000    0.000    0.000 
#
# Total GULP energy -594759.777006 kJ/mol
# GULP energy per Si atom -12390.828688 kJ/mol
# Density = 2.314425 g / cm^3
# Si number density = 23.197045 Si / 1000 Ang^3
#
#
#
# Elastic Constant Matrix: (Units=GPa)
#
#
# Indices 1 2 3 4 5 6 
#
# 1 161.8009 20.5116 59.9970 0.0000 0.0000 0.0000
# 2 20.5116 64.7462 34.0573 0.0000 0.0000 0.0000
# 3 59.9970 34.0573 143.2990 0.0000 0.0000 0.0000
# 4 0.0000 0.0000 0.0000 6.4084 0.0000 0.0000
# 5 0.0000 0.0000 0.0000 0.0000 24.7234 0.0000
# 6 0.0000 0.0000 0.0000 0.0000 0.0000 14.9997
#
#
#
# Elastic Compliance Matrix: (Units=1/GPa)
#
#
# Indices 1 2 3 4 5 6 
#
# 1 0.007353 -0.000812 -0.002886 0.000000 0.000000 0.000000
# 2 -0.000812 0.017741 -0.003877 0.000000 0.000000 0.000000
# 3 -0.002886 -0.003877 0.009108 0.000000 0.000000 0.000000
# 4 0.000000 0.000000 0.000000 0.156046 0.000000 0.000000
# 5 0.000000 0.000000 0.000000 0.000000 0.040448 0.000000
# 6 0.000000 0.000000 0.000000 0.000000 0.000000 0.066668
#
#
# Mechanical properties :
#
#
# Convention : Reuss Voigt Hill
#
# Bulk Modulus (GPa) = 52.48126 66.55310 59.51718
# Shear Modulus (GPa) = 15.68069 26.24498 20.96284
#
# Velocity S-wave (km/s) = 2.60278 3.36727 3.00940
# Velocity P-wave (km/s) = 5.63079 6.62349 6.14721
#
# Compressibility (1/GPa) = 0.01905442
#
# Stress axis : x y z
#
# Youngs Moduli (GPa) = 135.99109 56.36592 109.79305
#
# Poissons Ratio (x) = 0.04574 0.31685
# Poissons Ratio (y) = 0.11036 0.42563
# Poissons Ratio (z) = 0.39245 0.21851
#
# Static dielectric constant tensor:
#      x y z
#    x 4.718510 0.000000 0.000000 
#    y 0.000000 3.794760 0.000000 
#    z 0.000000 0.000000 3.983200 
# 
# 
# High freq. dielectric constant tensor:
#      x y z
#    x 1.932720 0.000000 0.000000 
#    y 0.000000 1.856700 0.000000 
#    z 0.000000 0.000000 1.907590 
# 
# From -- ./inp_files/34589.got.cif
#   From: 2010.06.25/outbox.cif.g09.slc.cpg/sg58_18_cif.got.tgz:34589.got - 2010.06.26 21:38:00.
