data_PCOD8235324
_publ_section_title
;
Structure prediction by ZEFSAII (Michael W. Deem and Ramdas Pophale) SiO2 
 PCOD8235324
Probable space group: P N N M
;
_chemical_formula_sum "Si O2"
_cell_formula_units_Z 56
_cell_length_a 13.781257
_cell_length_b 29.201963
_cell_length_c 9.074849
_cell_angle_alpha 90.000000
_cell_angle_beta 90.000000
_cell_angle_gamma 90.000000
_cell_volume 3652.080026
_symmetry_space_group_name_H-M "P N N M"
_symmetry_group_IT_number 58
_symmetry_cell_setting 'orthorhombic'
loop_
_space_group_symop_operation_xyz
x,y,z
-x,-y,z
1/2+x,1/2-y,1/2-z
1/2-x,1/2+y,1/2-z
-x,-y,-z
x,y,-z
1/2-x,1/2+y,1/2+z
1/2+x,1/2-y,1/2+z
loop_
_atom_site_type_symbol
_atom_site_label
_atom_site_fract_x
_atom_site_fract_y
_atom_site_fract_z
Si Si1 0.806339 0.313299 0.670733
Si Si2 0.887937 0.593673 0.826282
Si Si3 0.399608 0.271182 0.324616
Si Si4 0.090959 0.593892 0.671523
Si Si5 0.385437 0.733015 0.671198
Si Si6 0.385255 0.005924 0.662605
Si Si7 0.232317 0.319470 0.174346
O O1 0.827505 0.301018 0.500000
O O2 0.866682 0.278950 0.772327
O O3 0.835517 0.365036 0.707953
O O4 0.691355 0.307613 0.704456
O O5 0.845109 0.543513 0.781897
O O6 0.808401 0.631026 0.779338
O O7 0.988914 0.604613 0.747341
O O8 0.909630 0.595323 0.000000
O O9 0.391606 0.274160 0.500000
O O10 0.509127 0.278713 0.262639
O O11 0.335039 0.311487 0.253862
O O12 0.071511 0.588135 0.500000
O O13 0.142226 0.547350 0.729102
O O14 0.402105 0.740305 0.500000
O O15 0.342673 0.780891 0.733154
O O16 0.344454 0.017572 0.500000
O O17 0.500000 0.000000 0.656076
O O18 0.248413 0.315299 0.000000
#
# Coordination Sequence:
#
# PCOD8235324 Si02
#       7
#     8   8   8   8   8   8   8
#     4   9  18  31  43  58  83 114 141 163 200 250
#     4   9  17  29  44  60  83 117 145 163 198 255
#     4  10  18  28  44  64  82 104 138 175 204 234
#     4  10  18  26  41  64  87 110 138 176 212 238
#     4   8  15  28  43  57  79 110 136 161 198 244
#     4   8  15  27  41  58  82 112 142 167 199 251
#     4   9  17  30  45  60  82 112 140 165 202 248
#
# _framework density 15.333728000000001
#
# number of rings (size 3 to 8) (size 9 to 14) (size 15 to 20)
#    0.000    3.000    0.000    3.429    0.000    5.429 
#    0.000    7.143    0.000    0.000    0.000    1.000 
#    0.000    8.000    0.000    0.000    0.000    0.000 
#
# Total GULP energy -694056.575642 kJ/mol
# GULP energy per Si atom -12393.867422 kJ/mol
# Density = 1.529883 g / cm^3
# Si number density = 15.333728 Si / 1000 Ang^3
#
#
#
# Elastic Constant Matrix: (Units=GPa)
#
#
# Indices 1 2 3 4 5 6 
#
# 1 104.1523 56.1004 34.3704 0.0000 0.0000 0.0000
# 2 56.1004 126.7763 40.0206 0.0000 0.0000 0.0000
# 3 34.3704 40.0206 49.3117 0.0000 0.0000 0.0000
# 4 0.0000 0.0000 0.0000 21.3817 0.0000 0.0000
# 5 0.0000 0.0000 0.0000 0.0000 16.5440 0.0000
# 6 0.0000 0.0000 0.0000 0.0000 0.0000 23.3757
#
#
#
# Elastic Compliance Matrix: (Units=1/GPa)
#
#
# Indices 1 2 3 4 5 6 
#
# 1 0.013936 -0.004168 -0.006330 0.000000 0.000000 0.000000
# 2 -0.004168 0.011852 -0.006713 0.000000 0.000000 0.000000
# 3 -0.006330 -0.006713 0.030140 0.000000 0.000000 0.000000
# 4 0.000000 0.000000 0.000000 0.046769 0.000000 0.000000
# 5 0.000000 0.000000 0.000000 0.000000 0.060445 0.000000
# 6 0.000000 0.000000 0.000000 0.000000 0.000000 0.042779
#
#
# Mechanical properties :
#
#
# Convention : Reuss Voigt Hill
#
# Bulk Modulus (GPa) = 46.50437 60.13589 53.32013
# Shear Modulus (GPa) = 20.20108 22.24355 21.22231
#
# Velocity S-wave (km/s) = 3.63358 3.81284 3.72429
# Velocity P-wave (km/s) = 6.92805 7.66074 7.30359
#
# Compressibility (1/GPa) = 0.02150336
#
# Stress axis : x y z
#
# Youngs Moduli (GPa) = 71.75899 84.37582 33.17882
#
# Poissons Ratio (x) = 0.35171 0.21003
# Poissons Ratio (y) = 0.29912 0.22274
# Poissons Ratio (z) = 0.45424 0.56644
#
# Static dielectric constant tensor:
#      x y z
#    x 2.905320 0.000000 0.000000 
#    y 0.000000 3.221620 0.000000 
#    z 0.000000 0.000000 2.861260 
# 
# 
# High freq. dielectric constant tensor:
#      x y z
#    x 1.558850 0.000000 0.000000 
#    y 0.000000 1.586630 0.000000 
#    z 0.000000 0.000000 1.580870 
# 
# From -- ./inp_files/7128.got.cif
#   From: 2010.06.25/outbox.cif.g09.slc.cpg/sg58_4_cif.got.tgz:7128.got - 2010.06.26 21:38:00.
