data_PCOD8235394
_publ_section_title
;
Structure prediction by ZEFSAII (Michael W. Deem and Ramdas Pophale) SiO2 
 PCOD8235394
Probable space group: P N N M
;
_chemical_formula_sum "Si O2"
_cell_formula_units_Z 52
_cell_length_a 19.420340
_cell_length_b 14.342836
_cell_length_c 10.117385
_cell_angle_alpha 90.000000
_cell_angle_beta 90.000000
_cell_angle_gamma 90.000000
_cell_volume 2818.124258
_symmetry_space_group_name_H-M "P N N M"
_symmetry_group_IT_number 58
_symmetry_cell_setting 'orthorhombic'
loop_
_space_group_symop_operation_xyz
x,y,z
-x,-y,z
1/2+x,1/2-y,1/2-z
1/2-x,1/2+y,1/2-z
-x,-y,-z
x,y,-z
1/2-x,1/2+y,1/2+z
1/2+x,1/2-y,1/2+z
loop_
_atom_site_type_symbol
_atom_site_label
_atom_site_fract_x
_atom_site_fract_y
_atom_site_fract_z
Si Si1 0.957993 0.197538 0.644104
Si Si2 0.304021 0.271837 0.845658
Si Si3 0.125677 0.065925 0.849694
Si Si4 0.000000 0.000000 0.300874
Si Si5 0.682164 0.096275 0.345248
Si Si6 0.437085 0.762693 0.350839
Si Si7 0.719777 0.937959 0.841986
O O1 0.960041 0.247543 0.500000
O O2 0.879016 0.187715 0.691923
O O3 0.999117 0.260072 0.749461
O O4 0.992791 0.096012 0.619238
O O5 0.244008 0.338500 0.788479
O O6 0.299223 0.165994 0.794416
O O7 0.290024 0.269347 0.000000
O O8 0.112250 0.174938 0.825896
O O9 0.201636 0.042868 0.798665
O O10 0.120581 0.038420 0.000000
O O11 0.069491 0.000832 0.782983
O O12 0.693923 0.068697 0.500000
O O13 0.608744 0.146402 0.328490
O O14 0.675340 0.007294 0.249001
O O15 0.467100 0.760161 0.500000
O O16 0.707188 0.952838 0.000000
#
# Coordination Sequence:
#
# PCOD8235394 Si02
#       7
#     8   8   8   4   8   8   8
#     4  10  20  33  51  76 107 139 171 215 268 319
#     4   9  18  35  56  76 106 145 178 211 265 329
#     4   9  16  29  49  74 102 135 171 208 254 318
#     4  10  18  28  48  80 109 134 167 218 271 326
#     4  10  19  35  57  78 103 139 180 219 267 320
#     4   9  18  34  54  73  99 138 174 209 259 314
#     4  10  19  33  54  78 103 136 180 222 259 313
#
# _framework density 18.451989000000001
#
# number of rings (size 3 to 8) (size 9 to 14) (size 15 to 20)
#    0.000    2.462    1.538    1.385    0.000    1.231 
#    0.000    6.154    0.000    4.615    0.000    0.000 
#    0.000    0.000    0.000    0.000    0.000    0.000 
#
# Total GULP energy -644439.184072 kJ/mol
# GULP energy per Si atom -12393.061232 kJ/mol
# Density = 1.840999 g / cm^3
# Si number density = 18.451989 Si / 1000 Ang^3
#
#
#
# Elastic Constant Matrix: (Units=GPa)
#
#
# Indices 1 2 3 4 5 6 
#
# 1 67.8657 13.2911 25.9724 0.0000 0.0000 0.0000
# 2 13.2911 77.5780 25.5007 0.0000 0.0000 0.0000
# 3 25.9724 25.5007 55.3599 0.0000 0.0000 0.0000
# 4 0.0000 0.0000 0.0000 18.5190 0.0000 0.0000
# 5 0.0000 0.0000 0.0000 0.0000 23.1255 0.0000
# 6 0.0000 0.0000 0.0000 0.0000 0.0000 25.7090
#
#
#
# Elastic Compliance Matrix: (Units=1/GPa)
#
#
# Indices 1 2 3 4 5 6 
#
# 1 0.017968 -0.000362 -0.008263 0.000000 0.000000 0.000000
# 2 -0.000362 0.015198 -0.006831 0.000000 0.000000 0.000000
# 3 -0.008263 -0.006831 0.025087 0.000000 0.000000 0.000000
# 4 0.000000 0.000000 0.000000 0.053999 0.000000 0.000000
# 5 0.000000 0.000000 0.000000 0.000000 0.043242 0.000000
# 6 0.000000 0.000000 0.000000 0.000000 0.000000 0.038897
#
#
# Mechanical properties :
#
#
# Convention : Reuss Voigt Hill
#
# Bulk Modulus (GPa) = 36.57546 36.70355 36.63951
# Shear Modulus (GPa) = 21.32963 22.53999 21.93481
#
# Velocity S-wave (km/s) = 3.40362 3.49886 3.45157
# Velocity P-wave (km/s) = 5.94232 6.02140 5.98199
#
# Compressibility (1/GPa) = 0.02734074
#
# Stress axis : x y z
#
# Youngs Moduli (GPa) = 55.65380 65.79990 39.86179
#
# Poissons Ratio (x) = 0.02384 0.32938
# Poissons Ratio (y) = 0.02016 0.27228
# Poissons Ratio (z) = 0.45987 0.44945
#
# Static dielectric constant tensor:
#      x y z
#    x 3.489200 0.000000 0.000000 
#    y 0.000000 3.307630 0.000000 
#    z 0.000000 0.000000 3.192250 
# 
# 
# High freq. dielectric constant tensor:
#      x y z
#    x 1.714740 0.000000 0.000000 
#    y 0.000000 1.703720 0.000000 
#    z 0.000000 0.000000 1.696320 
# 
# From -- ./inp_files/6134.got.cif
#   From: 2010.06.25/outbox.cif.g09.slc.cpg/sg58_4_cif.got.tgz:6134.got - 2010.06.26 21:38:00.
