data_PCOD8235063
_publ_section_title
;
Structure prediction by ZEFSAII (Michael W. Deem and Ramdas Pophale) SiO2 
 PCOD8235063
Probable space group: P B C M
;
_chemical_formula_sum "Si O2"
_cell_formula_units_Z 32
_cell_length_a 10.908315
_cell_length_b 12.977958
_cell_length_c 9.829188
_cell_angle_alpha 90.000000
_cell_angle_beta 90.000000
_cell_angle_gamma 90.000000
_cell_volume 1391.495085
_symmetry_space_group_name_H-M "P B C M"
_symmetry_group_IT_number 57
_symmetry_cell_setting 'orthorhombic'
loop_
_space_group_symop_operation_xyz
x,y,z
-x,-y,1/2+z
x,1/2-y,-z
-x,1/2+y,1/2-z
-x,-y,-z
x,y,1/2-z
-x,1/2+y,z
x,1/2-y,1/2+z
loop_
_atom_site_type_symbol
_atom_site_label
_atom_site_fract_x
_atom_site_fract_y
_atom_site_fract_z
Si Si1 0.103982 0.379535 0.898242
Si Si2 0.436269 0.363564 0.250000
Si Si3 0.718524 0.071301 0.250000
Si Si4 0.319756 0.250000 0.500000
Si Si5 0.139535 0.897795 0.474278
Si Si6 0.699805 0.198631 0.750000
O O1 0.077151 0.332234 0.750000
O O2 0.234495 0.341721 0.949670
O O3 0.114719 0.502270 0.883704
O O4 0.992611 0.345450 0.996596
O O5 0.378899 0.477946 0.250000
O O6 0.403450 0.297306 0.382410
O O7 0.583464 0.377725 0.250000
O O8 0.801408 0.064118 0.384121
O O9 0.652148 0.183068 0.250000
O O10 0.220481 0.817892 0.387064
#
# Coordination Sequence:
#
# PCOD8235063 Si02
#       6
#     8   4   4   4   8   4
#     4  11  23  43  74 111 150 184 237 307 370 444
#     4  12  30  50  73 107 150 198 255 299 362 456
#     4  12  26  48  70 110 144 188 254 304 363 442
#     4  12  26  46  74 108 144 200 238 298 378 446
#     4  11  25  45  73 109 146 191 243 304 375 429
#     4  12  30  48  73 107 150 202 247 307 367 436
#
# _framework density 22.996846000000001
#
# number of rings (size 3 to 8) (size 9 to 14) (size 15 to 20)
#    0.000    0.500    6.250    0.750    7.000    4.000 
#    0.000    0.000    0.000    0.000    0.000    0.000 
#    0.000    0.000    0.000    0.000    0.000    0.000 
#
# Total GULP energy -396844.104732 kJ/mol
# GULP energy per Si atom -12401.378273 kJ/mol
# Density = 2.294450 g / cm^3
# Si number density = 22.996846 Si / 1000 Ang^3
#
#
#
# Elastic Constant Matrix: (Units=GPa)
#
#
# Indices 1 2 3 4 5 6 
#
# 1 119.8732 27.7788 50.2046 0.0000 0.0000 0.0000
# 2 27.7788 102.9881 32.2960 0.0000 0.0000 0.0000
# 3 50.2046 32.2960 158.4468 0.0000 0.0000 0.0000
# 4 0.0000 0.0000 0.0000 32.0699 0.0000 0.0000
# 5 0.0000 0.0000 0.0000 0.0000 204.9930 0.0000
# 6 0.0000 0.0000 0.0000 0.0000 0.0000 22.8670
#
#
#
# Elastic Compliance Matrix: (Units=1/GPa)
#
#
# Indices 1 2 3 4 5 6 
#
# 1 0.009923 -0.001806 -0.002776 0.000000 0.000000 0.000000
# 2 -0.001806 0.010702 -0.001609 0.000000 0.000000 0.000000
# 3 -0.002776 -0.001609 0.007519 0.000000 0.000000 0.000000
# 4 0.000000 0.000000 0.000000 0.031182 0.000000 0.000000
# 5 0.000000 0.000000 0.000000 0.000000 0.004878 0.000000
# 6 0.000000 0.000000 0.000000 0.000000 0.000000 0.043731
#
#
# Mechanical properties :
#
#
# Convention : Reuss Voigt Hill
#
# Bulk Modulus (GPa) = 63.44625 66.87410 65.16018
# Shear Modulus (GPa) = 39.81803 70.05457 54.93630
#
# Velocity S-wave (km/s) = 4.16559 5.52529 4.89290
# Velocity P-wave (km/s) = 7.12637 8.35751 7.76637
#
# Compressibility (1/GPa) = 0.01576137
#
# Stress axis : x y z
#
# Youngs Moduli (GPa) = 100.77237 93.44419 132.99875
#
# Poissons Ratio (x) = 0.16876 0.36922
# Poissons Ratio (y) = 0.18200 0.21400
# Poissons Ratio (z) = 0.27976 0.15035
#
# Static dielectric constant tensor:
#      x y z
#    x 3.967030 0.000000 0.000000 
#    y 0.000000 4.053510 0.000000 
#    z 0.000000 0.000000 4.478720 
# 
# 
# High freq. dielectric constant tensor:
#      x y z
#    x 1.900550 0.000000 0.000000 
#    y 0.000000 1.916890 0.000000 
#    z 0.000000 0.000000 1.925380 
# 
# From -- ./inp_files/2542.got.cif
#   From: 2010.03.12/outbox.cif.g09.slc.cpg/sg57_2_cif.got.tgz:2542.got - 2010.04.16 15:48:40.
