data_PCOD8235532
_publ_section_title
;
Structure prediction by ZEFSAII (Michael W. Deem and Ramdas Pophale) SiO2 
 PCOD8235532
Probable space group: P N N M
;
_chemical_formula_sum "Si O2"
_cell_formula_units_Z 64
_cell_length_a 30.309099
_cell_length_b 14.262407
_cell_length_c 9.214259
_cell_angle_alpha 90.000000
_cell_angle_beta 90.000000
_cell_angle_gamma 90.000000
_cell_volume 3983.146383
_symmetry_space_group_name_H-M "P N N M"
_symmetry_group_IT_number 58
_symmetry_cell_setting 'orthorhombic'
loop_
_space_group_symop_operation_xyz
x,y,z
-x,-y,z
1/2+x,1/2-y,1/2-z
1/2-x,1/2+y,1/2-z
-x,-y,-z
x,y,-z
1/2-x,1/2+y,1/2+z
1/2+x,1/2-y,1/2+z
loop_
_atom_site_type_symbol
_atom_site_label
_atom_site_fract_x
_atom_site_fract_y
_atom_site_fract_z
Si Si1 0.316865 0.475193 0.834592
Si Si2 0.699766 0.846090 0.332267
Si Si3 0.716146 0.227583 0.827907
Si Si4 0.867772 0.838603 0.335284
Si Si5 0.546046 0.604230 0.670556
Si Si6 0.363830 0.314953 0.332739
Si Si7 0.229500 0.484536 0.672386
Si Si8 0.949207 0.892458 0.828484
O O1 0.354667 0.552727 0.826643
O O2 0.333772 0.379392 0.766763
O O3 0.275955 0.513326 0.742238
O O4 0.302043 0.457250 0.000000
O O5 0.707761 0.873153 0.500000
O O6 0.740126 0.781613 0.272742
O O7 0.653465 0.790835 0.313847
O O8 0.694832 0.940120 0.236295
O O9 0.671450 0.275219 0.767103
O O10 0.716665 0.119895 0.775971
O O11 0.716107 0.233982 0.000000
O O12 0.876981 0.807465 0.500000
O O13 0.912859 0.825548 0.245524
O O14 0.541631 0.595902 0.500000
O O15 0.584875 0.676464 0.716190
O O16 0.498142 0.639973 0.725701
O O17 0.557306 0.499676 0.726286
O O18 0.358189 0.347963 0.500000
O O19 0.231831 0.492174 0.500000
O O20 0.943160 0.882742 0.000000
#
# Coordination Sequence:
#
# PCOD8235532 Si02
#       8
#     8   8   8   8   8   8   8   8
#     4  11  20  29  45  69  98 126 156 198 232 263
#     4  10  19  33  49  68  95 124 154 193 233 274
#     4   9  18  33  48  64  91 125 156 187 230 278
#     4  10  19  31  45  64  93 128 156 184 231 277
#     4   8  15  27  45  69  94 122 152 187 228 274
#     4  10  18  31  50  68  93 131 163 183 226 288
#     4  11  21  34  50  67  90 126 165 196 230 279
#     4   9  16  28  46  68  94 119 153 194 225 267
#
# _framework density 16.067699000000001
#
# number of rings (size 3 to 8) (size 9 to 14) (size 15 to 20)
#    0.000    2.250    3.750    1.500    0.000    1.000 
#    0.000    3.125    0.000    0.000    0.000    0.875 
#    0.000    7.000    0.000    0.000    0.000    0.000 
#
# Total GULP energy -793306.199637 kJ/mol
# GULP energy per Si atom -12395.409369 kJ/mol
# Density = 1.603113 g / cm^3
# Si number density = 16.067699 Si / 1000 Ang^3
#
#
#
# Elastic Constant Matrix: (Units=GPa)
#
#
# Indices 1 2 3 4 5 6 
#
# 1 108.4487 27.8154 24.7828 0.0000 0.0000 0.0000
# 2 27.8154 66.8842 23.2430 0.0000 0.0000 0.0000
# 3 24.7828 23.2430 50.5748 0.0000 0.0000 0.0000
# 4 0.0000 0.0000 0.0000 21.5974 0.0000 0.0000
# 5 0.0000 0.0000 0.0000 0.0000 22.1172 0.0000
# 6 0.0000 0.0000 0.0000 0.0000 0.0000 25.3642
#
#
#
# Elastic Compliance Matrix: (Units=1/GPa)
#
#
# Indices 1 2 3 4 5 6 
#
# 1 0.010929 -0.003194 -0.003887 0.000000 0.000000 0.000000
# 2 -0.003194 0.018726 -0.007041 0.000000 0.000000 0.000000
# 3 -0.003887 -0.007041 0.024913 0.000000 0.000000 0.000000
# 4 0.000000 0.000000 0.000000 0.046302 0.000000 0.000000
# 5 0.000000 0.000000 0.000000 0.000000 0.045214 0.000000
# 6 0.000000 0.000000 0.000000 0.000000 0.000000 0.039426
#
#
# Mechanical properties :
#
#
# Convention : Reuss Voigt Hill
#
# Bulk Modulus (GPa) = 37.98877 41.95445 39.97161
# Shear Modulus (GPa) = 22.46900 23.82019 23.14459
#
# Velocity S-wave (km/s) = 3.74357 3.85449 3.79943
# Velocity P-wave (km/s) = 6.50999 6.78065 6.64670
#
# Compressibility (1/GPa) = 0.02632357
#
# Stress axis : x y z
#
# Youngs Moduli (GPa) = 91.50385 53.40067 40.13893
#
# Poissons Ratio (x) = 0.17056 0.15603
# Poissons Ratio (y) = 0.29226 0.28262
# Poissons Ratio (z) = 0.35571 0.37600
#
# Static dielectric constant tensor:
#      x y z
#    x 3.303150 0.000000 0.000000 
#    y 0.000000 2.904930 0.000000 
#    z 0.000000 0.000000 2.865400 
# 
# 
# High freq. dielectric constant tensor:
#      x y z
#    x 1.612700 0.000000 0.000000 
#    y 0.000000 1.588770 0.000000 
#    z 0.000000 0.000000 1.599440 
# 
# From -- ./inp_files/7152.got.cif
#   From: 2010.06.25/outbox.cif.g09.slc.cpg/sg58_4_cif.got.tgz:7152.got - 2010.06.26 21:38:00.
