data_PCOD8235133
_publ_section_title
;
Structure prediction by ZEFSAII (Michael W. Deem and Ramdas Pophale) SiO2 
 PCOD8235133
Probable space group: P B C M
;
_chemical_formula_sum "Si O2"
_cell_formula_units_Z 24
_cell_length_a 4.776150
_cell_length_b 12.581298
_cell_length_c 16.414451
_cell_angle_alpha 90.000000
_cell_angle_beta 90.000000
_cell_angle_gamma 90.000000
_cell_volume 986.347093
_symmetry_space_group_name_H-M "P B C M"
_symmetry_group_IT_number 57
_symmetry_cell_setting 'orthorhombic'
loop_
_space_group_symop_operation_xyz
x,y,z
-x,-y,1/2+z
x,1/2-y,-z
-x,1/2+y,1/2-z
-x,-y,-z
x,y,1/2-z
-x,1/2+y,z
x,1/2-y,1/2+z
loop_
_atom_site_type_symbol
_atom_site_label
_atom_site_fract_x
_atom_site_fract_y
_atom_site_fract_z
Si Si1 0.480362 0.499866 0.655646
Si Si2 0.248445 0.317084 0.431246
Si Si3 0.018122 0.892006 0.917778
O O1 0.544824 0.483521 0.750000
O O2 0.555933 0.621156 0.631521
O O3 0.157887 0.477377 0.635677
O O4 0.658590 0.416595 0.601232
O O5 0.429763 0.250000 0.500000
O O6 0.052522 0.228842 0.386474
O O7 0.052701 0.399925 0.484494
#
# Coordination Sequence:
#
# PCOD8235133 Si02
#       3
#     8   8   8
#     4  12  22  38  60  91 124 152 194 251 302 339
#     4   8  22  41  66  82 120 157 211 230 291 354
#     4   9  23  40  62  85 116 160 199 243 284 360
#
# _framework density 24.332205999999999
#
# number of rings (size 3 to 8) (size 9 to 14) (size 15 to 20)
#    2.000    0.000    0.000    3.000    0.000   10.667 
#    0.000    0.000    0.000    0.000    0.000    0.000 
#    0.000    0.000    0.000    0.000    0.000    0.000 
#
# Total GULP energy -297368.856681 kJ/mol
# GULP energy per Si atom -12390.369028 kJ/mol
# Density = 2.427682 g / cm^3
# Si number density = 24.332206 Si / 1000 Ang^3
#
#
#
# Elastic Constant Matrix: (Units=GPa)
#
#
# Indices 1 2 3 4 5 6 
#
# 1 46.2406 6.4355 9.4700 0.0000 0.0000 0.0000
# 2 6.4355 71.9286 10.7878 0.0000 0.0000 0.0000
# 3 9.4700 10.7878 99.2108 0.0000 0.0000 0.0000
# 4 0.0000 0.0000 0.0000 29.9260 0.0000 0.0000
# 5 0.0000 0.0000 0.0000 0.0000 26.3189 0.0000
# 6 0.0000 0.0000 0.0000 0.0000 0.0000 15.2865
#
#
#
# Elastic Compliance Matrix: (Units=1/GPa)
#
#
# Indices 1 2 3 4 5 6 
#
# 1 0.022260 -0.001701 -0.001940 0.000000 0.000000 0.000000
# 2 -0.001701 0.014263 -0.001389 0.000000 0.000000 0.000000
# 3 -0.001940 -0.001389 0.010416 0.000000 0.000000 0.000000
# 4 0.000000 0.000000 0.000000 0.033416 0.000000 0.000000
# 5 0.000000 0.000000 0.000000 0.000000 0.037996 0.000000
# 6 0.000000 0.000000 0.000000 0.000000 0.000000 0.065417
#
#
# Mechanical properties :
#
#
# Convention : Reuss Voigt Hill
#
# Bulk Modulus (GPa) = 27.11456 30.08517 28.59987
# Shear Modulus (GPa) = 24.25784 27.01873 25.63828
#
# Velocity S-wave (km/s) = 3.16087 3.33590 3.24956
# Velocity P-wave (km/s) = 4.94865 5.21812 5.08517
#
# Compressibility (1/GPa) = 0.03688056
#
# Stress axis : x y z
#
# Youngs Moduli (GPa) = 44.92361 70.11099 96.00890
#
# Poissons Ratio (x) = 0.11924 0.18624
# Poissons Ratio (y) = 0.07640 0.13332
# Poissons Ratio (z) = 0.08715 0.09735
#
# Static dielectric constant tensor:
#      x y z
#    x 3.790480 0.000000 0.000000 
#    y 0.000000 4.438520 0.000000 
#    z 0.000000 0.000000 3.851150 
# 
# 
# High freq. dielectric constant tensor:
#      x y z
#    x 1.943550 0.000000 0.000000 
#    y 0.000000 1.988600 0.000000 
#    z 0.000000 0.000000 1.926620 
# 
# From -- ./inp_files/14576.got.cif
#   From: 2010.03.12/outbox.cif.g09.slc.cpg/sg57_8_cif.got.tgz:14576.got - 2010.04.16 15:48:40.
