data_PCOD8235057
_publ_section_title
;
Structure prediction by ZEFSAII (Michael W. Deem and Ramdas Pophale) SiO2 
 PCOD8235057
Probable space group: P B C M
;
_chemical_formula_sum "Si O2"
_cell_formula_units_Z 36
_cell_length_a 9.017744
_cell_length_b 7.972406
_cell_length_c 20.722340
_cell_angle_alpha 90.000000
_cell_angle_beta 90.000000
_cell_angle_gamma 90.000000
_cell_volume 1489.793601
_symmetry_space_group_name_H-M "P B C M"
_symmetry_group_IT_number 57
_symmetry_cell_setting 'orthorhombic'
loop_
_space_group_symop_operation_xyz
x,y,z
-x,-y,1/2+z
x,1/2-y,-z
-x,1/2+y,1/2-z
-x,-y,-z
x,y,1/2-z
-x,1/2+y,z
x,1/2-y,1/2+z
loop_
_atom_site_type_symbol
_atom_site_label
_atom_site_fract_x
_atom_site_fract_y
_atom_site_fract_z
Si Si1 0.521356 0.357580 0.114610
Si Si2 0.682021 0.750000 0.000000
Si Si3 0.315383 0.929682 0.679169
Si Si4 0.039984 0.364318 0.175920
Si Si5 0.195814 0.439796 0.609513
O O1 0.426994 0.349299 0.048515
O O2 0.401770 0.392510 0.171030
O O3 0.629993 0.519592 0.118749
O O4 0.623926 0.195545 0.124808
O O5 0.799913 0.875349 0.964567
O O6 0.343822 0.854232 0.750000
O O7 0.140875 0.966959 0.670174
O O8 0.984495 0.342735 0.250000
O O9 0.138013 0.204686 0.157013
O O10 0.902583 0.394706 0.126349
#
# Coordination Sequence:
#
# PCOD8235057 Si02
#       5
#     8   4   8   8   8
#     4  12  24  45  73 106 146 194 241 300 360 427
#     4  12  26  48  74 106 150 196 248 292 352 442
#     4  11  23  42  71 108 144 186 245 303 369 430
#     4  11  25  47  72 108 149 189 243 307 372 430
#     4  12  26  46  75 105 145 196 242 298 362 432
#
# _framework density 24.16442
#
# number of rings (size 3 to 8) (size 9 to 14) (size 15 to 20)
#    0.000    0.444    4.444    3.333    0.000    8.000 
#    0.000    2.222    0.000    0.000    0.000    0.000 
#    0.000    0.000    0.000    0.000    0.000    0.000 
#
# Total GULP energy -446023.877134 kJ/mol
# GULP energy per Si atom -12389.552143 kJ/mol
# Density = 2.410942 g / cm^3
# Si number density = 24.164420 Si / 1000 Ang^3
#
#
#
# Elastic Constant Matrix: (Units=GPa)
#
#
# Indices 1 2 3 4 5 6 
#
# 1 117.3810 31.0682 65.8229 0.0000 0.0000 0.0000
# 2 31.0682 56.8125 35.8580 0.0000 0.0000 0.0000
# 3 65.8229 35.8580 122.0406 0.0000 0.0000 0.0000
# 4 0.0000 0.0000 0.0000 32.0193 0.0000 0.0000
# 5 0.0000 0.0000 0.0000 0.0000 40.6569 0.0000
# 6 0.0000 0.0000 0.0000 0.0000 0.0000 45.3630
#
#
#
# Elastic Compliance Matrix: (Units=1/GPa)
#
#
# Indices 1 2 3 4 5 6 
#
# 1 0.012673 -0.003212 -0.005892 0.000000 0.000000 0.000000
# 2 -0.003212 0.022423 -0.004856 0.000000 0.000000 0.000000
# 3 -0.005892 -0.004856 0.012798 0.000000 0.000000 0.000000
# 4 0.000000 0.000000 0.000000 0.031231 0.000000 0.000000
# 5 0.000000 0.000000 0.000000 0.000000 0.024596 0.000000
# 6 0.000000 0.000000 0.000000 0.000000 0.000000 0.022044
#
#
# Mechanical properties :
#
#
# Convention : Reuss Voigt Hill
#
# Bulk Modulus (GPa) = 50.06065 62.41468 56.23766
# Shear Modulus (GPa) = 31.18298 34.50684 32.84491
#
# Velocity S-wave (km/s) = 3.59618 3.78299 3.69077
# Velocity P-wave (km/s) = 6.16482 6.70571 6.44095
#
# Compressibility (1/GPa) = 0.01997577
#
# Stress axis : x y z
#
# Youngs Moduli (GPa) = 78.90696 44.59684 78.13448
#
# Poissons Ratio (x) = 0.14324 0.46034
# Poissons Ratio (y) = 0.25343 0.37943
# Poissons Ratio (z) = 0.46489 0.21656
#
# Static dielectric constant tensor:
#      x y z
#    x 4.631370 0.000000 0.000000 
#    y 0.000000 4.438690 0.000000 
#    z 0.000000 0.000000 4.112900 
# 
# 
# High freq. dielectric constant tensor:
#      x y z
#    x 1.979030 0.000000 0.000000 
#    y 0.000000 1.968700 0.000000 
#    z 0.000000 0.000000 1.935440 
# 
# From -- ./inp_files/24000.got.cif
#   From: 2010.03.12/outbox.cif.g09.slc.cpg/sg57_12_cif.got.tgz:24000.got - 2010.04.16 15:48:40.
