data_PCOD8235748
_publ_section_title
;
Structure prediction by ZEFSAII (Michael W. Deem and Ramdas Pophale) SiO2 
 PCOD8235748
Probable space group: P N N M
;
_chemical_formula_sum "Si O2"
_cell_formula_units_Z 48
_cell_length_a 9.828294
_cell_length_b 29.287607
_cell_length_c 7.985259
_cell_angle_alpha 90.000000
_cell_angle_beta 90.000000
_cell_angle_gamma 90.000000
_cell_volume 2298.534541
_symmetry_space_group_name_H-M "P N N M"
_symmetry_group_IT_number 58
_symmetry_cell_setting 'orthorhombic'
loop_
_space_group_symop_operation_xyz
x,y,z
-x,-y,z
1/2+x,1/2-y,1/2-z
1/2-x,1/2+y,1/2-z
-x,-y,-z
x,y,-z
1/2-x,1/2+y,1/2+z
1/2+x,1/2-y,1/2+z
loop_
_atom_site_type_symbol
_atom_site_label
_atom_site_fract_x
_atom_site_fract_y
_atom_site_fract_z
Si Si1 0.902718 0.392964 0.188365
Si Si2 0.835695 0.008083 0.000000
Si Si3 0.129326 0.223665 0.807473
Si Si4 0.579604 0.953041 0.000000
Si Si5 0.093791 0.955411 0.680569
Si Si6 0.427710 0.203063 0.190927
Si Si7 0.601958 0.379433 0.695268
O O1 0.963118 0.426089 0.331575
O O2 0.741773 0.389919 0.212028
O O3 0.967443 0.342405 0.206998
O O4 0.935097 0.411081 0.000000
O O5 0.798693 0.036949 0.832071
O O6 0.000000 0.000000 0.000000
O O7 0.743755 0.962589 0.000000
O O8 0.285343 0.224156 0.742781
O O9 0.046452 0.259952 0.699015
O O10 0.063971 0.173667 0.781111
O O11 0.119636 0.238848 0.000000
O O12 0.500000 0.000000 0.000000
O O13 0.168043 0.949907 0.500000
O O14 0.011308 0.909518 0.715384
O O15 0.000000 0.000000 0.673307
O O16 0.402699 0.187386 0.000000
O O17 0.613208 0.391913 0.500000
#
# Coordination Sequence:
#
# PCOD8235748 Si02
#       7
#     8   4   8   4   8   8   8
#     4  11  21  38  65  88 118 166 210 251 300 372
#     4  10  20  36  60  82 116 152 194 256 306 353
#     4   9  20  35  57  89 122 158 204 258 303 369
#     4  12  26  44  64  92 124 160 212 260 307 367
#     4  10  19  30  51  84 116 152 196 245 307 357
#     4  10  20  38  61  90 125 160 204 252 312 365
#     4  10  18  34  58  89 125 159 208 257 306 363
#
# _framework density 20.882871000000002
#
# number of rings (size 3 to 8) (size 9 to 14) (size 15 to 20)
#    0.000    1.833    2.500    4.000    0.000    6.333 
#    0.000    1.667    0.000    0.000    0.000    0.000 
#    0.000    0.000    0.000    0.000    0.000    0.000 
#
# Total GULP energy -594933.955899 kJ/mol
# GULP energy per Si atom -12394.457415 kJ/mol
# Density = 2.083534 g / cm^3
# Si number density = 20.882871 Si / 1000 Ang^3
#
#
#
# Elastic Constant Matrix: (Units=GPa)
#
#
# Indices 1 2 3 4 5 6 
#
# 1 46.1496 38.4792 17.7501 0.0000 0.0000 0.0000
# 2 38.4792 115.1800 50.8496 0.0000 0.0000 0.0000
# 3 17.7501 50.8496 176.6023 0.0000 0.0000 0.0000
# 4 0.0000 0.0000 0.0000 10.7443 0.0000 0.0000
# 5 0.0000 0.0000 0.0000 0.0000 9.2104 0.0000
# 6 0.0000 0.0000 0.0000 0.0000 0.0000 33.6613
#
#
#
# Elastic Compliance Matrix: (Units=1/GPa)
#
#
# Indices 1 2 3 4 5 6 
#
# 1 0.030038 -0.009970 -0.000149 0.000000 0.000000 0.000000
# 2 -0.009970 0.013255 -0.002815 0.000000 0.000000 0.000000
# 3 -0.000149 -0.002815 0.006488 0.000000 0.000000 0.000000
# 4 0.000000 0.000000 0.000000 0.093072 0.000000 0.000000
# 5 0.000000 0.000000 0.000000 0.000000 0.108573 0.000000
# 6 0.000000 0.000000 0.000000 0.000000 0.000000 0.029708
#
#
# Mechanical properties :
#
#
# Convention : Reuss Voigt Hill
#
# Bulk Modulus (GPa) = 41.81314 61.34332 51.57823
# Shear Modulus (GPa) = 15.87442 26.11341 20.99391
#
# Velocity S-wave (km/s) = 2.76010 3.54004 3.17411
# Velocity P-wave (km/s) = 5.49761 6.79322 6.17946
#
# Compressibility (1/GPa) = 0.02391593
#
# Stress axis : x y z
#
# Youngs Moduli (GPa) = 33.29076 75.44161 154.13583
#
# Poissons Ratio (x) = 0.75212 0.02290
# Poissons Ratio (y) = 0.33190 0.43383
# Poissons Ratio (z) = 0.00495 0.21234
#
# Static dielectric constant tensor:
#      x y z
#    x 3.287650 0.000000 0.000000 
#    y 0.000000 3.792820 0.000000 
#    z 0.000000 0.000000 4.628910 
# 
# 
# High freq. dielectric constant tensor:
#      x y z
#    x 1.765070 0.000000 0.000000 
#    y 0.000000 1.820910 0.000000 
#    z 0.000000 0.000000 1.834980 
# 
# From -- ./inp_files/3057.got.cif
#   From: 2010.06.25/outbox.cif.g09.slc.cpg/sg58_2_cif.got.tgz:3057.got - 2010.06.26 21:38:00.
