data_PCOD8235376
_publ_section_title
;
Structure prediction by ZEFSAII (Michael W. Deem and Ramdas Pophale) SiO2 
 PCOD8235376
Probable space group: P N N M
;
_chemical_formula_sum "Si O2"
_cell_formula_units_Z 48
_cell_length_a 7.402598
_cell_length_b 31.952743
_cell_length_c 13.020264
_cell_angle_alpha 90.000000
_cell_angle_beta 90.000000
_cell_angle_gamma 90.000000
_cell_volume 3079.726160
_symmetry_space_group_name_H-M "P N N M"
_symmetry_group_IT_number 58
_symmetry_cell_setting 'orthorhombic'
loop_
_space_group_symop_operation_xyz
x,y,z
-x,-y,z
1/2+x,1/2-y,1/2-z
1/2-x,1/2+y,1/2-z
-x,-y,-z
x,y,-z
1/2-x,1/2+y,1/2+z
1/2+x,1/2-y,1/2+z
loop_
_atom_site_type_symbol
_atom_site_label
_atom_site_fract_x
_atom_site_fract_y
_atom_site_fract_z
Si Si1 0.754716 0.185420 0.381985
Si Si2 0.115447 0.703660 0.204004
Si Si3 0.448122 0.751445 0.120469
Si Si4 0.730314 0.884760 0.621981
Si Si5 0.869060 0.098333 0.378105
Si Si6 0.448647 0.955157 0.621709
O O1 0.753532 0.175603 0.500000
O O2 0.570751 0.209468 0.357527
O O3 0.931910 0.211237 0.354209
O O4 0.775454 0.139844 0.328775
O O5 0.250438 0.740530 0.166432
O O6 0.050553 0.710047 0.322523
O O7 0.198536 0.657921 0.185076
O O8 0.434349 0.762170 0.000000
O O9 0.720418 0.874428 0.500000
O O10 0.586236 0.919116 0.657104
O O11 0.922625 0.904187 0.655282
O O12 0.858598 0.099859 0.500000
O O13 0.752893 0.058083 0.340720
O O14 0.458604 0.959149 0.500000
O O15 0.500000 0.000000 0.671628
#
# Coordination Sequence:
#
# PCOD8235376 Si02
#       6
#     8   8   8   8   8   8
#     4  10  18  30  47  66  90 121 160 199 230 274
#     4  12  20  33  50  68  91 127 163 197 246 280
#     4  11  23  34  47  72  97 121 163 206 240 285
#     4  10  18  28  46  66  87 123 165 197 231 285
#     4   9  16  26  42  63  87 117 155 194 225 270
#     4   9  17  27  39  61  93 126 157 192 238 284
#
# _framework density 15.585801
#
# number of rings (size 3 to 8) (size 9 to 14) (size 15 to 20)
#    0.000    1.833    5.000    1.500    0.000    0.667 
#    0.000    3.333    0.000    0.000    0.000    0.000 
#    0.000    0.667    0.000    1.667    0.000    0.333 
#
# Total GULP energy -594656.271171 kJ/mol
# GULP energy per Si atom -12388.672316 kJ/mol
# Density = 1.555033 g / cm^3
# Si number density = 15.585801 Si / 1000 Ang^3
#
#
#
# Elastic Constant Matrix: (Units=GPa)
#
#
# Indices 1 2 3 4 5 6 
#
# 1 104.4540 28.0721 20.6387 0.0000 0.0000 0.0000
# 2 28.0721 80.0708 17.6441 0.0000 0.0000 0.0000
# 3 20.6387 17.6441 67.9763 0.0000 0.0000 0.0000
# 4 0.0000 0.0000 0.0000 12.2351 0.0000 0.0000
# 5 0.0000 0.0000 0.0000 0.0000 16.0649 0.0000
# 6 0.0000 0.0000 0.0000 0.0000 0.0000 25.2623
#
#
#
# Elastic Compliance Matrix: (Units=1/GPa)
#
#
# Indices 1 2 3 4 5 6 
#
# 1 0.010947 -0.003294 -0.002469 0.000000 0.000000 0.000000
# 2 -0.003294 0.014238 -0.002696 0.000000 0.000000 0.000000
# 3 -0.002469 -0.002696 0.016160 0.000000 0.000000 0.000000
# 4 0.000000 0.000000 0.000000 0.081732 0.000000 0.000000
# 5 0.000000 0.000000 0.000000 0.000000 0.062247 0.000000
# 6 0.000000 0.000000 0.000000 0.000000 0.000000 0.039585
#
#
# Mechanical properties :
#
#
# Convention : Reuss Voigt Hill
#
# Bulk Modulus (GPa) = 40.93564 42.80121 41.86842
# Shear Modulus (GPa) = 20.00264 23.12223 21.56244
#
# Velocity S-wave (km/s) = 3.58633 3.85586 3.72353
# Velocity P-wave (km/s) = 6.59323 6.88076 6.73853
#
# Compressibility (1/GPa) = 0.02442859
#
# Stress axis : x y z
#
# Youngs Moduli (GPa) = 91.35288 70.23613 61.88052
#
# Poissons Ratio (x) = 0.23134 0.15276
# Poissons Ratio (y) = 0.30090 0.16680
# Poissons Ratio (z) = 0.22551 0.18932
#
# Static dielectric constant tensor:
#      x y z
#    x 3.306230 0.000000 0.000000 
#    y 0.000000 3.167340 0.000000 
#    z 0.000000 0.000000 2.573580 
# 
# 
# High freq. dielectric constant tensor:
#      x y z
#    x 1.626730 0.000000 0.000000 
#    y 0.000000 1.589820 0.000000 
#    z 0.000000 0.000000 1.524350 
# 
# From -- ./inp_files/13319.got.cif
#   From: 2010.06.25/outbox.cif.g09.slc.cpg/sg58_7_cif.got.tgz:13319.got - 2010.06.26 21:38:00.
