data_PCOD8235054
_publ_section_title
;
Structure prediction by ZEFSAII (Michael W. Deem and Ramdas Pophale) SiO2 
 PCOD8235054
Probable space group: P B C M
;
_chemical_formula_sum "Si O2"
_cell_formula_units_Z 40
_cell_length_a 12.010974
_cell_length_b 9.149831
_cell_length_c 17.485998
_cell_angle_alpha 90.000000
_cell_angle_beta 90.000000
_cell_angle_gamma 90.000000
_cell_volume 1921.682892
_symmetry_space_group_name_H-M "P B C M"
_symmetry_group_IT_number 57
_symmetry_cell_setting 'orthorhombic'
loop_
_space_group_symop_operation_xyz
x,y,z
-x,-y,1/2+z
x,1/2-y,-z
-x,1/2+y,1/2-z
-x,-y,-z
x,y,1/2-z
-x,1/2+y,z
x,1/2-y,1/2+z
loop_
_atom_site_type_symbol
_atom_site_label
_atom_site_fract_x
_atom_site_fract_y
_atom_site_fract_z
Si Si1 0.576628 0.493344 0.576560
Si Si2 0.420261 0.207915 0.336652
Si Si3 0.976625 0.875331 0.557734
Si Si4 0.213161 0.997313 0.337184
Si Si5 0.209174 0.799493 0.582747
O O1 0.500000 0.500000 0.500000
O O2 0.525212 0.389125 0.640497
O O3 0.590935 0.656603 0.606499
O O4 0.700004 0.426352 0.567352
O O5 0.435608 0.264622 0.250000
O O6 0.315748 0.104500 0.345526
O O7 0.933616 0.750000 0.500000
O O8 0.086944 0.850582 0.611983
O O9 0.883544 0.925624 0.616551
O O10 0.000000 0.000000 0.500000
O O11 0.174964 0.979226 0.250000
O O12 0.252082 0.837144 0.367096
O O13 0.172025 0.750000 0.500000
#
# Coordination Sequence:
#
# PCOD8235054 Si02
#       5
#     8   8   8   8   8
#     4  12  25  41  68  99 127 170 225 276 320 389
#     4  11  25  43  64  92 134 173 212 268 335 393
#     4  11  23  43  69  95 131 177 214 266 334 389
#     4  11  25  44  67  99 133 174 223 272 325 395
#     4  11  23  42  66  95 131 172 216 269 331 386
#
# _framework density 20.815086999999998
#
# number of rings (size 3 to 8) (size 9 to 14) (size 15 to 20)
#    0.000    0.800    4.000    4.800    2.800    4.000 
#    0.000    0.000    0.000    0.000    0.000    0.000 
#    0.000    0.000    0.000    0.000    0.000    0.000 
#
# Total GULP energy -495674.033825 kJ/mol
# GULP energy per Si atom -12391.850846 kJ/mol
# Density = 2.076771 g / cm^3
# Si number density = 20.815087 Si / 1000 Ang^3
#
#
#
# Elastic Constant Matrix: (Units=GPa)
#
#
# Indices 1 2 3 4 5 6 
#
# 1 67.8635 6.5441 9.0728 0.0000 0.0000 0.0000
# 2 6.5441 118.5414 37.5397 0.0000 0.0000 0.0000
# 3 9.0728 37.5397 82.6327 0.0000 0.0000 0.0000
# 4 0.0000 0.0000 0.0000 38.9709 0.0000 0.0000
# 5 0.0000 0.0000 0.0000 0.0000 28.1105 0.0000
# 6 0.0000 0.0000 0.0000 0.0000 0.0000 29.6247
#
#
#
# Elastic Compliance Matrix: (Units=1/GPa)
#
#
# Indices 1 2 3 4 5 6 
#
# 1 0.014968 -0.000357 -0.001481 0.000000 0.000000 0.000000
# 2 -0.000357 0.009862 -0.004441 0.000000 0.000000 0.000000
# 3 -0.001481 -0.004441 0.014282 0.000000 0.000000 0.000000
# 4 0.000000 0.000000 0.000000 0.025660 0.000000 0.000000
# 5 0.000000 0.000000 0.000000 0.000000 0.035574 0.000000
# 6 0.000000 0.000000 0.000000 0.000000 0.000000 0.033756
#
#
# Mechanical properties :
#
#
# Convention : Reuss Voigt Hill
#
# Bulk Modulus (GPa) = 37.66057 41.70565 39.68311
# Shear Modulus (GPa) = 32.15200 33.73329 32.94265
#
# Velocity S-wave (km/s) = 3.93447 4.03006 3.98255
# Velocity P-wave (km/s) = 6.22673 6.46026 6.34457
#
# Compressibility (1/GPa) = 0.02655297
#
# Stress axis : x y z
#
# Youngs Moduli (GPa) = 66.80956 101.39946 70.01866
#
# Poissons Ratio (x) = 0.03623 0.10371
# Poissons Ratio (y) = 0.02387 0.31096
# Poissons Ratio (z) = 0.09895 0.45032
#
# Static dielectric constant tensor:
#      x y z
#    x 3.306590 0.000000 0.000000 
#    y 0.000000 3.640840 0.000000 
#    z 0.000000 0.000000 4.019210 
# 
# 
# High freq. dielectric constant tensor:
#      x y z
#    x 1.830790 0.000000 0.000000 
#    y 0.000000 1.832180 0.000000 
#    z 0.000000 0.000000 1.811460 
# 
# From -- ./inp_files/21597.got.cif
#   From: 2010.03.12/outbox.cif.g09.slc.cpg/sg57_11_cif.got.tgz:21597.got - 2010.04.16 15:48:40.
