data_PCOD8235834
_publ_section_title
;
Structure prediction by ZEFSAII (Michael W. Deem and Ramdas Pophale) SiO2 
 PCOD8235834
Probable space group: P N N M
;
_chemical_formula_sum "Si O2"
_cell_formula_units_Z 64
_cell_length_a 18.198378
_cell_length_b 15.987446
_cell_length_c 13.887761
_cell_angle_alpha 90.000000
_cell_angle_beta 90.000000
_cell_angle_gamma 90.000000
_cell_volume 4040.582756
_symmetry_space_group_name_H-M "P N N M"
_symmetry_group_IT_number 58
_symmetry_cell_setting 'orthorhombic'
loop_
_space_group_symop_operation_xyz
x,y,z
-x,-y,z
1/2+x,1/2-y,1/2-z
1/2-x,1/2+y,1/2-z
-x,-y,-z
x,y,-z
1/2-x,1/2+y,1/2+z
1/2+x,1/2-y,1/2+z
loop_
_atom_site_type_symbol
_atom_site_label
_atom_site_fract_x
_atom_site_fract_y
_atom_site_fract_z
Si Si1 0.290627 0.768489 0.108348
Si Si2 0.082637 0.335830 0.270269
Si Si3 0.715762 0.553009 0.608681
Si Si4 0.485619 0.241435 0.613220
Si Si5 0.341318 0.013739 0.768430
Si Si6 0.163792 0.644356 0.887858
Si Si7 0.461394 0.088880 0.893216
Si Si8 0.448135 0.426601 0.385544
O O1 0.358958 0.772688 0.181580
O O2 0.247156 0.854525 0.106561
O O3 0.233914 0.698627 0.144838
O O4 0.319193 0.749111 0.000000
O O5 0.118242 0.426079 0.251313
O O6 0.054458 0.298869 0.169270
O O7 0.014289 0.344019 0.342873
O O8 0.717576 0.515778 0.500000
O O9 0.763355 0.495741 0.679282
O O10 0.633874 0.555472 0.651933
O O11 0.503640 0.236986 0.500000
O O12 0.411218 0.192165 0.638139
O O13 0.476746 0.336659 0.650138
O O14 0.331167 0.055448 0.664692
O O15 0.387111 0.078409 0.833429
O O16 0.166956 0.624892 0.000000
O O17 0.500000 0.000000 0.900655
O O18 0.442573 0.122140 0.000000
O O19 0.500000 0.500000 0.344765
O O20 0.446589 0.425639 0.500000
#
# Coordination Sequence:
#
# PCOD8235834 Si02
#       8
#     8   8   8   8   8   8   8   8
#     4   9  17  31  50  69  89 124 170 209 242 279
#     4  10  19  30  47  73  99 128 160 201 243 290
#     4   9  16  29  48  69  94 124 156 196 246 290
#     4  10  19  32  49  70  99 133 162 194 240 293
#     4  10  19  29  45  72 101 128 160 192 240 291
#     4  10  19  32  49  68  97 134 170 199 228 282
#     4   9  16  27  42  65  98 127 151 188 240 290
#     4   9  17  30  49  71  93 120 159 204 247 288
#
# _framework density 15.839299
#
# number of rings (size 3 to 8) (size 9 to 14) (size 15 to 20)
#    0.000    2.500    2.500    0.750    0.000    4.500 
#    0.000    1.250    0.000    0.750    0.000    3.500 
#    0.000    4.500    0.000    0.000    0.000    0.000 
#
# Total GULP energy -793503.414942 kJ/mol
# GULP energy per Si atom -12398.490858 kJ/mol
# Density = 1.580325 g / cm^3
# Si number density = 15.839299 Si / 1000 Ang^3
#
#
#
# Elastic Constant Matrix: (Units=GPa)
#
#
# Indices 1 2 3 4 5 6 
#
# 1 110.2276 37.3075 50.4430 0.0000 0.0000 0.0000
# 2 37.3075 59.0768 40.1538 0.0000 0.0000 0.0000
# 3 50.4430 40.1538 73.6512 0.0000 0.0000 0.0000
# 4 0.0000 0.0000 0.0000 17.7850 0.0000 0.0000
# 5 0.0000 0.0000 0.0000 0.0000 18.9266 0.0000
# 6 0.0000 0.0000 0.0000 0.0000 0.0000 20.4608
#
#
#
# Elastic Compliance Matrix: (Units=1/GPa)
#
#
# Indices 1 2 3 4 5 6 
#
# 1 0.013681 -0.003608 -0.007403 0.000000 0.000000 0.000000
# 2 -0.003608 0.027844 -0.012709 0.000000 0.000000 0.000000
# 3 -0.007403 -0.012709 0.025577 0.000000 0.000000 0.000000
# 4 0.000000 0.000000 0.000000 0.056227 0.000000 0.000000
# 5 0.000000 0.000000 0.000000 0.000000 0.052836 0.000000
# 6 0.000000 0.000000 0.000000 0.000000 0.000000 0.048874
#
#
# Mechanical properties :
#
#
# Convention : Reuss Voigt Hill
#
# Bulk Modulus (GPa) = 50.86113 55.41825 53.13969
# Shear Modulus (GPa) = 17.91908 19.10455 18.51181
#
# Velocity S-wave (km/s) = 3.36714 3.47673 3.42237
# Velocity P-wave (km/s) = 6.87730 7.15407 7.01705
#
# Compressibility (1/GPa) = 0.01966138
#
# Stress axis : x y z
#
# Youngs Moduli (GPa) = 73.09344 35.91475 39.09828
#
# Poissons Ratio (x) = 0.12958 0.28945
# Poissons Ratio (y) = 0.26372 0.49690
# Poissons Ratio (z) = 0.54111 0.45644
#
# Static dielectric constant tensor:
#      x y z
#    x 3.149490 0.000000 0.000000 
#    y 0.000000 2.874670 0.000000 
#    z 0.000000 0.000000 2.913600 
# 
# 
# High freq. dielectric constant tensor:
#      x y z
#    x 1.611840 0.000000 0.000000 
#    y 0.000000 1.588460 0.000000 
#    z 0.000000 0.000000 1.591170 
# 
# From -- ./inp_files/15900.got.cif
#   From: 2010.06.25/outbox.cif.g09.slc.cpg/sg58_8_cif.got.tgz:15900.got - 2010.06.26 21:38:00.
