data_PCOD8235427
_publ_section_title
;
Structure prediction by ZEFSAII (Michael W. Deem and Ramdas Pophale) SiO2 
 PCOD8235427
Probable space group: P N N M
;
_chemical_formula_sum "Si O2"
_cell_formula_units_Z 56
_cell_length_a 18.937692
_cell_length_b 19.392111
_cell_length_c 9.152627
_cell_angle_alpha 90.000000
_cell_angle_beta 90.000000
_cell_angle_gamma 90.000000
_cell_volume 3361.227446
_symmetry_space_group_name_H-M "P N N M"
_symmetry_group_IT_number 58
_symmetry_cell_setting 'orthorhombic'
loop_
_space_group_symop_operation_xyz
x,y,z
-x,-y,z
1/2+x,1/2-y,1/2-z
1/2-x,1/2+y,1/2-z
-x,-y,-z
x,y,-z
1/2-x,1/2+y,1/2+z
1/2+x,1/2-y,1/2+z
loop_
_atom_site_type_symbol
_atom_site_label
_atom_site_fract_x
_atom_site_fract_y
_atom_site_fract_z
Si Si1 0.235514 0.164295 0.326662
Si Si2 0.750105 0.117539 0.830231
Si Si3 0.940346 0.445136 0.829648
Si Si4 0.142631 0.766120 0.169664
Si Si5 0.023806 0.695779 0.326095
Si Si6 0.133231 0.277108 0.326249
Si Si7 0.282053 0.018420 0.328545
O O1 0.236072 0.163045 0.500000
O O2 0.303683 0.207203 0.275794
O O3 0.164652 0.203341 0.270484
O O4 0.241984 0.086527 0.266772
O O5 0.822750 0.159108 0.802893
O O6 0.683690 0.161451 0.769288
O O7 0.755120 0.045982 0.746371
O O8 0.739498 0.101947 0.000000
O O9 0.950835 0.376959 0.735653
O O10 0.864942 0.478166 0.789642
O O11 0.000000 0.500000 0.786333
O O12 0.944017 0.425016 0.000000
O O13 0.072379 0.757824 0.266308
O O14 0.123406 0.756278 0.000000
O O15 0.026496 0.693890 0.500000
O O16 0.945231 0.711674 0.266510
O O17 0.134930 0.277735 0.500000
O O18 0.270970 0.011048 0.500000
#
# Coordination Sequence:
#
# PCOD8235427 Si02
#       7
#     8   8   8   8   8   8   8
#     4   8  14  29  50  66  86 123 166 196 224 279
#     4   9  18  32  51  70  93 127 161 197 237 283
#     4  10  20  32  46  68 101 137 164 185 228 298
#     4   9  17  33  52  67  90 128 167 193 231 292
#     4  11  20  29  47  74  99 122 154 203 248 280
#     4   8  16  30  47  68  93 123 159 195 236 281
#     4  10  18  29  48  71  94 124 158 196 236 278
#
# _framework density 16.660582000000002
#
# number of rings (size 3 to 8) (size 9 to 14) (size 15 to 20)
#    0.000    2.714    1.429    3.000    0.000    1.429 
#    0.000    0.714    0.000    4.286    0.000    6.000 
#    0.000    0.000    0.000    0.000    0.000    0.000 
#
# Total GULP energy -694200.844855 kJ/mol
# GULP energy per Si atom -12396.443658 kJ/mol
# Density = 1.662266 g / cm^3
# Si number density = 16.660582 Si / 1000 Ang^3
#
#
#
# Elastic Constant Matrix: (Units=GPa)
#
#
# Indices 1 2 3 4 5 6 
#
# 1 52.3905 35.3673 19.3121 0.0000 0.0000 0.0000
# 2 35.3673 122.5409 28.6827 0.0000 0.0000 0.0000
# 3 19.3121 28.6827 34.6363 0.0000 0.0000 0.0000
# 4 0.0000 0.0000 0.0000 28.1491 0.0000 0.0000
# 5 0.0000 0.0000 0.0000 0.0000 17.0363 0.0000
# 6 0.0000 0.0000 0.0000 0.0000 0.0000 25.2109
#
#
#
# Elastic Compliance Matrix: (Units=1/GPa)
#
#
# Indices 1 2 3 4 5 6 
#
# 1 0.026439 -0.005185 -0.010448 0.000000 0.000000 0.000000
# 2 -0.005185 0.011140 -0.006334 0.000000 0.000000 0.000000
# 3 -0.010448 -0.006334 0.039942 0.000000 0.000000 0.000000
# 4 0.000000 0.000000 0.000000 0.035525 0.000000 0.000000
# 5 0.000000 0.000000 0.000000 0.000000 0.058698 0.000000
# 6 0.000000 0.000000 0.000000 0.000000 0.000000 0.039665
#
#
# Mechanical properties :
#
#
# Convention : Reuss Voigt Hill
#
# Bulk Modulus (GPa) = 29.77321 41.81021 35.79171
# Shear Modulus (GPa) = 18.75907 22.49297 20.62602
#
# Velocity S-wave (km/s) = 3.35917 3.67832 3.52236
# Velocity P-wave (km/s) = 5.74061 6.57189 6.17027
#
# Compressibility (1/GPa) = 0.03358724
#
# Stress axis : x y z
#
# Youngs Moduli (GPa) = 37.82278 89.76983 25.03653
#
# Poissons Ratio (x) = 0.46549 0.26157
# Poissons Ratio (y) = 0.19612 0.15857
# Poissons Ratio (z) = 0.39516 0.56857
#
# Static dielectric constant tensor:
#      x y z
#    x 3.318490 0.000000 0.000000 
#    y 0.000000 3.248740 0.000000 
#    z 0.000000 0.000000 2.812540 
# 
# 
# High freq. dielectric constant tensor:
#      x y z
#    x 1.634360 0.000000 0.000000 
#    y 0.000000 1.640250 0.000000 
#    z 0.000000 0.000000 1.613910 
# 
# From -- ./inp_files/8123.got.cif
#   From: 2010.06.25/outbox.cif.g09.slc.cpg/sg58_5_cif.got.tgz:8123.got - 2010.06.26 21:38:00.
