data_PCOD8235803
_publ_section_title
;
Structure prediction by ZEFSAII (Michael W. Deem and Ramdas Pophale) SiO2 
 PCOD8235803
Probable space group: P N N M
;
_chemical_formula_sum "Si O2"
_cell_formula_units_Z 56
_cell_length_a 8.361293
_cell_length_b 15.550732
_cell_length_c 19.217642
_cell_angle_alpha 90.000000
_cell_angle_beta 90.000000
_cell_angle_gamma 90.000000
_cell_volume 2498.759038
_symmetry_space_group_name_H-M "P N N M"
_symmetry_group_IT_number 58
_symmetry_cell_setting 'orthorhombic'
loop_
_space_group_symop_operation_xyz
x,y,z
-x,-y,z
1/2+x,1/2-y,1/2-z
1/2-x,1/2+y,1/2-z
-x,-y,-z
x,y,-z
1/2-x,1/2+y,1/2+z
1/2+x,1/2-y,1/2+z
loop_
_atom_site_type_symbol
_atom_site_label
_atom_site_fract_x
_atom_site_fract_y
_atom_site_fract_z
Si Si1 0.772719 0.101140 0.666757
Si Si2 0.767914 0.163207 0.916648
Si Si3 0.038534 0.690935 0.868157
Si Si4 0.232134 0.659108 0.265669
Si Si5 0.824973 0.462843 0.074535
Si Si6 0.312833 0.975937 0.191366
Si Si7 0.480155 0.732829 0.831560
O O1 0.646571 0.164019 0.626887
O O2 0.726290 0.093359 0.748294
O O3 0.949545 0.138512 0.651982
O O4 0.782166 0.005394 0.634669
O O5 0.932593 0.208162 0.887695
O O6 0.743653 0.069714 0.880496
O O7 0.626569 0.227927 0.892809
O O8 0.769721 0.150598 0.000000
O O9 0.103336 0.654480 0.795457
O O10 0.155437 0.639943 0.921819
O O11 0.283685 0.564700 0.293930
O O12 0.382489 0.718220 0.241476
O O13 0.136775 0.707822 0.326064
O O14 0.000000 0.500000 0.086811
O O15 0.752484 0.488642 0.000000
O O16 0.500000 0.000000 0.188369
#
# Coordination Sequence:
#
# PCOD8235803 Si02
#       7
#     8   8   8   8   8   8   8
#     4  11  20  37  64  98 126 161 217 276 335 394
#     4  11  25  42  63  95 134 182 227 270 327 394
#     4  10  18  37  63  86 124 165 215 267 322 396
#     4  11  21  40  62  95 123 164 212 272 328 384
#     4   9  17  30  54  87 123 164 204 251 317 395
#     4  12  21  40  66  94 129 170 222 278 330 397
#     4  11  24  39  65  95 131 166 214 277 336 389
#
# _framework density 22.411124000000001
#
# number of rings (size 3 to 8) (size 9 to 14) (size 15 to 20)
#    0.000    1.286    4.286    3.429    0.000    2.000 
#    0.000    0.000    0.000    2.571    0.000   12.000 
#    0.000    0.000    0.000    0.000    0.000    0.000 
#
# Total GULP energy -693765.447349 kJ/mol
# GULP energy per Si atom -12388.668703 kJ/mol
# Density = 2.236012 g / cm^3
# Si number density = 22.411124 Si / 1000 Ang^3
#
#
#
# Elastic Constant Matrix: (Units=GPa)
#
#
# Indices 1 2 3 4 5 6 
#
# 1 46.9835 24.8686 -1.0959 0.0000 0.0000 0.0000
# 2 24.8686 115.9342 33.8916 0.0000 0.0000 0.0000
# 3 -1.0959 33.8916 103.9796 0.0000 0.0000 0.0000
# 4 0.0000 0.0000 0.0000 34.7270 0.0000 0.0000
# 5 0.0000 0.0000 0.0000 0.0000 15.2248 0.0000
# 6 0.0000 0.0000 0.0000 0.0000 0.0000 38.6491
#
#
#
# Elastic Compliance Matrix: (Units=1/GPa)
#
#
# Indices 1 2 3 4 5 6 
#
# 1 0.024447 -0.005880 0.002174 0.000000 0.000000 0.000000
# 2 -0.005880 0.010948 -0.003630 0.000000 0.000000 0.000000
# 3 0.002174 -0.003630 0.010824 0.000000 0.000000 0.000000
# 4 0.000000 0.000000 0.000000 0.028796 0.000000 0.000000
# 5 0.000000 0.000000 0.000000 0.000000 0.065682 0.000000
# 6 0.000000 0.000000 0.000000 0.000000 0.000000 0.025874
#
#
# Mechanical properties :
#
#
# Convention : Reuss Voigt Hill
#
# Bulk Modulus (GPa) = 31.69915 42.46954 37.08434
# Shear Modulus (GPa) = 26.07455 31.66906 28.87180
#
# Velocity S-wave (km/s) = 3.41466 3.76319 3.59316
# Velocity P-wave (km/s) = 5.45175 6.15415 5.81357
#
# Compressibility (1/GPa) = 0.03154659
#
# Stress axis : x y z
#
# Youngs Moduli (GPa) = 40.90506 91.34016 92.39151
#
# Poissons Ratio (x) = 0.53704 -0.20086
# Poissons Ratio (y) = 0.24050 0.33542
# Poissons Ratio (z) = -0.08893 0.33160
#
# Static dielectric constant tensor:
#      x y z
#    x 4.028180 0.000000 0.000000 
#    y 0.000000 4.534870 0.000000 
#    z 0.000000 0.000000 3.782720 
# 
# 
# High freq. dielectric constant tensor:
#      x y z
#    x 1.867230 0.000000 0.000000 
#    y 0.000000 1.894050 0.000000 
#    z 0.000000 0.000000 1.849530 
# 
# From -- ./inp_files/28944.got.cif
#   From: 2010.06.25/outbox.cif.g09.slc.cpg/sg58_15_cif.got.tgz:28944.got - 2010.06.26 21:38:00.
