data_PCOD8235273
_publ_section_title
;
Structure prediction by ZEFSAII (Michael W. Deem and Ramdas Pophale) SiO2 
 PCOD8235273
Probable space group: P N N M
;
_chemical_formula_sum "Si O2"
_cell_formula_units_Z 64
_cell_length_a 23.286733
_cell_length_b 18.990915
_cell_length_c 8.951862
_cell_angle_alpha 90.000000
_cell_angle_beta 90.000000
_cell_angle_gamma 90.000000
_cell_volume 3958.838929
_symmetry_space_group_name_H-M "P N N M"
_symmetry_group_IT_number 58
_symmetry_cell_setting 'orthorhombic'
loop_
_space_group_symop_operation_xyz
x,y,z
-x,-y,z
1/2+x,1/2-y,1/2-z
1/2-x,1/2+y,1/2-z
-x,-y,-z
x,y,-z
1/2-x,1/2+y,1/2+z
1/2+x,1/2-y,1/2+z
loop_
_atom_site_type_symbol
_atom_site_label
_atom_site_fract_x
_atom_site_fract_y
_atom_site_fract_z
Si Si1 0.763748 0.348571 0.172101
Si Si2 0.063961 0.858180 0.676278
Si Si3 0.163253 0.231556 0.823065
Si Si4 0.066452 0.147663 0.322570
Si Si5 0.618232 0.498866 0.822813
Si Si6 0.223380 0.357031 0.324913
Si Si7 0.339319 0.278482 0.328501
Si Si8 0.748914 0.505364 0.173365
O O1 0.710653 0.325394 0.273759
O O2 0.819925 0.301715 0.206632
O O3 0.779155 0.429959 0.201413
O O4 0.744131 0.336905 0.000000
O O5 0.067960 0.860951 0.500000
O O6 0.085083 0.933164 0.742752
O O7 0.104794 0.795471 0.732008
O O8 0.999339 0.843095 0.727977
O O9 0.101697 0.208783 0.759123
O O10 0.177149 0.308553 0.758267
O O11 0.160998 0.235593 0.000000
O O12 0.074306 0.154626 0.500000
O O13 0.087797 0.071657 0.263712
O O14 0.683756 0.500532 0.767488
O O15 0.615564 0.499054 0.000000
O O16 0.211223 0.352859 0.500000
O O17 0.287245 0.330341 0.284469
O O18 0.216456 0.436744 0.267485
O O19 0.356128 0.288087 0.500000
O O20 0.750562 0.526881 0.000000
#
# Coordination Sequence:
#
# PCOD8235273 Si02
#       8
#     8   8   8   8   8   8   8   8
#     4   9  18  33  50  69  96 131 161 195 246 294
#     4  10  19  30  48  70  93 127 171 204 233 277
#     4  11  21  32  48  70  94 124 165 207 241 282
#     4  10  19  33  49  66  94 133 168 200 240 285
#     4   9  16  28  46  68  96 129 165 199 228 272
#     4  10  20  33  49  69  97 128 158 196 248 295
#     4   9  18  31  46  65  94 128 159 194 239 285
#     4  10  17  29  51  73  96 127 163 198 235 286
#
# _framework density 16.166357000000001
#
# number of rings (size 3 to 8) (size 9 to 14) (size 15 to 20)
#    0.000    2.250    2.500    2.625    0.000    4.500 
#    0.000    0.625    0.000    1.500    0.000    0.875 
#    0.000    7.000    0.000    0.000    0.000    0.000 
#
# Total GULP energy -793647.801712 kJ/mol
# GULP energy per Si atom -12400.746902 kJ/mol
# Density = 1.612956 g / cm^3
# Si number density = 16.166357 Si / 1000 Ang^3
#
#
#
# Elastic Constant Matrix: (Units=GPa)
#
#
# Indices 1 2 3 4 5 6 
#
# 1 93.4726 61.7000 32.5277 0.0000 0.0000 0.0000
# 2 61.7000 125.1046 40.2612 0.0000 0.0000 0.0000
# 3 32.5277 40.2612 53.2555 0.0000 0.0000 0.0000
# 4 0.0000 0.0000 0.0000 25.6997 0.0000 0.0000
# 5 0.0000 0.0000 0.0000 0.0000 21.8026 0.0000
# 6 0.0000 0.0000 0.0000 0.0000 0.0000 25.6658
#
#
#
# Elastic Compliance Matrix: (Units=1/GPa)
#
#
# Indices 1 2 3 4 5 6 
#
# 1 0.016932 -0.006637 -0.005324 0.000000 0.000000 0.000000
# 2 -0.006637 0.013165 -0.005899 0.000000 0.000000 0.000000
# 3 -0.005324 -0.005899 0.026489 0.000000 0.000000 0.000000
# 4 0.000000 0.000000 0.000000 0.038911 0.000000 0.000000
# 5 0.000000 0.000000 0.000000 0.000000 0.045866 0.000000
# 6 0.000000 0.000000 0.000000 0.000000 0.000000 0.038962
#
#
# Mechanical properties :
#
#
# Convention : Reuss Voigt Hill
#
# Bulk Modulus (GPa) = 47.92584 60.09005 54.00794
# Shear Modulus (GPa) = 22.42133 23.78986 23.10559
#
# Velocity S-wave (km/s) = 3.72817 3.84026 3.78463
# Velocity P-wave (km/s) = 6.94565 7.54414 7.25107
#
# Compressibility (1/GPa) = 0.02086557
#
# Stress axis : x y z
#
# Youngs Moduli (GPa) = 59.05850 75.95803 37.75171
#
# Poissons Ratio (x) = 0.50416 0.20100
# Poissons Ratio (y) = 0.39200 0.22269
# Poissons Ratio (z) = 0.31444 0.44806
#
# Static dielectric constant tensor:
#      x y z
#    x 2.916090 0.000000 0.000000 
#    y 0.000000 3.162690 0.000000 
#    z 0.000000 0.000000 2.871560 
# 
# 
# High freq. dielectric constant tensor:
#      x y z
#    x 1.594090 0.000000 0.000000 
#    y 0.000000 1.620610 0.000000 
#    z 0.000000 0.000000 1.609210 
# 
# From -- ./inp_files/8473.got.cif
#   From: 2010.06.25/outbox.cif.g09.slc.cpg/sg58_5_cif.got.tgz:8473.got - 2010.06.26 21:38:00.
