data_PCOD8235865
_publ_section_title
;
Structure prediction by ZEFSAII (Michael W. Deem and Ramdas Pophale) SiO2 
 PCOD8235865
Probable space group: P N N M
;
_chemical_formula_sum "Si O2"
_cell_formula_units_Z 56
_cell_length_a 18.852522
_cell_length_b 18.648009
_cell_length_c 9.166174
_cell_angle_alpha 90.000000
_cell_angle_beta 90.000000
_cell_angle_gamma 90.000000
_cell_volume 3222.478463
_symmetry_space_group_name_H-M "P N N M"
_symmetry_group_IT_number 58
_symmetry_cell_setting 'orthorhombic'
loop_
_space_group_symop_operation_xyz
x,y,z
-x,-y,z
1/2+x,1/2-y,1/2-z
1/2-x,1/2+y,1/2-z
-x,-y,-z
x,y,-z
1/2-x,1/2+y,1/2+z
1/2+x,1/2-y,1/2+z
loop_
_atom_site_type_symbol
_atom_site_label
_atom_site_fract_x
_atom_site_fract_y
_atom_site_fract_z
Si Si1 0.118069 0.307868 0.171703
Si Si2 0.248410 0.348324 0.667937
Si Si3 0.049628 0.161258 0.170572
Si Si4 0.397643 0.395038 0.330245
Si Si5 0.134788 0.041175 0.332445
Si Si6 0.780980 0.512606 0.835665
Si Si7 0.067299 0.461342 0.832403
O O1 0.196901 0.296213 0.239976
O O2 0.067704 0.242364 0.217880
O O3 0.083685 0.382038 0.233093
O O4 0.128640 0.311991 0.000000
O O5 0.230502 0.335394 0.500000
O O6 0.332800 0.339166 0.699684
O O7 0.232908 0.429896 0.710974
O O8 0.102376 0.108525 0.252145
O O9 0.968784 0.146314 0.215487
O O10 0.061835 0.149533 0.000000
O O11 0.398472 0.417933 0.500000
O O12 0.392610 0.466964 0.235703
O O13 0.110640 0.042135 0.500000
O O14 0.221002 0.048595 0.318336
O O15 0.862874 0.487154 0.815529
O O16 0.774148 0.546403 0.000000
O O17 0.000000 0.500000 0.753874
O O18 0.046767 0.449292 0.000000
#
# Coordination Sequence:
#
# PCOD8235865 Si02
#       7
#     8   8   8   8   8   8   8
#     4   9  18  32  48  66  91 124 157 189 233 285
#     4   9  16  28  48  69  88 114 150 190 228 269
#     4  10  20  33  47  65  94 129 160 191 231 282
#     4   9  18  32  49  69  92 122 160 196 231 275
#     4  10  19  30  46  70  97 124 156 195 238 279
#     4   8  15  28  45  67  93 117 145 183 228 278
#     4   8  13  25  48  72  88 109 149 196 234 269
#
# _framework density 17.377928000000001
#
# number of rings (size 3 to 8) (size 9 to 14) (size 15 to 20)
#    0.000    3.000    0.000    2.143    0.000    4.000 
#    0.000    1.429    0.000   12.000    0.000    2.000 
#    0.000    0.000    0.000    0.000    0.000    0.000 
#
# Total GULP energy -693763.435136 kJ/mol
# GULP energy per Si atom -12388.632770 kJ/mol
# Density = 1.733838 g / cm^3
# Si number density = 17.377928 Si / 1000 Ang^3
#
#
#
# Elastic Constant Matrix: (Units=GPa)
#
#
# Indices 1 2 3 4 5 6 
#
# 1 167.3070 73.6952 40.6314 0.0000 0.0000 0.0000
# 2 73.6952 82.9543 30.6506 0.0000 0.0000 0.0000
# 3 40.6314 30.6506 37.6489 0.0000 0.0000 0.0000
# 4 0.0000 0.0000 0.0000 17.7755 0.0000 0.0000
# 5 0.0000 0.0000 0.0000 0.0000 22.5171 0.0000
# 6 0.0000 0.0000 0.0000 0.0000 0.0000 23.1385
#
#
#
# Elastic Compliance Matrix: (Units=1/GPa)
#
#
# Indices 1 2 3 4 5 6 
#
# 1 0.010525 -0.007370 -0.005358 0.000000 0.000000 0.000000
# 2 -0.007370 0.022402 -0.010284 0.000000 0.000000 0.000000
# 3 -0.005358 -0.010284 0.040716 0.000000 0.000000 0.000000
# 4 0.000000 0.000000 0.000000 0.056257 0.000000 0.000000
# 5 0.000000 0.000000 0.000000 0.000000 0.044411 0.000000
# 6 0.000000 0.000000 0.000000 0.000000 0.000000 0.043218
#
#
# Mechanical properties :
#
#
# Convention : Reuss Voigt Hill
#
# Bulk Modulus (GPa) = 36.20781 64.20717 50.20749
# Shear Modulus (GPa) = 18.33114 22.21510 20.27312
#
# Velocity S-wave (km/s) = 3.25137 3.57928 3.41926
# Velocity P-wave (km/s) = 5.91405 7.35591 6.67403
#
# Compressibility (1/GPa) = 0.02761835
#
# Stress axis : x y z
#
# Youngs Moduli (GPa) = 95.01438 44.63865 24.56020
#
# Poissons Ratio (x) = 0.32899 0.13160
# Poissons Ratio (y) = 0.70027 0.25258
# Poissons Ratio (z) = 0.50912 0.45906
#
# Static dielectric constant tensor:
#      x y z
#    x 3.753640 0.000000 0.000000 
#    y 0.000000 3.037670 0.000000 
#    z 0.000000 0.000000 3.138540 
# 
# 
# High freq. dielectric constant tensor:
#      x y z
#    x 1.690060 0.000000 0.000000 
#    y 0.000000 1.628390 0.000000 
#    z 0.000000 0.000000 1.657770 
# 
# From -- ./inp_files/8147.got.cif
#   From: 2010.06.25/outbox.cif.g09.slc.cpg/sg58_5_cif.got.tgz:8147.got - 2010.06.26 21:38:00.
