data_PCOD8235259
_publ_section_title
;
Structure prediction by ZEFSAII (Michael W. Deem and Ramdas Pophale) SiO2 
 PCOD8235259
Probable space group: P N N M
;
_chemical_formula_sum "Si O2"
_cell_formula_units_Z 64
_cell_length_a 11.779510
_cell_length_b 17.441540
_cell_length_c 14.181802
_cell_angle_alpha 90.000000
_cell_angle_beta 90.000000
_cell_angle_gamma 90.000000
_cell_volume 2913.690857
_symmetry_space_group_name_H-M "P N N M"
_symmetry_group_IT_number 58
_symmetry_cell_setting 'orthorhombic'
loop_
_space_group_symop_operation_xyz
x,y,z
-x,-y,z
1/2+x,1/2-y,1/2-z
1/2-x,1/2+y,1/2-z
-x,-y,-z
x,y,-z
1/2-x,1/2+y,1/2+z
1/2+x,1/2-y,1/2+z
loop_
_atom_site_type_symbol
_atom_site_label
_atom_site_fract_x
_atom_site_fract_y
_atom_site_fract_z
Si Si1 0.439138 0.112149 0.394796
Si Si2 0.050492 0.883429 0.394970
Si Si3 0.289933 0.377110 0.260999
Si Si4 0.302209 0.721596 0.709041
Si Si5 0.576875 0.796719 0.890998
Si Si6 0.942699 0.574583 0.708776
Si Si7 0.304917 0.633137 0.894609
Si Si8 0.036668 0.790996 0.891551
O O1 0.486251 0.093798 0.500000
O O2 0.521713 0.074301 0.319287
O O3 0.308786 0.081266 0.382683
O O4 0.427647 0.203254 0.378854
O O5 0.098384 0.899409 0.500000
O O6 0.132464 0.920946 0.316819
O O7 0.044966 0.791869 0.373950
O O8 0.921805 0.916571 0.385080
O O9 0.216027 0.312931 0.204975
O O10 0.368457 0.343873 0.343309
O O11 0.194032 0.434563 0.301290
O O12 0.196090 0.681110 0.657392
O O13 0.307288 0.699993 0.818255
O O14 0.415207 0.694950 0.656115
O O15 0.479904 0.847601 0.842485
O O16 0.584459 0.817556 0.000000
O O17 0.000000 0.500000 0.660605
O O18 0.304111 0.670969 0.000000
O O19 0.028203 0.815561 0.000000
#
# Coordination Sequence:
#
# PCOD8235259 Si02
#       8
#     8   8   8   8   8   8   8   8
#     4  10  20  35  55  83 115 148 186 234 290 350
#     4   9  18  32  56  88 115 142 175 232 305 351
#     4  11  21  33  53  81 118 151 184 235 277 340
#     4  11  18  33  58  84 117 144 178 236 309 347
#     4  10  21  36  55  81 111 147 191 238 288 344
#     4  12  25  40  56  78 114 165 202 227 269 335
#     4  10  17  28  53  84 113 142 173 221 291 352
#     4  11  21  33  56  88 117 146 181 238 304 350
#
# _framework density 21.965267999999998
#
# number of rings (size 3 to 8) (size 9 to 14) (size 15 to 20)
#    0.000    1.500    5.000    1.875    0.000    2.000 
#    0.000    0.000    0.000    3.000    0.000    4.375 
#    0.000    0.000    0.000    0.000    0.000    0.000 
#
# Total GULP energy -793399.855858 kJ/mol
# GULP energy per Si atom -12396.872748 kJ/mol
# Density = 2.191527 g / cm^3
# Si number density = 21.965268 Si / 1000 Ang^3
#
#
#
# Elastic Constant Matrix: (Units=GPa)
#
#
# Indices 1 2 3 4 5 6 
#
# 1 144.1315 3.9759 47.8250 0.0000 0.0000 0.0000
# 2 3.9759 11.1417 1.2501 0.0000 0.0000 0.0000
# 3 47.8250 1.2501 113.6225 0.0000 0.0000 0.0000
# 4 0.0000 0.0000 0.0000 6.5088 0.0000 0.0000
# 5 0.0000 0.0000 0.0000 0.0000 27.8198 0.0000
# 6 0.0000 0.0000 0.0000 0.0000 0.0000 19.9011
#
#
#
# Elastic Compliance Matrix: (Units=1/GPa)
#
#
# Indices 1 2 3 4 5 6 
#
# 1 0.008135 -0.002522 -0.003396 0.000000 0.000000 0.000000
# 2 -0.002522 0.090645 0.000064 0.000000 0.000000 0.000000
# 3 -0.003396 0.000064 0.010230 0.000000 0.000000 0.000000
# 4 0.000000 0.000000 0.000000 0.153638 0.000000 0.000000
# 5 0.000000 0.000000 0.000000 0.000000 0.035946 0.000000
# 6 0.000000 0.000000 0.000000 0.000000 0.000000 0.050249
#
#
# Mechanical properties :
#
#
# Convention : Reuss Voigt Hill
#
# Bulk Modulus (GPa) = 10.27726 41.66639 25.97182
# Shear Modulus (GPa) = 12.72318 25.23558 18.97938
#
# Velocity S-wave (km/s) = 2.40935 3.39320 2.94268
# Velocity P-wave (km/s) = 3.52548 5.86192 4.83690
#
# Compressibility (1/GPa) = 0.09730221
#
# Stress axis : x y z
#
# Youngs Moduli (GPa) = 122.93197 11.03201 97.75298
#
# Poissons Ratio (x) = 0.02782 0.33199
# Poissons Ratio (y) = 0.31000 -0.00627
# Poissons Ratio (z) = 0.41750 -0.00071
#
# Static dielectric constant tensor:
#      x y z
#    x 4.436090 0.000000 0.000000 
#    y 0.000000 3.347070 0.000000 
#    z 0.000000 0.000000 4.086640 
# 
# 
# High freq. dielectric constant tensor:
#      x y z
#    x 1.888130 0.000000 0.000000 
#    y 0.000000 1.800790 0.000000 
#    z 0.000000 0.000000 1.868430 
# 
# From -- ./inp_files/21516.got.cif
#   From: 2010.06.25/outbox.cif.g09.slc.cpg/sg58_11_cif.got.tgz:21516.got - 2010.06.26 21:38:00.
