data_PCOD8235185
_publ_section_title
;
Structure prediction by ZEFSAII (Michael W. Deem and Ramdas Pophale) SiO2 
 PCOD8235185
Probable space group: P B C M
;
_chemical_formula_sum "Si O2"
_cell_formula_units_Z 64
_cell_length_a 24.000000
_cell_length_b 15.000000
_cell_length_c 9.000000
_cell_angle_alpha 90.000000
_cell_angle_beta 90.000000
_cell_angle_gamma 90.000000
_cell_volume 3240.000000
_symmetry_space_group_name_H-M "P B C M"
_symmetry_group_IT_number 57
_symmetry_cell_setting 'orthorhombic'
loop_
_space_group_symop_operation_xyz
x,y,z
-x,-y,1/2+z
x,1/2-y,-z
-x,1/2+y,1/2-z
-x,-y,-z
x,y,1/2-z
-x,1/2+y,z
x,1/2-y,1/2+z
loop_
_atom_site_type_symbol
_atom_site_label
_atom_site_fract_x
_atom_site_fract_y
_atom_site_fract_z
Si Si1 0.862571 0.495719 0.572599
Si Si2 0.322624 0.339272 0.576316
Si Si3 0.335146 0.659854 0.427960
Si Si4 0.947198 0.341195 0.922817
Si Si5 0.446318 0.890486 0.419681
Si Si6 0.743691 0.014814 0.573562
Si Si7 0.556827 0.898328 0.919465
Si Si8 0.074412 0.156357 0.073723
O O1 0.857633 0.505403 0.750000
O O2 0.905795 0.418769 0.525589
O O3 0.803373 0.471119 0.502015
O O4 0.884447 0.586286 0.500926
O O5 0.300139 0.250000 0.500000
O O6 0.326232 0.323390 0.750000
O O7 0.278226 0.415827 0.538891
O O8 0.384571 0.362380 0.516324
O O9 0.310582 0.750000 0.500000
O O10 0.329805 0.660701 0.250000
O O11 0.399646 0.652264 0.475350
O O12 0.300009 0.580258 0.497617
O O13 0.942153 0.322884 0.750000
O O14 0.010412 0.368717 0.964866
O O15 0.928806 0.250000 0.000000
O O16 0.438743 0.857207 0.250000
O O17 0.506894 0.859910 0.479462
O O18 0.440582 0.995852 0.429183
O O19 0.746825 0.033170 0.750000
O O20 0.546794 0.868019 0.750000
O O21 0.084797 0.159934 0.250000
O O22 0.089768 0.250000 0.000000
#
# Coordination Sequence:
#
# PCOD8235185 Si02
#       8
#     8   8   8   8   8   8   8   8
#     4  11  23  39  60  90 123 160 204 251 297 359
#     4  10  22  40  62  86 116 152 195 245 298 354
#     4  12  25  42  65  90 117 155 200 249 305 366
#     4   9  20  37  60  90 126 160 199 245 297 354
#     4  10  19  35  59  88 121 155 192 240 296 358
#     4  11  24  45  64  85 119 159 203 256 304 352
#     4   9  18  35  57  85 120 156 192 238 295 357
#     4  10  20  37  61  91 124 163 201 246 300 354
#
# _framework density 19.753086
#
# number of rings (size 3 to 8) (size 9 to 14) (size 15 to 20)
#    0.000    1.750    1.250    3.000    0.000    5.000 
#    0.000    3.750    0.000    0.000    0.000    0.000 
#    0.000    0.000    0.000    0.000    0.000    0.000 
#
# Total GULP energy -793802.215064 kJ/mol
# GULP energy per Si atom -12403.159610 kJ/mol
# Density = 1.970813 g / cm^3
# Si number density = 19.753086 Si / 1000 Ang^3
#
#
#
# Elastic Constant Matrix: (Units=GPa)
#
#
# Indices 1 2 3 4 5 6 
#
# 1 81.1808 19.9867 33.8115 0.0000 0.0000 0.0000
# 2 19.9867 74.4009 40.5623 0.0000 0.0000 0.0000
# 3 33.8115 40.5623 112.7057 0.0000 0.0000 0.0000
# 4 0.0000 0.0000 0.0000 36.6321 0.0000 0.0000
# 5 0.0000 0.0000 0.0000 0.0000 37.9004 0.0000
# 6 0.0000 0.0000 0.0000 0.0000 0.0000 11.3758
#
#
#
# Elastic Compliance Matrix: (Units=1/GPa)
#
#
# Indices 1 2 3 4 5 6 
#
# 1 0.014283 -0.001867 -0.003613 0.000000 0.000000 0.000000
# 2 -0.001867 0.016966 -0.005546 0.000000 0.000000 0.000000
# 3 -0.003613 -0.005546 0.011952 0.000000 0.000000 0.000000
# 4 0.000000 0.000000 0.000000 0.027298 0.000000 0.000000
# 5 0.000000 0.000000 0.000000 0.000000 0.026385 0.000000
# 6 0.000000 0.000000 0.000000 0.000000 0.000000 0.087906
#
#
# Mechanical properties :
#
#
# Convention : Reuss Voigt Hill
#
# Bulk Modulus (GPa) = 47.28283 50.77873 49.03078
# Shear Modulus (GPa) = 23.37635 28.77678 26.07656
#
# Velocity S-wave (km/s) = 3.44383 3.82098 3.63730
# Velocity P-wave (km/s) = 6.30890 6.72525 6.52040
#
# Compressibility (1/GPa) = 0.02114933
#
# Stress axis : x y z
#
# Youngs Moduli (GPa) = 70.01537 58.94225 83.66533
#
# Poissons Ratio (x) = 0.11006 0.30226
# Poissons Ratio (y) = 0.13073 0.46399
# Poissons Ratio (z) = 0.25295 0.32688
#
# Static dielectric constant tensor:
#      x y z
#    x 3.740100 0.000000 0.000000 
#    y 0.000000 3.675660 0.000000 
#    z 0.000000 0.000000 3.719840 
# 
# 
# High freq. dielectric constant tensor:
#      x y z
#    x 1.776770 0.000000 0.000000 
#    y 0.000000 1.776040 0.000000 
#    z 0.000000 0.000000 1.781780 
# 
# From -- ./inp_files/9378.got.cif
#   From: 2010.03.12/outbox.ucp.g09.slc.cvg/sg57_5_cif.got.tgz:9378.got - 2010.05.04 19:26:41.
