data_PCOD8235799
_publ_section_title
;
Structure prediction by ZEFSAII (Michael W. Deem and Ramdas Pophale) SiO2 
 PCOD8235799
Probable space group: P N N M
;
_chemical_formula_sum "Si O2"
_cell_formula_units_Z 64
_cell_length_a 14.830170
_cell_length_b 12.042997
_cell_length_c 18.207624
_cell_angle_alpha 90.000000
_cell_angle_beta 90.000000
_cell_angle_gamma 90.000000
_cell_volume 3251.876053
_symmetry_space_group_name_H-M "P N N M"
_symmetry_group_IT_number 58
_symmetry_cell_setting 'orthorhombic'
loop_
_space_group_symop_operation_xyz
x,y,z
-x,-y,z
1/2+x,1/2-y,1/2-z
1/2-x,1/2+y,1/2-z
-x,-y,-z
x,y,-z
1/2-x,1/2+y,1/2+z
1/2+x,1/2-y,1/2+z
loop_
_atom_site_type_symbol
_atom_site_label
_atom_site_fract_x
_atom_site_fract_y
_atom_site_fract_z
Si Si1 0.251881 0.079315 0.345691
Si Si2 0.537261 0.776900 0.177498
Si Si3 0.809614 0.962502 0.190722
Si Si4 0.878712 0.736428 0.780989
Si Si5 0.060880 0.105879 0.584819
Si Si6 0.815970 0.347162 0.583472
Si Si7 0.816638 0.205977 0.789494
Si Si8 0.692544 0.141476 0.417776
O O1 0.255944 0.032713 0.262195
O O2 0.149533 0.109792 0.365450
O O3 0.315228 0.190775 0.347640
O O4 0.284776 0.987029 0.402534
O O5 0.455047 0.817941 0.229020
O O6 0.500585 0.706769 0.109608
O O7 0.594859 0.869668 0.133529
O O8 0.606078 0.712202 0.229182
O O9 0.888313 0.871419 0.209764
O O10 0.761241 0.924371 0.116504
O O11 0.839668 0.088152 0.172203
O O12 0.780302 0.708219 0.749720
O O13 0.885305 0.680912 0.861535
O O14 0.088296 0.117676 0.500000
O O15 0.000000 0.000000 0.599965
O O16 0.834949 0.382949 0.500000
O O17 0.782525 0.218339 0.588664
O O18 0.653255 0.150076 0.500000
#
# Coordination Sequence:
#
# PCOD8235799 Si02
#       8
#     8   8   8   8   8   8   8   8
#     4  11  19  36  57  85 122 158 198 239 300 360
#     4  12  20  35  60  88 120 155 194 254 293 354
#     4  10  18  37  58  81 123 155 203 240 284 361
#     4  10  21  35  59  91 113 157 204 243 302 350
#     4  11  22  32  53  94 130 151 184 246 320 369
#     4  10  20  36  60  91 119 154 194 242 301 356
#     4  11  21  37  57  83 119 156 207 242 286 354
#     4  10  19  37  63  88 117 149 197 255 301 348
#
# _framework density 19.680947
#
# number of rings (size 3 to 8) (size 9 to 14) (size 15 to 20)
#    0.000    1.375    7.500    2.250    0.000    2.000 
#    0.000    3.750    0.000    3.750    0.000    3.500 
#    0.000    0.000    0.000    0.000    0.000    0.000 
#
# Total GULP energy -792912.384329 kJ/mol
# GULP energy per Si atom -12389.256005 kJ/mol
# Density = 1.963615 g / cm^3
# Si number density = 19.680947 Si / 1000 Ang^3
#
#
#
# Elastic Constant Matrix: (Units=GPa)
#
#
# Indices 1 2 3 4 5 6 
#
# 1 49.4721 2.9228 31.2020 0.0000 0.0000 0.0000
# 2 2.9228 74.0705 14.3252 0.0000 0.0000 0.0000
# 3 31.2020 14.3252 101.8703 0.0000 0.0000 0.0000
# 4 0.0000 0.0000 0.0000 26.4041 0.0000 0.0000
# 5 0.0000 0.0000 0.0000 0.0000 34.4623 0.0000
# 6 0.0000 0.0000 0.0000 0.0000 0.0000 9.1574
#
#
#
# Elastic Compliance Matrix: (Units=1/GPa)
#
#
# Indices 1 2 3 4 5 6 
#
# 1 0.025072 0.000510 -0.007751 0.000000 0.000000 0.000000
# 2 0.000510 0.013888 -0.002109 0.000000 0.000000 0.000000
# 3 -0.007751 -0.002109 0.012487 0.000000 0.000000 0.000000
# 4 0.000000 0.000000 0.000000 0.037873 0.000000 0.000000
# 5 0.000000 0.000000 0.000000 0.000000 0.029017 0.000000
# 6 0.000000 0.000000 0.000000 0.000000 0.000000 0.109201
#
#
# Mechanical properties :
#
#
# Convention : Reuss Voigt Hill
#
# Bulk Modulus (GPa) = 30.53761 35.81255 33.17508
# Shear Modulus (GPa) = 19.44353 25.80230 22.62291
#
# Velocity S-wave (km/s) = 3.14656 3.62474 3.39408
# Velocity P-wave (km/s) = 5.36201 5.97950 5.67915
#
# Compressibility (1/GPa) = 0.03274650
#
# Stress axis : x y z
#
# Youngs Moduli (GPa) = 39.88547 72.00234 80.08308
#
# Poissons Ratio (x) = -0.03670 0.62072
# Poissons Ratio (y) = -0.02033 0.16891
# Poissons Ratio (z) = 0.30915 0.15186
#
# Static dielectric constant tensor:
#      x y z
#    x 3.424330 0.000000 0.000000 
#    y 0.000000 3.639810 0.000000 
#    z 0.000000 0.000000 3.675560 
# 
# 
# High freq. dielectric constant tensor:
#      x y z
#    x 1.733410 0.000000 0.000000 
#    y 0.000000 1.754060 0.000000 
#    z 0.000000 0.000000 1.767880 
# 
# From -- ./inp_files/26996.got.cif
#   From: 2010.06.25/outbox.cif.g09.slc.cpg/sg58_14_cif.got.tgz:26996.got - 2010.06.26 21:38:00.
