data_PCOD8235287
_publ_section_title
;
Structure prediction by ZEFSAII (Michael W. Deem and Ramdas Pophale) SiO2 
 PCOD8235287
Probable space group: P N N M
;
_chemical_formula_sum "Si O2"
_cell_formula_units_Z 52
_cell_length_a 24.361710
_cell_length_b 7.927662
_cell_length_c 14.967918
_cell_angle_alpha 90.000000
_cell_angle_beta 90.000000
_cell_angle_gamma 90.000000
_cell_volume 2890.774998
_symmetry_space_group_name_H-M "P N N M"
_symmetry_group_IT_number 58
_symmetry_cell_setting 'orthorhombic'
loop_
_space_group_symop_operation_xyz
x,y,z
-x,-y,z
1/2+x,1/2-y,1/2-z
1/2-x,1/2+y,1/2-z
-x,-y,-z
x,y,-z
1/2-x,1/2+y,1/2+z
1/2+x,1/2-y,1/2+z
loop_
_atom_site_type_symbol
_atom_site_label
_atom_site_fract_x
_atom_site_fract_y
_atom_site_fract_z
Si Si1 0.711802 0.281484 0.500000
Si Si2 0.759513 0.415149 0.000000
Si Si3 0.298939 0.926038 0.000000
Si Si4 0.592438 0.817065 0.397809
Si Si5 0.520400 0.311750 0.398733
Si Si6 0.801794 0.257660 0.824991
Si Si7 0.130424 0.314702 0.849144
Si Si8 0.195392 0.456183 0.691554
O O1 0.743658 0.458983 0.500000
O O2 0.673703 0.278357 0.587359
O O3 0.753504 0.117101 0.500000
O O4 0.793232 0.384592 0.091036
O O5 0.710494 0.278025 0.000000
O O6 0.331402 0.968660 0.908187
O O7 0.593383 0.753857 0.500000
O O8 0.530252 0.801035 0.361337
O O9 0.635043 0.697541 0.340864
O O10 0.611272 0.008714 0.389676
O O11 0.500000 0.500000 0.394731
O O12 0.535780 0.257322 0.500000
O O13 0.574760 0.293819 0.338175
O O14 0.798454 0.358776 0.732248
O O15 0.757703 0.110066 0.821782
O O16 0.158053 0.334393 0.751540
#
# Coordination Sequence:
#
# PCOD8235287 Si02
#       8
#     4   4   4   8   8   8   8   8
#     4  12  18  34  55  73 109 148 175 213 267 317
#     4  10  18  34  49  73 106 136 180 204 269 310
#     4  10  24  34  50  77 104 144 179 236 261 307
#     4  10  17  31  52  68 102 139 171 206 254 327
#     4  10  21  32  47  78 110 138 174 215 263 329
#     4  10  18  33  48  76 100 141 175 217 256 323
#     4  11  19  34  50  75 103 146 181 210 264 324
#     4  10  21  32  50  73 105 136 185 219 267 306
#
# _framework density 17.988254999999999
#
# number of rings (size 3 to 8) (size 9 to 14) (size 15 to 20)
#    0.000    1.692    5.385    1.385    0.000    4.923 
#    0.000    0.000    0.000    0.000    0.000    9.154 
#    0.000    0.000    0.000    0.000    0.000    0.000 
#
# Total GULP energy -644248.971376 kJ/mol
# GULP energy per Si atom -12389.403296 kJ/mol
# Density = 1.794731 g / cm^3
# Si number density = 17.988255 Si / 1000 Ang^3
#
#
#
# Elastic Constant Matrix: (Units=GPa)
#
#
# Indices 1 2 3 4 5 6 
#
# 1 83.6742 26.6571 33.1469 0.0000 0.0000 0.0000
# 2 26.6571 32.0810 10.8948 0.0000 0.0000 0.0000
# 3 33.1469 10.8948 125.6626 0.0000 0.0000 0.0000
# 4 0.0000 0.0000 0.0000 16.0977 0.0000 0.0000
# 5 0.0000 0.0000 0.0000 0.0000 20.5211 0.0000
# 6 0.0000 0.0000 0.0000 0.0000 0.0000 25.3684
#
#
#
# Elastic Compliance Matrix: (Units=1/GPa)
#
#
# Indices 1 2 3 4 5 6 
#
# 1 0.017617 -0.013456 -0.003480 0.000000 0.000000 0.000000
# 2 -0.013456 0.042395 -0.000126 0.000000 0.000000 0.000000
# 3 -0.003480 -0.000126 0.008887 0.000000 0.000000 0.000000
# 4 0.000000 0.000000 0.000000 0.062121 0.000000 0.000000
# 5 0.000000 0.000000 0.000000 0.000000 0.048730 0.000000
# 6 0.000000 0.000000 0.000000 0.000000 0.000000 0.039419
#
#
# Mechanical properties :
#
#
# Convention : Reuss Voigt Hill
#
# Bulk Modulus (GPa) = 28.75772 42.53502 35.64637
# Shear Modulus (GPa) = 18.87606 23.77870 21.32738
#
# Velocity S-wave (km/s) = 3.24289 3.63974 3.44703
# Velocity P-wave (km/s) = 5.48119 6.43125 5.97513
#
# Compressibility (1/GPa) = 0.03477327
#
# Stress axis : x y z
#
# Youngs Moduli (GPa) = 56.76413 23.58751 112.52699
#
# Poissons Ratio (x) = 0.31740 0.39162
# Poissons Ratio (y) = 0.76384 0.01419
# Poissons Ratio (z) = 0.19755 0.00298
#
# Static dielectric constant tensor:
#      x y z
#    x 3.639920 0.000000 0.000000 
#    y 0.000000 3.247100 0.000000 
#    z 0.000000 0.000000 3.460630 
# 
# 
# High freq. dielectric constant tensor:
#      x y z
#    x 1.674530 0.000000 0.000000 
#    y 0.000000 1.695170 0.000000 
#    z 0.000000 0.000000 1.671420 
# 
# From -- ./inp_files/23488.got.cif
#   From: 2010.06.25/outbox.cif.g09.slc.cpg/sg58_12_cif.got.tgz:23488.got - 2010.06.26 21:38:00.
