data_PCOD8235325
_publ_section_title
;
Structure prediction by ZEFSAII (Michael W. Deem and Ramdas Pophale) SiO2 
 PCOD8235325
Probable space group: P N N M
;
_chemical_formula_sum "Si O2"
_cell_formula_units_Z 64
_cell_length_a 18.047916
_cell_length_b 27.006836
_cell_length_c 8.935098
_cell_angle_alpha 90.000000
_cell_angle_beta 90.000000
_cell_angle_gamma 90.000000
_cell_volume 4355.119623
_symmetry_space_group_name_H-M "P N N M"
_symmetry_group_IT_number 58
_symmetry_cell_setting 'orthorhombic'
loop_
_space_group_symop_operation_xyz
x,y,z
-x,-y,z
1/2+x,1/2-y,1/2-z
1/2-x,1/2+y,1/2-z
-x,-y,-z
x,y,-z
1/2-x,1/2+y,1/2+z
1/2+x,1/2-y,1/2+z
loop_
_atom_site_type_symbol
_atom_site_label
_atom_site_fract_x
_atom_site_fract_y
_atom_site_fract_z
Si Si1 0.916324 0.053127 0.822507
Si Si2 0.417719 0.259172 0.822987
Si Si3 0.426402 0.744755 0.326936
Si Si4 0.171318 0.149052 0.825226
Si Si5 0.296609 0.201160 0.667223
Si Si6 0.917758 0.943991 0.177978
Si Si7 0.663053 0.649897 0.677141
Si Si8 0.695457 0.202513 0.833897
O O1 0.859459 0.095103 0.766128
O O2 0.998821 0.064849 0.761342
O O3 0.890138 0.998480 0.768415
O O4 0.919570 0.053036 0.000000
O O5 0.501955 0.251218 0.775256
O O6 0.370437 0.212759 0.761262
O O7 0.389444 0.311112 0.758965
O O8 0.410945 0.260085 0.000000
O O9 0.448171 0.750032 0.500000
O O10 0.386758 0.692818 0.292821
O O11 0.371455 0.789943 0.282270
O O12 0.249476 0.157313 0.743059
O O13 0.136384 0.098452 0.758778
O O14 0.188553 0.145380 0.000000
O O15 0.319280 0.184841 0.500000
O O16 0.247120 0.249769 0.663253
O O17 0.918299 0.940202 0.000000
O O18 0.650107 0.656969 0.500000
O O19 0.750157 0.657625 0.716871
O O20 0.662871 0.192764 0.000000
#
# Coordination Sequence:
#
# PCOD8235325 Si02
#       8
#     8   8   8   8   8   8   8   8
#     4   8  13  22  37  58  82 108 137 169 200 226
#     4  11  20  28  40  58  80 104 132 165 200 238
#     4  10  18  27  40  57  78 104 133 163 196 236
#     4   9  16  26  41  60  81 107 138 169 199 231
#     4   9  17  29  42  56  77 104 133 164 198 237
#     4   8  13  21  36  59  84 107 136 171 199 225
#     4   9  16  27  42  58  79 107 138 168 199 234
#     4   8  15  26  38  54  76 101 129 163 198 231
#
# _framework density 14.695349
#
# number of rings (size 3 to 8) (size 9 to 14) (size 15 to 20)
#    0.000    3.000    0.000    4.125    0.000    5.500 
#    0.000    0.000    0.000    0.750    0.000    2.625 
#    0.000    1.000    0.000   11.750    0.000    2.250 
#
# Total GULP energy -793211.504355 kJ/mol
# GULP energy per Si atom -12393.929756 kJ/mol
# Density = 1.466190 g / cm^3
# Si number density = 14.695349 Si / 1000 Ang^3
#
#
#
# Elastic Constant Matrix: (Units=GPa)
#
#
# Indices 1 2 3 4 5 6 
#
# 1 79.7203 56.1992 38.4961 0.0000 0.0000 0.0000
# 2 56.1992 98.8400 27.7076 0.0000 0.0000 0.0000
# 3 38.4961 27.7076 58.4742 0.0000 0.0000 0.0000
# 4 0.0000 0.0000 0.0000 12.0702 0.0000 0.0000
# 5 0.0000 0.0000 0.0000 0.0000 22.8432 0.0000
# 6 0.0000 0.0000 0.0000 0.0000 0.0000 27.9221
#
#
#
# Elastic Compliance Matrix: (Units=1/GPa)
#
#
# Indices 1 2 3 4 5 6 
#
# 1 0.026619 -0.011789 -0.011939 0.000000 0.000000 0.000000
# 2 -0.011789 0.016888 -0.000241 0.000000 0.000000 0.000000
# 3 -0.011939 -0.000241 0.025076 0.000000 0.000000 0.000000
# 4 0.000000 0.000000 0.000000 0.082848 0.000000 0.000000
# 5 0.000000 0.000000 0.000000 0.000000 0.043777 0.000000
# 6 0.000000 0.000000 0.000000 0.000000 0.000000 0.035814
#
#
# Mechanical properties :
#
#
# Convention : Reuss Voigt Hill
#
# Bulk Modulus (GPa) = 48.43628 53.53782 50.98705
# Shear Modulus (GPa) = 17.49223 20.20921 18.85072
#
# Velocity S-wave (km/s) = 3.45385 3.71241 3.58546
# Velocity P-wave (km/s) = 6.99552 7.40857 7.20500
#
# Compressibility (1/GPa) = 0.02064568
#
# Stress axis : x y z
#
# Youngs Moduli (GPa) = 37.56648 59.21393 39.87939
#
# Poissons Ratio (x) = 0.69806 0.47611
# Poissons Ratio (y) = 0.44286 0.00962
# Poissons Ratio (z) = 0.44850 0.01428
#
# Static dielectric constant tensor:
#      x y z
#    x 2.906300 0.000000 0.000000 
#    y 0.000000 2.983710 0.000000 
#    z 0.000000 0.000000 2.736110 
# 
# 
# High freq. dielectric constant tensor:
#      x y z
#    x 1.549370 0.000000 0.000000 
#    y 0.000000 1.533770 0.000000 
#    z 0.000000 0.000000 1.548190 
# 
# From -- ./inp_files/8531.got.cif
#   From: 2010.06.25/outbox.cif.g09.slc.cpg/sg58_5_cif.got.tgz:8531.got - 2010.06.26 21:38:00.
