data_PCOD8235109
_publ_section_title
;
Structure prediction by ZEFSAII (Michael W. Deem and Ramdas Pophale) SiO2 
 PCOD8235109
Probable space group: P B C M
;
_chemical_formula_sum "Si O2"
_cell_formula_units_Z 40
_cell_length_a 7.447171
_cell_length_b 9.614078
_cell_length_c 26.973316
_cell_angle_alpha 90.000000
_cell_angle_beta 90.000000
_cell_angle_gamma 90.000000
_cell_volume 1931.226925
_symmetry_space_group_name_H-M "P B C M"
_symmetry_group_IT_number 57
_symmetry_cell_setting 'orthorhombic'
loop_
_space_group_symop_operation_xyz
x,y,z
-x,-y,1/2+z
x,1/2-y,-z
-x,1/2+y,1/2-z
-x,-y,-z
x,y,1/2-z
-x,1/2+y,z
x,1/2-y,1/2+z
loop_
_atom_site_type_symbol
_atom_site_label
_atom_site_fract_x
_atom_site_fract_y
_atom_site_fract_z
Si Si1 0.056318 0.873882 0.034054
Si Si2 0.381125 0.991799 0.095925
Si Si3 0.295080 0.195298 0.904795
Si Si4 0.209314 0.539578 0.694981
Si Si5 0.115288 0.267071 0.194641
O O1 0.211741 0.918664 0.071032
O O2 0.887074 0.818625 0.064840
O O3 0.130706 0.750000 0.000000
O O4 0.000000 0.000000 0.000000
O O5 0.566966 0.923968 0.077498
O O6 0.368232 0.962564 0.154920
O O7 0.383934 0.155112 0.083516
O O8 0.256217 0.178555 0.846152
O O9 0.295291 0.549239 0.750000
O O10 0.091571 0.398970 0.689428
O O11 0.080140 0.669477 0.684824
O O12 0.184407 0.307711 0.250000
#
# Coordination Sequence:
#
# PCOD8235109 Si02
#       5
#     8   8   8   8   8
#     4  12  26  46  67  91 124 164 210 267 323 369
#     4  11  25  42  65  96 129 165 207 259 311 377
#     4  11  25  42  65  97 128 165 210 255 314 374
#     4   9  18  35  61  92 126 164 204 248 304 368
#     4   9  18  35  61  92 127 164 204 248 303 370
#
# _framework density 20.712222000000001
#
# number of rings (size 3 to 8) (size 9 to 14) (size 15 to 20)
#    0.000    1.600    4.000    0.000    2.800    4.000 
#    0.000    0.000    0.000    0.000    0.000    0.000 
#    0.000    0.000    0.000    0.000    0.000    0.000 
#
# Total GULP energy -496028.148429 kJ/mol
# GULP energy per Si atom -12400.703711 kJ/mol
# Density = 2.066508 g / cm^3
# Si number density = 20.712222 Si / 1000 Ang^3
#
#
#
# Elastic Constant Matrix: (Units=GPa)
#
#
# Indices 1 2 3 4 5 6 
#
# 1 55.1536 5.8263 15.2798 0.0000 0.0000 0.0000
# 2 5.8263 70.1204 25.7696 0.0000 0.0000 0.0000
# 3 15.2798 25.7696 82.1291 0.0000 0.0000 0.0000
# 4 0.0000 0.0000 0.0000 32.1597 0.0000 0.0000
# 5 0.0000 0.0000 0.0000 0.0000 10.0049 0.0000
# 6 0.0000 0.0000 0.0000 0.0000 0.0000 37.7810
#
#
#
# Elastic Compliance Matrix: (Units=1/GPa)
#
#
# Indices 1 2 3 4 5 6 
#
# 1 0.019123 -0.000318 -0.003458 0.000000 0.000000 0.000000
# 2 -0.000318 0.016125 -0.005000 0.000000 0.000000 0.000000
# 3 -0.003458 -0.005000 0.014388 0.000000 0.000000 0.000000
# 4 0.000000 0.000000 0.000000 0.031095 0.000000 0.000000
# 5 0.000000 0.000000 0.000000 0.000000 0.099951 0.000000
# 6 0.000000 0.000000 0.000000 0.000000 0.000000 0.026468
#
#
# Mechanical properties :
#
#
# Convention : Reuss Voigt Hill
#
# Bulk Modulus (GPa) = 31.16874 33.46160 32.31517
# Shear Modulus (GPa) = 21.24061 26.69094 23.96577
#
# Velocity S-wave (km/s) = 3.20583 3.59368 3.40528
# Velocity P-wave (km/s) = 5.36510 5.78013 5.57648
#
# Compressibility (1/GPa) = 0.03208343
#
# Stress axis : x y z
#
# Youngs Moduli (GPa) = 52.29371 62.01435 69.50108
#
# Poissons Ratio (x) = 0.01973 0.24033
# Poissons Ratio (y) = 0.01664 0.34754
# Poissons Ratio (z) = 0.18083 0.31010
#
# Static dielectric constant tensor:
#      x y z
#    x 3.345420 0.000000 0.000000 
#    y 0.000000 3.873650 0.000000 
#    z 0.000000 0.000000 4.070750 
# 
# 
# High freq. dielectric constant tensor:
#      x y z
#    x 1.779330 0.000000 0.000000 
#    y 0.000000 1.820710 0.000000 
#    z 0.000000 0.000000 1.828470 
# 
# From -- ./inp_files/27799.got.cif
#   From: 2010.03.12/outbox.cif.g09.slc.cpg/sg57_14_cif.got.tgz:27799.got - 2010.04.16 15:48:40.
