data_PCOD8235131
_publ_section_title
;
Structure prediction by ZEFSAII (Michael W. Deem and Ramdas Pophale) SiO2 
 PCOD8235131
Probable space group: P B C M
;
_chemical_formula_sum "Si O2"
_cell_formula_units_Z 32
_cell_length_a 4.969824
_cell_length_b 14.080459
_cell_length_c 20.730441
_cell_angle_alpha 90.000000
_cell_angle_beta 90.000000
_cell_angle_gamma 90.000000
_cell_volume 1450.662426
_symmetry_space_group_name_H-M "P B C M"
_symmetry_group_IT_number 57
_symmetry_cell_setting 'orthorhombic'
loop_
_space_group_symop_operation_xyz
x,y,z
-x,-y,1/2+z
x,1/2-y,-z
-x,1/2+y,1/2-z
-x,-y,-z
x,y,1/2-z
-x,1/2+y,z
x,1/2-y,1/2+z
loop_
_atom_site_type_symbol
_atom_site_label
_atom_site_fract_x
_atom_site_fract_y
_atom_site_fract_z
Si Si1 0.660487 0.684297 0.175065
Si Si2 0.839615 0.418045 0.620901
Si Si3 0.222437 0.645762 0.980767
Si Si4 0.715667 0.622887 0.895452
O O1 0.720960 0.671894 0.250000
O O2 0.359201 0.651739 0.158764
O O3 0.689838 0.794408 0.157096
O O4 0.860355 0.617092 0.135172
O O5 0.792648 0.419248 0.544016
O O6 0.803126 0.527390 0.642604
O O7 0.432062 0.601833 0.930214
O O8 0.931333 0.654061 0.948684
O O9 0.326028 0.750000 0.000000
#
# Coordination Sequence:
#
# PCOD8235131 Si02
#       4
#     8   8   8   8
#     4  12  26  44  64  91 129 175 223 265 312 379
#     4  12  25  43  68  98 130 169 215 269 329 386
#     4  12  21  41  71  98 135 166 205 270 337 389
#     4  12  24  43  67  99 130 171 210 268 329 387
#
# _framework density 22.058888
#
# number of rings (size 3 to 8) (size 9 to 14) (size 15 to 20)
#    0.000    0.000    5.000    6.000    0.000    2.000 
#    0.000    0.000    0.000    0.000    0.000    0.000 
#    0.000    0.000    0.000    0.000    0.000    0.000 
#
# Total GULP energy -397125.810903 kJ/mol
# GULP energy per Si atom -12410.181591 kJ/mol
# Density = 2.200868 g / cm^3
# Si number density = 22.058888 Si / 1000 Ang^3
#
#
#
# Elastic Constant Matrix: (Units=GPa)
#
#
# Indices 1 2 3 4 5 6 
#
# 1 81.1982 -3.9514 16.4582 0.0000 0.0000 0.0000
# 2 -3.9514 79.6160 19.7586 0.0000 0.0000 0.0000
# 3 16.4582 19.7586 88.7628 0.0000 0.0000 0.0000
# 4 0.0000 0.0000 0.0000 16.4200 0.0000 0.0000
# 5 0.0000 0.0000 0.0000 0.0000 5.9110 0.0000
# 6 0.0000 0.0000 0.0000 0.0000 0.0000 16.7765
#
#
#
# Elastic Compliance Matrix: (Units=1/GPa)
#
#
# Indices 1 2 3 4 5 6 
#
# 1 0.012924 0.001308 -0.002688 0.000000 0.000000 0.000000
# 2 0.001308 0.013427 -0.003232 0.000000 0.000000 0.000000
# 3 -0.002688 -0.003232 0.012484 0.000000 0.000000 0.000000
# 4 0.000000 0.000000 0.000000 0.060902 0.000000 0.000000
# 5 0.000000 0.000000 0.000000 0.000000 0.169176 0.000000
# 6 0.000000 0.000000 0.000000 0.000000 0.000000 0.059607
#
#
# Mechanical properties :
#
#
# Convention : Reuss Voigt Hill
#
# Bulk Modulus (GPa) = 33.76845 34.90090 34.33467
# Shear Modulus (GPa) = 14.38387 22.30893 18.34640
#
# Velocity S-wave (km/s) = 2.55633 3.18360 2.88705
# Velocity P-wave (km/s) = 4.90455 5.41939 5.16839
#
# Compressibility (1/GPa) = 0.02961344
#
# Stress axis : x y z
#
# Youngs Moduli (GPa) = 77.37563 74.47569 80.10483
#
# Poissons Ratio (x) = -0.09744 0.21529
# Poissons Ratio (y) = -0.10124 0.25886
# Poissons Ratio (z) = 0.20795 0.24067
#
# Static dielectric constant tensor:
#      x y z
#    x 4.030840 0.000000 0.000000 
#    y 0.000000 3.995050 0.000000 
#    z 0.000000 0.000000 3.726990 
# 
# 
# High freq. dielectric constant tensor:
#      x y z
#    x 1.883350 0.000000 0.000000 
#    y 0.000000 1.881800 0.000000 
#    z 0.000000 0.000000 1.848640 
# 
# From -- ./inp_files/19833.got.cif
#   From: 2010.03.12/outbox.cif.g09.slc.cpg/sg57_10_cif.got.tgz:19833.got - 2010.04.16 15:48:40.
