data_PCOD8235794
_publ_section_title
;
Structure prediction by ZEFSAII (Michael W. Deem and Ramdas Pophale) SiO2 
 PCOD8235794
Probable space group: P N N M
;
_chemical_formula_sum "Si O2"
_cell_formula_units_Z 64
_cell_length_a 11.967816
_cell_length_b 30.822733
_cell_length_c 8.892959
_cell_angle_alpha 90.000000
_cell_angle_beta 90.000000
_cell_angle_gamma 90.000000
_cell_volume 3280.441805
_symmetry_space_group_name_H-M "P N N M"
_symmetry_group_IT_number 58
_symmetry_cell_setting 'orthorhombic'
loop_
_space_group_symop_operation_xyz
x,y,z
-x,-y,z
1/2+x,1/2-y,1/2-z
1/2-x,1/2+y,1/2-z
-x,-y,-z
x,y,-z
1/2-x,1/2+y,1/2+z
1/2+x,1/2-y,1/2+z
loop_
_atom_site_type_symbol
_atom_site_label
_atom_site_fract_x
_atom_site_fract_y
_atom_site_fract_z
Si Si1 0.241935 0.199953 0.321373
Si Si2 0.279732 0.454937 0.677753
Si Si3 0.105083 0.622650 0.178580
Si Si4 0.715465 0.708891 0.175781
Si Si5 0.649361 0.123917 0.677065
Si Si6 0.009550 0.165053 0.678127
Si Si7 0.999016 0.932078 0.323221
Si Si8 0.748384 0.958891 0.676617
O O1 0.240992 0.199752 0.500000
O O2 0.336210 0.166617 0.260431
O O3 0.259886 0.248247 0.266913
O O4 0.123116 0.184648 0.255024
O O5 0.277098 0.454286 0.500000
O O6 0.222683 0.411565 0.738798
O O7 0.407004 0.459413 0.736601
O O8 0.212729 0.497053 0.738371
O O9 0.171198 0.580342 0.237724
O O10 0.977802 0.621288 0.235789
O O11 0.109572 0.623230 0.000000
O O12 0.805172 0.671771 0.215818
O O13 0.593482 0.694175 0.230463
O O14 0.717516 0.719464 0.000000
O O15 0.659293 0.114753 0.500000
O O16 0.018060 0.162422 0.500000
O O17 0.991421 0.116731 0.738525
O O18 0.024134 0.935982 0.500000
O O19 0.876512 0.948990 0.284279
O O20 0.729889 0.965481 0.500000
#
# Coordination Sequence:
#
# PCOD8235794 Si02
#       8
#     8   8   8   8   8   8   8   8
#     4  10  20  36  59  86 115 145 185 235 283 329
#     4  12  25  38  55  84 120 150 184 234 293 342
#     4   9  19  37  62  88 110 143 194 244 276 321
#     4  10  21  36  56  83 116 152 188 228 277 333
#     4  10  21  40  62  81 110 151 196 237 275 330
#     4   9  17  34  59  83 111 148 187 230 276 328
#     4  10  18  36  63  86 111 150 193 232 278 336
#     4  10  20  37  63  88 111 146 195 236 279 338
#
# _framework density 19.509567000000001
#
# number of rings (size 3 to 8) (size 9 to 14) (size 15 to 20)
#    0.000    2.000    2.500    1.500    1.750    3.000 
#    0.000    5.000    0.000    0.000    0.000    0.000 
#    0.000    0.000    0.000    0.000    0.000    0.000 
#
# Total GULP energy -793633.046403 kJ/mol
# GULP energy per Si atom -12400.516350 kJ/mol
# Density = 1.946516 g / cm^3
# Si number density = 19.509567 Si / 1000 Ang^3
#
#
#
# Elastic Constant Matrix: (Units=GPa)
#
#
# Indices 1 2 3 4 5 6 
#
# 1 118.2444 29.2594 27.4603 0.0000 0.0000 0.0000
# 2 29.2594 91.7416 21.5464 0.0000 0.0000 0.0000
# 3 27.4603 21.5464 39.7281 0.0000 0.0000 0.0000
# 4 0.0000 0.0000 0.0000 31.2683 0.0000 0.0000
# 5 0.0000 0.0000 0.0000 0.0000 3.9619 0.0000
# 6 0.0000 0.0000 0.0000 0.0000 0.0000 25.6529
#
#
#
# Elastic Compliance Matrix: (Units=1/GPa)
#
#
# Indices 1 2 3 4 5 6 
#
# 1 0.010343 -0.001856 -0.006142 0.000000 0.000000 0.000000
# 2 -0.001856 0.012824 -0.005672 0.000000 0.000000 0.000000
# 3 -0.006142 -0.005672 0.032493 0.000000 0.000000 0.000000
# 4 0.000000 0.000000 0.000000 0.031981 0.000000 0.000000
# 5 0.000000 0.000000 0.000000 0.000000 0.252404 0.000000
# 6 0.000000 0.000000 0.000000 0.000000 0.000000 0.038982
#
#
# Mechanical properties :
#
#
# Convention : Reuss Voigt Hill
#
# Bulk Modulus (GPa) = 35.31229 45.13846 40.22537
# Shear Modulus (GPa) = 12.02476 23.60648 17.81562
#
# Velocity S-wave (km/s) = 2.48534 3.48227 3.02515
# Velocity P-wave (km/s) = 5.13567 6.27336 5.73281
#
# Compressibility (1/GPa) = 0.02831875
#
# Stress axis : x y z
#
# Youngs Moduli (GPa) = 96.68561 77.97674 30.77576
#
# Poissons Ratio (x) = 0.14473 0.18904
# Poissons Ratio (y) = 0.17945 0.17457
# Poissons Ratio (z) = 0.59388 0.44231
#
# Static dielectric constant tensor:
#      x y z
#    x 3.858330 0.000000 0.000000 
#    y 0.000000 3.702420 0.000000 
#    z 0.000000 0.000000 3.102350 
# 
# 
# High freq. dielectric constant tensor:
#      x y z
#    x 1.768080 0.000000 0.000000 
#    y 0.000000 1.777490 0.000000 
#    z 0.000000 0.000000 1.714300 
# 
# From -- ./inp_files/4669.got.cif
#   From: 2010.06.25/outbox.cif.g09.slc.cpg/sg58_3_cif.got.tgz:4669.got - 2010.06.26 21:38:00.
