data_PCOD8235533
_publ_section_title
;
Structure prediction by ZEFSAII (Michael W. Deem and Ramdas Pophale) SiO2 
 PCOD8235533
Probable space group: P N N M
;
_chemical_formula_sum "Si O2"
_cell_formula_units_Z 64
_cell_length_a 27.093632
_cell_length_b 13.749162
_cell_length_c 9.957095
_cell_angle_alpha 90.000000
_cell_angle_beta 90.000000
_cell_angle_gamma 90.000000
_cell_volume 3709.164611
_symmetry_space_group_name_H-M "P N N M"
_symmetry_group_IT_number 58
_symmetry_cell_setting 'orthorhombic'
loop_
_space_group_symop_operation_xyz
x,y,z
-x,-y,z
1/2+x,1/2-y,1/2-z
1/2-x,1/2+y,1/2-z
-x,-y,-z
x,y,-z
1/2-x,1/2+y,1/2+z
1/2+x,1/2-y,1/2+z
loop_
_atom_site_type_symbol
_atom_site_label
_atom_site_fract_x
_atom_site_fract_y
_atom_site_fract_z
Si Si1 0.142726 0.521555 0.645712
Si Si2 0.682273 0.262921 0.348098
Si Si3 0.085089 0.650392 0.157867
Si Si4 0.761488 0.401866 0.246001
Si Si5 0.498559 0.884744 0.155473
Si Si6 0.764286 0.107839 0.350579
Si Si7 0.677712 0.725613 0.648168
Si Si8 0.109722 0.311723 0.649257
O O1 0.119249 0.552488 0.500000
O O2 0.110858 0.558102 0.771494
O O3 0.198270 0.562220 0.646372
O O4 0.144589 0.405937 0.652721
O O5 0.662901 0.263310 0.500000
O O6 0.714292 0.359549 0.323100
O O7 0.714512 0.166776 0.317789
O O8 0.633963 0.264562 0.252643
O O9 0.035048 0.670154 0.240828
O O10 0.121109 0.742853 0.174527
O O11 0.075048 0.627725 0.000000
O O12 0.745037 0.492954 0.156312
O O13 0.786174 0.318920 0.154167
O O14 0.445216 0.842003 0.191735
O O15 0.500000 0.000000 0.182665
O O16 0.512266 0.863042 0.000000
O O17 0.782179 0.134159 0.500000
O O18 0.808041 0.141522 0.252176
O O19 0.682817 0.680752 0.500000
O O20 0.109902 0.265307 0.500000
#
# Coordination Sequence:
#
# PCOD8235533 Si02
#       8
#     8   8   8   8   8   8   8   8
#     4  10  18  31  50  69  95 134 172 204 242 294
#     4  10  21  34  48  73 104 134 172 214 250 294
#     4  10  20  32  48  72  99 130 165 207 253 297
#     4  10  19  33  51  75  99 138 175 211 250 295
#     4  10  19  33  50  71  98 131 171 208 248 309
#     4  10  20  33  51  74 101 133 173 214 252 293
#     4   9  20  34  49  72 103 134 169 207 251 303
#     4  10  20  33  49  71  98 134 169 204 250 297
#
# _framework density 17.254559
#
# number of rings (size 3 to 8) (size 9 to 14) (size 15 to 20)
#    0.000    2.125    2.500    1.125    0.000    8.750 
#    0.000    0.000    0.000    0.000    0.000    0.875 
#    0.000    6.000    0.000    0.000    0.000    0.000 
#
# Total GULP energy -793309.819722 kJ/mol
# GULP energy per Si atom -12395.465933 kJ/mol
# Density = 1.721529 g / cm^3
# Si number density = 17.254559 Si / 1000 Ang^3
#
#
#
# Elastic Constant Matrix: (Units=GPa)
#
#
# Indices 1 2 3 4 5 6 
#
# 1 99.7021 29.7246 67.4842 0.0000 0.0000 0.0000
# 2 29.7246 51.2532 22.7507 0.0000 0.0000 0.0000
# 3 67.4842 22.7507 126.3127 0.0000 0.0000 0.0000
# 4 0.0000 0.0000 0.0000 20.0165 0.0000 0.0000
# 5 0.0000 0.0000 0.0000 0.0000 27.5620 0.0000
# 6 0.0000 0.0000 0.0000 0.0000 0.0000 24.2684
#
#
#
# Elastic Compliance Matrix: (Units=1/GPa)
#
#
# Indices 1 2 3 4 5 6 
#
# 1 0.017513 -0.006525 -0.008181 0.000000 0.000000 0.000000
# 2 -0.006525 0.023638 -0.000771 0.000000 0.000000 0.000000
# 3 -0.008181 -0.000771 0.012427 0.000000 0.000000 0.000000
# 4 0.000000 0.000000 0.000000 0.049959 0.000000 0.000000
# 5 0.000000 0.000000 0.000000 0.000000 0.036282 0.000000
# 6 0.000000 0.000000 0.000000 0.000000 0.000000 0.041206
#
#
# Mechanical properties :
#
#
# Convention : Reuss Voigt Hill
#
# Bulk Modulus (GPa) = 44.20503 57.46523 50.83513
# Shear Modulus (GPa) = 22.77704 24.85661 23.81682
#
# Velocity S-wave (km/s) = 3.63720 3.79962 3.71930
# Velocity P-wave (km/s) = 6.58133 7.25439 6.92604
#
# Compressibility (1/GPa) = 0.02262186
#
# Stress axis : x y z
#
# Youngs Moduli (GPa) = 57.10145 42.30538 80.47215
#
# Poissons Ratio (x) = 0.27605 0.65835
# Poissons Ratio (y) = 0.37259 0.06207
# Poissons Ratio (z) = 0.46715 0.03263
#
# Static dielectric constant tensor:
#      x y z
#    x 3.202410 0.000000 0.000000 
#    y 0.000000 2.887090 0.000000 
#    z 0.000000 0.000000 3.337290 
# 
# 
# High freq. dielectric constant tensor:
#      x y z
#    x 1.653450 0.000000 0.000000 
#    y 0.000000 1.623170 0.000000 
#    z 0.000000 0.000000 1.679210 
# 
# From -- ./inp_files/11155.got.cif
#   From: 2010.06.25/outbox.cif.g09.slc.cpg/sg58_6_cif.got.tgz:11155.got - 2010.06.26 21:38:00.
