data_PCOD8235056
_publ_section_title
;
Structure prediction by ZEFSAII (Michael W. Deem and Ramdas Pophale) SiO2 
 PCOD8235056
Probable space group: P B C M
;
_chemical_formula_sum "Si O2"
_cell_formula_units_Z 40
_cell_length_a 12.351090
_cell_length_b 18.206214
_cell_length_c 8.388581
_cell_angle_alpha 90.000000
_cell_angle_beta 90.000000
_cell_angle_gamma 90.000000
_cell_volume 1886.311585
_symmetry_space_group_name_H-M "P B C M"
_symmetry_group_IT_number 57
_symmetry_cell_setting 'orthorhombic'
loop_
_space_group_symop_operation_xyz
x,y,z
-x,-y,1/2+z
x,1/2-y,-z
-x,1/2+y,1/2-z
-x,-y,-z
x,y,1/2-z
-x,1/2+y,z
x,1/2-y,1/2+z
loop_
_atom_site_type_symbol
_atom_site_label
_atom_site_fract_x
_atom_site_fract_y
_atom_site_fract_z
Si Si1 0.053859 0.926379 0.936056
Si Si2 0.711293 0.428760 0.433966
Si Si3 0.657588 0.581950 0.933255
Si Si4 0.535159 0.329142 0.565538
Si Si5 0.871109 0.670271 0.936996
O O1 0.076983 0.935265 0.750000
O O2 0.165417 0.910722 0.025106
O O3 0.976444 0.857514 0.969448
O O4 0.000000 0.000000 0.000000
O O5 0.701841 0.450496 0.250000
O O6 0.664289 0.495219 0.538610
O O7 0.640482 0.356980 0.470976
O O8 0.627738 0.597567 0.750000
O O9 0.772724 0.616475 0.979226
O O10 0.565277 0.616182 0.042955
O O11 0.500888 0.250000 0.500000
O O12 0.564668 0.324065 0.750000
O O13 0.895712 0.671488 0.750000
O O14 0.839270 0.750000 0.000000
#
# Coordination Sequence:
#
# PCOD8235056 Si02
#       5
#     8   8   8   8   8
#     4  12  24  42  67  96 131 171 218 268 324 386
#     4  12  25  43  69  98 131 172 221 270 328 390
#     4  11  23  42  68  98 133 172 220 270 326 389
#     4  12  26  45  67  95 133 173 220 272 331 392
#     4  11  24  41  65  97 134 173 219 270 327 388
#
# _framework density 21.205404000000001
#
# number of rings (size 3 to 8) (size 9 to 14) (size 15 to 20)
#    0.000    0.400    2.000    7.800    0.000    4.800 
#    0.000    4.000    0.000    0.000    0.000    0.000 
#    0.000    0.000    0.000    0.000    0.000    0.000 
#
# Total GULP energy -496436.631596 kJ/mol
# GULP energy per Si atom -12410.915790 kJ/mol
# Density = 2.115714 g / cm^3
# Si number density = 21.205404 Si / 1000 Ang^3
#
#
#
# Elastic Constant Matrix: (Units=GPa)
#
#
# Indices 1 2 3 4 5 6 
#
# 1 118.3810 19.9153 31.2644 0.0000 0.0000 0.0000
# 2 19.9153 68.7278 18.9395 0.0000 0.0000 0.0000
# 3 31.2644 18.9395 97.3122 0.0000 0.0000 0.0000
# 4 0.0000 0.0000 0.0000 36.1968 0.0000 0.0000
# 5 0.0000 0.0000 0.0000 0.0000 33.1598 0.0000
# 6 0.0000 0.0000 0.0000 0.0000 0.0000 4.0895
#
#
#
# Elastic Compliance Matrix: (Units=1/GPa)
#
#
# Indices 1 2 3 4 5 6 
#
# 1 0.009488 -0.002018 -0.002656 0.000000 0.000000 0.000000
# 2 -0.002018 0.015804 -0.002428 0.000000 0.000000 0.000000
# 3 -0.002656 -0.002428 0.011602 0.000000 0.000000 0.000000
# 4 0.000000 0.000000 0.000000 0.027627 0.000000 0.000000
# 5 0.000000 0.000000 0.000000 0.000000 0.030157 0.000000
# 6 0.000000 0.000000 0.000000 0.000000 0.000000 0.244527
#
#
# Mechanical properties :
#
#
# Convention : Reuss Voigt Hill
#
# Bulk Modulus (GPa) = 44.06823 47.18436 45.62629
# Shear Modulus (GPa) = 13.85155 28.97602 21.41379
#
# Velocity S-wave (km/s) = 2.55857 3.70056 3.18122
# Velocity P-wave (km/s) = 5.43646 6.36853 5.92087
#
# Compressibility (1/GPa) = 0.02269208
#
# Stress axis : x y z
#
# Youngs Moduli (GPa) = 105.39550 63.27604 86.19288
#
# Poissons Ratio (x) = 0.12766 0.22890
# Poissons Ratio (y) = 0.21264 0.20924
# Poissons Ratio (z) = 0.27989 0.15361
#
# Static dielectric constant tensor:
#      x y z
#    x 3.944700 0.000000 0.000000 
#    y 0.000000 3.876050 0.000000 
#    z 0.000000 0.000000 3.942920 
# 
# 
# High freq. dielectric constant tensor:
#      x y z
#    x 1.843630 0.000000 0.000000 
#    y 0.000000 1.834180 0.000000 
#    z 0.000000 0.000000 1.845720 
# 
# From -- ./inp_files/2656.got.cif
#   From: 2010.03.12/outbox.cif.g09.slc.cpg/sg57_2_cif.got.tgz:2656.got - 2010.04.16 15:48:40.
