data_PCOD8235844
_publ_section_title
;
Structure prediction by ZEFSAII (Michael W. Deem and Ramdas Pophale) SiO2 
 PCOD8235844
Probable space group: P N N M
;
_chemical_formula_sum "Si O2"
_cell_formula_units_Z 56
_cell_length_a 13.661994
_cell_length_b 29.206033
_cell_length_c 9.008389
_cell_angle_alpha 90.000000
_cell_angle_beta 90.000000
_cell_angle_gamma 90.000000
_cell_volume 3594.461146
_symmetry_space_group_name_H-M "P N N M"
_symmetry_group_IT_number 58
_symmetry_cell_setting 'orthorhombic'
loop_
_space_group_symop_operation_xyz
x,y,z
-x,-y,z
1/2+x,1/2-y,1/2-z
1/2-x,1/2+y,1/2-z
-x,-y,-z
x,y,-z
1/2-x,1/2+y,1/2+z
1/2+x,1/2-y,1/2+z
loop_
_atom_site_type_symbol
_atom_site_label
_atom_site_fract_x
_atom_site_fract_y
_atom_site_fract_z
Si Si1 0.286982 0.683652 0.173205
Si Si2 0.691993 0.680310 0.174996
Si Si3 0.884327 0.005643 0.336058
Si Si4 0.600144 0.595387 0.675608
Si Si5 0.598745 0.764154 0.672638
Si Si6 0.880221 0.734130 0.828816
Si Si7 0.608254 0.406170 0.175218
O O1 0.175454 0.696059 0.218854
O O2 0.363284 0.718472 0.244989
O O3 0.312593 0.632031 0.223508
O O4 0.302162 0.688721 0.000000
O O5 0.672863 0.633149 0.258988
O O6 0.616675 0.718962 0.230286
O O7 0.802607 0.695268 0.218639
O O8 0.677996 0.673272 0.000000
O O9 0.843351 0.018147 0.500000
O O10 0.856209 0.045746 0.221969
O O11 0.844718 0.955748 0.282886
O O12 0.000000 0.000000 0.344354
O O13 0.597347 0.598897 0.500000
O O14 0.491966 0.603449 0.738542
O O15 0.611074 0.750776 0.500000
O O16 0.490079 0.783275 0.705658
O O17 0.865513 0.745766 0.000000
O O18 0.584035 0.404714 0.000000
#
# Coordination Sequence:
#
# PCOD8235844 Si02
#       7
#     8   8   8   8   8   8   8
#     4   9  17  28  44  64  85 110 139 169 203 244
#     4  10  19  30  43  60  83 113 144 169 202 249
#     4   8  15  28  43  59  83 112 139 167 203 250
#     4  11  20  28  41  62  86 111 140 175 210 242
#     4   9  17  30  45  63  86 109 137 175 210 238
#     4   9  18  30  43  60  84 112 140 171 205 241
#     4   9  17  29  44  63  87 115 141 165 202 252
#
# _framework density 15.579526
#
# number of rings (size 3 to 8) (size 9 to 14) (size 15 to 20)
#    0.000    2.714    0.000    3.429    0.000    6.571 
#    0.000    0.000    0.000    0.000    0.000    1.000 
#    0.000    8.000    0.000    0.000    0.000    0.000 
#
# Total GULP energy -694161.727894 kJ/mol
# GULP energy per Si atom -12395.745141 kJ/mol
# Density = 1.554407 g / cm^3
# Si number density = 15.579526 Si / 1000 Ang^3
#
#
#
# Elastic Constant Matrix: (Units=GPa)
#
#
# Indices 1 2 3 4 5 6 
#
# 1 84.2149 55.4198 30.4340 0.0000 0.0000 0.0000
# 2 55.4198 140.3407 50.5377 0.0000 0.0000 0.0000
# 3 30.4340 50.5377 62.5283 0.0000 0.0000 0.0000
# 4 0.0000 0.0000 0.0000 23.8873 0.0000 0.0000
# 5 0.0000 0.0000 0.0000 0.0000 14.8555 0.0000
# 6 0.0000 0.0000 0.0000 0.0000 0.0000 21.2612
#
#
#
# Elastic Compliance Matrix: (Units=1/GPa)
#
#
# Indices 1 2 3 4 5 6 
#
# 1 0.016707 -0.005176 -0.003949 0.000000 0.000000 0.000000
# 2 -0.005176 0.011654 -0.006900 0.000000 0.000000 0.000000
# 3 -0.003949 -0.006900 0.023492 0.000000 0.000000 0.000000
# 4 0.000000 0.000000 0.000000 0.041863 0.000000 0.000000
# 5 0.000000 0.000000 0.000000 0.000000 0.067315 0.000000
# 6 0.000000 0.000000 0.000000 0.000000 0.000000 0.047034
#
#
# Mechanical properties :
#
#
# Convention : Reuss Voigt Hill
#
# Bulk Modulus (GPa) = 50.49470 62.20744 56.35107
# Shear Modulus (GPa) = 20.26619 22.04695 21.15657
#
# Velocity S-wave (km/s) = 3.61060 3.76589 3.68907
# Velocity P-wave (km/s) = 7.06139 7.67626 7.37523
#
# Compressibility (1/GPa) = 0.01980406
#
# Stress axis : x y z
#
# Youngs Moduli (GPa) = 59.85378 85.80603 42.56826
#
# Poissons Ratio (x) = 0.44411 0.16809
# Poissons Ratio (y) = 0.30979 0.29373
# Poissons Ratio (z) = 0.23634 0.59208
#
# Static dielectric constant tensor:
#      x y z
#    x 2.939330 0.000000 0.000000 
#    y 0.000000 3.341630 0.000000 
#    z 0.000000 0.000000 2.984340 
# 
# 
# High freq. dielectric constant tensor:
#      x y z
#    x 1.566180 0.000000 0.000000 
#    y 0.000000 1.596370 0.000000 
#    z 0.000000 0.000000 1.599550 
# 
# From -- ./inp_files/7110.got.cif
#   From: 2010.06.25/outbox.cif.g09.slc.cpg/sg58_4_cif.got.tgz:7110.got - 2010.06.26 21:38:00.
