data_PCOD8235961
_publ_section_title
;
Structure prediction by ZEFSAII (Michael W. Deem and Ramdas Pophale) SiO2 
 PCOD8235961
Probable space group: P N N M
;
_chemical_formula_sum "Si O2"
_cell_formula_units_Z 64
_cell_length_a 16.693839
_cell_length_b 22.316333
_cell_length_c 9.737625
_cell_angle_alpha 90.000000
_cell_angle_beta 90.000000
_cell_angle_gamma 90.000000
_cell_volume 3627.706136
_symmetry_space_group_name_H-M "P N N M"
_symmetry_group_IT_number 58
_symmetry_cell_setting 'orthorhombic'
loop_
_space_group_symop_operation_xyz
x,y,z
-x,-y,z
1/2+x,1/2-y,1/2-z
1/2-x,1/2+y,1/2-z
-x,-y,-z
x,y,-z
1/2-x,1/2+y,1/2+z
1/2+x,1/2-y,1/2+z
loop_
_atom_site_type_symbol
_atom_site_label
_atom_site_fract_x
_atom_site_fract_y
_atom_site_fract_z
Si Si1 0.418866 0.628879 0.843945
Si Si2 0.174287 0.207593 0.150655
Si Si3 0.969572 0.303492 0.338832
Si Si4 0.119479 0.335583 0.844903
Si Si5 0.184658 0.623305 0.656692
Si Si6 0.784631 0.961694 0.338118
Si Si7 0.585958 0.674057 0.158694
Si Si8 0.729186 0.596326 0.837064
O O1 0.391030 0.685950 0.758339
O O2 0.370378 0.569019 0.800390
O O3 0.514421 0.624859 0.822163
O O4 0.398067 0.644407 0.000000
O O5 0.178885 0.278814 0.156038
O O6 0.261754 0.182145 0.184072
O O7 0.146392 0.185456 0.000000
O O8 0.990618 0.297377 0.500000
O O9 0.905177 0.355799 0.312421
O O10 0.938198 0.239289 0.279003
O O11 0.046862 0.326798 0.258353
O O12 0.179059 0.388538 0.795209
O O13 0.086843 0.347073 0.000000
O O14 0.193293 0.600429 0.500000
O O15 0.211805 0.570729 0.759050
O O16 0.766169 0.958192 0.500000
O O17 0.789918 0.029533 0.284194
O O18 0.664413 0.643330 0.227445
O O19 0.603609 0.686305 0.000000
O O20 0.719559 0.598459 0.000000
#
# Coordination Sequence:
#
# PCOD8235961 Si02
#       8
#     8   8   8   8   8   8   8   8
#     4   9  16  27  47  75 100 125 154 195 241 280
#     4   9  16  28  47  70  95 124 157 191 235 290
#     4  10  19  32  51  75 100 125 157 200 247 291
#     4  10  19  31  49  71  97 127 160 198 241 286
#     4   9  18  32  51  71  93 127 165 197 235 288
#     4   9  18  32  50  72  99 128 164 202 237 277
#     4   9  16  28  49  75 102 126 155 195 241 293
#     4   9  18  32  49  71  98 131 165 197 234 286
#
# _framework density 17.642002999999999
#
# number of rings (size 3 to 8) (size 9 to 14) (size 15 to 20)
#    0.000    2.750    1.250    0.750    0.000    4.000 
#    0.000    3.750    0.000    8.250    0.000    3.500 
#    0.000    0.000    0.000    0.000    0.000    0.000 
#
# Total GULP energy -793133.631522 kJ/mol
# GULP energy per Si atom -12392.712993 kJ/mol
# Density = 1.760185 g / cm^3
# Si number density = 17.642003 Si / 1000 Ang^3
#
#
#
# Elastic Constant Matrix: (Units=GPa)
#
#
# Indices 1 2 3 4 5 6 
#
# 1 102.1901 45.9781 36.3680 0.0000 0.0000 0.0000
# 2 45.9781 79.2854 24.3817 0.0000 0.0000 0.0000
# 3 36.3680 24.3817 43.0967 0.0000 0.0000 0.0000
# 4 0.0000 0.0000 0.0000 19.4121 0.0000 0.0000
# 5 0.0000 0.0000 0.0000 0.0000 23.8485 0.0000
# 6 0.0000 0.0000 0.0000 0.0000 0.0000 23.3433
#
#
#
# Elastic Compliance Matrix: (Units=1/GPa)
#
#
# Indices 1 2 3 4 5 6 
#
# 1 0.016221 -0.006292 -0.010129 0.000000 0.000000 0.000000
# 2 -0.006292 0.017710 -0.004710 0.000000 0.000000 0.000000
# 3 -0.010129 -0.004710 0.034416 0.000000 0.000000 0.000000
# 4 0.000000 0.000000 0.000000 0.051514 0.000000 0.000000
# 5 0.000000 0.000000 0.000000 0.000000 0.041931 0.000000
# 6 0.000000 0.000000 0.000000 0.000000 0.000000 0.042839
#
#
# Mechanical properties :
#
#
# Convention : Reuss Voigt Hill
#
# Bulk Modulus (GPa) = 38.33544 48.66974 43.50259
# Shear Modulus (GPa) = 19.56277 21.17709 20.36993
#
# Velocity S-wave (km/s) = 3.33359 3.46841 3.40167
# Velocity P-wave (km/s) = 6.04929 6.60962 6.33565
#
# Compressibility (1/GPa) = 0.02608552
#
# Stress axis : x y z
#
# Youngs Moduli (GPa) = 61.64681 56.46614 29.05658
#
# Poissons Ratio (x) = 0.35529 0.29432
# Poissons Ratio (y) = 0.38788 0.13684
# Poissons Ratio (z) = 0.62443 0.26593
#
# Static dielectric constant tensor:
#      x y z
#    x 3.302530 0.000000 0.000000 
#    y 0.000000 3.294550 0.000000 
#    z 0.000000 0.000000 3.079950 
# 
# 
# High freq. dielectric constant tensor:
#      x y z
#    x 1.682890 0.000000 0.000000 
#    y 0.000000 1.671890 0.000000 
#    z 0.000000 0.000000 1.649670 
# 
# From -- ./inp_files/8425.got.cif
#   From: 2010.06.25/outbox.cif.g09.slc.cpg/sg58_5_cif.got.tgz:8425.got - 2010.06.26 21:38:00.
