data_PCOD8235595
_publ_section_title
;
Structure prediction by ZEFSAII (Michael W. Deem and Ramdas Pophale) SiO2 
 PCOD8235595
Probable space group: P N N M
;
_chemical_formula_sum "Si O2"
_cell_formula_units_Z 56
_cell_length_a 23.191624
_cell_length_b 8.740197
_cell_length_c 13.274930
_cell_angle_alpha 90.000000
_cell_angle_beta 90.000000
_cell_angle_gamma 90.000000
_cell_volume 2690.819848
_symmetry_space_group_name_H-M "P N N M"
_symmetry_group_IT_number 58
_symmetry_cell_setting 'orthorhombic'
loop_
_space_group_symop_operation_xyz
x,y,z
-x,-y,z
1/2+x,1/2-y,1/2-z
1/2-x,1/2+y,1/2-z
-x,-y,-z
x,y,-z
1/2-x,1/2+y,1/2+z
1/2+x,1/2-y,1/2+z
loop_
_atom_site_type_symbol
_atom_site_label
_atom_site_fract_x
_atom_site_fract_y
_atom_site_fract_z
Si Si1 0.993957 0.333997 0.180045
Si Si2 0.269970 0.667397 0.381249
Si Si3 0.302821 0.396780 0.248681
Si Si4 0.499944 0.258818 0.889935
Si Si5 0.626405 0.827488 0.383800
Si Si6 0.402440 0.512712 0.888604
Si Si7 0.112796 0.330598 0.115103
O O1 0.937687 0.253517 0.132056
O O2 0.000000 0.500000 0.128744
O O3 0.986888 0.358057 0.300367
O O4 0.054583 0.248769 0.157867
O O5 0.254134 0.641752 0.500000
O O6 0.262683 0.512140 0.315001
O O7 0.232817 0.807356 0.337133
O O8 0.336616 0.710905 0.368579
O O9 0.327421 0.270776 0.324025
O O10 0.352574 0.493948 0.193741
O O11 0.451182 0.385860 0.878969
O O12 0.564340 0.326610 0.874845
O O13 0.495441 0.179318 0.000000
O O14 0.644765 0.820558 0.500000
O O15 0.626467 0.000722 0.337823
O O16 0.374087 0.506149 0.000000
O O17 0.101677 0.366434 0.000000
#
# Coordination Sequence:
#
# PCOD8235595 Si02
#       7
#     8   8   8   8   8   8   8
#     4  10  18  31  54  83 116 152 189 233 294 357
#     4  11  25  42  62  90 120 156 206 255 299 361
#     4  12  22  40  63  85 119 157 199 250 312 356
#     4   9  17  31  50  80 114 144 186 233 285 350
#     4  10  20  35  58  87 116 154 199 241 297 365
#     4   9  18  33  56  79 106 148 192 235 287 355
#     4   9  19  37  57  81 118 156 192 240 293 352
#
# _framework density 20.811501
#
# number of rings (size 3 to 8) (size 9 to 14) (size 15 to 20)
#    0.000    2.000    1.429    3.857    0.000    2.000 
#    0.000    2.143    0.000    8.571    0.000    0.000 
#    0.000    0.000    0.000    0.000    0.000    0.000 
#
# Total GULP energy -693868.299113 kJ/mol
# GULP energy per Si atom -12390.505341 kJ/mol
# Density = 2.076413 g / cm^3
# Si number density = 20.811501 Si / 1000 Ang^3
#
#
#
# Elastic Constant Matrix: (Units=GPa)
#
#
# Indices 1 2 3 4 5 6 
#
# 1 55.8031 5.3057 28.3951 0.0000 0.0000 0.0000
# 2 5.3057 49.9110 25.4772 0.0000 0.0000 0.0000
# 3 28.3951 25.4772 99.6028 0.0000 0.0000 0.0000
# 4 0.0000 0.0000 0.0000 33.6950 0.0000 0.0000
# 5 0.0000 0.0000 0.0000 0.0000 32.0534 0.0000
# 6 0.0000 0.0000 0.0000 0.0000 0.0000 19.0068
#
#
#
# Elastic Compliance Matrix: (Units=1/GPa)
#
#
# Indices 1 2 3 4 5 6 
#
# 1 0.021000 0.000947 -0.006229 0.000000 0.000000 0.000000
# 2 0.000947 0.023087 -0.006175 0.000000 0.000000 0.000000
# 3 -0.006229 -0.006175 0.013395 0.000000 0.000000 0.000000
# 4 0.000000 0.000000 0.000000 0.029678 0.000000 0.000000
# 5 0.000000 0.000000 0.000000 0.000000 0.031198 0.000000
# 6 0.000000 0.000000 0.000000 0.000000 0.000000 0.052613
#
#
# Mechanical properties :
#
#
# Convention : Reuss Voigt Hill
#
# Bulk Modulus (GPa) = 28.92866 35.96367 32.44617
# Shear Modulus (GPa) = 24.34182 26.69363 25.51773
#
# Velocity S-wave (km/s) = 3.42370 3.58528 3.50542
# Velocity P-wave (km/s) = 5.43686 5.87002 5.65759
#
# Compressibility (1/GPa) = 0.03456779
#
# Stress axis : x y z
#
# Youngs Moduli (GPa) = 47.61985 43.31390 74.65322
#
# Poissons Ratio (x) = -0.04103 0.46501
# Poissons Ratio (y) = -0.04511 0.46102
# Poissons Ratio (z) = 0.29662 0.26748
#
# Static dielectric constant tensor:
#      x y z
#    x 3.734050 0.000000 0.000000 
#    y 0.000000 3.519490 0.000000 
#    z 0.000000 0.000000 3.930140 
# 
# 
# High freq. dielectric constant tensor:
#      x y z
#    x 1.806590 0.000000 0.000000 
#    y 0.000000 1.786530 0.000000 
#    z 0.000000 0.000000 1.826880 
# 
# From -- ./inp_files/23271.got.cif
#   From: 2010.06.25/outbox.cif.g09.slc.cpg/sg58_12_cif.got.tgz:23271.got - 2010.06.26 21:38:00.
