data_PCOD8235247
_publ_section_title
;
Structure prediction by ZEFSAII (Michael W. Deem and Ramdas Pophale) SiO2 
 PCOD8235247
Probable space group: P N N M
;
_chemical_formula_sum "Si O2"
_cell_formula_units_Z 64
_cell_length_a 19.049665
_cell_length_b 23.479434
_cell_length_c 8.917074
_cell_angle_alpha 90.000000
_cell_angle_beta 90.000000
_cell_angle_gamma 90.000000
_cell_volume 3988.387413
_symmetry_space_group_name_H-M "P N N M"
_symmetry_group_IT_number 58
_symmetry_cell_setting 'orthorhombic'
loop_
_space_group_symop_operation_xyz
x,y,z
-x,-y,z
1/2+x,1/2-y,1/2-z
1/2-x,1/2+y,1/2-z
-x,-y,-z
x,y,-z
1/2-x,1/2+y,1/2+z
1/2+x,1/2-y,1/2+z
loop_
_atom_site_type_symbol
_atom_site_label
_atom_site_fract_x
_atom_site_fract_y
_atom_site_fract_z
Si Si1 0.362955 0.436165 0.824854
Si Si2 0.492904 0.623388 0.824825
Si Si3 0.368304 0.217354 0.177409
Si Si4 0.254615 0.659724 0.824661
Si Si5 0.501310 0.255656 0.675285
Si Si6 0.286223 0.328298 0.175469
Si Si7 0.340525 0.756868 0.674135
Si Si8 0.854889 0.938567 0.323667
O O1 0.443390 0.419726 0.795298
O O2 0.310990 0.388276 0.751698
O O3 0.348139 0.498216 0.751686
O O4 0.346711 0.440171 0.000000
O O5 0.507573 0.681082 0.736937
O O6 0.423042 0.593969 0.758504
O O7 0.486082 0.638853 0.000000
O O8 0.319210 0.166444 0.238730
O O9 0.446241 0.213167 0.245437
O O10 0.334101 0.276470 0.235320
O O11 0.372168 0.212560 0.000000
O O12 0.313329 0.704600 0.772613
O O13 0.284475 0.596842 0.787904
O O14 0.241750 0.668209 0.000000
O O15 0.486123 0.256204 0.500000
O O16 0.578609 0.231021 0.711779
O O17 0.204720 0.313934 0.211443
O O18 0.300575 0.332516 0.000000
O O19 0.329564 0.740105 0.500000
O O20 0.868007 0.944227 0.500000
#
# Coordination Sequence:
#
# PCOD8235247 Si02
#       8
#     8   8   8   8   8   8   8   8
#     4   9  15  25  44  67  89 119 158 195 222 260
#     4  10  17  28  43  64  93 125 160 188 217 262
#     4  10  19  32  48  66  88 118 154 189 231 280
#     4  10  18  29  45  68  93 118 149 189 230 269
#     4  11  20  29  44  67  94 122 152 189 235 275
#     4   8  14  26  44  64  84 110 148 188 225 263
#     4   9  18  30  44  64  91 122 152 188 231 277
#     4   9  17  26  41  67  95 121 155 192 225 261
#
# _framework density 16.046586000000001
#
# number of rings (size 3 to 8) (size 9 to 14) (size 15 to 20)
#    0.000    2.500    2.500    2.250    0.000    2.000 
#    0.000    0.000    0.000    3.000    0.000    0.875 
#    0.000    7.000    0.000    0.000    0.000    0.000 
#
# Total GULP energy -793314.012662 kJ/mol
# GULP energy per Si atom -12395.531448 kJ/mol
# Density = 1.601006 g / cm^3
# Si number density = 16.046586 Si / 1000 Ang^3
#
#
#
# Elastic Constant Matrix: (Units=GPa)
#
#
# Indices 1 2 3 4 5 6 
#
# 1 96.3665 33.0116 30.5194 0.0000 0.0000 0.0000
# 2 33.0116 60.7219 15.1748 0.0000 0.0000 0.0000
# 3 30.5194 15.1748 44.9749 0.0000 0.0000 0.0000
# 4 0.0000 0.0000 0.0000 13.6947 0.0000 0.0000
# 5 0.0000 0.0000 0.0000 0.0000 21.0176 0.0000
# 6 0.0000 0.0000 0.0000 0.0000 0.0000 23.2078
#
#
#
# Elastic Compliance Matrix: (Units=1/GPa)
#
#
# Indices 1 2 3 4 5 6 
#
# 1 0.015065 -0.006154 -0.008147 0.000000 0.000000 0.000000
# 2 -0.006154 0.020499 -0.002740 0.000000 0.000000 0.000000
# 3 -0.008147 -0.002740 0.028687 0.000000 0.000000 0.000000
# 4 0.000000 0.000000 0.000000 0.073021 0.000000 0.000000
# 5 0.000000 0.000000 0.000000 0.000000 0.047579 0.000000
# 6 0.000000 0.000000 0.000000 0.000000 0.000000 0.043089
#
#
# Mechanical properties :
#
#
# Convention : Reuss Voigt Hill
#
# Bulk Modulus (GPa) = 33.14619 39.94166 36.54393
# Shear Modulus (GPa) = 18.37693 19.80784 19.09239
#
# Velocity S-wave (km/s) = 3.38779 3.51721 3.45310
# Velocity P-wave (km/s) = 6.00032 6.43735 6.22267
#
# Compressibility (1/GPa) = 0.03016938
#
# Stress axis : x y z
#
# Youngs Moduli (GPa) = 66.37735 48.78244 34.85854
#
# Poissons Ratio (x) = 0.30023 0.28398
# Poissons Ratio (y) = 0.40852 0.09552
# Poissons Ratio (z) = 0.54075 0.13367
#
# Static dielectric constant tensor:
#      x y z
#    x 3.214570 0.000000 0.000000 
#    y 0.000000 3.145950 0.000000 
#    z 0.000000 0.000000 2.815060 
# 
# 
# High freq. dielectric constant tensor:
#      x y z
#    x 1.617470 0.000000 0.000000 
#    y 0.000000 1.591310 0.000000 
#    z 0.000000 0.000000 1.590910 
# 
# From -- ./inp_files/8486.got.cif
#   From: 2010.06.25/outbox.cif.g09.slc.cpg/sg58_5_cif.got.tgz:8486.got - 2010.06.26 21:38:00.
