data_PCOD8235207
_publ_section_title
;
Structure prediction by ZEFSAII (Michael W. Deem and Ramdas Pophale) SiO2 
 PCOD8235207
Probable space group: P N N M
;
_chemical_formula_sum "Si O2"
_cell_formula_units_Z 40
_cell_length_a 21.093946
_cell_length_b 15.959244
_cell_length_c 7.605995
_cell_angle_alpha 90.000000
_cell_angle_beta 90.000000
_cell_angle_gamma 90.000000
_cell_volume 2560.508254
_symmetry_space_group_name_H-M "P N N M"
_symmetry_group_IT_number 58
_symmetry_cell_setting 'orthorhombic'
loop_
_space_group_symop_operation_xyz
x,y,z
-x,-y,z
1/2+x,1/2-y,1/2-z
1/2-x,1/2+y,1/2-z
-x,-y,-z
x,y,-z
1/2-x,1/2+y,1/2+z
1/2+x,1/2-y,1/2+z
loop_
_atom_site_type_symbol
_atom_site_label
_atom_site_fract_x
_atom_site_fract_y
_atom_site_fract_z
Si Si1 0.573297 0.014284 0.702292
Si Si2 0.781729 0.131991 0.190980
Si Si3 0.645536 0.918086 0.000000
Si Si4 0.290035 0.525626 0.500000
Si Si5 0.687830 0.739018 0.000000
Si Si6 0.140658 0.321951 0.297762
Si Si7 0.332573 0.704220 0.500000
O O1 0.590657 0.995093 0.500000
O O2 0.613209 0.952235 0.824263
O O3 0.587158 0.110753 0.749707
O O4 0.500000 0.000000 0.741146
O O5 0.801232 0.033479 0.172957
O O6 0.825077 0.180712 0.330267
O O7 0.707939 0.134829 0.244769
O O8 0.790024 0.176656 0.000000
O O9 0.639680 0.816923 0.000000
O O10 0.718023 0.944809 0.000000
O O11 0.338682 0.603168 0.500000
O O12 0.758954 0.772810 0.000000
O O13 0.134106 0.293706 0.500000
O O14 0.133189 0.240250 0.174234
#
# Coordination Sequence:
#
# PCOD8235207 Si02
#       7
#     8   8   4   4   4   8   4
#     4  11  21  31  47  68  92 129 158 185 228 275
#     4   8  15  28  44  61  91 119 149 181 226 267
#     4  11  19  32  45  67  96 122 166 188 218 271
#     4   9  16  31  46  66  96 124 157 186 223 276
#     4   9  18  27  46  64  86 128 152 187 226 265
#     4  10  16  29  46  60  91 123 149 183 229 258
#     4   9  18  28  42  67  91 120 155 188 215 278
#
# _framework density 15.6219
#
# number of rings (size 3 to 8) (size 9 to 14) (size 15 to 20)
#    0.600    1.800    4.000    0.300    0.000    0.800 
#    1.800    2.000    0.000    0.000    0.000    0.000 
#    0.000    4.800    0.000    0.000    0.000    0.000 
#
# Total GULP energy -495675.663872 kJ/mol
# GULP energy per Si atom -12391.891597 kJ/mol
# Density = 1.558634 g / cm^3
# Si number density = 15.621900 Si / 1000 Ang^3
#
#
#
# Elastic Constant Matrix: (Units=GPa)
#
#
# Indices 1 2 3 4 5 6 
#
# 1 30.0906 25.5864 27.8452 0.0000 0.0000 0.0000
# 2 25.5864 123.0165 57.3332 0.0000 0.0000 0.0000
# 3 27.8452 57.3332 113.6688 0.0000 0.0000 0.0000
# 4 0.0000 0.0000 0.0000 21.1988 0.0000 0.0000
# 5 0.0000 0.0000 0.0000 0.0000 5.1703 0.0000
# 6 0.0000 0.0000 0.0000 0.0000 0.0000 15.9095
#
#
#
# Elastic Compliance Matrix: (Units=1/GPa)
#
#
# Indices 1 2 3 4 5 6 
#
# 1 0.045759 -0.005613 -0.008379 0.000000 0.000000 0.000000
# 2 -0.005613 0.011316 -0.004333 0.000000 0.000000 0.000000
# 3 -0.008379 -0.004333 0.013035 0.000000 0.000000 0.000000
# 4 0.000000 0.000000 0.000000 0.047173 0.000000 0.000000
# 5 0.000000 0.000000 0.000000 0.000000 0.193412 0.000000
# 6 0.000000 0.000000 0.000000 0.000000 0.000000 0.062855
#
#
# Mechanical properties :
#
#
# Convention : Reuss Voigt Hill
#
# Bulk Modulus (GPa) = 29.88439 54.25617 42.07028
# Shear Modulus (GPa) = 11.86660 18.85646 15.36153
#
# Velocity S-wave (km/s) = 2.75910 3.47804 3.13922
# Velocity P-wave (km/s) = 5.41493 7.13689 6.33469
#
# Compressibility (1/GPa) = 0.03346229
#
# Stress axis : x y z
#
# Youngs Moduli (GPa) = 21.85379 88.37375 76.71505
#
# Poissons Ratio (x) = 0.49600 0.64276
# Poissons Ratio (y) = 0.12265 0.33237
# Poissons Ratio (z) = 0.18310 0.38288
#
# Static dielectric constant tensor:
#      x y z
#    x 2.586880 0.000000 0.000000 
#    y 0.000000 3.152960 0.000000 
#    z 0.000000 0.000000 3.129940 
# 
# 
# High freq. dielectric constant tensor:
#      x y z
#    x 1.546190 0.000000 0.000000 
#    y 0.000000 1.590580 0.000000 
#    z 0.000000 0.000000 1.611050 
# 
# From -- ./inp_files/7596.got.cif
#   From: 2010.06.25/outbox.cif.g09.slc.cpg/sg58_4_cif.got.tgz:7596.got - 2010.06.26 21:38:00.
