data_PCOD8235702
_publ_section_title
;
Structure prediction by ZEFSAII (Michael W. Deem and Ramdas Pophale) SiO2 
 PCOD8235702
Probable space group: P N N M
;
_chemical_formula_sum "Si O2"
_cell_formula_units_Z 64
_cell_length_a 16.984853
_cell_length_b 21.909372
_cell_length_c 8.802337
_cell_angle_alpha 90.000000
_cell_angle_beta 90.000000
_cell_angle_gamma 90.000000
_cell_volume 3275.591334
_symmetry_space_group_name_H-M "P N N M"
_symmetry_group_IT_number 58
_symmetry_cell_setting 'orthorhombic'
loop_
_space_group_symop_operation_xyz
x,y,z
-x,-y,z
1/2+x,1/2-y,1/2-z
1/2-x,1/2+y,1/2-z
-x,-y,-z
x,y,-z
1/2-x,1/2+y,1/2+z
1/2+x,1/2-y,1/2+z
loop_
_atom_site_type_symbol
_atom_site_label
_atom_site_fract_x
_atom_site_fract_y
_atom_site_fract_z
Si Si1 0.677854 0.530008 0.679776
Si Si2 0.548270 0.184781 0.320033
Si Si3 0.448392 0.391266 0.180853
Si Si4 0.385449 0.160074 0.819202
Si Si5 0.414287 0.678111 0.679412
Si Si6 0.230589 0.100610 0.820454
Si Si7 0.335283 0.287950 0.173805
Si Si8 0.295221 0.876814 0.674838
O O1 0.667847 0.531143 0.500000
O O2 0.593727 0.547891 0.754555
O O3 0.697813 0.462909 0.745024
O O4 0.751456 0.573132 0.723952
O O5 0.544013 0.188703 0.500000
O O6 0.470645 0.152414 0.255004
O O7 0.564032 0.253944 0.256599
O O8 0.616348 0.137114 0.270226
O O9 0.533840 0.376199 0.246776
O O10 0.393672 0.337179 0.246471
O O11 0.451334 0.396615 0.000000
O O12 0.320999 0.110272 0.763978
O O13 0.348791 0.222595 0.751598
O O14 0.395184 0.158924 0.000000
O O15 0.427100 0.676685 0.500000
O O16 0.325064 0.658424 0.723717
O O17 0.232517 0.095902 0.000000
O O18 0.246080 0.310556 0.192092
O O19 0.359752 0.281574 0.000000
O O20 0.290825 0.898834 0.500000
#
# Coordination Sequence:
#
# PCOD8235702 Si02
#       8
#     8   8   8   8   8   8   8   8
#     4  10  20  36  55  77 104 138 187 231 259 301
#     4  10  20  33  53  83 113 135 168 218 271 323
#     4  10  19  33  53  80 110 142 173 210 264 321
#     4  10  18  33  55  76 103 139 177 217 268 322
#     4  10  19  34  56  81 110 139 174 217 264 320
#     4   9  20  36  55  77 103 142 185 223 264 313
#     4   8  14  27  50  74  97 129 168 204 251 313
#     4   9  18  34  54  76 104 140 175 213 266 324
#
# _framework density 19.538457000000001
#
# number of rings (size 3 to 8) (size 9 to 14) (size 15 to 20)
#    0.000    2.500    1.250    2.250    0.000    4.000 
#    0.000    6.250    0.000    5.250    0.000    0.000 
#    0.000    0.000    0.000    0.000    0.000    0.000 
#
# Total GULP energy -793013.577991 kJ/mol
# GULP energy per Si atom -12390.837156 kJ/mol
# Density = 1.949399 g / cm^3
# Si number density = 19.538457 Si / 1000 Ang^3
#
#
#
# Elastic Constant Matrix: (Units=GPa)
#
#
# Indices 1 2 3 4 5 6 
#
# 1 114.9867 14.5164 22.3825 0.0000 0.0000 0.0000
# 2 14.5164 49.3035 13.2928 0.0000 0.0000 0.0000
# 3 22.3825 13.2928 39.2560 0.0000 0.0000 0.0000
# 4 0.0000 0.0000 0.0000 17.4970 0.0000 0.0000
# 5 0.0000 0.0000 0.0000 0.0000 30.3817 0.0000
# 6 0.0000 0.0000 0.0000 0.0000 0.0000 23.9504
#
#
#
# Elastic Compliance Matrix: (Units=1/GPa)
#
#
# Indices 1 2 3 4 5 6 
#
# 1 0.009886 -0.001531 -0.005118 0.000000 0.000000 0.000000
# 2 -0.001531 0.022557 -0.006766 0.000000 0.000000 0.000000
# 3 -0.005118 -0.006766 0.030683 0.000000 0.000000 0.000000
# 4 0.000000 0.000000 0.000000 0.057153 0.000000 0.000000
# 5 0.000000 0.000000 0.000000 0.000000 0.032915 0.000000
# 6 0.000000 0.000000 0.000000 0.000000 0.000000 0.041753
#
#
# Mechanical properties :
#
#
# Convention : Reuss Voigt Hill
#
# Bulk Modulus (GPa) = 27.55042 33.76999 30.66020
# Shear Modulus (GPa) = 21.37890 24.58945 22.98417
#
# Velocity S-wave (km/s) = 3.31145 3.55140 3.43352
# Velocity P-wave (km/s) = 5.36211 5.84277 5.60759
#
# Compressibility (1/GPa) = 0.03629709
#
# Stress axis : x y z
#
# Youngs Moduli (GPa) = 101.15075 44.33154 32.59123
#
# Poissons Ratio (x) = 0.06786 0.16682
# Poissons Ratio (y) = 0.15484 0.22050
# Poissons Ratio (z) = 0.51774 0.29993
#
# Static dielectric constant tensor:
#      x y z
#    x 3.729960 0.000000 0.000000 
#    y 0.000000 3.685620 0.000000 
#    z 0.000000 0.000000 3.179400 
# 
# 
# High freq. dielectric constant tensor:
#      x y z
#    x 1.770120 0.000000 0.000000 
#    y 0.000000 1.748710 0.000000 
#    z 0.000000 0.000000 1.725800 
# 
# From -- ./inp_files/8337.got.cif
#   From: 2010.06.25/outbox.cif.g09.slc.cpg/sg58_5_cif.got.tgz:8337.got - 2010.06.26 21:38:00.
