data_PCOD8235913
_publ_section_title
;
Structure prediction by ZEFSAII (Michael W. Deem and Ramdas Pophale) SiO2 
 PCOD8235913
Probable space group: P N N M
;
_chemical_formula_sum "Si O2"
_cell_formula_units_Z 56
_cell_length_a 10.178348
_cell_length_b 20.401477
_cell_length_c 14.328809
_cell_angle_alpha 90.000000
_cell_angle_beta 90.000000
_cell_angle_gamma 90.000000
_cell_volume 2975.424941
_symmetry_space_group_name_H-M "P N N M"
_symmetry_group_IT_number 58
_symmetry_cell_setting 'orthorhombic'
loop_
_space_group_symop_operation_xyz
x,y,z
-x,-y,z
1/2+x,1/2-y,1/2-z
1/2-x,1/2+y,1/2-z
-x,-y,-z
x,y,-z
1/2-x,1/2+y,1/2+z
1/2+x,1/2-y,1/2+z
loop_
_atom_site_type_symbol
_atom_site_label
_atom_site_fract_x
_atom_site_fract_y
_atom_site_fract_z
Si Si1 0.127578 0.324384 0.798196
Si Si2 0.468277 0.928547 0.163296
Si Si3 0.170173 0.186931 0.276704
Si Si4 0.243577 0.605417 0.396711
Si Si5 0.900994 0.145247 0.241694
Si Si6 0.897430 0.269817 0.106370
Si Si7 0.688577 0.540595 0.395687
O O1 0.044834 0.381719 0.751348
O O2 0.132155 0.263072 0.728065
O O3 0.278523 0.348292 0.814497
O O4 0.041765 0.304533 0.888951
O O5 0.586693 0.903913 0.098607
O O6 0.335546 0.929777 0.102808
O O7 0.500000 0.000000 0.204789
O O8 0.219263 0.161755 0.175934
O O9 0.284542 0.180315 0.354218
O O10 0.036109 0.147154 0.301811
O O11 0.289393 0.627833 0.500000
O O12 0.312090 0.536384 0.369495
O O13 0.899276 0.203939 0.166757
O O14 0.896989 0.078031 0.182251
O O15 0.864778 0.252655 0.000000
O O16 0.630081 0.550681 0.500000
#
# Coordination Sequence:
#
# PCOD8235913 Si02
#       7
#     8   8   8   8   8   8   8
#     4   9  18  34  54  72 101 134 176 221 259 304
#     4   9  16  30  52  77 103 137 177 220 262 306
#     4  10  20  33  50  74 111 139 175 213 258 315
#     4  10  19  30  49  80 113 142 170 207 258 321
#     4   9  19  33  52  74 108 139 167 211 266 319
#     4  10  19  34  56  75  99 138 182 221 262 301
#     4   9  17  29  48  78 111 140 172 205 254 326
#
# _framework density 18.820841999999999
#
# number of rings (size 3 to 8) (size 9 to 14) (size 15 to 20)
#    0.000    2.571    1.429    0.857    0.000    5.143 
#    0.000    2.857    0.000    0.429    0.000    2.000 
#    0.000    0.000    0.000    0.000    0.000    0.000 
#
# Total GULP energy -693867.127026 kJ/mol
# GULP energy per Si atom -12390.484411 kJ/mol
# Density = 1.877800 g / cm^3
# Si number density = 18.820842 Si / 1000 Ang^3
#
#
#
# Elastic Constant Matrix: (Units=GPa)
#
#
# Indices 1 2 3 4 5 6 
#
# 1 95.6701 10.1556 25.2047 0.0000 0.0000 0.0000
# 2 10.1556 57.2683 19.4100 0.0000 0.0000 0.0000
# 3 25.2047 19.4100 54.6577 0.0000 0.0000 0.0000
# 4 0.0000 0.0000 0.0000 24.0894 0.0000 0.0000
# 5 0.0000 0.0000 0.0000 0.0000 11.7310 0.0000
# 6 0.0000 0.0000 0.0000 0.0000 0.0000 20.1408
#
#
#
# Elastic Compliance Matrix: (Units=1/GPa)
#
#
# Indices 1 2 3 4 5 6 
#
# 1 0.011902 -0.000285 -0.005387 0.000000 0.000000 0.000000
# 2 -0.000285 0.019858 -0.006921 0.000000 0.000000 0.000000
# 3 -0.005387 -0.006921 0.023238 0.000000 0.000000 0.000000
# 4 0.000000 0.000000 0.000000 0.041512 0.000000 0.000000
# 5 0.000000 0.000000 0.000000 0.000000 0.085244 0.000000
# 6 0.000000 0.000000 0.000000 0.000000 0.000000 0.049650
#
#
# Mechanical properties :
#
#
# Convention : Reuss Voigt Hill
#
# Bulk Modulus (GPa) = 33.54338 35.23743 34.39041
# Shear Modulus (GPa) = 18.75981 21.38062 20.07022
#
# Velocity S-wave (km/s) = 3.16057 3.37413 3.26909
# Velocity P-wave (km/s) = 5.58392 5.82605 5.70627
#
# Compressibility (1/GPa) = 0.02981214
#
# Stress axis : x y z
#
# Youngs Moduli (GPa) = 84.01844 50.35811 43.03356
#
# Poissons Ratio (x) = 0.01434 0.23184
# Poissons Ratio (y) = 0.02392 0.29782
# Poissons Ratio (z) = 0.45264 0.34851
#
# Static dielectric constant tensor:
#      x y z
#    x 3.934650 0.000000 0.000000 
#    y 0.000000 3.497410 0.000000 
#    z 0.000000 0.000000 2.967850 
# 
# 
# High freq. dielectric constant tensor:
#      x y z
#    x 1.755110 0.000000 0.000000 
#    y 0.000000 1.724510 0.000000 
#    z 0.000000 0.000000 1.670350 
# 
# From -- ./inp_files/14589.got.cif
#   From: 2010.06.25/outbox.cif.g09.slc.cpg/sg58_8_cif.got.tgz:14589.got - 2010.06.26 21:38:00.
