data_PCOD8235759
_publ_section_title
;
Structure prediction by ZEFSAII (Michael W. Deem and Ramdas Pophale) SiO2 
 PCOD8235759
Probable space group: P N N M
;
_chemical_formula_sum "Si O2"
_cell_formula_units_Z 48
_cell_length_a 21.796297
_cell_length_b 12.193892
_cell_length_c 9.176200
_cell_angle_alpha 90.000000
_cell_angle_beta 90.000000
_cell_angle_gamma 90.000000
_cell_volume 2438.865959
_symmetry_space_group_name_H-M "P N N M"
_symmetry_group_IT_number 58
_symmetry_cell_setting 'orthorhombic'
loop_
_space_group_symop_operation_xyz
x,y,z
-x,-y,z
1/2+x,1/2-y,1/2-z
1/2-x,1/2+y,1/2-z
-x,-y,-z
x,y,-z
1/2-x,1/2+y,1/2+z
1/2+x,1/2-y,1/2+z
loop_
_atom_site_type_symbol
_atom_site_label
_atom_site_fract_x
_atom_site_fract_y
_atom_site_fract_z
Si Si1 0.929351 0.508268 0.672726
Si Si2 0.102274 0.252128 0.672786
Si Si3 0.166470 0.633759 0.833876
Si Si4 0.300971 0.577940 0.826764
Si Si5 0.137897 0.877726 0.833937
Si Si6 0.016367 0.873851 0.336404
O O1 0.926233 0.497918 0.500000
O O2 0.898940 0.622373 0.728503
O O3 0.890218 0.409078 0.738817
O O4 0.000000 0.500000 0.725286
O O5 0.102065 0.250518 0.500000
O O6 0.161484 0.184953 0.730697
O O7 0.041022 0.192361 0.728687
O O8 0.230657 0.585096 0.775461
O O9 0.174692 0.764358 0.822425
O O10 0.154380 0.598087 0.000000
O O11 0.328493 0.467823 0.761748
O O12 0.306749 0.570691 0.000000
O O13 0.070655 0.852615 0.774725
O O14 0.133927 0.919176 0.000000
O O15 0.033703 0.832969 0.500000
O O16 0.000000 0.000000 0.342774
#
# Coordination Sequence:
#
# PCOD8235759 Si02
#       6
#     8   8   8   8   8   8
#     4  10  21  38  63  91 117 151 200 247 288 345
#     4   9  18  34  59  86 114 151 195 242 286 337
#     4  10  24  41  59  84 118 157 193 237 295 350
#     4  10  21  40  60  81 113 157 200 235 286 353
#     4  11  23  38  58  87 120 150 188 241 295 340
#     4  10  18  34  60  86 113 152 195 233 283 343
#
# _framework density 19.681277000000001
#
# number of rings (size 3 to 8) (size 9 to 14) (size 15 to 20)
#    0.000    2.000    1.667    1.500    2.333    4.000 
#    0.000    1.667    0.000    0.000    0.000    0.000 
#    0.000    0.000    0.000    0.000    0.000    0.000 
#
# Total GULP energy -595217.433878 kJ/mol
# GULP energy per Si atom -12400.363206 kJ/mol
# Density = 1.963648 g / cm^3
# Si number density = 19.681277 Si / 1000 Ang^3
#
#
#
# Elastic Constant Matrix: (Units=GPa)
#
#
# Indices 1 2 3 4 5 6 
#
# 1 131.4121 40.1994 36.7314 0.0000 0.0000 0.0000
# 2 40.1994 93.4127 20.5940 0.0000 0.0000 0.0000
# 3 36.7314 20.5940 36.7624 0.0000 0.0000 0.0000
# 4 0.0000 0.0000 0.0000 29.1244 0.0000 0.0000
# 5 0.0000 0.0000 0.0000 0.0000 21.8829 0.0000
# 6 0.0000 0.0000 0.0000 0.0000 0.0000 25.2616
#
#
#
# Elastic Compliance Matrix: (Units=1/GPa)
#
#
# Indices 1 2 3 4 5 6 
#
# 1 0.011110 -0.002663 -0.009609 0.000000 0.000000 0.000000
# 2 -0.002663 0.012852 -0.004539 0.000000 0.000000 0.000000
# 3 -0.009609 -0.004539 0.039345 0.000000 0.000000 0.000000
# 4 0.000000 0.000000 0.000000 0.034335 0.000000 0.000000
# 5 0.000000 0.000000 0.000000 0.000000 0.045698 0.000000
# 6 0.000000 0.000000 0.000000 0.000000 0.000000 0.039586
#
#
# Mechanical properties :
#
#
# Convention : Reuss Voigt Hill
#
# Bulk Modulus (GPa) = 33.68626 50.73742 42.21184
# Shear Modulus (GPa) = 22.08064 26.19129 24.13597
#
# Velocity S-wave (km/s) = 3.35313 3.65193 3.50571
# Velocity P-wave (km/s) = 5.66960 6.60437 6.15475
#
# Compressibility (1/GPa) = 0.02968569
#
# Stress axis : x y z
#
# Youngs Moduli (GPa) = 90.00877 77.81067 25.41593
#
# Poissons Ratio (x) = 0.20718 0.24422
# Poissons Ratio (y) = 0.23966 0.11536
# Poissons Ratio (z) = 0.86490 0.35318
#
# Static dielectric constant tensor:
#      x y z
#    x 6.607290 0.000000 0.000000 
#    y 0.000000 3.725310 0.000000 
#    z 0.000000 0.000000 3.346350 
# 
# 
# High freq. dielectric constant tensor:
#      x y z
#    x 1.774610 0.000000 0.000000 
#    y 0.000000 1.778570 0.000000 
#    z 0.000000 0.000000 1.737640 
# 
# From -- ./inp_files/9723.got.cif
#   From: 2010.06.25/outbox.cif.g09.slc.cpg/sg58_5_cif.got.tgz:9723.got - 2010.06.26 21:38:00.
