data_PCOD8235954
_publ_section_title
;
Structure prediction by ZEFSAII (Michael W. Deem and Ramdas Pophale) SiO2 
 PCOD8235954
Probable space group: P N N M
;
_chemical_formula_sum "Si O2"
_cell_formula_units_Z 64
_cell_length_a 13.813781
_cell_length_b 28.407412
_cell_length_c 9.078231
_cell_angle_alpha 90.000000
_cell_angle_beta 90.000000
_cell_angle_gamma 90.000000
_cell_volume 3562.422835
_symmetry_space_group_name_H-M "P N N M"
_symmetry_group_IT_number 58
_symmetry_cell_setting 'orthorhombic'
loop_
_space_group_symop_operation_xyz
x,y,z
-x,-y,z
1/2+x,1/2-y,1/2-z
1/2-x,1/2+y,1/2-z
-x,-y,-z
x,y,-z
1/2-x,1/2+y,1/2+z
1/2+x,1/2-y,1/2+z
loop_
_atom_site_type_symbol
_atom_site_label
_atom_site_fract_x
_atom_site_fract_y
_atom_site_fract_z
Si Si1 0.651024 0.288144 0.824938
Si Si2 0.445890 0.807631 0.174775
Si Si3 0.936693 0.875413 0.171650
Si Si4 0.664093 0.102209 0.833672
Si Si5 0.869563 0.076483 0.834169
Si Si6 0.337309 0.177546 0.172089
Si Si7 0.271139 0.982580 0.326427
Si Si8 0.261939 0.076353 0.832321
O O1 0.608317 0.238679 0.767792
O O2 0.580637 0.328364 0.763865
O O3 0.759354 0.292760 0.763223
O O4 0.653633 0.291350 0.000000
O O5 0.392754 0.854069 0.239141
O O6 0.557143 0.806512 0.226773
O O7 0.440174 0.810211 0.000000
O O8 0.850176 0.911984 0.198125
O O9 0.035255 0.898918 0.231689
O O10 0.944610 0.861584 0.000000
O O11 0.779899 0.113788 0.835124
O O12 0.649054 0.054434 0.737665
O O13 0.627030 0.092460 0.000000
O O14 0.836121 0.031681 0.735436
O O15 0.891159 0.058312 0.000000
O O16 0.326521 0.122002 0.203220
O O17 0.319696 0.187822 0.000000
O O18 0.271821 0.980282 0.500000
O O19 0.297340 0.034950 0.274241
O O20 0.276967 0.059804 0.000000
#
# Coordination Sequence:
#
# PCOD8235954 Si02
#       8
#     8   8   8   8   8   8   8   8
#     4  10  20  33  52  80 110 133 162 211 266 307
#     4   9  18  35  58  79 101 134 174 215 254 299
#     4   9  18  33  52  74 102 139 179 214 250 305
#     4   8  16  33  53  71  97 132 172 214 250 296
#     4   8  16  31  51  72  98 134 174 213 249 298
#     4   9  19  37  57  77 102 136 177 211 246 302
#     4  10  19  31  48  73 105 136 167 212 268 313
#     4   9  17  31  51  71  97 135 176 215 252 301
#
# _framework density 17.965302999999999
#
# number of rings (size 3 to 8) (size 9 to 14) (size 15 to 20)
#    0.750    2.250    0.000    1.875    0.000    4.000 
#    0.000    7.500    0.000    3.750    0.000    0.000 
#    0.000    0.000    0.000    0.000    0.000    0.000 
#
# Total GULP energy -793202.553287 kJ/mol
# GULP energy per Si atom -12393.789895 kJ/mol
# Density = 1.792441 g / cm^3
# Si number density = 17.965303 Si / 1000 Ang^3
#
#
#
# Elastic Constant Matrix: (Units=GPa)
#
#
# Indices 1 2 3 4 5 6 
#
# 1 66.5962 55.5145 27.3719 0.0000 0.0000 0.0000
# 2 55.5145 128.2491 55.7062 0.0000 0.0000 0.0000
# 3 27.3719 55.7062 79.8315 0.0000 0.0000 0.0000
# 4 0.0000 0.0000 0.0000 26.0119 0.0000 0.0000
# 5 0.0000 0.0000 0.0000 0.0000 18.9830 0.0000
# 6 0.0000 0.0000 0.0000 0.0000 0.0000 19.0757
#
#
#
# Elastic Compliance Matrix: (Units=1/GPa)
#
#
# Indices 1 2 3 4 5 6 
#
# 1 0.023599 -0.009615 -0.001382 0.000000 0.000000 0.000000
# 2 -0.009615 0.015106 -0.007244 0.000000 0.000000 0.000000
# 3 -0.001382 -0.007244 0.018055 0.000000 0.000000 0.000000
# 4 0.000000 0.000000 0.000000 0.038444 0.000000 0.000000
# 5 0.000000 0.000000 0.000000 0.000000 0.052679 0.000000
# 6 0.000000 0.000000 0.000000 0.000000 0.000000 0.052423
#
#
# Mechanical properties :
#
#
# Convention : Reuss Voigt Hill
#
# Bulk Modulus (GPa) = 49.31540 61.31801 55.31670
# Shear Modulus (GPa) = 20.52995 21.88640 21.20818
#
# Velocity S-wave (km/s) = 3.38413 3.49414 3.43958
# Velocity P-wave (km/s) = 6.54062 7.10522 6.82876
#
# Compressibility (1/GPa) = 0.02027764
#
# Stress axis : x y z
#
# Youngs Moduli (GPa) = 42.37505 66.19995 55.38546
#
# Poissons Ratio (x) = 0.63649 0.07656
# Poissons Ratio (y) = 0.40742 0.40122
# Poissons Ratio (z) = 0.05857 0.47956
#
# Static dielectric constant tensor:
#      x y z
#    x 3.287490 0.000000 0.000000 
#    y 0.000000 3.257160 0.000000 
#    z 0.000000 0.000000 3.054540 
# 
# 
# High freq. dielectric constant tensor:
#      x y z
#    x 1.684780 0.000000 0.000000 
#    y 0.000000 1.689000 0.000000 
#    z 0.000000 0.000000 1.674390 
# 
# From -- ./inp_files/7182.got.cif
#   From: 2010.06.25/outbox.cif.g09.slc.cpg/sg58_4_cif.got.tgz:7182.got - 2010.06.26 21:38:00.
