data_PCOD8235897
_publ_section_title
;
Structure prediction by ZEFSAII (Michael W. Deem and Ramdas Pophale) SiO2 
 PCOD8235897
Probable space group: P N N M
;
_chemical_formula_sum "Si O2"
_cell_formula_units_Z 48
_cell_length_a 17.357287
_cell_length_b 19.267525
_cell_length_c 9.054983
_cell_angle_alpha 90.000000
_cell_angle_beta 90.000000
_cell_angle_gamma 90.000000
_cell_volume 3028.275723
_symmetry_space_group_name_H-M "P N N M"
_symmetry_group_IT_number 58
_symmetry_cell_setting 'orthorhombic'
loop_
_space_group_symop_operation_xyz
x,y,z
-x,-y,z
1/2+x,1/2-y,1/2-z
1/2-x,1/2+y,1/2-z
-x,-y,-z
x,y,-z
1/2-x,1/2+y,1/2+z
1/2+x,1/2-y,1/2+z
loop_
_atom_site_type_symbol
_atom_site_label
_atom_site_fract_x
_atom_site_fract_y
_atom_site_fract_z
Si Si1 0.814709 0.124687 0.672664
Si Si2 0.431187 0.293068 0.333108
Si Si3 0.583433 0.966331 0.162502
Si Si4 0.140720 0.409685 0.172265
Si Si5 0.501703 0.165511 0.825110
Si Si6 0.060883 0.945650 0.833033
O O1 0.830263 0.131060 0.500000
O O2 0.725223 0.118107 0.709402
O O3 0.860727 0.056786 0.735166
O O4 0.848077 0.194038 0.753416
O O5 0.417799 0.266138 0.500000
O O6 0.482965 0.239726 0.243067
O O7 0.475581 0.367616 0.333303
O O8 0.568979 0.886939 0.214880
O O9 0.500000 0.000000 0.151809
O O10 0.635426 0.009749 0.276457
O O11 0.622453 0.968137 0.000000
O O12 0.081941 0.360905 0.258875
O O13 0.121631 0.406385 0.000000
O O14 0.511993 0.171521 0.000000
O O15 0.082244 0.968608 0.000000
O O16 0.000000 0.000000 0.763944
#
# Coordination Sequence:
#
# PCOD8235897 Si02
#       6
#     8   8   8   8   8   8
#     4   9  18  31  48  71  97 123 157 198 240 285
#     4   9  18  31  50  72  95 127 163 198 243 291
#     4   8  16  29  45  68  95 124 158 194 234 284
#     4  10  19  30  48  73  99 127 160 199 240 285
#     4  10  19  31  49  71  98 128 162 201 241 289
#     4   8  16  31  51  72  93 120 158 199 237 283
#
# _framework density 15.850604000000001
#
# number of rings (size 3 to 8) (size 9 to 14) (size 15 to 20)
#    1.000    2.000    0.000    2.500    0.000    6.667 
#    0.000    0.000    3.667    0.000    0.000    0.000 
#    0.000    0.000    0.000    0.000    0.000    0.000 
#
# Total GULP energy -594653.751845 kJ/mol
# GULP energy per Si atom -12388.619830 kJ/mol
# Density = 1.581453 g / cm^3
# Si number density = 15.850604 Si / 1000 Ang^3
#
#
#
# Elastic Constant Matrix: (Units=GPa)
#
#
# Indices 1 2 3 4 5 6 
#
# 1 86.4720 44.6836 63.6309 0.0000 0.0000 0.0000
# 2 44.6836 81.4511 47.4208 0.0000 0.0000 0.0000
# 3 63.6309 47.4208 105.8414 0.0000 0.0000 0.0000
# 4 0.0000 0.0000 0.0000 25.7815 0.0000 0.0000
# 5 0.0000 0.0000 0.0000 0.0000 25.1427 0.0000
# 6 0.0000 0.0000 0.0000 0.0000 0.0000 22.1831
#
#
#
# Elastic Compliance Matrix: (Units=1/GPa)
#
#
# Indices 1 2 3 4 5 6 
#
# 1 0.022794 -0.006124 -0.010960 0.000000 0.000000 0.000000
# 2 -0.006124 0.018255 -0.004497 0.000000 0.000000 0.000000
# 3 -0.010960 -0.004497 0.018052 0.000000 0.000000 0.000000
# 4 0.000000 0.000000 0.000000 0.038788 0.000000 0.000000
# 5 0.000000 0.000000 0.000000 0.000000 0.039773 0.000000
# 6 0.000000 0.000000 0.000000 0.000000 0.000000 0.045079
#
#
# Mechanical properties :
#
#
# Convention : Reuss Voigt Hill
#
# Bulk Modulus (GPa) = 62.73897 65.02614 63.88256
# Shear Modulus (GPa) = 21.62491 22.49008 22.05749
#
# Velocity S-wave (km/s) = 3.69764 3.77089 3.73445
# Velocity P-wave (km/s) = 7.60904 7.75067 7.68018
#
# Compressibility (1/GPa) = 0.01593906
#
# Stress axis : x y z
#
# Youngs Moduli (GPa) = 43.87215 54.77905 55.39573
#
# Poissons Ratio (x) = 0.33545 0.60712
# Poissons Ratio (y) = 0.26866 0.24914
# Poissons Ratio (z) = 0.48082 0.24637
#
# Static dielectric constant tensor:
#      x y z
#    x 2.732360 0.000000 0.000000 
#    y 0.000000 3.093470 0.000000 
#    z 0.000000 0.000000 3.102120 
# 
# 
# High freq. dielectric constant tensor:
#      x y z
#    x 1.576590 0.000000 0.000000 
#    y 0.000000 1.595330 0.000000 
#    z 0.000000 0.000000 1.623040 
# 
# From -- ./inp_files/8073.got.cif
#   From: 2010.06.25/outbox.cif.g09.slc.cpg/sg58_5_cif.got.tgz:8073.got - 2010.06.26 21:38:00.
