data_PCOD8235140
_publ_section_title
;
Structure prediction by ZEFSAII (Michael W. Deem and Ramdas Pophale) SiO2 
 PCOD8235140
Probable space group: P B C M
;
_chemical_formula_sum "Si O2"
_cell_formula_units_Z 32
_cell_length_a 20.404295
_cell_length_b 5.013420
_cell_length_c 14.281488
_cell_angle_alpha 90.000000
_cell_angle_beta 90.000000
_cell_angle_gamma 90.000000
_cell_volume 1460.929109
_symmetry_space_group_name_H-M "P B C M"
_symmetry_group_IT_number 57
_symmetry_cell_setting 'orthorhombic'
loop_
_space_group_symop_operation_xyz
x,y,z
-x,-y,1/2+z
x,1/2-y,-z
-x,1/2+y,1/2-z
-x,-y,-z
x,y,1/2-z
-x,1/2+y,z
x,1/2-y,1/2+z
loop_
_atom_site_type_symbol
_atom_site_label
_atom_site_fract_x
_atom_site_fract_y
_atom_site_fract_z
Si Si1 0.848738 0.666956 0.102231
Si Si2 0.370939 0.512390 0.062104
Si Si3 0.546319 0.973592 0.250000
Si Si4 0.043569 0.135229 0.250000
Si Si5 0.233880 0.665723 0.144647
O O1 0.912774 0.579522 0.158831
O O2 0.799293 0.418181 0.094167
O O3 0.814550 0.915562 0.152562
O O4 0.872400 0.750000 0.000000
O O5 0.409361 0.470445 0.157961
O O6 0.296602 0.586267 0.084900
O O7 0.402648 0.750000 0.000000
O O8 0.373401 0.250000 0.000000
O O9 0.501075 0.720135 0.250000
O O10 0.017730 0.436744 0.250000
O O11 0.253832 0.751090 0.250000
#
# Coordination Sequence:
#
# PCOD8235140 Si02
#       5
#     8   8   4   4   8
#     4  12  25  43  70 100 134 173 222 279 341 407
#     4  12  26  45  73 106 141 180 229 289 349 410
#     4  12  28  48  70 100 142 192 242 282 332 404
#     4  12  26  44  66  94 134 180 230 274 328 394
#     4  12  22  44  71 102 137 173 215 282 355 410
#
# _framework density 21.903870999999999
#
# number of rings (size 3 to 8) (size 9 to 14) (size 15 to 20)
#    0.000    0.000    3.750    7.500    0.000    4.000 
#    0.000    0.000    0.000    0.000    0.000    0.000 
#    0.000    0.000    0.000    0.000    0.000    0.000 
#
# Total GULP energy -397049.125779 kJ/mol
# GULP energy per Si atom -12407.785181 kJ/mol
# Density = 2.185402 g / cm^3
# Si number density = 21.903871 Si / 1000 Ang^3
#
#
#
# Elastic Constant Matrix: (Units=GPa)
#
#
# Indices 1 2 3 4 5 6 
#
# 1 108.4769 53.7284 76.6383 0.0000 0.0000 0.0000
# 2 53.7284 163.1437 60.6088 0.0000 0.0000 0.0000
# 3 76.6383 60.6088 186.5195 0.0000 0.0000 0.0000
# 4 0.0000 0.0000 0.0000 36.5952 0.0000 0.0000
# 5 0.0000 0.0000 0.0000 0.0000 0.4543 0.0000
# 6 0.0000 0.0000 0.0000 0.0000 0.0000 18.7623
#
#
#
# Elastic Compliance Matrix: (Units=1/GPa)
#
#
# Indices 1 2 3 4 5 6 
#
# 1 0.014046 -0.002822 -0.004854 0.000000 0.000000 0.000000
# 2 -0.002822 0.007538 -0.001290 0.000000 0.000000 0.000000
# 3 -0.004854 -0.001290 0.007775 0.000000 0.000000 0.000000
# 4 0.000000 0.000000 0.000000 0.027326 0.000000 0.000000
# 5 0.000000 0.000000 0.000000 0.000000 2.200972 0.000000
# 6 0.000000 0.000000 0.000000 0.000000 0.000000 0.053298
#
#
# Mechanical properties :
#
#
# Convention : Reuss Voigt Hill
#
# Bulk Modulus (GPa) = 87.51682 93.34346 90.43014
# Shear Modulus (GPa) = 2.14344 28.97334 15.55839
#
# Velocity S-wave (km/s) = 0.99030 3.64091 2.66804
# Velocity P-wave (km/s) = 6.43034 7.77062 7.13203
#
# Compressibility (1/GPa) = 0.01142637
#
# Stress axis : x y z
#
# Youngs Moduli (GPa) = 71.19510 132.65661 128.61751
#
# Poissons Ratio (x) = 0.37441 0.62433
# Poissons Ratio (y) = 0.20094 0.16589
# Poissons Ratio (z) = 0.34559 0.17110
#
# Static dielectric constant tensor:
#      x y z
#    x 3.852840 0.000000 0.000000 
#    y 0.000000 4.117540 0.000000 
#    z 0.000000 0.000000 4.153000 
# 
# 
# High freq. dielectric constant tensor:
#      x y z
#    x 1.854420 0.000000 0.000000 
#    y 0.000000 1.879670 0.000000 
#    z 0.000000 0.000000 1.888370 
# 
# From -- ./inp_files/18807.got.cif
#   From: 2010.03.12/outbox.cif.g09.slc.cpg/sg57_10_cif.got.tgz:18807.got - 2010.04.16 15:48:40.
