data_PCOD8235434
_publ_section_title
;
Structure prediction by ZEFSAII (Michael W. Deem and Ramdas Pophale) SiO2 
 PCOD8235434
Probable space group: P N N M
;
_chemical_formula_sum "Si O2"
_cell_formula_units_Z 56
_cell_length_a 16.818602
_cell_length_b 19.872693
_cell_length_c 9.480030
_cell_angle_alpha 90.000000
_cell_angle_beta 90.000000
_cell_angle_gamma 90.000000
_cell_volume 3168.519094
_symmetry_space_group_name_H-M "P N N M"
_symmetry_group_IT_number 58
_symmetry_cell_setting 'orthorhombic'
loop_
_space_group_symop_operation_xyz
x,y,z
-x,-y,z
1/2+x,1/2-y,1/2-z
1/2-x,1/2+y,1/2-z
-x,-y,-z
x,y,-z
1/2-x,1/2+y,1/2+z
1/2+x,1/2-y,1/2+z
loop_
_atom_site_type_symbol
_atom_site_label
_atom_site_fract_x
_atom_site_fract_y
_atom_site_fract_z
Si Si1 0.683703 0.117597 0.832826
Si Si2 0.155155 0.642190 0.666318
Si Si3 0.255649 0.739130 0.838654
Si Si4 0.479922 0.830338 0.833380
Si Si5 0.569682 0.313497 0.837442
Si Si6 0.565045 0.444378 0.334186
Si Si7 0.740422 0.482203 0.332326
O O1 0.733751 0.183549 0.791554
O O2 0.593522 0.125466 0.772377
O O3 0.726230 0.051963 0.767153
O O4 0.679957 0.110032 0.000000
O O5 0.165390 0.651532 0.500000
O O6 0.188189 0.708830 0.739500
O O7 0.062587 0.634611 0.708952
O O8 0.201978 0.577032 0.722348
O O9 0.336485 0.697651 0.817793
O O10 0.227177 0.734925 0.000000
O O11 0.475971 0.752970 0.780183
O O12 0.468080 0.826304 0.000000
O O13 0.540969 0.375957 0.744016
O O14 0.548853 0.328629 0.000000
O O15 0.500000 0.500000 0.295463
O O16 0.567048 0.429243 0.500000
O O17 0.650762 0.470171 0.279129
O O18 0.741787 0.485129 0.500000
#
# Coordination Sequence:
#
# PCOD8235434 Si02
#       7
#     8   8   8   8   8   8   8
#     4   8  15  29  47  68  97 126 158 198 238 282
#     4  10  18  29  49  74  98 122 155 199 245 287
#     4   9  17  30  50  70  91 127 165 196 233 285
#     4   8  16  29  46  71  96 121 156 201 241 276
#     4   9  17  32  50  67  92 125 161 197 235 280
#     4  10  20  32  47  71 101 128 157 197 242 285
#     4   9  17  29  46  70  98 128 157 193 242 287
#
# _framework density 17.673873
#
# number of rings (size 3 to 8) (size 9 to 14) (size 15 to 20)
#    0.000    3.000    1.429    1.714    0.000    2.000 
#    0.000    5.000    0.000    2.571    0.000    1.000 
#    0.000    0.000    0.000    0.000    0.000    0.000 
#
# Total GULP energy -694196.904078 kJ/mol
# GULP energy per Si atom -12396.373287 kJ/mol
# Density = 1.763365 g / cm^3
# Si number density = 17.673873 Si / 1000 Ang^3
#
#
#
# Elastic Constant Matrix: (Units=GPa)
#
#
# Indices 1 2 3 4 5 6 
#
# 1 109.1712 71.1725 20.1825 0.0000 0.0000 0.0000
# 2 71.1725 129.4686 24.1085 0.0000 0.0000 0.0000
# 3 20.1825 24.1085 21.7476 0.0000 0.0000 0.0000
# 4 0.0000 0.0000 0.0000 21.1229 0.0000 0.0000
# 5 0.0000 0.0000 0.0000 0.0000 15.4251 0.0000
# 6 0.0000 0.0000 0.0000 0.0000 0.0000 28.6564
#
#
#
# Elastic Compliance Matrix: (Units=1/GPa)
#
#
# Indices 1 2 3 4 5 6 
#
# 1 0.014867 -0.007061 -0.005969 0.000000 0.000000 0.000000
# 2 -0.007061 0.013087 -0.007955 0.000000 0.000000 0.000000
# 3 -0.005969 -0.007955 0.060340 0.000000 0.000000 0.000000
# 4 0.000000 0.000000 0.000000 0.047342 0.000000 0.000000
# 5 0.000000 0.000000 0.000000 0.000000 0.064829 0.000000
# 6 0.000000 0.000000 0.000000 0.000000 0.000000 0.034896
#
#
# Mechanical properties :
#
#
# Convention : Reuss Voigt Hill
#
# Bulk Modulus (GPa) = 21.58720 54.59050 38.08885
# Shear Modulus (GPa) = 17.07811 22.70247 19.89029
#
# Velocity S-wave (km/s) = 3.11189 3.58791 3.35835
# Velocity P-wave (km/s) = 5.01523 6.93678 6.05274
#
# Compressibility (1/GPa) = 0.04632374
#
# Stress axis : x y z
#
# Youngs Moduli (GPa) = 67.26353 76.41263 16.57277
#
# Poissons Ratio (x) = 0.53957 0.09893
# Poissons Ratio (y) = 0.47496 0.13183
# Poissons Ratio (z) = 0.40151 0.60783
#
# Static dielectric constant tensor:
#      x y z
#    x 3.395210 0.000000 0.000000 
#    y 0.000000 3.460060 0.000000 
#    z 0.000000 0.000000 2.795240 
# 
# 
# High freq. dielectric constant tensor:
#      x y z
#    x 1.685570 0.000000 0.000000 
#    y 0.000000 1.689500 0.000000 
#    z 0.000000 0.000000 1.630540 
# 
# From -- ./inp_files/8194.got.cif
#   From: 2010.06.25/outbox.cif.g09.slc.cpg/sg58_5_cif.got.tgz:8194.got - 2010.06.26 21:38:00.
