data_PCOD8235001
_publ_section_title
;
Structure prediction by ZEFSAII (Michael W. Deem and Ramdas Pophale) SiO2 
 PCOD8235001
Probable space group: P B C M
;
_chemical_formula_sum "Si O2"
_cell_formula_units_Z 40
_cell_length_a 12.799013
_cell_length_b 17.461540
_cell_length_c 8.287916
_cell_angle_alpha 90.000000
_cell_angle_beta 90.000000
_cell_angle_gamma 90.000000
_cell_volume 1852.270304
_symmetry_space_group_name_H-M "P B C M"
_symmetry_group_IT_number 57
_symmetry_cell_setting 'orthorhombic'
loop_
_space_group_symop_operation_xyz
x,y,z
-x,-y,1/2+z
x,1/2-y,-z
-x,1/2+y,1/2-z
-x,-y,-z
x,y,1/2-z
-x,1/2+y,z
x,1/2-y,1/2+z
loop_
_atom_site_type_symbol
_atom_site_label
_atom_site_fract_x
_atom_site_fract_y
_atom_site_fract_z
Si Si1 0.649309 0.665139 0.559062
Si Si2 0.859833 0.834714 0.940785
Si Si3 0.748621 0.337694 0.561083
Si Si4 0.542709 0.079746 0.435079
Si Si5 0.048910 0.921703 0.435350
O O1 0.665248 0.750000 0.500000
O O2 0.634528 0.655850 0.750000
O O3 0.754240 0.619946 0.498052
O O4 0.548686 0.639206 0.462847
O O5 0.878022 0.843715 0.750000
O O6 0.842183 0.750000 0.000000
O O7 0.959122 0.860175 0.041724
O O8 0.759374 0.250000 0.500000
O O9 0.733848 0.329887 0.750000
O O10 0.648179 0.383429 0.485947
O O11 0.848947 0.390491 0.525712
O O12 0.567483 0.066176 0.250000
O O13 0.500000 0.000000 0.500000
O O14 0.079447 0.932079 0.250000
O O15 0.000000 0.000000 0.500000
#
# Coordination Sequence:
#
# PCOD8235001 Si02
#       5
#     8   8   8   8   8
#     4  11  22  39  64  94 129 168 215 266 323 390
#     4  11  22  40  65  94 128 168 214 265 323 389
#     4  11  25  46  71 100 135 179 230 280 336 405
#     4  11  25  43  66  96 134 175 222 275 334 397
#     4  12  26  44  67  96 133 174 219 273 333 396
#
# _framework density 21.595120000000001
#
# number of rings (size 3 to 8) (size 9 to 14) (size 15 to 20)
#    0.000    0.800    0.000    9.000    2.800    4.800 
#    0.000    0.000    0.000    0.000    0.000    0.000 
#    0.000    0.000    0.000    0.000    0.000    0.000 
#
# Total GULP energy -495656.687680 kJ/mol
# GULP energy per Si atom -12391.417192 kJ/mol
# Density = 2.154597 g / cm^3
# Si number density = 21.595120 Si / 1000 Ang^3
#
#
#
# Elastic Constant Matrix: (Units=GPa)
#
#
# Indices 1 2 3 4 5 6 
#
# 1 186.7289 63.8748 2.6261 0.0000 0.0000 0.0000
# 2 63.8748 109.1857 20.9226 0.0000 0.0000 0.0000
# 3 2.6261 20.9226 76.5749 0.0000 0.0000 0.0000
# 4 0.0000 0.0000 0.0000 36.0090 0.0000 0.0000
# 5 0.0000 0.0000 0.0000 0.0000 34.5094 0.0000
# 6 0.0000 0.0000 0.0000 0.0000 0.0000 41.6264
#
#
#
# Elastic Compliance Matrix: (Units=1/GPa)
#
#
# Indices 1 2 3 4 5 6 
#
# 1 0.006753 -0.004122 0.000895 0.000000 0.000000 0.000000
# 2 -0.004122 0.012181 -0.003187 0.000000 0.000000 0.000000
# 3 0.000895 -0.003187 0.013899 0.000000 0.000000 0.000000
# 4 0.000000 0.000000 0.000000 0.027771 0.000000 0.000000
# 5 0.000000 0.000000 0.000000 0.000000 0.028978 0.000000
# 6 0.000000 0.000000 0.000000 0.000000 0.000000 0.024023
#
#
# Mechanical properties :
#
#
# Convention : Reuss Voigt Hill
#
# Bulk Modulus (GPa) = 49.98853 60.81517 55.40185
# Shear Modulus (GPa) = 37.56560 41.43336 39.49948
#
# Velocity S-wave (km/s) = 4.17531 4.38499 4.28143
# Velocity P-wave (km/s) = 6.81488 7.33895 7.08176
#
# Compressibility (1/GPa) = 0.02000459
#
# Stress axis : x y z
#
# Youngs Moduli (GPa) = 148.08778 82.09708 71.94686
#
# Poissons Ratio (x) = 0.33839 -0.06437
# Poissons Ratio (y) = 0.61040 0.22928
# Poissons Ratio (z) = -0.13248 0.26162
#
# Static dielectric constant tensor:
#      x y z
#    x 1.557560 0.000000 0.000000 
#    y 0.000000 2.565320 0.000000 
#    z 0.000000 0.000000 3.640950 
# 
# 
# High freq. dielectric constant tensor:
#      x y z
#    x 1.880600 0.000000 0.000000 
#    y 0.000000 1.846190 0.000000 
#    z 0.000000 0.000000 1.852590 
# 
# From -- ./inp_files/2670.got.cif
#   From: 2010.03.12/outbox.cif.g09.slc.cpg/sg57_2_cif.got.tgz:2670.got - 2010.04.16 15:48:40.
