data_PCOD8235515
_publ_section_title
;
Structure prediction by ZEFSAII (Michael W. Deem and Ramdas Pophale) SiO2 
 PCOD8235515
Probable space group: P N N M
;
_chemical_formula_sum "Si O2"
_cell_formula_units_Z 56
_cell_length_a 15.002479
_cell_length_b 21.162870
_cell_length_c 8.992894
_cell_angle_alpha 90.000000
_cell_angle_beta 90.000000
_cell_angle_gamma 90.000000
_cell_volume 2855.203492
_symmetry_space_group_name_H-M "P N N M"
_symmetry_group_IT_number 58
_symmetry_cell_setting 'orthorhombic'
loop_
_space_group_symop_operation_xyz
x,y,z
-x,-y,z
1/2+x,1/2-y,1/2-z
1/2-x,1/2+y,1/2-z
-x,-y,-z
x,y,-z
1/2-x,1/2+y,1/2+z
1/2+x,1/2-y,1/2+z
loop_
_atom_site_type_symbol
_atom_site_label
_atom_site_fract_x
_atom_site_fract_y
_atom_site_fract_z
Si Si1 0.933356 0.649573 0.163529
Si Si2 0.833119 0.834005 0.324713
Si Si3 0.756176 0.104034 0.329469
Si Si4 0.687987 0.731685 0.323785
Si Si5 0.763248 0.964788 0.677326
Si Si6 0.569349 0.953897 0.331488
Si Si7 0.000586 0.759496 0.671491
O O1 0.851412 0.601008 0.187222
O O2 0.028645 0.615708 0.170270
O O3 0.934388 0.701045 0.293874
O O4 0.922609 0.681595 0.000000
O O5 0.817658 0.833182 0.500000
O O6 0.759969 0.783167 0.260316
O O7 0.820758 0.905580 0.261009
O O8 0.936405 0.818511 0.287275
O O9 0.784966 0.116159 0.500000
O O10 0.792345 0.161032 0.231601
O O11 0.795096 0.035588 0.274494
O O12 0.689161 0.731727 0.500000
O O13 0.588097 0.746897 0.270812
O O14 0.761828 0.962119 0.500000
O O15 0.665138 0.952873 0.746325
O O16 0.582506 0.979301 0.500000
O O17 0.500000 0.000000 0.246678
O O18 0.028789 0.760210 0.500000
#
# Coordination Sequence:
#
# PCOD8235515 Si02
#       7
#     8   8   8   8   8   8   8
#     4  10  18  30  52  82 112 143 178 221 280 338
#     4   9  19  35  56  82 111 144 184 232 281 328
#     4  10  19  32  55  85 112 142 181 227 277 331
#     4  11  22  39  60  83 111 149 190 232 283 336
#     4   9  16  29  50  78 112 144 182 230 276 323
#     4   9  14  23  44  78 111 138 174 222 268 323
#     4  11  22  37  56  81 110 144 189 238 281 326
#
# _framework density 19.613312000000001
#
# number of rings (size 3 to 8) (size 9 to 14) (size 15 to 20)
#    0.000    2.143    2.857    1.714    0.000    2.286 
#    0.000    0.714    0.000   10.714    0.000    0.000 
#    0.000    0.000    0.000    0.000    0.000    0.000 
#
# Total GULP energy -693733.047210 kJ/mol
# GULP energy per Si atom -12388.090129 kJ/mol
# Density = 1.956867 g / cm^3
# Si number density = 19.613312 Si / 1000 Ang^3
#
#
#
# Elastic Constant Matrix: (Units=GPa)
#
#
# Indices 1 2 3 4 5 6 
#
# 1 55.5645 23.2127 17.5944 0.0000 0.0000 0.0000
# 2 23.2127 121.1636 23.1136 0.0000 0.0000 0.0000
# 3 17.5944 23.1136 38.3507 0.0000 0.0000 0.0000
# 4 0.0000 0.0000 0.0000 23.1602 0.0000 0.0000
# 5 0.0000 0.0000 0.0000 0.0000 16.8121 0.0000
# 6 0.0000 0.0000 0.0000 0.0000 0.0000 28.7704
#
#
#
# Elastic Compliance Matrix: (Units=1/GPa)
#
#
# Indices 1 2 3 4 5 6 
#
# 1 0.021734 -0.002556 -0.008431 0.000000 0.000000 0.000000
# 2 -0.002556 0.009626 -0.004629 0.000000 0.000000 0.000000
# 3 -0.008431 -0.004629 0.032733 0.000000 0.000000 0.000000
# 4 0.000000 0.000000 0.000000 0.043177 0.000000 0.000000
# 5 0.000000 0.000000 0.000000 0.000000 0.059481 0.000000
# 6 0.000000 0.000000 0.000000 0.000000 0.000000 0.034758
#
#
# Mechanical properties :
#
#
# Convention : Reuss Voigt Hill
#
# Bulk Modulus (GPa) = 30.43020 38.10225 34.26622
# Shear Modulus (GPa) = 20.51745 23.82575 22.17160
#
# Velocity S-wave (km/s) = 3.23785 3.48914 3.36584
# Velocity P-wave (km/s) = 5.43388 5.97504 5.71087
#
# Compressibility (1/GPa) = 0.03286209
#
# Stress axis : x y z
#
# Youngs Moduli (GPa) = 46.01003 103.88578 30.55023
#
# Poissons Ratio (x) = 0.26549 0.25757
# Poissons Ratio (y) = 0.11758 0.14142
# Poissons Ratio (z) = 0.38791 0.48089
#
# Static dielectric constant tensor:
#      x y z
#    x 3.623460 0.000000 0.000000 
#    y 0.000000 3.836820 0.000000 
#    z 0.000000 0.000000 3.075430 
# 
# 
# High freq. dielectric constant tensor:
#      x y z
#    x 1.757920 0.000000 0.000000 
#    y 0.000000 1.773330 0.000000 
#    z 0.000000 0.000000 1.706010 
# 
# From -- ./inp_files/6288.got.cif
#   From: 2010.06.25/outbox.cif.g09.slc.cpg/sg58_4_cif.got.tgz:6288.got - 2010.06.26 21:38:00.
