data_PCOD8235162
_publ_section_title
;
Structure prediction by ZEFSAII (Michael W. Deem and Ramdas Pophale) SiO2 
 PCOD8235162
Probable space group: P B C M
;
_chemical_formula_sum "Si O2"
_cell_formula_units_Z 56
_cell_length_a 5.215014
_cell_length_b 26.738266
_cell_length_c 15.455774
_cell_angle_alpha 90.000000
_cell_angle_beta 90.000000
_cell_angle_gamma 90.000000
_cell_volume 2155.159796
_symmetry_space_group_name_H-M "P B C M"
_symmetry_group_IT_number 57
_symmetry_cell_setting 'orthorhombic'
loop_
_space_group_symop_operation_xyz
x,y,z
-x,-y,1/2+z
x,1/2-y,-z
-x,1/2+y,1/2-z
-x,-y,-z
x,y,1/2-z
-x,1/2+y,z
x,1/2-y,1/2+z
loop_
_atom_site_type_symbol
_atom_site_label
_atom_site_fract_x
_atom_site_fract_y
_atom_site_fract_z
Si Si1 0.878281 0.262181 0.590942
Si Si2 0.138378 0.329396 0.347185
Si Si3 0.506485 0.013505 0.850959
Si Si4 0.490876 0.327875 0.989796
Si Si5 0.177645 0.593030 0.930184
Si Si6 0.006847 0.959722 0.591061
Si Si7 0.132252 0.359352 0.654233
O O1 0.030845 0.250000 0.500000
O O2 0.903604 0.211268 0.646079
O O3 0.587875 0.277806 0.561060
O O4 0.986223 0.307022 0.647577
O O5 0.254393 0.327001 0.250000
O O6 0.025622 0.385260 0.361210
O O7 0.354377 0.316633 0.418492
O O8 0.546681 0.010707 0.750000
O O9 0.572183 0.069941 0.882932
O O10 0.714750 0.976622 0.893813
O O11 0.216891 0.999122 0.874980
O O12 0.330609 0.362291 0.924802
O O13 0.745936 0.360211 0.009285
O O14 0.045832 0.549283 0.987964
O O15 0.050744 0.907577 0.642883
O O16 0.259842 0.360911 0.750000
#
# Coordination Sequence:
#
# PCOD8235162 Si02
#       7
#     8   8   8   8   8   8   8
#     4  12  24  49  73 104 152 193 252 312 392 463
#     4  12  28  49  77 115 154 202 262 323 395 476
#     4  12  28  47  75 115 157 207 271 336 399 480
#     4  12  25  49  78 107 154 205 254 326 393 479
#     4  12  26  48  77 108 153 205 261 320 406 473
#     4  12  25  50  75 112 156 210 264 330 403 473
#     4  12  26  45  75 111 148 198 259 322 394 472
#
# _framework density 25.984151000000001
#
# number of rings (size 3 to 8) (size 9 to 14) (size 15 to 20)
#    0.000    0.000    5.714    3.857    4.000    2.286 
#    0.000    0.000    0.000    0.000    0.000    0.000 
#    0.000    0.000    0.000    0.000    0.000    0.000 
#
# Total GULP energy -694115.029339 kJ/mol
# GULP energy per Si atom -12394.911238 kJ/mol
# Density = 2.592501 g / cm^3
# Si number density = 25.984151 Si / 1000 Ang^3
#
#
#
# Elastic Constant Matrix: (Units=GPa)
#
#
# Indices 1 2 3 4 5 6 
#
# 1 67.8192 -4.4052 19.2865 0.0000 0.0000 0.0000
# 2 -4.4052 56.9638 3.5657 0.0000 0.0000 0.0000
# 3 19.2865 3.5657 168.5432 0.0000 0.0000 0.0000
# 4 0.0000 0.0000 0.0000 28.1639 0.0000 0.0000
# 5 0.0000 0.0000 0.0000 0.0000 19.7770 0.0000
# 6 0.0000 0.0000 0.0000 0.0000 0.0000 21.2904
#
#
#
# Elastic Compliance Matrix: (Units=1/GPa)
#
#
# Indices 1 2 3 4 5 6 
#
# 1 0.015336 0.001298 -0.001782 0.000000 0.000000 0.000000
# 2 0.001298 0.017688 -0.000523 0.000000 0.000000 0.000000
# 3 -0.001782 -0.000523 0.006148 0.000000 0.000000 0.000000
# 4 0.000000 0.000000 0.000000 0.035506 0.000000 0.000000
# 5 0.000000 0.000000 0.000000 0.000000 0.050564 0.000000
# 6 0.000000 0.000000 0.000000 0.000000 0.000000 0.046970
#
#
# Mechanical properties :
#
#
# Convention : Reuss Voigt Hill
#
# Bulk Modulus (GPa) = 26.91245 36.69114 31.80180
# Shear Modulus (GPa) = 26.79339 32.17154 29.48246
#
# Velocity S-wave (km/s) = 3.21463 3.52251 3.37208
# Velocity P-wave (km/s) = 4.91510 5.54034 5.23706
#
# Compressibility (1/GPa) = 0.03715753
#
# Stress axis : x y z
#
# Youngs Moduli (GPa) = 65.20500 56.53525 162.64884
#
# Poissons Ratio (x) = -0.07336 0.28990
# Poissons Ratio (y) = -0.08461 0.08502
# Poissons Ratio (z) = 0.11622 0.02955
#
# Static dielectric constant tensor:
#      x y z
#    x 4.338600 0.000000 0.000000 
#    y 0.000000 5.163880 0.000000 
#    z 0.000000 0.000000 4.743050 
# 
# 
# High freq. dielectric constant tensor:
#      x y z
#    x 2.017290 0.000000 0.000000 
#    y 0.000000 2.069200 0.000000 
#    z 0.000000 0.000000 2.040230 
# 
# From -- ./inp_files/15255.got.cif
#   From: 2010.03.12/outbox.cif.g09.slc.cpg/sg57_8_cif.got.tgz:15255.got - 2010.04.16 15:48:40.
