data_PCOD8235423
_publ_section_title
;
Structure prediction by ZEFSAII (Michael W. Deem and Ramdas Pophale) SiO2 
 PCOD8235423
Probable space group: P N N M
;
_chemical_formula_sum "Si O2"
_cell_formula_units_Z 64
_cell_length_a 19.157497
_cell_length_b 23.194739
_cell_length_c 8.957659
_cell_angle_alpha 90.000000
_cell_angle_beta 90.000000
_cell_angle_gamma 90.000000
_cell_volume 3980.363929
_symmetry_space_group_name_H-M "P N N M"
_symmetry_group_IT_number 58
_symmetry_cell_setting 'orthorhombic'
loop_
_space_group_symop_operation_xyz
x,y,z
-x,-y,z
1/2+x,1/2-y,1/2-z
1/2-x,1/2+y,1/2-z
-x,-y,-z
x,y,-z
1/2-x,1/2+y,1/2+z
1/2+x,1/2-y,1/2+z
loop_
_atom_site_type_symbol
_atom_site_label
_atom_site_fract_x
_atom_site_fract_y
_atom_site_fract_z
Si Si1 0.861442 0.057102 0.673238
Si Si2 0.359092 0.563330 0.323729
Si Si3 0.227468 0.156852 0.324171
Si Si4 0.154611 0.260474 0.828418
Si Si5 0.507222 0.381430 0.826381
Si Si6 0.854299 0.271397 0.172523
Si Si7 0.217201 0.832286 0.327276
Si Si8 0.997784 0.760775 0.171266
O O1 0.855152 0.039239 0.500000
O O2 0.801092 0.102628 0.720997
O O3 0.936761 0.084051 0.706778
O O4 0.849599 0.002413 0.776533
O O5 0.359439 0.568513 0.500000
O O6 0.293083 0.598543 0.259919
O O7 0.431250 0.588192 0.262932
O O8 0.221551 0.146211 0.500000
O O9 0.174474 0.207592 0.278070
O O10 0.306085 0.175265 0.272315
O O11 0.201766 0.316759 0.791597
O O12 0.073303 0.275270 0.799668
O O13 0.167011 0.241224 0.000000
O O14 0.498242 0.315805 0.776963
O O15 0.526662 0.382863 0.000000
O O16 0.834107 0.211611 0.247377
O O17 0.936615 0.281826 0.204669
O O18 0.838012 0.262947 0.000000
O O19 0.199420 0.825606 0.500000
O O20 0.000862 0.782418 0.000000
#
# Coordination Sequence:
#
# PCOD8235423 Si02
#       8
#     8   8   8   8   8   8   8   8
#     4  10  21  35  49  67  93 128 164 199 235 279
#     4  12  24  35  48  67  92 126 165 205 241 279
#     4  10  19  32  48  67  93 126 161 197 235 280
#     4   9  17  29  48  71  96 124 154 192 236 282
#     4  11  21  33  48  68  97 130 164 195 228 277
#     4   9  18  30  47  70  97 126 156 193 235 278
#     4   9  17  31  48  68  93 123 159 195 234 280
#     4  10  18  29  47  73 102 129 157 189 232 279
#
# _framework density 16.078931999999998
#
# number of rings (size 3 to 8) (size 9 to 14) (size 15 to 20)
#    0.000    2.000    2.500    2.250    0.000    3.500 
#    0.000    0.000    0.000    0.000    0.000    0.875 
#    0.000    7.000    0.000    0.000    0.000    0.000 
#
# Total GULP energy -793399.581421 kJ/mol
# GULP energy per Si atom -12396.868460 kJ/mol
# Density = 1.604234 g / cm^3
# Si number density = 16.078932 Si / 1000 Ang^3
#
#
#
# Elastic Constant Matrix: (Units=GPa)
#
#
# Indices 1 2 3 4 5 6 
#
# 1 124.7152 55.9833 39.7654 0.0000 0.0000 0.0000
# 2 55.9833 76.4836 37.1691 0.0000 0.0000 0.0000
# 3 39.7654 37.1691 67.8604 0.0000 0.0000 0.0000
# 4 0.0000 0.0000 0.0000 24.3775 0.0000 0.0000
# 5 0.0000 0.0000 0.0000 0.0000 17.1984 0.0000
# 6 0.0000 0.0000 0.0000 0.0000 0.0000 23.3632
#
#
#
# Elastic Compliance Matrix: (Units=1/GPa)
#
#
# Indices 1 2 3 4 5 6 
#
# 1 0.012412 -0.007564 -0.003130 0.000000 0.000000 0.000000
# 2 -0.007564 0.022427 -0.007852 0.000000 0.000000 0.000000
# 3 -0.003130 -0.007852 0.020871 0.000000 0.000000 0.000000
# 4 0.000000 0.000000 0.000000 0.041021 0.000000 0.000000
# 5 0.000000 0.000000 0.000000 0.000000 0.058145 0.000000
# 6 0.000000 0.000000 0.000000 0.000000 0.000000 0.042802
#
#
# Mechanical properties :
#
#
# Convention : Reuss Voigt Hill
#
# Bulk Modulus (GPa) = 53.71036 59.43278 56.57157
# Shear Modulus (GPa) = 20.74907 22.06392 21.40650
#
# Velocity S-wave (km/s) = 3.59618 3.70838 3.65271
# Velocity P-wave (km/s) = 7.12180 7.44174 7.28353
#
# Compressibility (1/GPa) = 0.01861838
#
# Stress axis : x y z
#
# Youngs Moduli (GPa) = 80.57005 44.58983 47.91358
#
# Poissons Ratio (x) = 0.33726 0.14998
# Poissons Ratio (y) = 0.60940 0.37619
# Poissons Ratio (z) = 0.25220 0.35010
#
# Static dielectric constant tensor:
#      x y z
#    x 3.456760 0.000000 0.000000 
#    y 0.000000 2.985930 0.000000 
#    z 0.000000 0.000000 3.110550 
# 
# 
# High freq. dielectric constant tensor:
#      x y z
#    x 1.620670 0.000000 0.000000 
#    y 0.000000 1.586930 0.000000 
#    z 0.000000 0.000000 1.624680 
# 
# From -- ./inp_files/8402.got.cif
#   From: 2010.06.25/outbox.cif.g09.slc.cpg/sg58_5_cif.got.tgz:8402.got - 2010.06.26 21:38:00.
