data_PCOD8235906
_publ_section_title
;
Structure prediction by ZEFSAII (Michael W. Deem and Ramdas Pophale) SiO2 
 PCOD8235906
Probable space group: P N N M
;
_chemical_formula_sum "Si O2"
_cell_formula_units_Z 56
_cell_length_a 24.184673
_cell_length_b 13.532192
_cell_length_c 8.989899
_cell_angle_alpha 90.000000
_cell_angle_beta 90.000000
_cell_angle_gamma 90.000000
_cell_volume 2942.138976
_symmetry_space_group_name_H-M "P N N M"
_symmetry_group_IT_number 58
_symmetry_cell_setting 'orthorhombic'
loop_
_space_group_symop_operation_xyz
x,y,z
-x,-y,z
1/2+x,1/2-y,1/2-z
1/2-x,1/2+y,1/2-z
-x,-y,-z
x,y,-z
1/2-x,1/2+y,1/2+z
1/2+x,1/2-y,1/2+z
loop_
_atom_site_type_symbol
_atom_site_label
_atom_site_fract_x
_atom_site_fract_y
_atom_site_fract_z
Si Si1 0.879494 0.391202 0.329668
Si Si2 0.555687 0.049574 0.324500
Si Si3 0.058165 0.805969 0.325675
Si Si4 0.553956 0.274758 0.676757
Si Si5 0.660668 0.596775 0.676477
Si Si6 0.225021 0.734129 0.324404
Si Si7 0.333748 0.627244 0.675809
O O1 0.881642 0.423266 0.500000
O O2 0.891714 0.488534 0.234016
O O3 0.924824 0.307127 0.294608
O O4 0.819243 0.350971 0.286309
O O5 0.556393 0.044018 0.500000
O O6 0.559879 0.161836 0.269737
O O7 0.500000 0.000000 0.259652
O O8 0.057818 0.830053 0.500000
O O9 0.101585 0.877918 0.246975
O O10 0.998305 0.825593 0.255380
O O11 0.546168 0.282577 0.500000
O O12 0.607944 0.332057 0.735517
O O13 0.656600 0.608891 0.500000
O O14 0.709543 0.665681 0.738826
O O15 0.675292 0.485444 0.725515
O O16 0.224395 0.757027 0.500000
O O17 0.283927 0.695774 0.264039
O O18 0.333261 0.634796 0.500000
#
# Coordination Sequence:
#
# PCOD8235906 Si02
#       7
#     8   8   8   8   8   8   8
#     4   9  18  31  51  75 103 142 179 212 263 325
#     4  10  19  30  48  78 110 136 170 222 270 312
#     4  10  20  35  54  79 109 144 180 221 274 326
#     4  10  20  35  54  77 108 146 182 223 272 323
#     4  10  20  36  59  83 105 138 183 226 263 317
#     4   9  19  38  58  79 108 143 182 223 269 323
#     4   9  20  38  58  79 109 146 181 218 269 328
#
# _framework density 19.033771000000002
#
# number of rings (size 3 to 8) (size 9 to 14) (size 15 to 20)
#    0.000    2.429    1.429    1.714    0.000    4.857 
#    0.000    6.429    0.000    0.000    0.000    0.000 
#    0.000    0.000    0.000    0.000    0.000    0.000 
#
# Total GULP energy -694462.630399 kJ/mol
# GULP energy per Si atom -12401.118400 kJ/mol
# Density = 1.899045 g / cm^3
# Si number density = 19.033771 Si / 1000 Ang^3
#
#
#
# Elastic Constant Matrix: (Units=GPa)
#
#
# Indices 1 2 3 4 5 6 
#
# 1 155.7995 73.3396 40.4813 0.0000 0.0000 0.0000
# 2 73.3396 123.9243 41.6313 0.0000 0.0000 0.0000
# 3 40.4813 41.6313 49.8373 0.0000 0.0000 0.0000
# 4 0.0000 0.0000 0.0000 23.9928 0.0000 0.0000
# 5 0.0000 0.0000 0.0000 0.0000 27.0061 0.0000
# 6 0.0000 0.0000 0.0000 0.0000 0.0000 26.2337
#
#
#
# Elastic Compliance Matrix: (Units=1/GPa)
#
#
# Indices 1 2 3 4 5 6 
#
# 1 0.009488 -0.004207 -0.004193 0.000000 0.000000 0.000000
# 2 -0.004207 0.013082 -0.007511 0.000000 0.000000 0.000000
# 3 -0.004193 -0.007511 0.029746 0.000000 0.000000 0.000000
# 4 0.000000 0.000000 0.000000 0.041679 0.000000 0.000000
# 5 0.000000 0.000000 0.000000 0.000000 0.037029 0.000000
# 6 0.000000 0.000000 0.000000 0.000000 0.000000 0.038119
#
#
# Mechanical properties :
#
#
# Convention : Reuss Voigt Hill
#
# Bulk Modulus (GPa) = 48.79409 71.16284 59.97846
# Shear Modulus (GPa) = 24.06203 27.05377 25.55790
#
# Velocity S-wave (km/s) = 3.55938 3.77418 3.66835
# Velocity P-wave (km/s) = 6.52560 7.51408 7.03722
#
# Compressibility (1/GPa) = 0.02049429
#
# Stress axis : x y z
#
# Youngs Moduli (GPa) = 105.39498 76.43905 33.61833
#
# Poissons Ratio (x) = 0.32155 0.14096
# Poissons Ratio (y) = 0.44335 0.25252
# Poissons Ratio (z) = 0.44192 0.57416
#
# Static dielectric constant tensor:
#      x y z
#    x 3.613920 0.000000 0.000000 
#    y 0.000000 3.483810 0.000000 
#    z 0.000000 0.000000 3.245730 
# 
# 
# High freq. dielectric constant tensor:
#      x y z
#    x 1.742990 0.000000 0.000000 
#    y 0.000000 1.737060 0.000000 
#    z 0.000000 0.000000 1.720840 
# 
# From -- ./inp_files/9011.got.cif
#   From: 2010.06.25/outbox.cif.g09.slc.cpg/sg58_5_cif.got.tgz:9011.got - 2010.06.26 21:38:00.
