data_PCOD8235032
_publ_section_title
;
Structure prediction by ZEFSAII (Michael W. Deem and Ramdas Pophale) SiO2 
 PCOD8235032
Probable space group: P B C M
;
_chemical_formula_sum "Si O2"
_cell_formula_units_Z 48
_cell_length_a 30.555921
_cell_length_b 9.162872
_cell_length_c 8.564636
_cell_angle_alpha 90.000000
_cell_angle_beta 90.000000
_cell_angle_gamma 90.000000
_cell_volume 2397.926727
_symmetry_space_group_name_H-M "P B C M"
_symmetry_group_IT_number 57
_symmetry_cell_setting 'orthorhombic'
loop_
_space_group_symop_operation_xyz
x,y,z
-x,-y,1/2+z
x,1/2-y,-z
-x,1/2+y,1/2-z
-x,-y,-z
x,y,1/2-z
-x,1/2+y,z
x,1/2-y,1/2+z
loop_
_atom_site_type_symbol
_atom_site_label
_atom_site_fract_x
_atom_site_fract_y
_atom_site_fract_z
Si Si1 0.782119 0.096192 0.433157
Si Si2 0.120447 0.904379 0.934604
Si Si3 0.039906 0.409455 0.434621
Si Si4 0.700603 0.911095 0.065271
Si Si5 0.378472 0.912013 0.064909
Si Si6 0.459292 0.411873 0.064859
O O1 0.765278 0.250000 0.500000
O O2 0.783507 0.116353 0.250000
O O3 0.830705 0.056942 0.497461
O O4 0.749268 0.966002 0.479496
O O5 0.120326 0.895039 0.750000
O O6 0.086072 0.024509 0.994011
O O7 0.104629 0.750000 0.000000
O O8 0.035995 0.250000 0.500000
O O9 0.037296 0.408539 0.250000
O O10 0.000000 0.500000 0.500000
O O11 0.692227 0.912062 0.250000
O O12 0.693484 0.750000 0.000000
O O13 0.668150 0.023157 0.982321
O O14 0.383852 0.909672 0.250000
O O15 0.383620 0.750000 0.000000
O O16 0.414867 0.014026 0.989739
O O17 0.461283 0.408101 0.250000
O O18 0.461288 0.250000 0.000000
O O19 0.500000 0.500000 0.000000
#
# Coordination Sequence:
#
# PCOD8235032 Si02
#       6
#     8   8   8   8   8   8
#     4   9  19  36  58  83 113 148 190 235 286 343
#     4   9  19  36  57  82 111 146 186 233 284 341
#     4  11  23  38  57  81 112 147 188 234 286 342
#     4  11  23  39  59  86 119 156 196 243 294 348
#     4  12  25  43  65  91 122 159 201 247 297 352
#     4  12  25  44  67  95 128 164 204 248 298 352
#
# _framework density 20.017292000000001
#
# number of rings (size 3 to 8) (size 9 to 14) (size 15 to 20)
#    0.000    1.333    0.000    6.000    0.000    6.000 
#    0.000    0.000    0.000    0.000    0.000    0.000 
#    0.000    0.000    0.000    0.000    0.000    0.000 
#
# Total GULP energy -595343.840254 kJ/mol
# GULP energy per Si atom -12402.996672 kJ/mol
# Density = 1.997173 g / cm^3
# Si number density = 20.017292 Si / 1000 Ang^3
#
#
#
# Elastic Constant Matrix: (Units=GPa)
#
#
# Indices 1 2 3 4 5 6 
#
# 1 127.9414 74.9750 49.8091 0.0000 0.0000 0.0000
# 2 74.9750 163.5519 54.8646 0.0000 0.0000 0.0000
# 3 49.8091 54.8646 110.8414 0.0000 0.0000 0.0000
# 4 0.0000 0.0000 0.0000 39.1139 0.0000 0.0000
# 5 0.0000 0.0000 0.0000 0.0000 31.3088 0.0000
# 6 0.0000 0.0000 0.0000 0.0000 0.0000 44.1853
#
#
#
# Elastic Compliance Matrix: (Units=1/GPa)
#
#
# Indices 1 2 3 4 5 6 
#
# 1 0.011495 -0.004241 -0.003066 0.000000 0.000000 0.000000
# 2 -0.004241 0.008896 -0.002498 0.000000 0.000000 0.000000
# 3 -0.003066 -0.002498 0.011636 0.000000 0.000000 0.000000
# 4 0.000000 0.000000 0.000000 0.025566 0.000000 0.000000
# 5 0.000000 0.000000 0.000000 0.000000 0.031940 0.000000
# 6 0.000000 0.000000 0.000000 0.000000 0.000000 0.022632
#
#
# Mechanical properties :
#
#
# Convention : Reuss Voigt Hill
#
# Bulk Modulus (GPa) = 80.53195 84.62579 82.57887
# Shear Modulus (GPa) = 36.78770 37.76734 37.27752
#
# Velocity S-wave (km/s) = 4.29160 4.34837 4.32008
# Velocity P-wave (km/s) = 8.05454 8.22066 8.13802
#
# Compressibility (1/GPa) = 0.01241743
#
# Stress axis : x y z
#
# Youngs Moduli (GPa) = 86.99374 112.40692 85.93873
#
# Poissons Ratio (x) = 0.47671 0.26352
# Poissons Ratio (y) = 0.36893 0.21465
# Poissons Ratio (z) = 0.26676 0.28076
#
# Static dielectric constant tensor:
#      x y z
#    x 4.281310 0.000000 0.000000 
#    y 0.000000 3.731700 0.000000 
#    z 0.000000 0.000000 3.763000 
# 
# 
# High freq. dielectric constant tensor:
#      x y z
#    x 1.801340 0.000000 0.000000 
#    y 0.000000 1.789060 0.000000 
#    z 0.000000 0.000000 1.789670 
# 
# From -- ./inp_files/9989.got.cif
#   From: 2010.03.12/outbox.cif.g09.slc.cpg/sg57_5_cif.got.tgz:9989.got - 2010.04.16 15:48:40.
