data_PCOD8235763
_publ_section_title
;
Structure prediction by ZEFSAII (Michael W. Deem and Ramdas Pophale) SiO2 
 PCOD8235763
Probable space group: P N N M
;
_chemical_formula_sum "Si O2"
_cell_formula_units_Z 48
_cell_length_a 30.464910
_cell_length_b 10.489057
_cell_length_c 7.658072
_cell_angle_alpha 90.000000
_cell_angle_beta 90.000000
_cell_angle_gamma 90.000000
_cell_volume 2447.122951
_symmetry_space_group_name_H-M "P N N M"
_symmetry_group_IT_number 58
_symmetry_cell_setting 'orthorhombic'
loop_
_space_group_symop_operation_xyz
x,y,z
-x,-y,z
1/2+x,1/2-y,1/2-z
1/2-x,1/2+y,1/2-z
-x,-y,-z
x,y,-z
1/2-x,1/2+y,1/2+z
1/2+x,1/2-y,1/2+z
loop_
_atom_site_type_symbol
_atom_site_label
_atom_site_fract_x
_atom_site_fract_y
_atom_site_fract_z
Si Si1 0.569651 0.939907 0.500000
Si Si2 0.284675 0.483112 0.297416
Si Si3 0.882563 0.050102 0.791814
Si Si4 0.964949 0.894413 0.301274
Si Si5 0.776576 0.296173 0.293917
Si Si6 0.375845 0.170774 0.799659
Si Si7 0.480742 0.799815 0.500000
O O1 0.598253 0.925803 0.675420
O O2 0.531705 0.834541 0.500000
O O3 0.550567 0.079747 0.500000
O O4 0.287536 0.511379 0.500000
O O5 0.333969 0.485134 0.219837
O O6 0.255760 0.596658 0.211183
O O7 0.262086 0.345301 0.266192
O O8 0.896214 0.188042 0.718044
O O9 0.915826 0.947500 0.715230
O O10 0.884391 0.052820 0.000000
O O11 0.973586 0.850493 0.500000
O O12 0.970180 0.775053 0.176005
O O13 0.000000 0.000000 0.241675
O O14 0.775252 0.301688 0.500000
O O15 0.825824 0.325759 0.230137
O O16 0.379705 0.123660 0.000000
#
# Coordination Sequence:
#
# PCOD8235763 Si02
#       7
#     4   8   8   8   8   8   4
#     4  11  24  42  62  86 114 164 200 238 299 348
#     4   9  19  35  55  82 114 153 193 239 295 348
#     4  10  18  34  61  87 116 150 192 245 296 351
#     4  11  23  39  62  90 118 152 194 245 304 357
#     4   9  19  36  55  84 117 150 197 245 291 354
#     4  10  20  37  62  87 115 153 202 241 286 356
#     4  11  25  42  60  86 125 151 198 250 294 359
#
# _framework density 19.61487
#
# number of rings (size 3 to 8) (size 9 to 14) (size 15 to 20)
#    0.000    2.000    1.667    1.750    1.167    4.000 
#    3.000    1.667    0.000    0.000    0.000    0.000 
#    0.000    0.000    0.000    0.000    0.000    0.000 
#
# Total GULP energy -595250.252659 kJ/mol
# GULP energy per Si atom -12401.046930 kJ/mol
# Density = 1.957023 g / cm^3
# Si number density = 19.614870 Si / 1000 Ang^3
#
#
#
# Elastic Constant Matrix: (Units=GPa)
#
#
# Indices 1 2 3 4 5 6 
#
# 1 99.0122 67.6617 26.3885 0.0000 0.0000 0.0000
# 2 67.6617 104.4448 25.3182 0.0000 0.0000 0.0000
# 3 26.3885 25.3182 77.5649 0.0000 0.0000 0.0000
# 4 0.0000 0.0000 0.0000 19.8336 0.0000 0.0000
# 5 0.0000 0.0000 0.0000 0.0000 20.8515 0.0000
# 6 0.0000 0.0000 0.0000 0.0000 0.0000 29.9423
#
#
#
# Elastic Compliance Matrix: (Units=1/GPa)
#
#
# Indices 1 2 3 4 5 6 
#
# 1 0.018593 -0.011415 -0.002600 0.000000 0.000000 0.000000
# 2 -0.011415 0.017405 -0.001798 0.000000 0.000000 0.000000
# 3 -0.002600 -0.001798 0.014364 0.000000 0.000000 0.000000
# 4 0.000000 0.000000 0.000000 0.050419 0.000000 0.000000
# 5 0.000000 0.000000 0.000000 0.000000 0.047958 0.000000
# 6 0.000000 0.000000 0.000000 0.000000 0.000000 0.033398
#
#
# Mechanical properties :
#
#
# Convention : Reuss Voigt Hill
#
# Bulk Modulus (GPa) = 53.36948 57.75097 55.56023
# Shear Modulus (GPa) = 22.72648 24.90238 23.81443
#
# Velocity S-wave (km/s) = 3.40757 3.56696 3.48818
# Velocity P-wave (km/s) = 6.53833 6.81694 6.67909
#
# Compressibility (1/GPa) = 0.01873730
#
# Stress axis : x y z
#
# Youngs Moduli (GPa) = 53.78300 57.45445 69.62005
#
# Poissons Ratio (x) = 0.65584 0.18099
# Poissons Ratio (y) = 0.61393 0.12516
# Poissons Ratio (z) = 0.13982 0.10329
#
# Static dielectric constant tensor:
#      x y z
#    x 3.915700 0.000000 0.000000 
#    y 0.000000 3.547930 0.000000 
#    z 0.000000 0.000000 3.518540 
# 
# 
# High freq. dielectric constant tensor:
#      x y z
#    x 1.768610 0.000000 0.000000 
#    y 0.000000 1.747910 0.000000 
#    z 0.000000 0.000000 1.768800 
# 
# From -- ./inp_files/10775.got.cif
#   From: 2010.06.25/outbox.cif.g09.slc.cpg/sg58_6_cif.got.tgz:10775.got - 2010.06.26 21:38:00.
