data_PCOD8235150
_publ_section_title
;
Structure prediction by ZEFSAII (Michael W. Deem and Ramdas Pophale) SiO2 
 PCOD8235150
Probable space group: P B C M
;
_chemical_formula_sum "Si O2"
_cell_formula_units_Z 48
_cell_length_a 28.995242
_cell_length_b 5.013532
_cell_length_c 14.695548
_cell_angle_alpha 90.000000
_cell_angle_beta 90.000000
_cell_angle_gamma 90.000000
_cell_volume 2136.270851
_symmetry_space_group_name_H-M "P B C M"
_symmetry_group_IT_number 57
_symmetry_cell_setting 'orthorhombic'
loop_
_space_group_symop_operation_xyz
x,y,z
-x,-y,1/2+z
x,1/2-y,-z
-x,1/2+y,1/2-z
-x,-y,-z
x,y,1/2-z
-x,1/2+y,z
x,1/2-y,1/2+z
loop_
_atom_site_type_symbol
_atom_site_label
_atom_site_fract_x
_atom_site_fract_y
_atom_site_fract_z
Si Si1 0.735975 0.139302 0.597867
Si Si2 0.317359 0.380883 0.149882
Si Si3 0.467441 0.981575 0.750000
Si Si4 0.969448 0.646864 0.750000
Si Si5 0.159750 0.810342 0.146900
Si Si6 0.587488 0.989626 0.061452
Si Si7 0.103485 0.321634 0.400633
O O1 0.723172 0.250000 0.500000
O O2 0.712766 0.351756 0.665540
O O3 0.790360 0.112923 0.610280
O O4 0.715076 0.847601 0.609616
O O5 0.335700 0.295813 0.250000
O O6 0.359264 0.429494 0.081388
O O7 0.499285 0.728263 0.750000
O O8 0.437267 0.979158 0.658378
O O9 0.939468 0.589313 0.839534
O O10 0.012849 0.449551 0.750000
O O11 0.162803 0.706630 0.250000
O O12 0.138813 0.568633 0.087820
O O13 0.128291 0.071098 0.144692
O O14 0.582051 0.250000 0.000000
O O15 0.566543 0.750000 0.000000
O O16 0.084471 0.250000 0.500000
#
# Coordination Sequence:
#
# PCOD8235150 Si02
#       7
#     8   8   4   4   8   8   8
#     4  12  25  40  64 100 139 183 238 281 329 398
#     4  12  24  44  66  99 140 188 234 284 339 404
#     4  12  28  50  76 109 146 181 238 306 364 438
#     4  12  26  46  72  99 134 169 218 286 348 414
#     4  12  23  44  67  98 138 185 227 277 336 399
#     4  12  26  47  76 106 145 192 237 291 362 427
#     4  12  25  45  71 100 135 178 224 276 342 410
#
# _framework density 22.469059999999999
#
# number of rings (size 3 to 8) (size 9 to 14) (size 15 to 20)
#    0.000    0.000    2.500    9.000    0.000    2.667 
#    0.000    0.000    0.000    0.000    0.000    0.000 
#    0.000    0.000    0.000    0.000    0.000    0.000 
#
# Total GULP energy -595478.883395 kJ/mol
# GULP energy per Si atom -12405.810071 kJ/mol
# Density = 2.241792 g / cm^3
# Si number density = 22.469060 Si / 1000 Ang^3
#
#
#
# Elastic Constant Matrix: (Units=GPa)
#
#
# Indices 1 2 3 4 5 6 
#
# 1 116.0063 52.3101 54.9275 0.0000 0.0000 0.0000
# 2 52.3101 143.3478 35.1189 0.0000 0.0000 0.0000
# 3 54.9275 35.1189 153.4658 0.0000 0.0000 0.0000
# 4 0.0000 0.0000 0.0000 29.4744 0.0000 0.0000
# 5 0.0000 0.0000 0.0000 0.0000 9.0905 0.0000
# 6 0.0000 0.0000 0.0000 0.0000 0.0000 38.2261
#
#
#
# Elastic Compliance Matrix: (Units=1/GPa)
#
#
# Indices 1 2 3 4 5 6 
#
# 1 0.011810 -0.003469 -0.003433 0.000000 0.000000 0.000000
# 2 -0.003469 0.008409 -0.000683 0.000000 0.000000 0.000000
# 3 -0.003433 -0.000683 0.007901 0.000000 0.000000 0.000000
# 4 0.000000 0.000000 0.000000 0.033928 0.000000 0.000000
# 5 0.000000 0.000000 0.000000 0.000000 0.110005 0.000000
# 6 0.000000 0.000000 0.000000 0.000000 0.000000 0.026160
#
#
# Mechanical properties :
#
#
# Convention : Reuss Voigt Hill
#
# Bulk Modulus (GPa) = 77.21470 77.50365 77.35917
# Shear Modulus (GPa) = 22.96749 33.38909 28.17829
#
# Velocity S-wave (km/s) = 3.20063 3.85905 3.54516
# Velocity P-wave (km/s) = 6.93529 7.37731 7.15971
#
# Compressibility (1/GPa) = 0.01295090
#
# Stress axis : x y z
#
# Youngs Moduli (GPa) = 84.67522 118.91924 126.56368
#
# Poissons Ratio (x) = 0.41247 0.43451
# Poissons Ratio (y) = 0.29370 0.08643
# Poissons Ratio (z) = 0.29070 0.08121
#
# Static dielectric constant tensor:
#      x y z
#    x 3.950650 0.000000 0.000000 
#    y 0.000000 4.139360 0.000000 
#    z 0.000000 0.000000 4.339650 
# 
# 
# High freq. dielectric constant tensor:
#      x y z
#    x 1.881390 0.000000 0.000000 
#    y 0.000000 1.900740 0.000000 
#    z 0.000000 0.000000 1.909840 
# 
# From -- ./inp_files/19609.got.cif
#   From: 2010.03.12/outbox.cif.g09.slc.cpg/sg57_10_cif.got.tgz:19609.got - 2010.04.16 15:48:40.
