data_PCOD8235233
_publ_section_title
;
Structure prediction by ZEFSAII (Michael W. Deem and Ramdas Pophale) SiO2 
 PCOD8235233
Probable space group: P N N M
;
_chemical_formula_sum "Si O2"
_cell_formula_units_Z 48
_cell_length_a 8.919090
_cell_length_b 30.654576
_cell_length_c 8.737276
_cell_angle_alpha 90.000000
_cell_angle_beta 90.000000
_cell_angle_gamma 90.000000
_cell_volume 2388.866689
_symmetry_space_group_name_H-M "P N N M"
_symmetry_group_IT_number 58
_symmetry_cell_setting 'orthorhombic'
loop_
_space_group_symop_operation_xyz
x,y,z
-x,-y,z
1/2+x,1/2-y,1/2-z
1/2-x,1/2+y,1/2-z
-x,-y,-z
x,y,-z
1/2-x,1/2+y,1/2+z
1/2+x,1/2-y,1/2+z
loop_
_atom_site_type_symbol
_atom_site_label
_atom_site_fract_x
_atom_site_fract_y
_atom_site_fract_z
Si Si1 0.142257 0.551411 0.179216
Si Si2 0.744476 0.625750 0.324554
Si Si3 0.323912 0.967022 0.822079
Si Si4 0.747553 0.281815 0.178723
Si Si5 0.590273 0.861809 0.178371
Si Si6 0.905787 0.202965 0.322074
O O1 0.242847 0.513242 0.261240
O O2 0.184640 0.599867 0.237308
O O3 0.970731 0.542834 0.222929
O O4 0.169427 0.548644 0.000000
O O5 0.714439 0.638863 0.500000
O O6 0.711502 0.573958 0.298457
O O7 0.633407 0.652855 0.216406
O O8 0.915525 0.636252 0.278625
O O9 0.369077 0.970385 0.000000
O O10 0.849640 0.315087 0.272149
O O11 0.795556 0.233135 0.223236
O O12 0.575710 0.287920 0.226447
O O13 0.771730 0.289950 0.000000
O O14 0.614572 0.868837 0.000000
O O15 0.879985 0.212434 0.500000
#
# Coordination Sequence:
#
# PCOD8235233 Si02
#       6
#     8   8   8   8   8   8
#     4  10  17  26  45  75 108 142 179 219 265 313
#     4   9  19  34  54  80 109 141 179 221 263 312
#     4   9  16  28  46  72 107 143 180 223 265 308
#     4  11  24  40  57  80 108 137 175 219 263 317
#     4  10  20  35  55  80 109 142 180 221 267 316
#     4  11  24  39  57  81 108 139 175 217 266 318
#
# _framework density 20.093209000000002
#
# number of rings (size 3 to 8) (size 9 to 14) (size 15 to 20)
#    0.000    2.000    0.000    6.500    0.000   10.667 
#    0.000    0.000    0.000    1.000    0.000    7.000 
#    0.000    0.000    0.000    0.000    0.000    0.000 
#
# Total GULP energy -595128.663887 kJ/mol
# GULP energy per Si atom -12398.513831 kJ/mol
# Density = 2.004748 g / cm^3
# Si number density = 20.093209 Si / 1000 Ang^3
#
#
#
# Elastic Constant Matrix: (Units=GPa)
#
#
# Indices 1 2 3 4 5 6 
#
# 1 29.4928 -12.8106 18.1142 0.0000 0.0000 0.0000
# 2 -12.8106 60.3848 9.6506 0.0000 0.0000 0.0000
# 3 18.1142 9.6506 71.0477 0.0000 0.0000 0.0000
# 4 0.0000 0.0000 0.0000 35.6911 0.0000 0.0000
# 5 0.0000 0.0000 0.0000 0.0000 21.0423 0.0000
# 6 0.0000 0.0000 0.0000 0.0000 0.0000 20.8737
#
#
#
# Elastic Compliance Matrix: (Units=1/GPa)
#
#
# Indices 1 2 3 4 5 6 
#
# 1 0.047786 0.012353 -0.013861 0.000000 0.000000 0.000000
# 2 0.012353 0.020121 -0.005883 0.000000 0.000000 0.000000
# 3 -0.013861 -0.005883 0.018408 0.000000 0.000000 0.000000
# 4 0.000000 0.000000 0.000000 0.028018 0.000000 0.000000
# 5 0.000000 0.000000 0.000000 0.000000 0.047523 0.000000
# 6 0.000000 0.000000 0.000000 0.000000 0.000000 0.047907
#
#
# Mechanical properties :
#
#
# Convention : Reuss Voigt Hill
#
# Bulk Modulus (GPa) = 13.97951 21.20377 17.59164
# Shear Modulus (GPa) = 20.12961 25.25283 22.69122
#
# Velocity S-wave (km/s) = 3.16857 3.54896 3.36415
# Velocity P-wave (km/s) = 4.51209 5.23155 4.88508
#
# Compressibility (1/GPa) = 0.07153326
#
# Stress axis : x y z
#
# Youngs Moduli (GPa) = 20.92675 49.69862 54.32372
#
# Poissons Ratio (x) = -0.61393 0.75300
# Poissons Ratio (y) = -0.25851 0.31957
# Poissons Ratio (z) = 0.29007 0.29236
#
# Static dielectric constant tensor:
#      x y z
#    x 3.174510 0.000000 0.000000 
#    y 0.000000 4.290750 0.000000 
#    z 0.000000 0.000000 3.571740 
# 
# 
# High freq. dielectric constant tensor:
#      x y z
#    x 1.728270 0.000000 0.000000 
#    y 0.000000 1.811610 0.000000 
#    z 0.000000 0.000000 1.790840 
# 
# From -- ./inp_files/2954.got.cif
#   From: 2010.06.25/outbox.cif.g09.slc.cpg/sg58_2_cif.got.tgz:2954.got - 2010.06.26 21:38:00.
