data_PCOD8235349
_publ_section_title
;
Structure prediction by ZEFSAII (Michael W. Deem and Ramdas Pophale) SiO2 
 PCOD8235349
Probable space group: P N N M
;
_chemical_formula_sum "Si O2"
_cell_formula_units_Z 56
_cell_length_a 17.738631
_cell_length_b 22.494465
_cell_length_c 8.695741
_cell_angle_alpha 90.000000
_cell_angle_beta 90.000000
_cell_angle_gamma 90.000000
_cell_volume 3469.783393
_symmetry_space_group_name_H-M "P N N M"
_symmetry_group_IT_number 58
_symmetry_cell_setting 'orthorhombic'
loop_
_space_group_symop_operation_xyz
x,y,z
-x,-y,z
1/2+x,1/2-y,1/2-z
1/2-x,1/2+y,1/2-z
-x,-y,-z
x,y,-z
1/2-x,1/2+y,1/2+z
1/2+x,1/2-y,1/2+z
loop_
_atom_site_type_symbol
_atom_site_label
_atom_site_fract_x
_atom_site_fract_y
_atom_site_fract_z
Si Si1 0.622627 0.153519 0.176915
Si Si2 0.885034 0.340482 0.179001
Si Si3 0.010817 0.433316 0.180390
Si Si4 0.574362 0.714801 0.180468
Si Si5 0.718966 0.692453 0.322931
Si Si6 0.240230 0.185706 0.822124
Si Si7 0.919883 0.778181 0.819151
O O1 0.583866 0.093956 0.237414
O O2 0.713542 0.144726 0.196634
O O3 0.592814 0.210172 0.269765
O O4 0.601562 0.164447 0.000000
O O5 0.914330 0.283537 0.272331
O O6 0.797822 0.355703 0.224628
O O7 0.935937 0.396657 0.223815
O O8 0.890973 0.325670 0.000000
O O9 0.000000 0.500000 0.242202
O O10 0.026690 0.432778 0.000000
O O11 0.636281 0.671643 0.264506
O O12 0.491663 0.693797 0.233569
O O13 0.582257 0.707092 0.000000
O O14 0.714090 0.713743 0.500000
O O15 0.737902 0.746674 0.211028
O O16 0.151914 0.179774 0.776242
O O17 0.252390 0.171073 0.000000
O O18 0.934484 0.777752 0.000000
#
# Coordination Sequence:
#
# PCOD8235349 Si02
#       7
#     8   8   8   8   8   8   8
#     4  10  19  30  45  63  83 112 147 186 223 256
#     4  10  18  29  44  59  82 114 145 181 221 256
#     4  10  21  34  47  63  85 118 155 187 222 263
#     4  11  19  26  41  64  88 114 146 178 211 256
#     4   9  17  28  41  59  84 112 143 174 214 263
#     4   9  17  27  41  60  82 110 144 176 211 258
#     4  10  18  28  42  61  87 118 145 174 214 260
#
# _framework density 16.139336
#
# number of rings (size 3 to 8) (size 9 to 14) (size 15 to 20)
#    0.000    2.143    1.429    5.143    0.000    4.286 
#    0.000    0.000    0.000    0.000    0.000    0.000 
#    0.000    1.143    0.000   12.857    0.000    5.714 
#
# Total GULP energy -693996.864882 kJ/mol
# GULP energy per Si atom -12392.801159 kJ/mol
# Density = 1.610260 g / cm^3
# Si number density = 16.139336 Si / 1000 Ang^3
#
#
#
# Elastic Constant Matrix: (Units=GPa)
#
#
# Indices 1 2 3 4 5 6 
#
# 1 150.9223 38.8345 44.7889 0.0000 0.0000 0.0000
# 2 38.8345 46.5228 18.9756 0.0000 0.0000 0.0000
# 3 44.7889 18.9756 62.9425 0.0000 0.0000 0.0000
# 4 0.0000 0.0000 0.0000 11.4006 0.0000 0.0000
# 5 0.0000 0.0000 0.0000 0.0000 27.4647 0.0000
# 6 0.0000 0.0000 0.0000 0.0000 0.0000 15.9583
#
#
#
# Elastic Compliance Matrix: (Units=1/GPa)
#
#
# Indices 1 2 3 4 5 6 
#
# 1 0.009678 -0.006009 -0.005075 0.000000 0.000000 0.000000
# 2 -0.006009 0.028239 -0.004238 0.000000 0.000000 0.000000
# 3 -0.005075 -0.004238 0.020777 0.000000 0.000000 0.000000
# 4 0.000000 0.000000 0.000000 0.087715 0.000000 0.000000
# 5 0.000000 0.000000 0.000000 0.000000 0.036410 0.000000
# 6 0.000000 0.000000 0.000000 0.000000 0.000000 0.062663
#
#
# Mechanical properties :
#
#
# Convention : Reuss Voigt Hill
#
# Bulk Modulus (GPa) = 35.65017 51.73172 43.69095
# Shear Modulus (GPa) = 17.51461 21.48396 19.49929
#
# Velocity S-wave (km/s) = 3.29783 3.65246 3.47966
# Velocity P-wave (km/s) = 6.05292 7.06470 6.57829
#
# Compressibility (1/GPa) = 0.02805036
#
# Stress axis : x y z
#
# Youngs Moduli (GPa) = 103.32415 35.41205 48.13088
#
# Poissons Ratio (x) = 0.21278 0.24429
# Poissons Ratio (y) = 0.62084 0.20396
# Poissons Ratio (z) = 0.52442 0.15006
#
# Static dielectric constant tensor:
#      x y z
#    x 3.898830 0.000000 0.000000 
#    y 0.000000 2.536280 0.000000 
#    z 0.000000 0.000000 3.117240 
# 
# 
# High freq. dielectric constant tensor:
#      x y z
#    x 1.646750 0.000000 0.000000 
#    y 0.000000 1.533890 0.000000 
#    z 0.000000 0.000000 1.636820 
# 
# From -- ./inp_files/8438.got.cif
#   From: 2010.06.25/outbox.cif.g09.slc.cpg/sg58_5_cif.got.tgz:8438.got - 2010.06.26 21:38:00.
