data_PCOD8235730
_publ_section_title
;
Structure prediction by ZEFSAII (Michael W. Deem and Ramdas Pophale) SiO2 
 PCOD8235730
Probable space group: P N N M
;
_chemical_formula_sum "Si O2"
_cell_formula_units_Z 64
_cell_length_a 11.483591
_cell_length_b 17.396686
_cell_length_c 15.919150
_cell_angle_alpha 90.000000
_cell_angle_beta 90.000000
_cell_angle_gamma 90.000000
_cell_volume 3180.270904
_symmetry_space_group_name_H-M "P N N M"
_symmetry_group_IT_number 58
_symmetry_cell_setting 'orthorhombic'
loop_
_space_group_symop_operation_xyz
x,y,z
-x,-y,z
1/2+x,1/2-y,1/2-z
1/2-x,1/2+y,1/2-z
-x,-y,-z
x,y,-z
1/2-x,1/2+y,1/2+z
1/2+x,1/2-y,1/2+z
loop_
_atom_site_type_symbol
_atom_site_label
_atom_site_fract_x
_atom_site_fract_y
_atom_site_fract_z
Si Si1 0.274004 0.671330 0.908997
Si Si2 0.778537 0.891774 0.760715
Si Si3 0.027062 0.724769 0.908352
Si Si4 0.611740 0.767580 0.841823
Si Si5 0.757738 0.563343 0.735520
Si Si6 0.030369 0.852900 0.789174
Si Si7 0.383164 0.835510 0.095735
Si Si8 0.794727 0.652026 0.097399
O O1 0.317133 0.613961 0.837207
O O2 0.311400 0.758136 0.890194
O O3 0.133996 0.665701 0.909535
O O4 0.323859 0.644835 0.000000
O O5 0.689290 0.823562 0.783296
O O6 0.901350 0.884755 0.808163
O O7 0.717752 0.973223 0.777701
O O8 0.068666 0.804269 0.869222
O O9 0.915282 0.685972 0.865201
O O10 0.982896 0.746376 0.000000
O O11 0.536323 0.707042 0.788221
O O12 0.521463 0.818880 0.894718
O O13 0.696571 0.718386 0.901563
O O14 0.621508 0.577957 0.717536
O O15 0.840976 0.605922 0.668348
O O16 0.773412 0.585283 0.833973
O O17 0.363515 0.867161 0.000000
O O18 0.803074 0.621079 0.000000
#
# Coordination Sequence:
#
# PCOD8235730 Si02
#       8
#     8   8   8   8   8   8   8   8
#     4  10  20  36  62  90 113 151 208 256 291 343
#     4  12  23  39  60  89 123 160 195 243 304 363
#     4  10  18  33  62  89 108 143 203 261 295 334
#     4  11  21  36  64  88 115 156 206 247 292 343
#     4  11  25  39  59  88 126 166 192 234 309 369
#     4  11  20  39  61  86 118 155 204 249 288 346
#     4  11  22  41  64  88 118 156 205 249 294 353
#     4  10  21  39  62  90 122 156 200 253 299 349
#
# _framework density 20.124071000000001
#
# number of rings (size 3 to 8) (size 9 to 14) (size 15 to 20)
#    0.000    1.250    5.000    2.250    0.000    1.000 
#    0.000    2.500    0.000    6.000    0.000    0.000 
#    0.000    0.000    0.000    0.000    0.000    0.000 
#
# Total GULP energy -793119.145821 kJ/mol
# GULP energy per Si atom -12392.486653 kJ/mol
# Density = 2.007827 g / cm^3
# Si number density = 20.124071 Si / 1000 Ang^3
#
#
#
# Elastic Constant Matrix: (Units=GPa)
#
#
# Indices 1 2 3 4 5 6 
#
# 1 78.6998 3.2695 7.2022 0.0000 0.0000 0.0000
# 2 3.2695 59.6234 19.1224 0.0000 0.0000 0.0000
# 3 7.2022 19.1224 68.8220 0.0000 0.0000 0.0000
# 4 0.0000 0.0000 0.0000 17.8709 0.0000 0.0000
# 5 0.0000 0.0000 0.0000 0.0000 26.7843 0.0000
# 6 0.0000 0.0000 0.0000 0.0000 0.0000 19.5864
#
#
#
# Elastic Compliance Matrix: (Units=1/GPa)
#
#
# Indices 1 2 3 4 5 6 
#
# 1 0.012834 -0.000300 -0.001260 0.000000 0.000000 0.000000
# 2 -0.000300 0.018420 -0.005087 0.000000 0.000000 0.000000
# 3 -0.001260 -0.005087 0.016075 0.000000 0.000000 0.000000
# 4 0.000000 0.000000 0.000000 0.055957 0.000000 0.000000
# 5 0.000000 0.000000 0.000000 0.000000 0.037335 0.000000
# 6 0.000000 0.000000 0.000000 0.000000 0.000000 0.051056
#
#
# Mechanical properties :
#
#
# Convention : Reuss Voigt Hill
#
# Bulk Modulus (GPa) = 29.37970 29.59259 29.48614
# Shear Modulus (GPa) = 23.11438 24.68505 23.89972
#
# Velocity S-wave (km/s) = 3.39277 3.50615 3.44992
# Velocity P-wave (km/s) = 5.47529 5.57922 5.52750
#
# Compressibility (1/GPa) = 0.03403711
#
# Stress axis : x y z
#
# Youngs Moduli (GPa) = 77.91648 54.28952 62.20682
#
# Poissons Ratio (x) = 0.01627 0.07837
# Poissons Ratio (y) = 0.02335 0.31642
# Poissons Ratio (z) = 0.09816 0.27615
#
# Static dielectric constant tensor:
#      x y z
#    x 3.890860 0.000000 0.000000 
#    y 0.000000 3.237670 0.000000 
#    z 0.000000 0.000000 3.762750 
# 
# 
# High freq. dielectric constant tensor:
#      x y z
#    x 1.799840 0.000000 0.000000 
#    y 0.000000 1.745030 0.000000 
#    z 0.000000 0.000000 1.790080 
# 
# From -- ./inp_files/26359.got.cif
#   From: 2010.06.25/outbox.cif.g09.slc.cpg/sg58_14_cif.got.tgz:26359.got - 2010.06.26 21:38:00.
