data_PCOD8235973
_publ_section_title
;
Structure prediction by ZEFSAII (Michael W. Deem and Ramdas Pophale) SiO2 
 PCOD8235973
Probable space group: P N N M
;
_chemical_formula_sum "Si O2"
_cell_formula_units_Z 56
_cell_length_a 23.024552
_cell_length_b 14.020900
_cell_length_c 8.946424
_cell_angle_alpha 90.000000
_cell_angle_beta 90.000000
_cell_angle_gamma 90.000000
_cell_volume 2888.128801
_symmetry_space_group_name_H-M "P N N M"
_symmetry_group_IT_number 58
_symmetry_cell_setting 'orthorhombic'
loop_
_space_group_symop_operation_xyz
x,y,z
-x,-y,z
1/2+x,1/2-y,1/2-z
1/2-x,1/2+y,1/2-z
-x,-y,-z
x,y,-z
1/2-x,1/2+y,1/2+z
1/2+x,1/2-y,1/2+z
loop_
_atom_site_type_symbol
_atom_site_label
_atom_site_fract_x
_atom_site_fract_y
_atom_site_fract_z
Si Si1 0.267711 0.638507 0.165369
Si Si2 0.847324 0.407654 0.323477
Si Si3 0.768285 0.145244 0.836117
Si Si4 0.501611 0.392645 0.677516
Si Si5 0.611039 0.718309 0.322821
Si Si6 0.622186 0.304376 0.675844
Si Si7 0.841121 0.593226 0.826084
O O1 0.219480 0.590970 0.270025
O O2 0.252993 0.747952 0.147091
O O3 0.330495 0.628790 0.243076
O O4 0.268421 0.590751 0.000000
O O5 0.850839 0.401273 0.500000
O O6 0.883957 0.320748 0.255629
O O7 0.873526 0.508484 0.264578
O O8 0.835150 0.148403 0.780527
O O9 0.727576 0.092679 0.716447
O O10 0.763311 0.095401 0.000000
O O11 0.500000 0.500000 0.742772
O O12 0.498939 0.396452 0.500000
O O13 0.446698 0.332999 0.737535
O O14 0.559504 0.339123 0.731911
O O15 0.610315 0.736547 0.500000
O O16 0.630738 0.318789 0.500000
O O17 0.628961 0.193046 0.718748
O O18 0.847185 0.571862 0.000000
#
# Coordination Sequence:
#
# PCOD8235973 Si02
#       7
#     8   8   8   8   8   8   8
#     4   9  17  31  51  75 105 138 169 208 260 310
#     4  11  21  33  52  77 105 139 179 220 264 316
#     4   8  15  28  47  72 101 135 171 205 249 303
#     4   9  18  34  57  82 105 134 175 218 259 309
#     4   9  18  34  54  77 109 144 177 216 261 309
#     4   9  18  33  54  80 108 140 178 217 257 307
#     4  10  19  31  49  76 109 140 172 213 262 315
#
# _framework density 19.389717999999998
#
# number of rings (size 3 to 8) (size 9 to 14) (size 15 to 20)
#    0.000    2.714    0.000    3.000    0.000    5.143 
#    0.000    4.286    0.000    6.000    0.000    0.000 
#    0.000    0.000    0.000    0.000    0.000    0.000 
#
# Total GULP energy -694157.825103 kJ/mol
# GULP energy per Si atom -12395.675448 kJ/mol
# Density = 1.934559 g / cm^3
# Si number density = 19.389718 Si / 1000 Ang^3
#
#
#
# Elastic Constant Matrix: (Units=GPa)
#
#
# Indices 1 2 3 4 5 6 
#
# 1 138.5321 53.3082 27.8085 0.0000 0.0000 0.0000
# 2 53.3082 105.6255 39.0746 0.0000 0.0000 0.0000
# 3 27.8085 39.0746 75.2758 0.0000 0.0000 0.0000
# 4 0.0000 0.0000 0.0000 22.2175 0.0000 0.0000
# 5 0.0000 0.0000 0.0000 0.0000 21.5805 0.0000
# 6 0.0000 0.0000 0.0000 0.0000 0.0000 20.9152
#
#
#
# Elastic Compliance Matrix: (Units=1/GPa)
#
#
# Indices 1 2 3 4 5 6 
#
# 1 0.009045 -0.004120 -0.001203 0.000000 0.000000 0.000000
# 2 -0.004120 0.013594 -0.005534 0.000000 0.000000 0.000000
# 3 -0.001203 -0.005534 0.016602 0.000000 0.000000 0.000000
# 4 0.000000 0.000000 0.000000 0.045010 0.000000 0.000000
# 5 0.000000 0.000000 0.000000 0.000000 0.046338 0.000000
# 6 0.000000 0.000000 0.000000 0.000000 0.000000 0.047812
#
#
# Mechanical properties :
#
#
# Convention : Reuss Voigt Hill
#
# Bulk Modulus (GPa) = 57.05694 62.20177 59.62935
# Shear Modulus (GPa) = 24.27675 26.22545 25.25110
#
# Velocity S-wave (km/s) = 3.54226 3.68169 3.61265
# Velocity P-wave (km/s) = 6.79856 7.08678 6.94417
#
# Compressibility (1/GPa) = 0.01752635
#
# Stress axis : x y z
#
# Youngs Moduli (GPa) = 110.55241 73.56064 60.23478
#
# Poissons Ratio (x) = 0.30308 0.07245
# Poissons Ratio (y) = 0.45550 0.33337
# Poissons Ratio (z) = 0.13298 0.40712
#
# Static dielectric constant tensor:
#      x y z
#    x 3.623840 0.000000 0.000000 
#    y 0.000000 3.676050 0.000000 
#    z 0.000000 0.000000 3.464030 
# 
# 
# High freq. dielectric constant tensor:
#      x y z
#    x 1.734190 0.000000 0.000000 
#    y 0.000000 1.758190 0.000000 
#    z 0.000000 0.000000 1.737370 
# 
# From -- ./inp_files/9085.got.cif
#   From: 2010.06.25/outbox.cif.g09.slc.cpg/sg58_5_cif.got.tgz:9085.got - 2010.06.26 21:38:00.
