data_PCOD8235262
_publ_section_title
;
Structure prediction by ZEFSAII (Michael W. Deem and Ramdas Pophale) SiO2 
 PCOD8235262
Probable space group: P N N M
;
_chemical_formula_sum "Si O2"
_cell_formula_units_Z 64
_cell_length_a 22.928296
_cell_length_b 9.721350
_cell_length_c 16.193658
_cell_angle_alpha 90.000000
_cell_angle_beta 90.000000
_cell_angle_gamma 90.000000
_cell_volume 3609.469049
_symmetry_space_group_name_H-M "P N N M"
_symmetry_group_IT_number 58
_symmetry_cell_setting 'orthorhombic'
loop_
_space_group_symop_operation_xyz
x,y,z
-x,-y,z
1/2+x,1/2-y,1/2-z
1/2-x,1/2+y,1/2-z
-x,-y,-z
x,y,-z
1/2-x,1/2+y,1/2+z
1/2+x,1/2-y,1/2+z
loop_
_atom_site_type_symbol
_atom_site_label
_atom_site_fract_x
_atom_site_fract_y
_atom_site_fract_z
Si Si1 0.742411 0.182396 0.406803
Si Si2 0.345105 0.440703 0.681919
Si Si3 0.067521 0.474215 0.904755
Si Si4 0.155735 0.606922 0.407302
Si Si5 0.131495 0.650921 0.234842
Si Si6 0.759859 0.917506 0.692415
Si Si7 0.874748 0.807826 0.904183
Si Si8 0.235214 0.342255 0.592265
O O1 0.722317 0.169195 0.500000
O O2 0.803209 0.260040 0.396802
O O3 0.688832 0.266384 0.365755
O O4 0.743327 0.027603 0.376265
O O5 0.381480 0.311315 0.716855
O O6 0.308396 0.512417 0.752964
O O7 0.391006 0.551038 0.643917
O O8 0.301160 0.388066 0.611223
O O9 0.102656 0.562858 0.837864
O O10 0.079165 0.313354 0.886966
O O11 0.000000 0.500000 0.890227
O O12 0.085566 0.511441 0.000000
O O13 0.126629 0.611302 0.500000
O O14 0.110014 0.614557 0.329486
O O15 0.191807 0.468238 0.397614
O O16 0.201129 0.624284 0.240759
O O17 0.786250 0.779663 0.651999
O O18 0.872404 0.845089 0.000000
O O19 0.234404 0.284409 0.500000
#
# Coordination Sequence:
#
# PCOD8235262 Si02
#       8
#     8   8   8   8   8   8   8   8
#     4  10  17  29  46  69 104 146 177 201 247 313
#     4  11  21  30  47  78 110 140 179 212 254 318
#     4  10  23  41  60  81 103 132 179 235 282 322
#     4  10  19  32  48  74 110 144 175 210 253 313
#     4  11  21  33  54  75 106 144 177 220 271 309
#     4  11  20  28  45  74 110 139 177 215 251 310
#     4  10  19  33  52  71 100 141 176 213 263 316
#     4  10  20  30  42  65 107 146 178 213 247 293
#
# _framework density 17.731138999999999
#
# number of rings (size 3 to 8) (size 9 to 14) (size 15 to 20)
#    0.000    1.625    5.000    0.750    3.500    2.500 
#    0.000    0.625    0.000    2.625    0.000    0.000 
#    0.000    1.000    0.000    0.000    0.000    0.000 
#
# Total GULP energy -793107.455251 kJ/mol
# GULP energy per Si atom -12392.303988 kJ/mol
# Density = 1.769078 g / cm^3
# Si number density = 17.731139 Si / 1000 Ang^3
#
#
#
# Elastic Constant Matrix: (Units=GPa)
#
#
# Indices 1 2 3 4 5 6 
#
# 1 20.7036 8.2047 27.6422 0.0000 0.0000 0.0000
# 2 8.2047 113.4413 52.7006 0.0000 0.0000 0.0000
# 3 27.6422 52.7006 113.0743 0.0000 0.0000 0.0000
# 4 0.0000 0.0000 0.0000 30.5463 0.0000 0.0000
# 5 0.0000 0.0000 0.0000 0.0000 10.8502 0.0000
# 6 0.0000 0.0000 0.0000 0.0000 0.0000 9.5922
#
#
#
# Elastic Compliance Matrix: (Units=1/GPa)
#
#
# Indices 1 2 3 4 5 6 
#
# 1 0.072994 0.003842 -0.019635 0.000000 0.000000 0.000000
# 2 0.003842 0.011453 -0.006277 0.000000 0.000000 0.000000
# 3 -0.019635 -0.006277 0.016569 0.000000 0.000000 0.000000
# 4 0.000000 0.000000 0.000000 0.032737 0.000000 0.000000
# 5 0.000000 0.000000 0.000000 0.000000 0.092164 0.000000
# 6 0.000000 0.000000 0.000000 0.000000 0.000000 0.104251
#
#
# Mechanical properties :
#
#
# Convention : Reuss Voigt Hill
#
# Bulk Modulus (GPa) = 17.58194 47.14603 32.36398
# Shear Modulus (GPa) = 12.71399 20.77585 16.74492
#
# Velocity S-wave (km/s) = 2.68067 3.42675 3.07641
# Velocity P-wave (km/s) = 4.41800 6.50415 5.55979
#
# Compressibility (1/GPa) = 0.05687655
#
# Stress axis : x y z
#
# Youngs Moduli (GPa) = 13.69984 87.30956 60.35215
#
# Poissons Ratio (x) = -0.33547 1.18501
# Poissons Ratio (y) = -0.05264 0.37886
# Poissons Ratio (z) = 0.26899 0.54808
#
# Static dielectric constant tensor:
#      x y z
#    x 2.695290 0.000000 0.000000 
#    y 0.000000 3.571900 0.000000 
#    z 0.000000 0.000000 3.632060 
# 
# 
# High freq. dielectric constant tensor:
#      x y z
#    x 1.603510 0.000000 0.000000 
#    y 0.000000 1.706550 0.000000 
#    z 0.000000 0.000000 1.705100 
# 
# From -- ./inp_files/23556.got.cif
#   From: 2010.06.25/outbox.cif.g09.slc.cpg/sg58_12_cif.got.tgz:23556.got - 2010.06.26 21:38:00.
