data_PCOD8235552
_publ_section_title
;
Structure prediction by ZEFSAII (Michael W. Deem and Ramdas Pophale) SiO2 
 PCOD8235552
Probable space group: P N N M
;
_chemical_formula_sum "Si O2"
_cell_formula_units_Z 64
_cell_length_a 13.106656
_cell_length_b 27.590440
_cell_length_c 8.926318
_cell_angle_alpha 90.000000
_cell_angle_beta 90.000000
_cell_angle_gamma 90.000000
_cell_volume 3227.920886
_symmetry_space_group_name_H-M "P N N M"
_symmetry_group_IT_number 58
_symmetry_cell_setting 'orthorhombic'
loop_
_space_group_symop_operation_xyz
x,y,z
-x,-y,z
1/2+x,1/2-y,1/2-z
1/2-x,1/2+y,1/2-z
-x,-y,-z
x,y,-z
1/2-x,1/2+y,1/2+z
1/2+x,1/2-y,1/2+z
loop_
_atom_site_type_symbol
_atom_site_label
_atom_site_fract_x
_atom_site_fract_y
_atom_site_fract_z
Si Si1 0.661860 0.269167 0.832711
Si Si2 0.373515 0.271075 0.668353
Si Si3 0.500583 0.093104 0.321729
Si Si4 0.598434 0.375374 0.178873
Si Si5 0.616168 0.621338 0.321532
Si Si6 0.216434 0.447384 0.176582
Si Si7 0.035727 0.300126 0.822916
Si Si8 0.216603 0.557455 0.176778
O O1 0.783451 0.268165 0.833347
O O2 0.621983 0.320346 0.768112
O O3 0.642895 0.221705 0.729445
O O4 0.618683 0.261329 0.000000
O O5 0.409577 0.282308 0.500000
O O6 0.356195 0.324353 0.739050
O O7 0.461952 0.240835 0.750914
O O8 0.495125 0.093355 0.500000
O O9 0.599795 0.062610 0.270873
O O10 0.514617 0.147143 0.255261
O O11 0.394627 0.071856 0.255385
O O12 0.494222 0.393742 0.255346
O O13 0.692101 0.408628 0.237788
O O14 0.588199 0.378942 0.000000
O O15 0.614039 0.616697 0.500000
O O16 0.703924 0.586521 0.260788
O O17 0.242293 0.502429 0.220958
O O18 0.227514 0.437917 0.000000
O O19 0.026559 0.303314 0.000000
O O20 0.209459 0.563571 0.000000
#
# Coordination Sequence:
#
# PCOD8235552 Si02
#       8
#     8   8   8   8   8   8   8   8
#     4  10  19  32  51  75 103 135 174 215 255 308
#     4   9  18  32  50  72 102 140 172 204 255 316
#     4   9  17  31  56  87 112 137 176 228 278 332
#     4  10  20  35  56  80 107 141 184 229 267 315
#     4  11  22  37  55  76 111 151 185 221 269 328
#     4  10  20  35  57  84 110 138 181 234 282 325
#     4  10  18  31  51  76 105 136 171 204 253 318
#     4   9  18  34  57  83 109 140 180 230 285 329
#
# _framework density 19.827003999999999
#
# number of rings (size 3 to 8) (size 9 to 14) (size 15 to 20)
#    0.000    2.250    1.250    2.250    0.000    5.000 
#    0.000    4.375    0.000    5.250    0.000    0.000 
#    0.000    0.000    0.000    0.000    0.000    0.000 
#
# Total GULP energy -793076.370758 kJ/mol
# GULP energy per Si atom -12391.818293 kJ/mol
# Density = 1.978188 g / cm^3
# Si number density = 19.827004 Si / 1000 Ang^3
#
#
#
# Elastic Constant Matrix: (Units=GPa)
#
#
# Indices 1 2 3 4 5 6 
#
# 1 114.6590 40.9408 25.4631 0.0000 0.0000 0.0000
# 2 40.9408 110.8644 22.4217 0.0000 0.0000 0.0000
# 3 25.4631 22.4217 27.5983 0.0000 0.0000 0.0000
# 4 0.0000 0.0000 0.0000 21.2118 0.0000 0.0000
# 5 0.0000 0.0000 0.0000 0.0000 18.0409 0.0000
# 6 0.0000 0.0000 0.0000 0.0000 0.0000 40.0204
#
#
#
# Elastic Compliance Matrix: (Units=1/GPa)
#
#
# Indices 1 2 3 4 5 6 
#
# 1 0.011529 -0.002520 -0.008589 0.000000 0.000000 0.000000
# 2 -0.002520 0.011344 -0.006891 0.000000 0.000000 0.000000
# 3 -0.008589 -0.006891 0.049758 0.000000 0.000000 0.000000
# 4 0.000000 0.000000 0.000000 0.047144 0.000000 0.000000
# 5 0.000000 0.000000 0.000000 0.000000 0.055429 0.000000
# 6 0.000000 0.000000 0.000000 0.000000 0.000000 0.024987
#
#
# Mechanical properties :
#
#
# Convention : Reuss Voigt Hill
#
# Bulk Modulus (GPa) = 27.30069 47.86367 37.58218
# Shear Modulus (GPa) = 20.12858 26.80770 23.46814
#
# Velocity S-wave (km/s) = 3.18969 3.68105 3.44415
# Velocity P-wave (km/s) = 5.23114 6.50076 5.90020
#
# Compressibility (1/GPa) = 0.03662911
#
# Stress axis : x y z
#
# Youngs Moduli (GPa) = 86.73823 88.14860 20.09741
#
# Poissons Ratio (x) = 0.22216 0.17262
# Poissons Ratio (y) = 0.21861 0.13850
# Poissons Ratio (z) = 0.74503 0.60746
#
# Static dielectric constant tensor:
#      x y z
#    x 3.722030 0.000000 0.000000 
#    y 0.000000 3.822070 0.000000 
#    z 0.000000 0.000000 3.160290 
# 
# 
# High freq. dielectric constant tensor:
#      x y z
#    x 1.786620 0.000000 0.000000 
#    y 0.000000 1.783990 0.000000 
#    z 0.000000 0.000000 1.719360 
# 
# From -- ./inp_files/4692.got.cif
#   From: 2010.06.25/outbox.cif.g09.slc.cpg/sg58_3_cif.got.tgz:4692.got - 2010.06.26 21:38:00.
