data_PCOD8235985
_publ_section_title
;
Structure prediction by ZEFSAII (Michael W. Deem and Ramdas Pophale) SiO2 
 PCOD8235985
Probable space group: P N N M
;
_chemical_formula_sum "Si O2"
_cell_formula_units_Z 40
_cell_length_a 16.311418
_cell_length_b 16.530694
_cell_length_c 9.120395
_cell_angle_alpha 90.000000
_cell_angle_beta 90.000000
_cell_angle_gamma 90.000000
_cell_volume 2459.214732
_symmetry_space_group_name_H-M "P N N M"
_symmetry_group_IT_number 58
_symmetry_cell_setting 'orthorhombic'
loop_
_space_group_symop_operation_xyz
x,y,z
-x,-y,z
1/2+x,1/2-y,1/2-z
1/2-x,1/2+y,1/2-z
-x,-y,-z
x,y,-z
1/2-x,1/2+y,1/2+z
1/2+x,1/2-y,1/2+z
loop_
_atom_site_type_symbol
_atom_site_label
_atom_site_fract_x
_atom_site_fract_y
_atom_site_fract_z
Si Si1 0.050587 0.622481 0.668021
Si Si2 0.876560 0.550240 0.667326
Si Si3 0.949448 0.074994 0.334048
Si Si4 0.275538 0.380622 0.165207
Si Si5 0.104973 0.779711 0.173352
O O1 0.064217 0.649885 0.500000
O O2 0.102134 0.542267 0.702549
O O3 0.081260 0.690212 0.778708
O O4 0.954960 0.606372 0.697097
O O5 0.847675 0.559052 0.500000
O O6 0.804236 0.577476 0.772032
O O7 0.980399 0.092059 0.500000
O O8 0.851571 0.055079 0.333619
O O9 0.962731 0.156237 0.236650
O O10 0.000000 0.000000 0.265679
O O11 0.305001 0.302685 0.260788
O O12 0.256889 0.351435 0.000000
O O13 0.107577 0.785200 0.000000
#
# Coordination Sequence:
#
# PCOD8235985 Si02
#       5
#     8   8   8   8   8
#     4   9  18  34  53  74 102 137 171 205 256 308
#     4   9  18  33  54  76 100 134 172 210 254 306
#     4   8  16  32  52  72  98 135 168 201 255 306
#     4   9  18  32  51  73 100 133 167 210 257 299
#     4  10  19  31  50  75 102 133 170 211 253 297
#
# _framework density 16.265355
#
# number of rings (size 3 to 8) (size 9 to 14) (size 15 to 20)
#    1.200    1.800    0.000    3.000    0.000    2.000 
#    0.000    4.000    0.000    7.200    0.000    0.000 
#    0.000    0.000    0.000    0.000    0.000    0.000 
#
# Total GULP energy -495600.098918 kJ/mol
# GULP energy per Si atom -12390.002473 kJ/mol
# Density = 1.622833 g / cm^3
# Si number density = 16.265355 Si / 1000 Ang^3
#
#
#
# Elastic Constant Matrix: (Units=GPa)
#
#
# Indices 1 2 3 4 5 6 
#
# 1 73.0583 43.1066 49.1846 0.0000 0.0000 0.0000
# 2 43.1066 89.6550 61.8560 0.0000 0.0000 0.0000
# 3 49.1846 61.8560 126.6230 0.0000 0.0000 0.0000
# 4 0.0000 0.0000 0.0000 27.1702 0.0000 0.0000
# 5 0.0000 0.0000 0.0000 0.0000 28.7381 0.0000
# 6 0.0000 0.0000 0.0000 0.0000 0.0000 20.0049
#
#
#
# Elastic Compliance Matrix: (Units=1/GPa)
#
#
# Indices 1 2 3 4 5 6 
#
# 1 0.020908 -0.006711 -0.004843 0.000000 0.000000 0.000000
# 2 -0.006711 0.018979 -0.006664 0.000000 0.000000 0.000000
# 3 -0.004843 -0.006664 0.013034 0.000000 0.000000 0.000000
# 4 0.000000 0.000000 0.000000 0.036805 0.000000 0.000000
# 5 0.000000 0.000000 0.000000 0.000000 0.034797 0.000000
# 6 0.000000 0.000000 0.000000 0.000000 0.000000 0.049988
#
#
# Mechanical properties :
#
#
# Convention : Reuss Voigt Hill
#
# Bulk Modulus (GPa) = 60.66577 66.40342 63.53459
# Shear Modulus (GPa) = 23.10088 24.19523 23.64806
#
# Velocity S-wave (km/s) = 3.77271 3.86104 3.81713
# Velocity P-wave (km/s) = 7.50708 7.79683 7.65333
#
# Compressibility (1/GPa) = 0.01648376
#
# Stress axis : x y z
#
# Youngs Moduli (GPa) = 47.82872 52.69078 76.72207
#
# Poissons Ratio (x) = 0.35363 0.37155
# Poissons Ratio (y) = 0.32100 0.51129
# Poissons Ratio (z) = 0.23162 0.35114
#
# Static dielectric constant tensor:
#      x y z
#    x 2.874950 0.000000 0.000000 
#    y 0.000000 2.890370 0.000000 
#    z 0.000000 0.000000 3.002660 
# 
# 
# High freq. dielectric constant tensor:
#      x y z
#    x 1.607970 0.000000 0.000000 
#    y 0.000000 1.610390 0.000000 
#    z 0.000000 0.000000 1.629890 
# 
# From -- ./inp_files/7789.got.cif
#   From: 2010.06.25/outbox.cif.g09.slc.cpg/sg58_4_cif.got.tgz:7789.got - 2010.06.26 21:38:00.
