data_PCOD8235200
_publ_section_title
;
Structure prediction by ZEFSAII (Michael W. Deem and Ramdas Pophale) SiO2 
 PCOD8235200
Probable space group: P N N M
;
_chemical_formula_sum "Si O2"
_cell_formula_units_Z 64
_cell_length_a 8.897052
_cell_length_b 24.777037
_cell_length_c 18.650097
_cell_angle_alpha 90.000000
_cell_angle_beta 90.000000
_cell_angle_gamma 90.000000
_cell_volume 4111.275623
_symmetry_space_group_name_H-M "P N N M"
_symmetry_group_IT_number 58
_symmetry_cell_setting 'orthorhombic'
loop_
_space_group_symop_operation_xyz
x,y,z
-x,-y,z
1/2+x,1/2-y,1/2-z
1/2-x,1/2+y,1/2-z
-x,-y,-z
x,y,-z
1/2-x,1/2+y,1/2+z
1/2+x,1/2-y,1/2+z
loop_
_atom_site_type_symbol
_atom_site_label
_atom_site_fract_x
_atom_site_fract_y
_atom_site_fract_z
Si Si1 0.555280 0.124317 0.846027
Si Si2 0.335364 0.974248 0.078990
Si Si3 0.742679 0.719220 0.919489
Si Si4 0.613623 0.185812 0.285774
Si Si5 0.243884 0.587334 0.416560
Si Si6 0.666081 0.742895 0.681298
Si Si7 0.415467 0.759382 0.083544
Si Si8 0.540349 0.319248 0.580873
O O1 0.672290 0.077251 0.868804
O O2 0.582389 0.131841 0.760334
O O3 0.385547 0.108119 0.863656
O O4 0.589427 0.180075 0.885807
O O5 0.500000 0.000000 0.079650
O O6 0.223585 0.023803 0.100187
O O7 0.294736 0.952524 0.000000
O O8 0.820729 0.675664 0.865893
O O9 0.569399 0.728547 0.899276
O O10 0.823955 0.776733 0.911907
O O11 0.758519 0.696177 0.000000
O O12 0.453894 0.215266 0.289390
O O13 0.740237 0.222707 0.249058
O O14 0.191186 0.594321 0.500000
O O15 0.394627 0.621236 0.402416
O O16 0.780376 0.771794 0.624692
O O17 0.587389 0.693112 0.639021
O O18 0.382442 0.760909 0.000000
O O19 0.473857 0.316966 0.500000
#
# Coordination Sequence:
#
# PCOD8235200 Si02
#       8
#     8   8   8   8   8   8   8   8
#     4  10  16  24  40  61  88 114 147 179 210 253
#     4   8  14  23  38  62  88 113 146 184 208 234
#     4   9  17  30  45  59  79 108 144 177 212 255
#     4  10  20  30  40  59  82 115 144 179 220 255
#     4   9  15  25  42  64  88 116 151 181 209 239
#     4  10  20  28  40  57  87 110 148 182 210 253
#     4  10  17  27  44  62  81 111 146 179 211 253
#     4   9  16  27  43  61  84 115 147 176 204 244
#
# _framework density 15.566943999999999
#
# number of rings (size 3 to 8) (size 9 to 14) (size 15 to 20)
#    0.000    2.625    1.250    3.750    1.750    0.500 
#    0.000    0.000    0.000    3.000    0.000   11.375 
#    0.000    4.500    0.000    1.375    0.250    0.750 
#
# Total GULP energy -793036.751654 kJ/mol
# GULP energy per Si atom -12391.199245 kJ/mol
# Density = 1.553151 g / cm^3
# Si number density = 15.566944 Si / 1000 Ang^3
#
#
#
# Elastic Constant Matrix: (Units=GPa)
#
#
# Indices 1 2 3 4 5 6 
#
# 1 69.6145 14.3907 38.1878 0.0000 0.0000 0.0000
# 2 14.3907 53.2028 39.7281 0.0000 0.0000 0.0000
# 3 38.1878 39.7281 96.3741 0.0000 0.0000 0.0000
# 4 0.0000 0.0000 0.0000 23.0389 0.0000 0.0000
# 5 0.0000 0.0000 0.0000 0.0000 30.9138 0.0000
# 6 0.0000 0.0000 0.0000 0.0000 0.0000 14.6832
#
#
#
# Elastic Compliance Matrix: (Units=1/GPa)
#
#
# Indices 1 2 3 4 5 6 
#
# 1 0.018371 0.000674 -0.007557 0.000000 0.000000 0.000000
# 2 0.000674 0.027180 -0.011471 0.000000 0.000000 0.000000
# 3 -0.007557 -0.011471 0.018100 0.000000 0.000000 0.000000
# 4 0.000000 0.000000 0.000000 0.043405 0.000000 0.000000
# 5 0.000000 0.000000 0.000000 0.000000 0.032348 0.000000
# 6 0.000000 0.000000 0.000000 0.000000 0.000000 0.068105
#
#
# Mechanical properties :
#
#
# Convention : Reuss Voigt Hill
#
# Bulk Modulus (GPa) = 37.11780 44.86720 40.99250
# Shear Modulus (GPa) = 19.74738 22.18615 20.96677
#
# Velocity S-wave (km/s) = 3.56553 3.77929 3.67396
# Velocity P-wave (km/s) = 6.39112 6.92306 6.66240
#
# Compressibility (1/GPa) = 0.02694125
#
# Stress axis : x y z
#
# Youngs Moduli (GPa) = 54.43321 36.79220 55.24978
#
# Poissons Ratio (x) = -0.02480 0.41754
# Poissons Ratio (y) = -0.03670 0.63379
# Poissons Ratio (z) = 0.41137 0.42206
#
# Static dielectric constant tensor:
#      x y z
#    x 3.070380 0.000000 0.000000 
#    y 0.000000 2.856410 0.000000 
#    z 0.000000 0.000000 3.186130 
# 
# 
# High freq. dielectric constant tensor:
#      x y z
#    x 1.602020 0.000000 0.000000 
#    y 0.000000 1.547610 0.000000 
#    z 0.000000 0.000000 1.591170 
# 
# From -- ./inp_files/27673.got.cif
#   From: 2010.06.25/outbox.cif.g09.slc.cpg/sg58_14_cif.got.tgz:27673.got - 2010.06.26 21:38:00.
