data_PCOD8235949
_publ_section_title
;
Structure prediction by ZEFSAII (Michael W. Deem and Ramdas Pophale) SiO2 
 PCOD8235949
Probable space group: P N N M
;
_chemical_formula_sum "Si O2"
_cell_formula_units_Z 64
_cell_length_a 27.386333
_cell_length_b 13.182360
_cell_length_c 9.748097
_cell_angle_alpha 90.000000
_cell_angle_beta 90.000000
_cell_angle_gamma 90.000000
_cell_volume 3519.223867
_symmetry_space_group_name_H-M "P N N M"
_symmetry_group_IT_number 58
_symmetry_cell_setting 'orthorhombic'
loop_
_space_group_symop_operation_xyz
x,y,z
-x,-y,z
1/2+x,1/2-y,1/2-z
1/2-x,1/2+y,1/2-z
-x,-y,-z
x,y,-z
1/2-x,1/2+y,1/2+z
1/2+x,1/2-y,1/2+z
loop_
_atom_site_type_symbol
_atom_site_label
_atom_site_fract_x
_atom_site_fract_y
_atom_site_fract_z
Si Si1 0.877617 0.618381 0.839047
Si Si2 0.714661 0.820247 0.848325
Si Si3 0.732038 0.121485 0.341903
Si Si4 0.211053 0.018180 0.847192
Si Si5 0.557691 0.709187 0.662865
Si Si6 0.398224 0.502013 0.663464
Si Si7 0.371910 0.110737 0.662909
Si Si8 0.447675 0.707379 0.663899
O O1 0.822873 0.651832 0.797224
O O2 0.889078 0.502309 0.791996
O O3 0.915393 0.699855 0.774069
O O4 0.884748 0.624198 0.000000
O O5 0.726462 0.704480 0.813850
O O6 0.679486 0.865591 0.733736
O O7 0.769286 0.867271 0.853093
O O8 0.690408 0.831723 0.000000
O O9 0.731227 0.086432 0.500000
O O10 0.747866 0.030289 0.246983
O O11 0.157191 0.012849 0.782487
O O12 0.210582 0.969166 0.000000
O O13 0.558132 0.704635 0.500000
O O14 0.579706 0.603480 0.720982
O O15 0.588711 0.806222 0.713601
O O16 0.502746 0.722072 0.718046
O O17 0.399157 0.503073 0.500000
O O18 0.428428 0.598668 0.719236
O O19 0.363527 0.116501 0.500000
O O20 0.445914 0.707526 0.500000
#
# Coordination Sequence:
#
# PCOD8235949 Si02
#       8
#     8   8   8   8   8   8   8   8
#     4   9  17  29  45  65  93 129 160 194 240 288
#     4  10  20  32  48  70  97 130 168 201 233 286
#     4  10  19  32  48  69  98 131 164 198 239 288
#     4  10  19  31  48  72  98 128 163 197 238 289
#     4   9  17  27  43  69  97 126 160 200 248 295
#     4   9  16  27  43  66  98 129 158 198 246 293
#     4  10  19  32  49  71 101 129 158 202 249 290
#     4   9  16  27  44  67  96 128 161 199 245 294
#
# _framework density 18.185827
#
# number of rings (size 3 to 8) (size 9 to 14) (size 15 to 20)
#    0.000    2.500    1.250    1.875    0.000    6.500 
#    0.000    2.500    0.000    0.000    0.000    3.500 
#    0.000    4.000    0.000    0.000    0.000    0.000 
#
# Total GULP energy -793146.635040 kJ/mol
# GULP energy per Si atom -12392.916173 kJ/mol
# Density = 1.814444 g / cm^3
# Si number density = 18.185827 Si / 1000 Ang^3
#
#
#
# Elastic Constant Matrix: (Units=GPa)
#
#
# Indices 1 2 3 4 5 6 
#
# 1 136.9906 60.8072 23.0006 0.0000 0.0000 0.0000
# 2 60.8072 124.8319 18.4212 0.0000 0.0000 0.0000
# 3 23.0006 18.4212 22.9968 0.0000 0.0000 0.0000
# 4 0.0000 0.0000 0.0000 12.0526 0.0000 0.0000
# 5 0.0000 0.0000 0.0000 0.0000 16.3061 0.0000
# 6 0.0000 0.0000 0.0000 0.0000 0.0000 35.5042
#
#
#
# Elastic Compliance Matrix: (Units=1/GPa)
#
#
# Indices 1 2 3 4 5 6 
#
# 1 0.010239 -0.003942 -0.007083 0.000000 0.000000 0.000000
# 2 -0.003942 0.010603 -0.004550 0.000000 0.000000 0.000000
# 3 -0.007083 -0.004550 0.054213 0.000000 0.000000 0.000000
# 4 0.000000 0.000000 0.000000 0.082970 0.000000 0.000000
# 5 0.000000 0.000000 0.000000 0.000000 0.061327 0.000000
# 6 0.000000 0.000000 0.000000 0.000000 0.000000 0.028166
#
#
# Mechanical properties :
#
#
# Convention : Reuss Voigt Hill
#
# Bulk Modulus (GPa) = 22.77685 54.36413 38.57049
# Shear Modulus (GPa) = 17.04735 24.94528 20.99631
#
# Velocity S-wave (km/s) = 3.06502 3.70765 3.40154
# Velocity P-wave (km/s) = 5.00774 6.94892 6.05660
#
# Compressibility (1/GPa) = 0.04390423
#
# Stress axis : x y z
#
# Youngs Moduli (GPa) = 97.66746 94.31682 18.44586
#
# Poissons Ratio (x) = 0.37182 0.13064
# Poissons Ratio (y) = 0.38503 0.08393
# Poissons Ratio (z) = 0.69174 0.42915
#
# Static dielectric constant tensor:
#      x y z
#    x 3.451300 0.000000 0.000000 
#    y 0.000000 3.603720 0.000000 
#    z 0.000000 0.000000 2.786470 
# 
# 
# High freq. dielectric constant tensor:
#      x y z
#    x 1.710200 0.000000 0.000000 
#    y 0.000000 1.720060 0.000000 
#    z 0.000000 0.000000 1.635760 
# 
# From -- ./inp_files/14922.got.cif
#   From: 2010.06.25/outbox.cif.g09.slc.cpg/sg58_8_cif.got.tgz:14922.got - 2010.06.26 21:38:00.
