data_PCOD8235336
_publ_section_title
;
Structure prediction by ZEFSAII (Michael W. Deem and Ramdas Pophale) SiO2 
 PCOD8235336
Probable space group: P N N M
;
_chemical_formula_sum "Si O2"
_cell_formula_units_Z 64
_cell_length_a 26.465339
_cell_length_b 18.051430
_cell_length_c 9.017329
_cell_angle_alpha 90.000000
_cell_angle_beta 90.000000
_cell_angle_gamma 90.000000
_cell_volume 4307.913638
_symmetry_space_group_name_H-M "P N N M"
_symmetry_group_IT_number 58
_symmetry_cell_setting 'orthorhombic'
loop_
_space_group_symop_operation_xyz
x,y,z
-x,-y,z
1/2+x,1/2-y,1/2-z
1/2-x,1/2+y,1/2-z
-x,-y,-z
x,y,-z
1/2-x,1/2+y,1/2+z
1/2+x,1/2-y,1/2+z
loop_
_atom_site_type_symbol
_atom_site_label
_atom_site_fract_x
_atom_site_fract_y
_atom_site_fract_z
Si Si1 0.942987 0.913702 0.825032
Si Si2 0.201954 0.700756 0.666963
Si Si3 0.355909 0.673168 0.826311
Si Si4 0.246877 0.920891 0.171761
Si Si5 0.943012 0.080215 0.825519
Si Si6 0.242059 0.077907 0.326095
Si Si7 0.648137 0.676497 0.671727
Si Si8 0.697972 0.201851 0.332491
O O1 0.908134 0.857734 0.735812
O O2 0.000787 0.891916 0.787104
O O3 0.933200 0.997117 0.765550
O O4 0.932048 0.906961 0.000000
O O5 0.186841 0.678726 0.500000
O O6 0.212095 0.626710 0.760924
O O7 0.156382 0.747097 0.740124
O O8 0.251360 0.750812 0.669437
O O9 0.311441 0.615584 0.788535
O O10 0.345840 0.752108 0.749056
O O11 0.360383 0.687230 0.000000
O O12 0.194096 0.879642 0.194971
O O13 0.292441 0.874576 0.245410
O O14 0.242544 0.999021 0.250197
O O15 0.259592 0.932235 0.000000
O O16 0.901885 0.137379 0.760513
O O17 0.935804 0.075186 0.000000
O O18 0.250604 0.069219 0.500000
O O19 0.641585 0.697228 0.500000
O O20 0.680882 0.183991 0.500000
#
# Coordination Sequence:
#
# PCOD8235336 Si02
#       8
#     8   8   8   8   8   8   8   8
#     4   9  16  28  44  60  80 109 144 177 208 243
#     4   9  17  28  41  58  79 104 136 172 206 241
#     4  10  19  29  41  59  83 110 141 176 211 244
#     4  10  18  27  42  63  85 108 136 171 207 243
#     4   8  15  27  43  61  81 108 143 177 205 242
#     4  10  19  29  41  58  82 111 140 169 203 246
#     4   9  16  27  42  59  81 110 140 169 205 245
#     4   9  17  29  43  58  79 108 139 169 203 246
#
# _framework density 14.85638
#
# number of rings (size 3 to 8) (size 9 to 14) (size 15 to 20)
#    0.000    2.750    0.000    3.375    0.000    6.000 
#    0.000    2.500    0.000    0.000    0.000    0.000 
#    0.000    1.000    0.000   10.750    0.000    4.750 
#
# Total GULP energy -793512.412923 kJ/mol
# GULP energy per Si atom -12398.631452 kJ/mol
# Density = 1.482257 g / cm^3
# Si number density = 14.856380 Si / 1000 Ang^3
#
#
#
# Elastic Constant Matrix: (Units=GPa)
#
#
# Indices 1 2 3 4 5 6 
#
# 1 71.0997 31.1294 34.6978 0.0000 0.0000 0.0000
# 2 31.1294 58.7560 49.8932 0.0000 0.0000 0.0000
# 3 34.6978 49.8932 89.8686 0.0000 0.0000 0.0000
# 4 0.0000 0.0000 0.0000 28.2515 0.0000 0.0000
# 5 0.0000 0.0000 0.0000 0.0000 18.4443 0.0000
# 6 0.0000 0.0000 0.0000 0.0000 0.0000 27.6270
#
#
#
# Elastic Compliance Matrix: (Units=1/GPa)
#
#
# Indices 1 2 3 4 5 6 
#
# 1 0.018808 -0.007186 -0.003272 0.000000 0.000000 0.000000
# 2 -0.007186 0.034945 -0.016626 0.000000 0.000000 0.000000
# 3 -0.003272 -0.016626 0.021621 0.000000 0.000000 0.000000
# 4 0.000000 0.000000 0.000000 0.035396 0.000000 0.000000
# 5 0.000000 0.000000 0.000000 0.000000 0.054217 0.000000
# 6 0.000000 0.000000 0.000000 0.000000 0.000000 0.036196
#
#
# Mechanical properties :
#
#
# Convention : Reuss Voigt Hill
#
# Bulk Modulus (GPa) = 47.15779 50.12945 48.64362
# Shear Modulus (GPa) = 19.05329 21.79816 20.42572
#
# Velocity S-wave (km/s) = 3.58508 3.83464 3.71196
# Velocity P-wave (km/s) = 6.99632 7.30903 7.15438
#
# Compressibility (1/GPa) = 0.02120540
#
# Stress axis : x y z
#
# Youngs Moduli (GPa) = 53.16937 28.61620 46.25063
#
# Poissons Ratio (x) = 0.20564 0.15134
# Poissons Ratio (y) = 0.38208 0.76898
# Poissons Ratio (z) = 0.17397 0.47578
#
# Static dielectric constant tensor:
#      x y z
#    x 2.798720 0.000000 0.000000 
#    y 0.000000 2.877160 0.000000 
#    z 0.000000 0.000000 2.913760 
# 
# 
# High freq. dielectric constant tensor:
#      x y z
#    x 1.536300 0.000000 0.000000 
#    y 0.000000 1.556540 0.000000 
#    z 0.000000 0.000000 1.572750 
# 
# From -- ./inp_files/8461.got.cif
#   From: 2010.06.25/outbox.cif.g09.slc.cpg/sg58_5_cif.got.tgz:8461.got - 2010.06.26 21:38:00.
