data_PCOD8235875
_publ_section_title
;
Structure prediction by ZEFSAII (Michael W. Deem and Ramdas Pophale) SiO2 
 PCOD8235875
Probable space group: P N N M
;
_chemical_formula_sum "Si O2"
_cell_formula_units_Z 64
_cell_length_a 19.689016
_cell_length_b 20.002852
_cell_length_c 9.129573
_cell_angle_alpha 90.000000
_cell_angle_beta 90.000000
_cell_angle_gamma 90.000000
_cell_volume 3595.558831
_symmetry_space_group_name_H-M "P N N M"
_symmetry_group_IT_number 58
_symmetry_cell_setting 'orthorhombic'
loop_
_space_group_symop_operation_xyz
x,y,z
-x,-y,z
1/2+x,1/2-y,1/2-z
1/2-x,1/2+y,1/2-z
-x,-y,-z
x,y,-z
1/2-x,1/2+y,1/2+z
1/2+x,1/2-y,1/2+z
loop_
_atom_site_type_symbol
_atom_site_label
_atom_site_fract_x
_atom_site_fract_y
_atom_site_fract_z
Si Si1 0.056919 0.052973 0.830058
Si Si2 0.679818 0.784754 0.334579
Si Si3 0.980558 0.303082 0.835025
Si Si4 0.994435 0.172619 0.671768
Si Si5 0.304772 0.479649 0.670469
Si Si6 0.691603 0.915255 0.169917
Si Si7 0.464231 0.067600 0.170648
Si Si8 0.837912 0.153386 0.327640
O O1 0.046737 0.118472 0.732914
O O2 0.129514 0.022979 0.789618
O O3 0.051042 0.072859 0.000000
O O4 0.000000 0.000000 0.785493
O O5 0.707268 0.778025 0.500000
O O6 0.599747 0.794779 0.331419
O O7 0.714084 0.849322 0.259274
O O8 0.698052 0.717629 0.245680
O O9 0.014383 0.242661 0.746013
O O10 0.000230 0.372601 0.758435
O O11 0.008853 0.302827 0.000000
O O12 0.004220 0.180533 0.500000
O O13 0.917692 0.151129 0.712225
O O14 0.305405 0.459543 0.500000
O O15 0.239337 0.523050 0.713620
O O16 0.302318 0.412566 0.765211
O O17 0.615332 0.937623 0.207979
O O18 0.699654 0.896876 0.000000
O O19 0.500000 0.000000 0.222904
O O20 0.476202 0.081321 0.000000
O O21 0.826013 0.157748 0.500000
#
# Coordination Sequence:
#
# PCOD8235875 Si02
#       8
#     8   8   8   8   8   8   8   8
#     4  10  19  31  48  70  99 134 169 205 243 289
#     4   9  17  30  50  73  97 125 162 205 246 290
#     4   9  17  29  48  74 100 127 161 202 245 292
#     4  10  19  30  47  71 100 130 165 209 248 286
#     4  10  20  33  50  72 100 134 167 202 249 298
#     4   9  18  33  52  74 100 129 162 201 246 298
#     4   9  17  31  53  78 102 127 158 200 250 300
#     4  10  19  30  48  74 100 128 165 208 248 287
#
# _framework density 17.799737
#
# number of rings (size 3 to 8) (size 9 to 14) (size 15 to 20)
#    0.000    2.500    1.250    1.500    0.000    5.500 
#    0.000    0.000    2.750    0.000    0.000    0.000 
#    0.000    0.000    0.000    0.000    0.000    0.000 
#
# Total GULP energy -793737.908587 kJ/mol
# GULP energy per Si atom -12402.154822 kJ/mol
# Density = 1.775922 g / cm^3
# Si number density = 17.799737 Si / 1000 Ang^3
#
#
#
# Elastic Constant Matrix: (Units=GPa)
#
#
# Indices 1 2 3 4 5 6 
#
# 1 45.9808 45.5638 28.0111 0.0000 0.0000 0.0000
# 2 45.5638 176.4889 86.1538 0.0000 0.0000 0.0000
# 3 28.0111 86.1538 99.6832 0.0000 0.0000 0.0000
# 4 0.0000 0.0000 0.0000 41.6239 0.0000 0.0000
# 5 0.0000 0.0000 0.0000 0.0000 14.9581 0.0000
# 6 0.0000 0.0000 0.0000 0.0000 0.0000 24.1549
#
#
#
# Elastic Compliance Matrix: (Units=1/GPa)
#
#
# Indices 1 2 3 4 5 6 
#
# 1 0.029726 -0.006222 -0.002976 0.000000 0.000000 0.000000
# 2 -0.006222 0.011103 -0.007848 0.000000 0.000000 0.000000
# 3 -0.002976 -0.007848 0.017651 0.000000 0.000000 0.000000
# 4 0.000000 0.000000 0.000000 0.024025 0.000000 0.000000
# 5 0.000000 0.000000 0.000000 0.000000 0.066854 0.000000
# 6 0.000000 0.000000 0.000000 0.000000 0.000000 0.041399
#
#
# Mechanical properties :
#
#
# Convention : Reuss Voigt Hill
#
# Bulk Modulus (GPa) = 41.00156 71.29004 56.14580
# Shear Modulus (GPa) = 21.46112 26.97566 24.21839
#
# Velocity S-wave (km/s) = 3.47608 3.89718 3.69264
# Velocity P-wave (km/s) = 6.26066 7.77102 7.05637
#
# Compressibility (1/GPa) = 0.02438932
#
# Stress axis : x y z
#
# Youngs Moduli (GPa) = 33.64018 90.06255 56.65427
#
# Poissons Ratio (x) = 0.56034 0.16860
# Poissons Ratio (y) = 0.20930 0.44463
# Poissons Ratio (z) = 0.10011 0.70682
#
# Static dielectric constant tensor:
#      x y z
#    x 2.991150 0.000000 0.000000 
#    y 0.000000 3.410590 0.000000 
#    z 0.000000 0.000000 3.331050 
# 
# 
# High freq. dielectric constant tensor:
#      x y z
#    x 1.642750 0.000000 0.000000 
#    y 0.000000 1.700920 0.000000 
#    z 0.000000 0.000000 1.693360 
# 
# From -- ./inp_files/8299.got.cif
#   From: 2010.06.25/outbox.cif.g09.slc.cpg/sg58_5_cif.got.tgz:8299.got - 2010.06.26 21:38:00.
