data_PCOD8235018
_publ_section_title
;
Structure prediction by ZEFSAII (Michael W. Deem and Ramdas Pophale) SiO2 
 PCOD8235018
Probable space group: P B C M
;
_chemical_formula_sum "Si O2"
_cell_formula_units_Z 40
_cell_length_a 22.366362
_cell_length_b 9.766509
_cell_length_c 8.948815
_cell_angle_alpha 90.000000
_cell_angle_beta 90.000000
_cell_angle_gamma 90.000000
_cell_volume 1954.790565
_symmetry_space_group_name_H-M "P B C M"
_symmetry_group_IT_number 57
_symmetry_cell_setting 'orthorhombic'
loop_
_space_group_symop_operation_xyz
x,y,z
-x,-y,1/2+z
x,1/2-y,-z
-x,1/2+y,1/2-z
-x,-y,-z
x,y,1/2-z
-x,1/2+y,z
x,1/2-y,1/2+z
loop_
_atom_site_type_symbol
_atom_site_label
_atom_site_fract_x
_atom_site_fract_y
_atom_site_fract_z
Si Si1 0.364456 0.250000 0.000000
Si Si2 0.560797 0.157592 0.250000
Si Si3 0.353979 0.750000 0.500000
Si Si4 0.951785 0.899386 0.569188
Si Si5 0.279550 0.006274 0.086383
Si Si6 0.829151 0.895150 0.072584
Si Si7 0.550686 0.646042 0.750000
O O1 0.408126 0.326795 0.110252
O O2 0.323965 0.134278 0.074343
O O3 0.603537 0.168096 0.109582
O O4 0.509896 0.270148 0.250000
O O5 0.528921 0.010673 0.250000
O O6 0.313284 0.862502 0.420503
O O7 0.963492 0.750000 0.500000
O O8 0.954315 0.895957 0.750000
O O9 0.887780 0.953835 0.510361
O O10 0.000000 0.000000 0.500000
O O11 0.249515 0.016274 0.250000
O O12 0.227581 0.007826 0.960566
O O13 0.840211 0.883276 0.250000
O O14 0.812806 0.750000 0.000000
#
# Coordination Sequence:
#
# PCOD8235018 Si02
#       7
#     4   4   4   8   8   8   4
#     4  12  25  42  68  96 125 168 210 268 324 404
#     4  12  28  46  68  96 128 170 211 274 325 407
#     4  12  27  46  68  92 133 168 214 272 340 398
#     4  11  22  42  69 101 143 187 235 285 339 397
#     4  12  25  43  68  96 129 172 218 272 337 398
#     4  11  23  39  67 102 137 177 228 279 332 397
#     4  12  28  44  68  96 130 162 221 262 333 397
#
# _framework density 20.46255
#
# number of rings (size 3 to 8) (size 9 to 14) (size 15 to 20)
#    0.000    0.400    5.000    5.400    5.600    1.600 
#    1.800    0.000    0.000    0.000    0.000    0.000 
#    0.000    0.000    0.000    0.000    0.000    0.000 
#
# Total GULP energy -496002.367872 kJ/mol
# GULP energy per Si atom -12400.059197 kJ/mol
# Density = 2.041598 g / cm^3
# Si number density = 20.462550 Si / 1000 Ang^3
#
#
#
# Elastic Constant Matrix: (Units=GPa)
#
#
# Indices 1 2 3 4 5 6 
#
# 1 126.3861 51.5216 45.3268 0.0000 0.0000 0.0000
# 2 51.5216 119.1332 32.2989 0.0000 0.0000 0.0000
# 3 45.3268 32.2989 168.8011 0.0000 0.0000 0.0000
# 4 0.0000 0.0000 0.0000 28.9238 0.0000 0.0000
# 5 0.0000 0.0000 0.0000 0.0000 38.1772 0.0000
# 6 0.0000 0.0000 0.0000 0.0000 0.0000 35.2507
#
#
#
# Elastic Compliance Matrix: (Units=1/GPa)
#
#
# Indices 1 2 3 4 5 6 
#
# 1 0.010208 -0.003872 -0.002000 0.000000 0.000000 0.000000
# 2 -0.003872 0.010322 -0.000935 0.000000 0.000000 0.000000
# 3 -0.002000 -0.000935 0.006640 0.000000 0.000000 0.000000
# 4 0.000000 0.000000 0.000000 0.034574 0.000000 0.000000
# 5 0.000000 0.000000 0.000000 0.000000 0.026194 0.000000
# 6 0.000000 0.000000 0.000000 0.000000 0.000000 0.028368
#
#
# Mechanical properties :
#
#
# Convention : Reuss Voigt Hill
#
# Bulk Modulus (GPa) = 73.77418 74.73502 74.25460
# Shear Modulus (GPa) = 37.19124 39.48187 38.33655
#
# Velocity S-wave (km/s) = 4.26787 4.39734 4.33309
# Velocity P-wave (km/s) = 7.77289 7.89837 7.83588
#
# Compressibility (1/GPa) = 0.01355488
#
# Stress axis : x y z
#
# Youngs Moduli (GPa) = 97.96025 96.87802 150.59851
#
# Poissons Ratio (x) = 0.37516 0.30122
# Poissons Ratio (y) = 0.37935 0.14085
# Poissons Ratio (z) = 0.19594 0.09060
#
# Static dielectric constant tensor:
#      x y z
#    x 3.893380 0.000000 0.000000 
#    y 0.000000 3.656260 0.000000 
#    z 0.000000 0.000000 4.149080 
# 
# 
# High freq. dielectric constant tensor:
#      x y z
#    x 1.810450 0.000000 0.000000 
#    y 0.000000 1.795170 0.000000 
#    z 0.000000 0.000000 1.820240 
# 
# From -- ./inp_files/9040.got.cif
#   From: 2010.03.12/outbox.cif.g09.slc.cpg/sg57_5_cif.got.tgz:9040.got - 2010.04.16 15:48:40.
