data_PCOD8235220
_publ_section_title
;
Structure prediction by ZEFSAII (Michael W. Deem and Ramdas Pophale) SiO2 
 PCOD8235220
Probable space group: P N N M
;
_chemical_formula_sum "Si O2"
_cell_formula_units_Z 64
_cell_length_a 24.627011
_cell_length_b 20.654434
_cell_length_c 9.191728
_cell_angle_alpha 90.000000
_cell_angle_beta 90.000000
_cell_angle_gamma 90.000000
_cell_volume 4675.436544
_symmetry_space_group_name_H-M "P N N M"
_symmetry_group_IT_number 58
_symmetry_cell_setting 'orthorhombic'
loop_
_space_group_symop_operation_xyz
x,y,z
-x,-y,z
1/2+x,1/2-y,1/2-z
1/2-x,1/2+y,1/2-z
-x,-y,-z
x,y,-z
1/2-x,1/2+y,1/2+z
1/2+x,1/2-y,1/2+z
loop_
_atom_site_type_symbol
_atom_site_label
_atom_site_fract_x
_atom_site_fract_y
_atom_site_fract_z
Si Si1 0.917837 0.478096 0.834415
Si Si2 0.638548 0.780346 0.838617
Si Si3 0.925462 0.605319 0.333215
Si Si4 0.267368 0.130299 0.163469
Si Si5 0.539433 0.855917 0.168090
Si Si6 0.695917 0.121900 0.829695
Si Si7 0.764353 0.246420 0.828683
Si Si8 0.290839 0.007497 0.666926
O O1 0.940353 0.542363 0.758955
O O2 0.944718 0.416542 0.763238
O O3 0.853397 0.474315 0.820552
O O4 0.936708 0.480589 0.000000
O O5 0.668521 0.850931 0.843898
O O6 0.576404 0.793621 0.785712
O O7 0.673146 0.735118 0.727728
O O8 0.639176 0.748522 0.000000
O O9 0.922602 0.582980 0.500000
O O10 0.867213 0.634995 0.287439
O O11 0.974643 0.657232 0.309692
O O12 0.238444 0.189991 0.250401
O O13 0.257524 0.063201 0.248480
O O14 0.243284 0.124064 0.000000
O O15 0.552332 0.871321 0.000000
O O16 0.728807 0.185140 0.782494
O O17 0.720392 0.061499 0.741795
O O18 0.702784 0.107172 0.000000
O O19 0.764938 0.257961 0.000000
O O20 0.271247 0.004585 0.500000
#
# Coordination Sequence:
#
# PCOD8235220 Si02
#       8
#     8   8   8   8   8   8   8   8
#     4  10  18  25  33  48  71  97 126 159 190 215
#     4   8  16  26  39  55  70  91 121 158 194 223
#     4   9  18  28  37  48  67  98 130 155 184 220
#     4   9  16  26  40  56  74  95 124 160 196 227
#     4  10  17  26  38  51  68  94 127 159 187 219
#     4   9  18  30  41  54  76 104 131 160 193 229
#     4   9  16  27  42  57  72  95 128 160 193 232
#     4  10  18  26  39  57  76 100 130 163 194 226
#
# _framework density 13.688561
#
# number of rings (size 3 to 8) (size 9 to 14) (size 15 to 20)
#    0.750    2.000    1.250    1.500    0.000    4.500 
#    0.000    0.000    0.000    0.000    0.000    0.000 
#    0.000    0.000    0.000    1.125    0.000   24.250 
#
# Total GULP energy -792852.606684 kJ/mol
# GULP energy per Si atom -12388.321979 kJ/mol
# Density = 1.365740 g / cm^3
# Si number density = 13.688561 Si / 1000 Ang^3
#
#
#
# Elastic Constant Matrix: (Units=GPa)
#
#
# Indices 1 2 3 4 5 6 
#
# 1 18.8060 34.9353 19.5300 0.0000 0.0000 0.0000
# 2 34.9353 76.2647 43.0014 0.0000 0.0000 0.0000
# 3 19.5300 43.0014 72.0914 0.0000 0.0000 0.0000
# 4 0.0000 0.0000 0.0000 19.4627 0.0000 0.0000
# 5 0.0000 0.0000 0.0000 0.0000 13.3865 0.0000
# 6 0.0000 0.0000 0.0000 0.0000 0.0000 16.5809
#
#
#
# Elastic Compliance Matrix: (Units=1/GPa)
#
#
# Indices 1 2 3 4 5 6 
#
# 1 0.356854 -0.164174 0.001254 0.000000 0.000000 0.000000
# 2 -0.164174 0.095287 -0.012361 0.000000 0.000000 0.000000
# 3 0.001254 -0.012361 0.020905 0.000000 0.000000 0.000000
# 4 0.000000 0.000000 0.000000 0.051380 0.000000 0.000000
# 5 0.000000 0.000000 0.000000 0.000000 0.074702 0.000000
# 6 0.000000 0.000000 0.000000 0.000000 0.000000 0.060310
#
#
# Mechanical properties :
#
#
# Convention : Reuss Voigt Hill
#
# Bulk Modulus (GPa) = 8.16448 40.23283 24.19865
# Shear Modulus (GPa) = 4.75815 14.53238 9.64526
#
# Velocity S-wave (km/s) = 1.86643 3.26182 2.65735
# Velocity P-wave (km/s) = 3.25916 6.60616 5.20881
#
# Compressibility (1/GPa) = 0.12248182
#
# Stress axis : x y z
#
# Youngs Moduli (GPa) = 2.80227 10.49462 47.83517
#
# Poissons Ratio (x) = 1.72295 -0.05997
# Poissons Ratio (y) = 0.46006 0.59131
# Poissons Ratio (z) = -0.00351 0.12973
#
# Static dielectric constant tensor:
#      x y z
#    x 2.612320 0.000000 0.000000 
#    y 0.000000 2.431360 0.000000 
#    z 0.000000 0.000000 2.804840 
# 
# 
# High freq. dielectric constant tensor:
#      x y z
#    x 1.490260 0.000000 0.000000 
#    y 0.000000 1.482770 0.000000 
#    z 0.000000 0.000000 1.535180 
# 
# From -- ./inp_files/10554.got.cif
#   From: 2010.06.25/outbox.cif.g09.slc.cpg/sg58_6_cif.got.tgz:10554.got - 2010.06.26 21:38:00.
