data_PCOD8235673
_publ_section_title
;
Structure prediction by ZEFSAII (Michael W. Deem and Ramdas Pophale) SiO2 
 PCOD8235673
Probable space group: P N N M
;
_chemical_formula_sum "Si O2"
_cell_formula_units_Z 48
_cell_length_a 9.771569
_cell_length_b 14.083803
_cell_length_c 18.182081
_cell_angle_alpha 90.000000
_cell_angle_beta 90.000000
_cell_angle_gamma 90.000000
_cell_volume 2502.233493
_symmetry_space_group_name_H-M "P N N M"
_symmetry_group_IT_number 58
_symmetry_cell_setting 'orthorhombic'
loop_
_space_group_symop_operation_xyz
x,y,z
-x,-y,z
1/2+x,1/2-y,1/2-z
1/2-x,1/2+y,1/2-z
-x,-y,-z
x,y,-z
1/2-x,1/2+y,1/2+z
1/2+x,1/2-y,1/2+z
loop_
_atom_site_type_symbol
_atom_site_label
_atom_site_fract_x
_atom_site_fract_y
_atom_site_fract_z
Si Si1 0.245680 0.323673 0.350349
Si Si2 0.054489 0.220536 0.865868
Si Si3 0.895332 0.580430 0.914879
Si Si4 0.308577 0.433658 0.787608
Si Si5 0.615733 0.386049 0.500000
Si Si6 0.212701 0.911990 0.000000
Si Si7 0.107303 0.148258 0.715904
O O1 0.408782 0.325822 0.352664
O O2 0.215352 0.391081 0.279190
O O3 0.205909 0.370617 0.428849
O O4 0.174447 0.218874 0.345401
O O5 0.023563 0.324778 0.895307
O O6 0.151092 0.169346 0.925588
O O7 0.134730 0.210327 0.789314
O O8 0.759665 0.577702 0.866771
O O9 0.000000 0.500000 0.891418
O O10 0.852616 0.573406 0.000000
O O11 0.448438 0.374305 0.798291
O O12 0.320877 0.546465 0.774671
O O13 0.717905 0.474637 0.500000
O O14 0.450572 0.394757 0.500000
#
# Coordination Sequence:
#
# PCOD8235673 Si02
#       7
#     8   8   8   8   4   4   8
#     4  10  19  34  56  81 115 144 183 233 280 342
#     4  10  18  32  56  81 109 144 186 234 290 332
#     4  11  22  37  57  83 115 147 191 240 284 336
#     4  10  21  38  56  83 113 150 194 233 284 342
#     4   9  16  30  51  81 107 134 182 244 287 316
#     4   9  18  30  52  84 109 141 182 231 284 333
#     4  10  20  36  57  80 113 153 189 233 283 346
#
# _framework density 19.182862
#
# number of rings (size 3 to 8) (size 9 to 14) (size 15 to 20)
#    0.000    2.000    2.500    2.000    0.000    4.000 
#    3.000    0.833    0.000    0.000    0.000    1.750 
#    0.000    0.000    0.000    0.000    0.000    0.000 
#
# Total GULP energy -594630.566167 kJ/mol
# GULP energy per Si atom -12388.136795 kJ/mol
# Density = 1.913920 g / cm^3
# Si number density = 19.182862 Si / 1000 Ang^3
#
#
#
# Elastic Constant Matrix: (Units=GPa)
#
#
# Indices 1 2 3 4 5 6 
#
# 1 34.4045 22.6724 38.0780 0.0000 0.0000 0.0000
# 2 22.6724 140.5698 58.0698 0.0000 0.0000 0.0000
# 3 38.0780 58.0698 133.8012 0.0000 0.0000 0.0000
# 4 0.0000 0.0000 0.0000 32.8799 0.0000 0.0000
# 5 0.0000 0.0000 0.0000 0.0000 -78.5477 0.0000
# 6 0.0000 0.0000 0.0000 0.0000 0.0000 22.5300
#
#
#
# Elastic Compliance Matrix: (Units=1/GPa)
#
#
# Indices 1 2 3 4 5 6 
#
# 1 0.043028 -0.002292 -0.011250 0.000000 0.000000 0.000000
# 2 -0.002292 0.008790 -0.003163 0.000000 0.000000 0.000000
# 3 -0.011250 -0.003163 0.012048 0.000000 0.000000 0.000000
# 4 0.000000 0.000000 0.000000 0.030414 0.000000 0.000000
# 5 0.000000 0.000000 0.000000 0.000000 -0.012731 0.000000
# 6 0.000000 0.000000 0.000000 0.000000 0.000000 0.044385
#
#
# Mechanical properties :
#
#
# Convention : Reuss Voigt Hill
#
# Bulk Modulus (GPa) = 32.83450 60.71289 46.77370
# Shear Modulus (GPa) = 29.49909 8.03614 18.76761
#
# Velocity S-wave (km/s) = 3.92571 2.04898 3.13126
# Velocity P-wave (km/s) = 6.14020 6.10868 6.12446
#
# Compressibility (1/GPa) = 0.03045577
#
# Stress axis : x y z
#
# Youngs Moduli (GPa) = 23.24052 113.76443 83.00134
#
# Poissons Ratio (x) = 0.26080 0.93379
# Poissons Ratio (y) = 0.05328 0.26249
# Poissons Ratio (z) = 0.26146 0.35978
#
# Static dielectric constant tensor:
#      x y z
#    x 3.026800 0.000000 0.000000 
#    y 0.000000 3.666730 0.000000 
#    z 0.000000 0.000000 3.826980 
# 
# 
# High freq. dielectric constant tensor:
#      x y z
#    x 1.697360 0.000000 0.000000 
#    y 0.000000 1.761480 0.000000 
#    z 0.000000 0.000000 1.759380 
# 
# From -- ./inp_files/25323.got.cif
#   From: 2010.06.25/outbox.cif.g09.slc.cpg/sg58_13_cif.got.tgz:25323.got - 2010.06.26 21:38:00.
