data_PCOD8235296
_publ_section_title
;
Structure prediction by ZEFSAII (Michael W. Deem and Ramdas Pophale) SiO2 
 PCOD8235296
Probable space group: P N N M
;
_chemical_formula_sum "Si O2"
_cell_formula_units_Z 64
_cell_length_a 12.021606
_cell_length_b 30.955518
_cell_length_c 8.382325
_cell_angle_alpha 90.000000
_cell_angle_beta 90.000000
_cell_angle_gamma 90.000000
_cell_volume 3119.356857
_symmetry_space_group_name_H-M "P N N M"
_symmetry_group_IT_number 58
_symmetry_cell_setting 'orthorhombic'
loop_
_space_group_symop_operation_xyz
x,y,z
-x,-y,z
1/2+x,1/2-y,1/2-z
1/2-x,1/2+y,1/2-z
-x,-y,-z
x,y,-z
1/2-x,1/2+y,1/2+z
1/2+x,1/2-y,1/2+z
loop_
_atom_site_type_symbol
_atom_site_label
_atom_site_fract_x
_atom_site_fract_y
_atom_site_fract_z
Si Si1 0.710653 0.704960 0.185066
Si Si2 0.262602 0.550992 0.809853
Si Si3 0.387317 0.128634 0.689874
Si Si4 0.768404 0.794446 0.315738
Si Si5 0.491433 0.673788 0.682244
Si Si6 0.267529 0.456234 0.813096
Si Si7 0.998306 0.082405 0.313408
Si Si8 0.361840 0.873682 0.690424
O O1 0.765878 0.751423 0.210449
O O2 0.594959 0.704900 0.280306
O O3 0.793702 0.668000 0.251241
O O4 0.686333 0.696764 0.000000
O O5 0.175456 0.586078 0.742213
O O6 0.231091 0.503133 0.744215
O O7 0.386436 0.562613 0.750507
O O8 0.261794 0.550594 0.000000
O O9 0.385354 0.126720 0.500000
O O10 0.324000 0.171719 0.747703
O O11 0.512558 0.129335 0.757224
O O12 0.747933 0.783016 0.500000
O O13 0.888861 0.815678 0.297023
O O14 0.454923 0.680194 0.500000
O O15 0.530767 0.625313 0.716090
O O16 0.398630 0.450778 0.777841
O O17 0.194557 0.417278 0.738571
O O18 0.245258 0.455477 0.000000
O O19 0.004186 0.094072 0.500000
O O20 0.363016 0.874356 0.500000
#
# Coordination Sequence:
#
# PCOD8235296 Si02
#       8
#     8   8   8   8   8   8   8   8
#     4  11  23  40  61  87 119 154 193 240 297 353
#     4   9  16  27  49  81 114 149 189 235 291 354
#     4   9  18  32  51  79 116 151 185 234 289 344
#     4  11  23  40  61  87 119 154 193 240 297 353
#     4  12  24  39  61  87 116 154 199 245 294 349
#     4   9  16  27  49  81 114 149 189 235 291 354
#     4  10  17  32  54  82 116 150 190 243 297 345
#     4   9  18  32  51  79 116 151 185 234 289 344
#
# _framework density 20.517047999999999
#
# number of rings (size 3 to 8) (size 9 to 14) (size 15 to 20)
#    0.000    2.000    2.500    2.250    1.750    2.000 
#    0.000    2.500    0.000    1.500    0.000    0.000 
#    0.000    2.000    0.000    0.000    0.000    0.000 
#
# Total GULP energy -793633.214972 kJ/mol
# GULP energy per Si atom -12400.518984 kJ/mol
# Density = 2.047035 g / cm^3
# Si number density = 20.517048 Si / 1000 Ang^3
#
#
#
# Elastic Constant Matrix: (Units=GPa)
#
#
# Indices 1 2 3 4 5 6 
#
# 1 148.3856 59.5004 12.4330 0.0000 0.0000 0.0000
# 2 59.5004 154.4853 14.3362 0.0000 0.0000 0.0000
# 3 12.4330 14.3362 28.0290 0.0000 0.0000 0.0000
# 4 0.0000 0.0000 0.0000 18.1038 0.0000 0.0000
# 5 0.0000 0.0000 0.0000 0.0000 12.3823 0.0000
# 6 0.0000 0.0000 0.0000 0.0000 0.0000 26.9118
#
#
#
# Elastic Compliance Matrix: (Units=1/GPa)
#
#
# Indices 1 2 3 4 5 6 
#
# 1 0.008085 -0.002920 -0.002093 0.000000 0.000000 0.000000
# 2 -0.002920 0.007850 -0.002720 0.000000 0.000000 0.000000
# 3 -0.002093 -0.002720 0.037997 0.000000 0.000000 0.000000
# 4 0.000000 0.000000 0.000000 0.055237 0.000000 0.000000
# 5 0.000000 0.000000 0.000000 0.000000 0.080760 0.000000
# 6 0.000000 0.000000 0.000000 0.000000 0.000000 0.037158
#
#
# Mechanical properties :
#
#
# Convention : Reuss Voigt Hill
#
# Bulk Modulus (GPa) = 25.99652 55.93766 40.96709
# Shear Modulus (GPa) = 19.57895 27.78827 23.68361
#
# Velocity S-wave (km/s) = 3.09249 3.68421 3.40124
# Velocity P-wave (km/s) = 5.04475 6.73951 5.95275
#
# Compressibility (1/GPa) = 0.03846669
#
# Stress axis : x y z
#
# Youngs Moduli (GPa) = 123.67973 127.38669 26.31791
#
# Poissons Ratio (x) = 0.37195 0.05508
# Poissons Ratio (y) = 0.36113 0.07158
# Poissons Ratio (z) = 0.25887 0.34649
#
# Static dielectric constant tensor:
#      x y z
#    x 3.840560 0.000000 0.000000 
#    y 0.000000 3.937490 0.000000 
#    z 0.000000 0.000000 3.079300 
# 
# 
# High freq. dielectric constant tensor:
#      x y z
#    x 1.806940 0.000000 0.000000 
#    y 0.000000 1.815010 0.000000 
#    z 0.000000 0.000000 1.743570 
# 
# From -- ./inp_files/4820.got.cif
#   From: 2010.06.25/outbox.cif.g09.slc.cpg/sg58_3_cif.got.tgz:4820.got - 2010.06.26 21:38:00.
