data_PCOD8235283
_publ_section_title
;
Structure prediction by ZEFSAII (Michael W. Deem and Ramdas Pophale) SiO2 
 PCOD8235283
Probable space group: P N N M
;
_chemical_formula_sum "Si O2"
_cell_formula_units_Z 56
_cell_length_a 14.992841
_cell_length_b 21.168907
_cell_length_c 8.876019
_cell_angle_alpha 90.000000
_cell_angle_beta 90.000000
_cell_angle_gamma 90.000000
_cell_volume 2817.089166
_symmetry_space_group_name_H-M "P N N M"
_symmetry_group_IT_number 58
_symmetry_cell_setting 'orthorhombic'
loop_
_space_group_symop_operation_xyz
x,y,z
-x,-y,z
1/2+x,1/2-y,1/2-z
1/2-x,1/2+y,1/2-z
-x,-y,-z
x,y,-z
1/2-x,1/2+y,1/2+z
1/2+x,1/2-y,1/2+z
loop_
_atom_site_type_symbol
_atom_site_label
_atom_site_fract_x
_atom_site_fract_y
_atom_site_fract_z
Si Si1 0.483162 0.235274 0.825234
Si Si2 0.747386 0.100606 0.172968
Si Si3 0.566137 0.647015 0.333075
Si Si4 0.313065 0.764892 0.820765
Si Si5 0.071017 0.045465 0.170441
Si Si6 0.667319 0.838151 0.678166
Si Si7 0.267174 0.037360 0.819634
O O1 0.429424 0.299619 0.793601
O O2 0.584855 0.245287 0.768393
O O3 0.431212 0.181784 0.732616
O O4 0.479937 0.217683 0.000000
O O5 0.854798 0.096372 0.195299
O O6 0.713519 0.166061 0.248159
O O7 0.705255 0.034277 0.233478
O O8 0.720026 0.104396 0.000000
O O9 0.581039 0.677699 0.500000
O O10 0.469578 0.615348 0.326354
O O11 0.245728 0.709670 0.760726
O O12 0.305459 0.765162 0.000000
O O13 0.167422 0.048234 0.245884
O O14 0.083755 0.019635 0.000000
O O15 0.000000 0.000000 0.255739
O O16 0.670334 0.841183 0.500000
O O17 0.674423 0.908964 0.742671
O O18 0.272695 0.044589 0.000000
#
# Coordination Sequence:
#
# PCOD8235283 Si02
#       7
#     8   8   8   8   8   8   8
#     4  11  22  36  56  82 109 138 185 241 280 320
#     4   9  16  31  56  80 105 145 187 220 263 327
#     4  10  17  30  54  79 108 145 181 218 274 338
#     4   9  19  36  58  81 107 146 191 228 270 330
#     4   9  15  25  47  81 112 141 179 223 268 326
#     4  11  22  39  60  81 113 151 184 224 283 344
#     4  10  19  32  54  83 114 144 184 234 277 323
#
# _framework density 19.878674
#
# number of rings (size 3 to 8) (size 9 to 14) (size 15 to 20)
#    0.000    2.143    2.857    1.714    0.000    0.000 
#    0.000    3.571    0.000    5.143    0.000    0.000 
#    0.000    0.000    0.000    0.000    0.000    0.000 
#
# Total GULP energy -693779.852028 kJ/mol
# GULP energy per Si atom -12388.925929 kJ/mol
# Density = 1.983343 g / cm^3
# Si number density = 19.878674 Si / 1000 Ang^3
#
#
#
# Elastic Constant Matrix: (Units=GPa)
#
#
# Indices 1 2 3 4 5 6 
#
# 1 56.1354 17.3932 14.0730 0.0000 0.0000 0.0000
# 2 17.3932 126.3668 23.2032 0.0000 0.0000 0.0000
# 3 14.0730 23.2032 35.6489 0.0000 0.0000 0.0000
# 4 0.0000 0.0000 0.0000 25.8090 0.0000 0.0000
# 5 0.0000 0.0000 0.0000 0.0000 17.3173 0.0000
# 6 0.0000 0.0000 0.0000 0.0000 0.0000 27.5568
#
#
#
# Elastic Compliance Matrix: (Units=1/GPa)
#
#
# Indices 1 2 3 4 5 6 
#
# 1 0.020012 -0.001481 -0.006936 0.000000 0.000000 0.000000
# 2 -0.001481 0.009097 -0.005337 0.000000 0.000000 0.000000
# 3 -0.006936 -0.005337 0.034263 0.000000 0.000000 0.000000
# 4 0.000000 0.000000 0.000000 0.038746 0.000000 0.000000
# 5 0.000000 0.000000 0.000000 0.000000 0.057746 0.000000
# 6 0.000000 0.000000 0.000000 0.000000 0.000000 0.036289
#
#
# Mechanical properties :
#
#
# Convention : Reuss Voigt Hill
#
# Bulk Modulus (GPa) = 27.88246 36.38777 32.13511
# Shear Modulus (GPa) = 21.22111 25.03541 23.12826
#
# Velocity S-wave (km/s) = 3.27085 3.55267 3.41467
# Velocity P-wave (km/s) = 5.32179 5.93071 5.63448
#
# Compressibility (1/GPa) = 0.03586485
#
# Stress axis : x y z
#
# Youngs Moduli (GPa) = 49.97058 109.92396 29.18599
#
# Poissons Ratio (x) = 0.16278 0.20244
# Poissons Ratio (y) = 0.07400 0.15575
# Poissons Ratio (z) = 0.34660 0.58662
#
# Static dielectric constant tensor:
#      x y z
#    x 3.666900 0.000000 0.000000 
#    y 0.000000 3.811910 0.000000 
#    z 0.000000 0.000000 3.067460 
# 
# 
# High freq. dielectric constant tensor:
#      x y z
#    x 1.765780 0.000000 0.000000 
#    y 0.000000 1.786470 0.000000 
#    z 0.000000 0.000000 1.715420 
# 
# From -- ./inp_files/6298.got.cif
#   From: 2010.06.25/outbox.cif.g09.slc.cpg/sg58_4_cif.got.tgz:6298.got - 2010.06.26 21:38:00.
