data_PCOD8235508
_publ_section_title
;
Structure prediction by ZEFSAII (Michael W. Deem and Ramdas Pophale) SiO2 
 PCOD8235508
Probable space group: P N N M
;
_chemical_formula_sum "Si O2"
_cell_formula_units_Z 52
_cell_length_a 26.113841
_cell_length_b 10.188518
_cell_length_c 9.776162
_cell_angle_alpha 90.000000
_cell_angle_beta 90.000000
_cell_angle_gamma 90.000000
_cell_volume 2601.058753
_symmetry_space_group_name_H-M "P N N M"
_symmetry_group_IT_number 58
_symmetry_cell_setting 'orthorhombic'
loop_
_space_group_symop_operation_xyz
x,y,z
-x,-y,z
1/2+x,1/2-y,1/2-z
1/2-x,1/2+y,1/2-z
-x,-y,-z
x,y,-z
1/2-x,1/2+y,1/2+z
1/2+x,1/2-y,1/2+z
loop_
_atom_site_type_symbol
_atom_site_label
_atom_site_fract_x
_atom_site_fract_y
_atom_site_fract_z
Si Si1 0.107102 0.912055 0.347470
Si Si2 0.000000 0.000000 0.751257
Si Si3 0.212056 0.027640 0.656856
Si Si4 0.725430 0.230683 0.660930
Si Si5 0.482076 0.779944 0.653499
Si Si6 0.120828 0.390917 0.161386
Si Si7 0.907222 0.324102 0.838966
O O1 0.114574 0.854875 0.500000
O O2 0.117970 0.796493 0.240133
O O3 0.050215 0.972692 0.339809
O O4 0.150519 0.022471 0.319841
O O5 0.986930 0.877086 0.846471
O O6 0.226083 0.063254 0.500000
O O7 0.237854 0.137109 0.754252
O O8 0.233697 0.883065 0.692751
O O9 0.724326 0.265086 0.500000
O O10 0.670848 0.179956 0.718829
O O11 0.477146 0.831626 0.500000
O O12 0.430622 0.829052 0.730393
O O13 0.534034 0.842879 0.714924
O O14 0.124204 0.545275 0.196004
O O15 0.119775 0.369420 0.000000
O O16 0.907043 0.290439 0.000000
#
# Coordination Sequence:
#
# PCOD8235508 Si02
#       7
#     8   4   8   8   8   8   8
#     4  10  21  36  53  76 110 145 180 223 273 324
#     4  10  18  30  52  74 101 146 185 214 265 332
#     4  10  23  41  59  84 116 148 185 234 283 330
#     4  10  22  39  60  84 110 145 188 231 278 331
#     4   9  16  27  47  78 111 136 170 222 272 320
#     4   9  17  31  52  77 108 140 176 223 274 325
#     4   9  18  31  52  81 107 140 179 220 270 324
#
# _framework density 19.991861
#
# number of rings (size 3 to 8) (size 9 to 14) (size 15 to 20)
#    0.000    2.462    0.000    1.846    2.154    3.692 
#    0.000    0.769    0.000    8.308    0.000    0.000 
#    0.000    0.000    0.000    0.000    0.000    0.000 
#
# Total GULP energy -644516.140306 kJ/mol
# GULP energy per Si atom -12394.541160 kJ/mol
# Density = 1.994636 g / cm^3
# Si number density = 19.991861 Si / 1000 Ang^3
#
#
#
# Elastic Constant Matrix: (Units=GPa)
#
#
# Indices 1 2 3 4 5 6 
#
# 1 76.9003 36.2049 29.4768 0.0000 0.0000 0.0000
# 2 36.2049 99.8360 44.8829 0.0000 0.0000 0.0000
# 3 29.4768 44.8829 63.1128 0.0000 0.0000 0.0000
# 4 0.0000 0.0000 0.0000 27.2973 0.0000 0.0000
# 5 0.0000 0.0000 0.0000 0.0000 19.9399 0.0000
# 6 0.0000 0.0000 0.0000 0.0000 0.0000 29.3738
#
#
#
# Elastic Compliance Matrix: (Units=1/GPa)
#
#
# Indices 1 2 3 4 5 6 
#
# 1 0.016747 -0.003758 -0.005149 0.000000 0.000000 0.000000
# 2 -0.003758 0.015567 -0.009315 0.000000 0.000000 0.000000
# 3 -0.005149 -0.009315 0.024874 0.000000 0.000000 0.000000
# 4 0.000000 0.000000 0.000000 0.036634 0.000000 0.000000
# 5 0.000000 0.000000 0.000000 0.000000 0.050151 0.000000
# 6 0.000000 0.000000 0.000000 0.000000 0.000000 0.034044
#
#
# Mechanical properties :
#
#
# Convention : Reuss Voigt Hill
#
# Bulk Modulus (GPa) = 48.20896 51.21983 49.71440
# Shear Modulus (GPa) = 22.58601 23.94118 23.26359
#
# Velocity S-wave (km/s) = 3.36484 3.46431 3.41494
# Velocity P-wave (km/s) = 6.26600 6.45584 6.36163
#
# Compressibility (1/GPa) = 0.02074303
#
# Stress axis : x y z
#
# Youngs Moduli (GPa) = 59.71241 64.23736 40.20253
#
# Poissons Ratio (x) = 0.24143 0.20700
# Poissons Ratio (y) = 0.22443 0.37450
# Poissons Ratio (z) = 0.30745 0.59839
#
# Static dielectric constant tensor:
#      x y z
#    x 3.964190 0.000000 0.000000 
#    y 0.000000 3.514870 0.000000 
#    z 0.000000 0.000000 3.215040 
# 
# 
# High freq. dielectric constant tensor:
#      x y z
#    x 1.795330 0.000000 0.000000 
#    y 0.000000 1.777190 0.000000 
#    z 0.000000 0.000000 1.735740 
# 
# From -- ./inp_files/10384.got.cif
#   From: 2010.06.25/outbox.cif.g09.slc.cpg/sg58_6_cif.got.tgz:10384.got - 2010.06.26 21:38:00.
