data_PCOD8235035
_publ_section_title
;
Structure prediction by ZEFSAII (Michael W. Deem and Ramdas Pophale) SiO2 
 PCOD8235035
Probable space group: P B C M
;
_chemical_formula_sum "Si O2"
_cell_formula_units_Z 48
_cell_length_a 14.326621
_cell_length_b 20.302815
_cell_length_c 8.643982
_cell_angle_alpha 90.000000
_cell_angle_beta 90.000000
_cell_angle_gamma 90.000000
_cell_volume 2514.281404
_symmetry_space_group_name_H-M "P B C M"
_symmetry_group_IT_number 57
_symmetry_cell_setting 'orthorhombic'
loop_
_space_group_symop_operation_xyz
x,y,z
-x,-y,1/2+z
x,1/2-y,-z
-x,1/2+y,1/2-z
-x,-y,-z
x,y,1/2-z
-x,1/2+y,z
x,1/2-y,1/2+z
loop_
_atom_site_type_symbol
_atom_site_label
_atom_site_fract_x
_atom_site_fract_y
_atom_site_fract_z
Si Si1 0.756628 0.015149 0.571773
Si Si2 0.932609 0.817958 0.931151
Si Si3 0.060097 0.941222 0.931043
Si Si4 0.448458 0.937895 0.428451
Si Si5 0.443231 0.320424 0.568002
Si Si6 0.746284 0.626710 0.569001
O O1 0.771675 0.994568 0.750000
O O2 0.839935 0.061850 0.514552
O O3 0.661994 0.055558 0.549072
O O4 0.756498 0.949763 0.469785
O O5 0.911888 0.812215 0.750000
O O6 0.009762 0.872733 0.966713
O O7 0.972310 0.750000 0.000000
O O8 0.837387 0.834166 0.018622
O O9 0.073557 0.953422 0.750000
O O10 0.000000 0.000000 0.000000
O O11 0.477270 0.933764 0.250000
O O12 0.479085 0.871724 0.512746
O O13 0.500000 0.000000 0.500000
O O14 0.469818 0.250000 0.500000
O O15 0.446178 0.316122 0.750000
O O16 0.340972 0.342733 0.518573
O O17 0.730129 0.635665 0.750000
#
# Coordination Sequence:
#
# PCOD8235035 Si02
#       6
#     8   8   8   8   8   8
#     4  11  23  39  62  93 126 158 204 255 304 362
#     4  11  24  41  61  89 125 162 205 251 306 366
#     4  11  23  39  63  90 122 162 206 253 304 363
#     4  11  23  40  64  92 124 164 206 254 307 365
#     4  12  25  42  63  90 127 165 207 257 310 372
#     4  12  23  37  62  92 126 163 202 250 310 371
#
# _framework density 19.090941999999998
#
# number of rings (size 3 to 8) (size 9 to 14) (size 15 to 20)
#    0.000    0.667    3.333    5.500    0.000    4.000 
#    0.000    0.833    0.000    2.000    0.000    0.000 
#    0.000    0.000    0.000    0.000    0.000    0.000 
#
# Total GULP energy -595556.862489 kJ/mol
# GULP energy per Si atom -12407.434635 kJ/mol
# Density = 1.904749 g / cm^3
# Si number density = 19.090942 Si / 1000 Ang^3
#
#
#
# Elastic Constant Matrix: (Units=GPa)
#
#
# Indices 1 2 3 4 5 6 
#
# 1 120.7827 60.7784 63.3983 0.0000 0.0000 0.0000
# 2 60.7784 143.7052 56.9430 0.0000 0.0000 0.0000
# 3 63.3983 56.9430 131.8899 0.0000 0.0000 0.0000
# 4 0.0000 0.0000 0.0000 35.0161 0.0000 0.0000
# 5 0.0000 0.0000 0.0000 0.0000 30.1032 0.0000
# 6 0.0000 0.0000 0.0000 0.0000 0.0000 32.8290
#
#
#
# Elastic Compliance Matrix: (Units=1/GPa)
#
#
# Indices 1 2 3 4 5 6 
#
# 1 0.012355 -0.003465 -0.004443 0.000000 0.000000 0.000000
# 2 -0.003465 0.009367 -0.002378 0.000000 0.000000 0.000000
# 3 -0.004443 -0.002378 0.010745 0.000000 0.000000 0.000000
# 4 0.000000 0.000000 0.000000 0.028558 0.000000 0.000000
# 5 0.000000 0.000000 0.000000 0.000000 0.033219 0.000000
# 6 0.000000 0.000000 0.000000 0.000000 0.000000 0.030461
#
#
# Mechanical properties :
#
#
# Convention : Reuss Voigt Hill
#
# Bulk Modulus (GPa) = 84.07871 84.29078 84.18474
# Shear Modulus (GPa) = 33.50275 33.94022 33.72149
#
# Velocity S-wave (km/s) = 4.19370 4.22099 4.20737
# Velocity P-wave (km/s) = 8.22109 8.24644 8.23377
#
# Compressibility (1/GPa) = 0.01189362
#
# Stress axis : x y z
#
# Youngs Moduli (GPa) = 80.93919 106.76263 93.06944
#
# Poissons Ratio (x) = 0.36992 0.41350
# Poissons Ratio (y) = 0.28044 0.22136
# Poissons Ratio (z) = 0.35961 0.25393
#
# Static dielectric constant tensor:
#      x y z
#    x 3.707540 0.000000 0.000000 
#    y 0.000000 3.428250 0.000000 
#    z 0.000000 0.000000 3.753080 
# 
# 
# High freq. dielectric constant tensor:
#      x y z
#    x 1.746050 0.000000 0.000000 
#    y 0.000000 1.743920 0.000000 
#    z 0.000000 0.000000 1.765510 
# 
# From -- ./inp_files/4667.got.cif
#   From: 2010.03.12/outbox.cif.g09.slc.cpg/sg57_3_cif.got.tgz:4667.got - 2010.04.16 15:48:40.
