data_PCOD8235597
_publ_section_title
;
Structure prediction by ZEFSAII (Michael W. Deem and Ramdas Pophale) SiO2 
 PCOD8235597
Probable space group: P N N M
;
_chemical_formula_sum "Si O2"
_cell_formula_units_Z 52
_cell_length_a 8.893594
_cell_length_b 21.396251
_cell_length_c 14.410261
_cell_angle_alpha 90.000000
_cell_angle_beta 90.000000
_cell_angle_gamma 90.000000
_cell_volume 2742.122362
_symmetry_space_group_name_H-M "P N N M"
_symmetry_group_IT_number 58
_symmetry_cell_setting 'orthorhombic'
loop_
_space_group_symop_operation_xyz
x,y,z
-x,-y,z
1/2+x,1/2-y,1/2-z
1/2-x,1/2+y,1/2-z
-x,-y,-z
x,y,-z
1/2-x,1/2+y,1/2+z
1/2+x,1/2-y,1/2+z
loop_
_atom_site_type_symbol
_atom_site_label
_atom_site_fract_x
_atom_site_fract_y
_atom_site_fract_z
Si Si1 0.519920 0.748008 0.101619
Si Si2 0.197926 0.108249 0.247716
Si Si3 0.691941 0.803525 0.395801
Si Si4 0.941516 0.394191 0.395950
Si Si5 0.276894 0.411205 0.392581
Si Si6 0.000000 0.000000 0.795258
Si Si7 0.060750 0.804297 0.208638
O O1 0.341959 0.737434 0.104809
O O2 0.545546 0.820480 0.118755
O O3 0.600277 0.708261 0.182704
O O4 0.582432 0.727362 0.000000
O O5 0.281073 0.131384 0.340855
O O6 0.318120 0.080510 0.175412
O O7 0.080376 0.052043 0.269904
O O8 0.106286 0.165912 0.200616
O O9 0.640764 0.820695 0.500000
O O10 0.562811 0.761438 0.347019
O O11 0.887360 0.410435 0.500000
O O12 0.101529 0.427295 0.376667
O O13 0.307847 0.394757 0.500000
O O14 0.376242 0.469718 0.362319
O O15 0.315434 0.350790 0.331470
#
# Coordination Sequence:
#
# PCOD8235597 Si02
#       7
#     8   8   8   8   8   4   8
#     4   9  17  30  49  76 111 143 174 214 263 328
#     4  10  22  36  53  80 113 144 185 225 271 323
#     4  10  18  32  55  81 109 142 180 222 278 330
#     4  10  19  32  52  78 109 144 177 216 272 327
#     4  10  20  35  57  80 110 149 186 226 271 323
#     4  10  23  40  55  76 106 146 193 234 269 320
#     4  10  18  31  55  80 110 145 176 220 273 326
#
# _framework density 18.963412000000002
#
# number of rings (size 3 to 8) (size 9 to 14) (size 15 to 20)
#    0.000    2.154    3.077    0.692    0.000    4.308 
#    0.000    1.923    0.000    0.923    0.000    1.077 
#    0.000    0.000    0.000    0.000    0.000    0.000 
#
# Total GULP energy -644643.147322 kJ/mol
# GULP energy per Si atom -12396.983602 kJ/mol
# Density = 1.892025 g / cm^3
# Si number density = 18.963412 Si / 1000 Ang^3
#
#
#
# Elastic Constant Matrix: (Units=GPa)
#
#
# Indices 1 2 3 4 5 6 
#
# 1 64.2535 37.8885 45.4330 0.0000 0.0000 0.0000
# 2 37.8885 79.9153 47.8469 0.0000 0.0000 0.0000
# 3 45.4330 47.8469 125.6227 0.0000 0.0000 0.0000
# 4 0.0000 0.0000 0.0000 17.5180 0.0000 0.0000
# 5 0.0000 0.0000 0.0000 0.0000 25.5586 0.0000
# 6 0.0000 0.0000 0.0000 0.0000 0.0000 31.3498
#
#
#
# Elastic Compliance Matrix: (Units=1/GPa)
#
#
# Indices 1 2 3 4 5 6 
#
# 1 0.024418 -0.008147 -0.005728 0.000000 0.000000 0.000000
# 2 -0.008147 0.018928 -0.004263 0.000000 0.000000 0.000000
# 3 -0.005728 -0.004263 0.011655 0.000000 0.000000 0.000000
# 4 0.000000 0.000000 0.000000 0.057084 0.000000 0.000000
# 5 0.000000 0.000000 0.000000 0.000000 0.039126 0.000000
# 6 0.000000 0.000000 0.000000 0.000000 0.000000 0.031898
#
#
# Mechanical properties :
#
#
# Convention : Reuss Voigt Hill
#
# Bulk Modulus (GPa) = 53.40288 59.12537 56.26413
# Shear Modulus (GPa) = 22.16051 24.12683 23.14367
#
# Velocity S-wave (km/s) = 3.42218 3.57078 3.49727
# Velocity P-wave (km/s) = 6.62097 6.94600 6.78543
#
# Compressibility (1/GPa) = 0.01872558
#
# Stress axis : x y z
#
# Youngs Moduli (GPa) = 40.95401 52.83145 85.79660
#
# Poissons Ratio (x) = 0.43043 0.49143
# Poissons Ratio (y) = 0.33366 0.36573
# Poissons Ratio (z) = 0.23458 0.22521
#
# Static dielectric constant tensor:
#      x y z
#    x 3.420520 0.000000 0.000000 
#    y 0.000000 3.359430 0.000000 
#    z 0.000000 0.000000 3.592310 
# 
# 
# High freq. dielectric constant tensor:
#      x y z
#    x 1.726980 0.000000 0.000000 
#    y 0.000000 1.724050 0.000000 
#    z 0.000000 0.000000 1.725350 
# 
# From -- ./inp_files/20052.got.cif
#   From: 2010.06.25/outbox.cif.g09.slc.cpg/sg58_11_cif.got.tgz:20052.got - 2010.06.26 21:38:00.
