data_PCOD8235449
_publ_section_title
;
Structure prediction by ZEFSAII (Michael W. Deem and Ramdas Pophale) SiO2 
 PCOD8235449
Probable space group: P N N M
;
_chemical_formula_sum "Si O2"
_cell_formula_units_Z 56
_cell_length_a 16.157630
_cell_length_b 5.145203
_cell_length_c 34.085202
_cell_angle_alpha 90.000000
_cell_angle_beta 90.000000
_cell_angle_gamma 90.000000
_cell_volume 2833.648943
_symmetry_space_group_name_H-M "P N N M"
_symmetry_group_IT_number 58
_symmetry_cell_setting 'orthorhombic'
loop_
_space_group_symop_operation_xyz
x,y,z
-x,-y,z
1/2+x,1/2-y,1/2-z
1/2-x,1/2+y,1/2-z
-x,-y,-z
x,y,-z
1/2-x,1/2+y,1/2+z
1/2+x,1/2-y,1/2+z
loop_
_atom_site_type_symbol
_atom_site_label
_atom_site_fract_x
_atom_site_fract_y
_atom_site_fract_z
Si Si1 0.591685 0.393395 0.421340
Si Si2 0.714672 0.414829 0.885661
Si Si3 0.030419 0.247399 0.386916
Si Si4 0.329689 0.100981 0.454718
Si Si5 0.732646 0.774636 0.226078
Si Si6 0.456603 0.249642 0.800109
Si Si7 0.210873 0.088689 0.146128
O O1 0.500000 0.500000 0.418024
O O2 0.640940 0.606978 0.446303
O O3 0.626497 0.349178 0.377299
O O4 0.600669 0.114642 0.443088
O O5 0.627209 0.274562 0.880414
O O6 0.744648 0.440999 0.930630
O O7 0.718176 0.704838 0.867841
O O8 0.771826 0.214777 0.861642
O O9 0.000000 0.500000 0.410820
O O10 0.975986 0.249822 0.346656
O O11 0.000000 0.000000 0.412015
O O12 0.307536 0.071600 0.500000
O O13 0.762755 0.492436 0.240251
O O14 0.640867 0.753682 0.208107
O O15 0.797464 0.868321 0.192623
O O16 0.500000 0.500000 0.780418
O O17 0.500000 0.000000 0.780435
#
# Coordination Sequence:
#
# PCOD8235449 Si02
#       7
#     8   8   8   8   8   8   8
#     4  10  21  36  57  82 111 151 195 234 272 325
#     4  10  19  35  58  82 110 144 184 225 271 331
#     4  10  18  29  52  81 102 130 174 225 266 307
#     4  10  21  35  56  86 117 149 182 226 283 333
#     4  12  24  38  57  84 115 148 185 236 296 347
#     4  10  19  34  55  78 104 134 178 231 275 322
#     4  10  20  37  56  77 108 148 190 229 274 334
#
# _framework density 19.762504
#
# number of rings (size 3 to 8) (size 9 to 14) (size 15 to 20)
#    0.000    1.714    0.000    6.857    0.000    1.714 
#    0.000    2.143    0.000    2.571    0.000    0.000 
#    0.000    0.000    0.000    0.000    0.000    0.000 
#
# Total GULP energy -693850.340462 kJ/mol
# GULP energy per Si atom -12390.184651 kJ/mol
# Density = 1.971752 g / cm^3
# Si number density = 19.762504 Si / 1000 Ang^3
#
#
#
# Elastic Constant Matrix: (Units=GPa)
#
#
# Indices 1 2 3 4 5 6 
#
# 1 84.2137 16.9048 33.1989 0.0000 0.0000 0.0000
# 2 16.9048 136.5434 16.9020 0.0000 0.0000 0.0000
# 3 33.1989 16.9020 94.4203 0.0000 0.0000 0.0000
# 4 0.0000 0.0000 0.0000 17.1515 0.0000 0.0000
# 5 0.0000 0.0000 0.0000 0.0000 17.2385 0.0000
# 6 0.0000 0.0000 0.0000 0.0000 0.0000 35.4535
#
#
#
# Elastic Compliance Matrix: (Units=1/GPa)
#
#
# Indices 1 2 3 4 5 6 
#
# 1 0.013959 -0.001146 -0.004703 0.000000 0.000000 0.000000
# 2 -0.001146 0.007584 -0.000955 0.000000 0.000000 0.000000
# 3 -0.004703 -0.000955 0.012415 0.000000 0.000000 0.000000
# 4 0.000000 0.000000 0.000000 0.058304 0.000000 0.000000
# 5 0.000000 0.000000 0.000000 0.000000 0.058010 0.000000
# 6 0.000000 0.000000 0.000000 0.000000 0.000000 0.028206
#
#
# Mechanical properties :
#
#
# Convention : Reuss Voigt Hill
#
# Bulk Modulus (GPa) = 49.13803 49.90986 49.52395
# Shear Modulus (GPa) = 25.14233 30.51347 27.82790
#
# Velocity S-wave (km/s) = 3.57069 3.93365 3.75656
# Velocity P-wave (km/s) = 6.47442 6.77799 6.62794
#
# Compressibility (1/GPa) = 0.02035083
#
# Stress axis : x y z
#
# Youngs Moduli (GPa) = 71.64076 131.86131 80.54537
#
# Poissons Ratio (x) = 0.15111 0.37879
# Poissons Ratio (y) = 0.08210 0.07689
# Poissons Ratio (z) = 0.33691 0.12587
#
# Static dielectric constant tensor:
#      x y z
#    x 3.437640 0.000000 0.000000 
#    y 0.000000 6.610440 0.000000 
#    z 0.000000 0.000000 3.364370 
# 
# 
# High freq. dielectric constant tensor:
#      x y z
#    x 1.754560 0.000000 0.000000 
#    y 0.000000 1.809670 0.000000 
#    z 0.000000 0.000000 1.729080 
# 
# From -- ./inp_files/35020.got.cif
#   From: 2010.06.25/outbox.cif.g09.slc.cpg/sg58_18_cif.got.tgz:35020.got - 2010.06.26 21:38:00.
