data_PCOD8235626
_publ_section_title
;
Structure prediction by ZEFSAII (Michael W. Deem and Ramdas Pophale) SiO2 
 PCOD8235626
Probable space group: P N N M
;
_chemical_formula_sum "Si O2"
_cell_formula_units_Z 64
_cell_length_a 19.977277
_cell_length_b 20.056811
_cell_length_c 9.341616
_cell_angle_alpha 90.000000
_cell_angle_beta 90.000000
_cell_angle_gamma 90.000000
_cell_volume 3743.003081
_symmetry_space_group_name_H-M "P N N M"
_symmetry_group_IT_number 58
_symmetry_cell_setting 'orthorhombic'
loop_
_space_group_symop_operation_xyz
x,y,z
-x,-y,z
1/2+x,1/2-y,1/2-z
1/2-x,1/2+y,1/2-z
-x,-y,-z
x,y,-z
1/2-x,1/2+y,1/2+z
1/2+x,1/2-y,1/2+z
loop_
_atom_site_type_symbol
_atom_site_label
_atom_site_fract_x
_atom_site_fract_y
_atom_site_fract_z
Si Si1 0.421399 0.326227 0.832245
Si Si2 0.695708 0.580662 0.835904
Si Si3 0.516577 0.424474 0.334381
Si Si4 0.471407 0.927252 0.831506
Si Si5 0.661965 0.453090 0.336533
Si Si6 0.307001 0.081064 0.166090
Si Si7 0.080852 0.677995 0.331777
Si Si8 0.342223 0.950147 0.331424
O O1 0.345914 0.352389 0.802634
O O2 0.475882 0.372416 0.758446
O O3 0.426169 0.251864 0.765318
O O4 0.437341 0.326690 0.000000
O O5 0.661958 0.520984 0.750641
O O6 0.774009 0.590953 0.797246
O O7 0.689404 0.559485 0.000000
O O8 0.500000 0.500000 0.288386
O O9 0.498544 0.413031 0.500000
O O10 0.595296 0.410918 0.302191
O O11 0.523544 0.871804 0.775268
O O12 0.403226 0.912717 0.745715
O O13 0.500000 0.000000 0.793125
O O14 0.457351 0.921183 0.000000
O O15 0.660583 0.476643 0.500000
O O16 0.727833 0.408325 0.305009
O O17 0.345880 0.148647 0.207111
O O18 0.335821 0.023538 0.266076
O O19 0.321146 0.061609 0.000000
O O20 0.073751 0.684564 0.500000
O O21 0.356268 0.955460 0.500000
#
# Coordination Sequence:
#
# PCOD8235626 Si02
#       8
#     8   8   8   8   8   8   8   8
#     4  10  20  34  52  72  97 134 172 205 247 301
#     4   9  18  31  47  71 101 128 160 202 248 293
#     4  10  19  32  49  75 107 132 161 208 253 295
#     4  10  18  32  53  75  98 129 169 210 247 291
#     4   9  17  29  50  75  97 125 164 205 247 288
#     4   9  16  31  52  72  94 127 169 206 243 291
#     4   9  18  33  52  73  97 127 170 214 247 289
#     4  10  19  30  47  75 105 127 156 204 256 297
#
# _framework density 17.098569999999999
#
# number of rings (size 3 to 8) (size 9 to 14) (size 15 to 20)
#    0.000    2.500    2.500    0.375    0.000    1.500 
#    0.000    2.500    0.000    3.000    0.000    0.000 
#    0.000    0.000    0.000    0.000    0.000    0.000 
#
# Total GULP energy -793368.769172 kJ/mol
# GULP energy per Si atom -12396.387018 kJ/mol
# Density = 1.705965 g / cm^3
# Si number density = 17.098570 Si / 1000 Ang^3
#
#
#
# Elastic Constant Matrix: (Units=GPa)
#
#
# Indices 1 2 3 4 5 6 
#
# 1 144.1617 79.6037 45.8991 0.0000 0.0000 0.0000
# 2 79.6037 128.4644 37.8650 0.0000 0.0000 0.0000
# 3 45.8991 37.8650 46.1924 0.0000 0.0000 0.0000
# 4 0.0000 0.0000 0.0000 14.9463 0.0000 0.0000
# 5 0.0000 0.0000 0.0000 0.0000 25.7214 0.0000
# 6 0.0000 0.0000 0.0000 0.0000 0.0000 22.5559
#
#
#
# Elastic Compliance Matrix: (Units=1/GPa)
#
#
# Indices 1 2 3 4 5 6 
#
# 1 0.012428 -0.005355 -0.007959 0.000000 0.000000 0.000000
# 2 -0.005355 0.012572 -0.004984 0.000000 0.000000 0.000000
# 3 -0.007959 -0.004984 0.033643 0.000000 0.000000 0.000000
# 4 0.000000 0.000000 0.000000 0.066906 0.000000 0.000000
# 5 0.000000 0.000000 0.000000 0.000000 0.038878 0.000000
# 6 0.000000 0.000000 0.000000 0.000000 0.000000 0.044334
#
#
# Mechanical properties :
#
#
# Convention : Reuss Voigt Hill
#
# Bulk Modulus (GPa) = 45.36098 71.72827 58.54463
# Shear Modulus (GPa) = 19.78582 23.00810 21.39696
#
# Velocity S-wave (km/s) = 3.40540 3.67224 3.54134
# Velocity P-wave (km/s) = 6.48452 7.74735 7.14389
#
# Compressibility (1/GPa) = 0.02204538
#
# Stress axis : x y z
#
# Youngs Moduli (GPa) = 80.46591 79.54456 29.72384
#
# Poissons Ratio (x) = 0.42595 0.23658
# Poissons Ratio (y) = 0.43088 0.14815
# Poissons Ratio (z) = 0.64044 0.39648
#
# Static dielectric constant tensor:
#      x y z
#    x 3.590610 0.000000 0.000000 
#    y 0.000000 3.125620 0.000000 
#    z 0.000000 0.000000 3.090130 
# 
# 
# High freq. dielectric constant tensor:
#      x y z
#    x 1.678250 0.000000 0.000000 
#    y 0.000000 1.628590 0.000000 
#    z 0.000000 0.000000 1.646070 
# 
# From -- ./inp_files/9456.got.cif
#   From: 2010.06.25/outbox.cif.g09.slc.cpg/sg58_5_cif.got.tgz:9456.got - 2010.06.26 21:38:00.
