data_PCOD8235419
_publ_section_title
;
Structure prediction by ZEFSAII (Michael W. Deem and Ramdas Pophale) SiO2 
 PCOD8235419
Probable space group: P N N M
;
_chemical_formula_sum "Si O2"
_cell_formula_units_Z 56
_cell_length_a 20.510446
_cell_length_b 18.242636
_cell_length_c 9.014883
_cell_angle_alpha 90.000000
_cell_angle_beta 90.000000
_cell_angle_gamma 90.000000
_cell_volume 3373.050097
_symmetry_space_group_name_H-M "P N N M"
_symmetry_group_IT_number 58
_symmetry_cell_setting 'orthorhombic'
loop_
_space_group_symop_operation_xyz
x,y,z
-x,-y,z
1/2+x,1/2-y,1/2-z
1/2-x,1/2+y,1/2-z
-x,-y,-z
x,y,-z
1/2-x,1/2+y,1/2+z
1/2+x,1/2-y,1/2+z
loop_
_atom_site_type_symbol
_atom_site_label
_atom_site_fract_x
_atom_site_fract_y
_atom_site_fract_z
Si Si1 0.000970 0.414681 0.327739
Si Si2 0.122705 0.649127 0.826380
Si Si3 0.244263 0.574408 0.330347
Si Si4 0.736614 0.573549 0.170418
Si Si5 0.798268 0.775944 0.833511
Si Si6 0.814545 0.204206 0.830113
Si Si7 0.877459 0.644519 0.166616
O O1 0.987128 0.400231 0.500000
O O2 0.071452 0.382892 0.286733
O O3 0.000000 0.500000 0.288964
O O4 0.947805 0.373734 0.229857
O O5 0.177458 0.602249 0.742742
O O6 0.128283 0.736847 0.796076
O O7 0.129801 0.631689 0.000000
O O8 0.227783 0.555895 0.500000
O O9 0.272296 0.502966 0.252777
O O10 0.301693 0.635979 0.318051
O O11 0.682190 0.630619 0.231571
O O12 0.808816 0.604796 0.198413
O O13 0.721710 0.559846 0.000000
O O14 0.751598 0.747422 0.704808
O O15 0.867107 0.733022 0.815758
O O16 0.770661 0.756276 0.000000
O O17 0.814787 0.179436 0.000000
O O18 0.901844 0.625852 0.000000
#
# Coordination Sequence:
#
# PCOD8235419 Si02
#       7
#     8   8   8   8   8   8   8
#     4  11  23  34  45  65  92 123 158 192 225 263
#     4  10  20  33  48  66  91 124 158 190 227 273
#     4  10  18  29  47  70  96 122 150 188 230 272
#     4  10  19  30  46  69  96 124 152 185 229 275
#     4   8  16  30  46  65  90 120 150 184 230 275
#     4   9  17  29  46  67  89 116 152 190 227 270
#     4   9  18  32  47  63  88 122 156 187 221 266
#
# _framework density 16.602184999999999
#
# number of rings (size 3 to 8) (size 9 to 14) (size 15 to 20)
#    0.000    2.429    0.000    3.857    0.000    8.571 
#    0.000    0.000    0.000    0.000    0.000    1.000 
#    0.000    8.000    0.000    0.000    0.000    0.000 
#
# Total GULP energy -694090.117276 kJ/mol
# GULP energy per Si atom -12394.466380 kJ/mol
# Density = 1.656440 g / cm^3
# Si number density = 16.602185 Si / 1000 Ang^3
#
#
#
# Elastic Constant Matrix: (Units=GPa)
#
#
# Indices 1 2 3 4 5 6 
#
# 1 46.7177 38.8894 32.0301 0.0000 0.0000 0.0000
# 2 38.8894 125.1449 59.9610 0.0000 0.0000 0.0000
# 3 32.0301 59.9610 95.3166 0.0000 0.0000 0.0000
# 4 0.0000 0.0000 0.0000 29.8533 0.0000 0.0000
# 5 0.0000 0.0000 0.0000 0.0000 19.8627 0.0000
# 6 0.0000 0.0000 0.0000 0.0000 0.0000 24.0141
#
#
#
# Elastic Compliance Matrix: (Units=1/GPa)
#
#
# Indices 1 2 3 4 5 6 
#
# 1 0.031311 -0.006712 -0.006300 0.000000 0.000000 0.000000
# 2 -0.006712 0.012877 -0.005845 0.000000 0.000000 0.000000
# 3 -0.006300 -0.005845 0.016285 0.000000 0.000000 0.000000
# 4 0.000000 0.000000 0.000000 0.033497 0.000000 0.000000
# 5 0.000000 0.000000 0.000000 0.000000 0.050346 0.000000
# 6 0.000000 0.000000 0.000000 0.000000 0.000000 0.041642
#
#
# Mechanical properties :
#
#
# Convention : Reuss Voigt Hill
#
# Bulk Modulus (GPa) = 43.93574 58.77116 51.35345
# Shear Modulus (GPa) = 21.62079 23.83260 22.72669
#
# Velocity S-wave (km/s) = 3.61263 3.79292 3.70388
# Velocity P-wave (km/s) = 6.62743 7.39312 7.02072
#
# Compressibility (1/GPa) = 0.02276051
#
# Stress axis : x y z
#
# Youngs Moduli (GPa) = 31.93728 77.65730 61.40497
#
# Poissons Ratio (x) = 0.52122 0.38683
# Poissons Ratio (y) = 0.21436 0.35892
# Poissons Ratio (z) = 0.20119 0.45392
#
# Static dielectric constant tensor:
#      x y z
#    x 2.765540 0.000000 0.000000 
#    y 0.000000 3.409560 0.000000 
#    z 0.000000 0.000000 3.237600 
# 
# 
# High freq. dielectric constant tensor:
#      x y z
#    x 1.586340 0.000000 0.000000 
#    y 0.000000 1.648180 0.000000 
#    z 0.000000 0.000000 1.656660 
# 
# From -- ./inp_files/8136.got.cif
#   From: 2010.06.25/outbox.cif.g09.slc.cpg/sg58_5_cif.got.tgz:8136.got - 2010.06.26 21:38:00.
