data_PCOD8235580
_publ_section_title
;
Structure prediction by ZEFSAII (Michael W. Deem and Ramdas Pophale) SiO2 
 PCOD8235580
Probable space group: P N N M
;
_chemical_formula_sum "Si O2"
_cell_formula_units_Z 64
_cell_length_a 14.587046
_cell_length_b 24.109890
_cell_length_c 9.451333
_cell_angle_alpha 90.000000
_cell_angle_beta 90.000000
_cell_angle_gamma 90.000000
_cell_volume 3323.958909
_symmetry_space_group_name_H-M "P N N M"
_symmetry_group_IT_number 58
_symmetry_cell_setting 'orthorhombic'
loop_
_space_group_symop_operation_xyz
x,y,z
-x,-y,z
1/2+x,1/2-y,1/2-z
1/2-x,1/2+y,1/2-z
-x,-y,-z
x,y,-z
1/2-x,1/2+y,1/2+z
1/2+x,1/2-y,1/2+z
loop_
_atom_site_type_symbol
_atom_site_label
_atom_site_fract_x
_atom_site_fract_y
_atom_site_fract_z
Si Si1 0.060756 0.446432 0.165495
Si Si2 0.765444 0.404885 0.161059
Si Si3 0.268456 0.470681 0.158364
Si Si4 0.060061 0.948528 0.164440
Si Si5 0.639041 0.753894 0.161018
Si Si6 0.022395 0.824813 0.159766
Si Si7 0.679973 0.312480 0.662561
Si Si8 0.935486 0.374065 0.666656
O O1 0.165746 0.456601 0.207434
O O2 0.000000 0.500000 0.204597
O O3 0.029614 0.393970 0.260681
O O4 0.049458 0.432200 0.000000
O O5 0.715840 0.463651 0.162136
O O6 0.694729 0.362193 0.228901
O O7 0.856197 0.408794 0.255986
O O8 0.791045 0.387514 0.000000
O O9 0.341629 0.442964 0.261266
O O10 0.285056 0.447985 0.000000
O O11 0.008806 0.890170 0.192984
O O12 0.078615 0.959030 0.000000
O O13 0.000000 0.000000 0.225527
O O14 0.602211 0.702290 0.248696
O O15 0.747123 0.763561 0.195648
O O16 0.581139 0.809116 0.196336
O O17 0.625829 0.736757 0.000000
O O18 0.925031 0.793427 0.184619
O O19 0.055272 0.817007 0.000000
O O20 0.696001 0.332947 0.500000
O O21 0.935303 0.387145 0.500000
#
# Coordination Sequence:
#
# PCOD8235580 Si02
#       8
#     8   8   8   8   8   8   8   8
#     4  10  19  35  54  78 117 156 192 236 283 340
#     4  10  18  31  53  81 112 146 188 232 274 327
#     4  10  21  35  53  81 115 152 188 228 283 340
#     4  10  22  40  61  85 114 149 188 237 292 346
#     4   9  20  38  58  82 113 143 183 238 285 333
#     4  10  21  39  62  86 113 148 191 236 287 347
#     4   9  19  37  59  83 109 142 187 235 282 334
#     4  10  20  34  53  80 112 149 193 238 281 331
#
# _framework density 19.254149999999999
#
# number of rings (size 3 to 8) (size 9 to 14) (size 15 to 20)
#    0.000    2.250    1.250    2.250    0.000    6.500 
#    2.250    0.000    0.000    0.000    0.000    0.000 
#    0.000    0.000    0.000    0.000    0.000    0.000 
#
# Total GULP energy -793479.535129 kJ/mol
# GULP energy per Si atom -12398.117736 kJ/mol
# Density = 1.921033 g / cm^3
# Si number density = 19.254150 Si / 1000 Ang^3
#
#
#
# Elastic Constant Matrix: (Units=GPa)
#
#
# Indices 1 2 3 4 5 6 
#
# 1 119.2345 39.9552 47.4904 0.0000 0.0000 0.0000
# 2 39.9552 69.3218 37.6136 0.0000 0.0000 0.0000
# 3 47.4904 37.6136 80.3209 0.0000 0.0000 0.0000
# 4 0.0000 0.0000 0.0000 32.4607 0.0000 0.0000
# 5 0.0000 0.0000 0.0000 0.0000 32.2863 0.0000
# 6 0.0000 0.0000 0.0000 0.0000 0.0000 25.6929
#
#
#
# Elastic Compliance Matrix: (Units=1/GPa)
#
#
# Indices 1 2 3 4 5 6 
#
# 1 0.011753 -0.004027 -0.005063 0.000000 0.000000 0.000000
# 2 -0.004027 0.020719 -0.007322 0.000000 0.000000 0.000000
# 3 -0.005063 -0.007322 0.018872 0.000000 0.000000 0.000000
# 4 0.000000 0.000000 0.000000 0.030806 0.000000 0.000000
# 5 0.000000 0.000000 0.000000 0.000000 0.030973 0.000000
# 6 0.000000 0.000000 0.000000 0.000000 0.000000 0.038921
#
#
# Mechanical properties :
#
#
# Convention : Reuss Voigt Hill
#
# Bulk Modulus (GPa) = 53.99298 57.66617 55.82958
# Shear Modulus (GPa) = 26.17223 27.67585 26.92404
#
# Velocity S-wave (km/s) = 3.69087 3.79541 3.74351
# Velocity P-wave (km/s) = 6.80195 7.01583 6.90972
#
# Compressibility (1/GPa) = 0.01852092
#
# Stress axis : x y z
#
# Youngs Moduli (GPa) = 85.08562 48.26465 52.98717
#
# Poissons Ratio (x) = 0.19435 0.26829
# Poissons Ratio (y) = 0.34262 0.38796
# Poissons Ratio (z) = 0.43081 0.35338
#
# Static dielectric constant tensor:
#      x y z
#    x 3.479220 0.000000 0.000000 
#    y 0.000000 3.309540 0.000000 
#    z 0.000000 0.000000 3.541450 
# 
# 
# High freq. dielectric constant tensor:
#      x y z
#    x 1.748350 0.000000 0.000000 
#    y 0.000000 1.728900 0.000000 
#    z 0.000000 0.000000 1.749150 
# 
# From -- ./inp_files/6955.got.cif
#   From: 2010.06.25/outbox.cif.g09.slc.cpg/sg58_4_cif.got.tgz:6955.got - 2010.06.26 21:38:00.
