data_PCOD8235586
_publ_section_title
;
Structure prediction by ZEFSAII (Michael W. Deem and Ramdas Pophale) SiO2 
 PCOD8235586
Probable space group: P N N M
;
_chemical_formula_sum "Si O2"
_cell_formula_units_Z 64
_cell_length_a 13.215976
_cell_length_b 28.094717
_cell_length_c 8.538184
_cell_angle_alpha 90.000000
_cell_angle_beta 90.000000
_cell_angle_gamma 90.000000
_cell_volume 3170.220083
_symmetry_space_group_name_H-M "P N N M"
_symmetry_group_IT_number 58
_symmetry_cell_setting 'orthorhombic'
loop_
_space_group_symop_operation_xyz
x,y,z
-x,-y,z
1/2+x,1/2-y,1/2-z
1/2-x,1/2+y,1/2-z
-x,-y,-z
x,y,-z
1/2-x,1/2+y,1/2+z
1/2+x,1/2-y,1/2+z
loop_
_atom_site_type_symbol
_atom_site_label
_atom_site_fract_x
_atom_site_fract_y
_atom_site_fract_z
Si Si1 0.602764 0.484556 0.824240
Si Si2 0.624637 0.121134 0.179201
Si Si3 0.938692 0.162533 0.814568
Si Si4 0.765657 0.712604 0.314883
Si Si5 0.034430 0.551617 0.816522
Si Si6 0.155027 0.187501 0.314016
Si Si7 0.245969 0.590724 0.186818
Si Si8 0.817858 0.085774 0.674677
O O1 0.500000 0.500000 0.733155
O O2 0.663216 0.441596 0.742175
O O3 0.676218 0.529347 0.830249
O O4 0.572062 0.467846 0.000000
O O5 0.643777 0.175932 0.233742
O O6 0.545303 0.093618 0.286693
O O7 0.733340 0.096719 0.196922
O O8 0.588517 0.117813 0.000000
O O9 0.845191 0.195954 0.754907
O O10 0.922078 0.110979 0.732317
O O11 0.044534 0.184102 0.760787
O O12 0.938358 0.156624 0.000000
O O13 0.760685 0.714624 0.500000
O O14 0.792993 0.764539 0.247833
O O15 0.140287 0.570689 0.743610
O O16 0.000000 0.500000 0.744328
O O17 0.046961 0.544609 0.000000
O O18 0.142127 0.188281 0.500000
O O19 0.229798 0.144686 0.261374
O O20 0.242921 0.586096 0.000000
O O21 0.789400 0.104241 0.500000
#
# Coordination Sequence:
#
# PCOD8235586 Si02
#       8
#     8   8   8   8   8   8   8   8
#     4   9  16  27  47  76 103 126 161 211 261 304
#     4  10  20  35  53  75 106 139 174 221 274 322
#     4  10  20  35  53  77 110 140 170 218 275 319
#     4   8  18  35  53  74 102 137 174 217 266 317
#     4  10  20  35  55  79 109 144 184 230 276 329
#     4  10  19  35  57  77 101 137 180 220 264 320
#     4   9  18  31  50  78 106 132 170 223 272 315
#     4  10  18  31  54  78 100 133 176 215 255 313
#
# _framework density 20.187873
#
# number of rings (size 3 to 8) (size 9 to 14) (size 15 to 20)
#    0.000    2.500    0.000    3.375    0.000    5.250 
#    0.000    5.625    0.000    8.250    0.000    0.000 
#    0.000    0.000    0.000    0.000    0.000    0.000 
#
# Total GULP energy -793128.549227 kJ/mol
# GULP energy per Si atom -12392.633582 kJ/mol
# Density = 2.014192 g / cm^3
# Si number density = 20.187873 Si / 1000 Ang^3
#
#
#
# Elastic Constant Matrix: (Units=GPa)
#
#
# Indices 1 2 3 4 5 6 
#
# 1 112.8500 62.6724 5.4262 0.0000 0.0000 0.0000
# 2 62.6724 151.9384 17.7842 0.0000 0.0000 0.0000
# 3 5.4262 17.7842 26.3830 0.0000 0.0000 0.0000
# 4 0.0000 0.0000 0.0000 17.1335 0.0000 0.0000
# 5 0.0000 0.0000 0.0000 0.0000 22.7279 0.0000
# 6 0.0000 0.0000 0.0000 0.0000 0.0000 33.3886
#
#
#
# Elastic Compliance Matrix: (Units=1/GPa)
#
#
# Indices 1 2 3 4 5 6 
#
# 1 0.011514 -0.004855 0.000905 0.000000 0.000000 0.000000
# 2 -0.004855 0.009193 -0.005198 0.000000 0.000000 0.000000
# 3 0.000905 -0.005198 0.041221 0.000000 0.000000 0.000000
# 4 0.000000 0.000000 0.000000 0.058365 0.000000 0.000000
# 5 0.000000 0.000000 0.000000 0.000000 0.043999 0.000000
# 6 0.000000 0.000000 0.000000 0.000000 0.000000 0.029950
#
#
# Mechanical properties :
#
#
# Convention : Reuss Voigt Hill
#
# Bulk Modulus (GPa) = 22.91965 51.43746 37.17855
# Shear Modulus (GPa) = 22.01834 28.33591 25.17712
#
# Velocity S-wave (km/s) = 3.30611 3.75054 3.53532
# Velocity P-wave (km/s) = 5.09428 6.65508 5.92629
#
# Compressibility (1/GPa) = 0.04363069
#
# Stress axis : x y z
#
# Youngs Moduli (GPa) = 86.84852 108.78057 24.25950
#
# Poissons Ratio (x) = 0.52817 -0.02195
# Poissons Ratio (y) = 0.42168 0.12610
# Poissons Ratio (z) = -0.07858 0.56545
#
# Static dielectric constant tensor:
#      x y z
#    x 3.778890 0.000000 0.000000 
#    y 0.000000 4.009910 0.000000 
#    z 0.000000 0.000000 3.233160 
# 
# 
# High freq. dielectric constant tensor:
#      x y z
#    x 1.789940 0.000000 0.000000 
#    y 0.000000 1.796820 0.000000 
#    z 0.000000 0.000000 1.743080 
# 
# From -- ./inp_files/4706.got.cif
#   From: 2010.06.25/outbox.cif.g09.slc.cpg/sg58_3_cif.got.tgz:4706.got - 2010.06.26 21:38:00.
