data_PCOD8235288
_publ_section_title
;
Structure prediction by ZEFSAII (Michael W. Deem and Ramdas Pophale) SiO2 
 PCOD8235288
Probable space group: P N N M
;
_chemical_formula_sum "Si O2"
_cell_formula_units_Z 64
_cell_length_a 20.891974
_cell_length_b 19.853616
_cell_length_c 8.848775
_cell_angle_alpha 90.000000
_cell_angle_beta 90.000000
_cell_angle_gamma 90.000000
_cell_volume 3670.305772
_symmetry_space_group_name_H-M "P N N M"
_symmetry_group_IT_number 58
_symmetry_cell_setting 'orthorhombic'
loop_
_space_group_symop_operation_xyz
x,y,z
-x,-y,z
1/2+x,1/2-y,1/2-z
1/2-x,1/2+y,1/2-z
-x,-y,-z
x,y,-z
1/2-x,1/2+y,1/2+z
1/2+x,1/2-y,1/2+z
loop_
_atom_site_type_symbol
_atom_site_label
_atom_site_fract_x
_atom_site_fract_y
_atom_site_fract_z
Si Si1 0.433945 0.710744 0.321678
Si Si2 0.198112 0.721997 0.824671
Si Si3 0.378682 0.434319 0.178724
Si Si4 0.242411 0.578803 0.174904
Si Si5 0.574742 0.697897 0.321686
Si Si6 0.376924 0.571871 0.322129
Si Si7 0.266375 0.932484 0.677118
Si Si8 0.683016 0.204717 0.679963
O O1 0.426021 0.713185 0.500000
O O2 0.506322 0.730168 0.273504
O O3 0.419160 0.635002 0.266610
O O4 0.382538 0.763680 0.252123
O O5 0.194511 0.641195 0.798713
O O6 0.131130 0.752623 0.765661
O O7 0.256312 0.751975 0.730833
O O8 0.209086 0.739208 0.000000
O O9 0.421067 0.374633 0.244707
O O10 0.404458 0.505761 0.239523
O O11 0.305982 0.424837 0.238418
O O12 0.383289 0.433806 0.000000
O O13 0.304194 0.588525 0.277930
O O14 0.207618 0.507596 0.218289
O O15 0.265065 0.574906 0.000000
O O16 0.577768 0.687026 0.500000
O O17 0.381173 0.560254 0.500000
O O18 0.264790 0.921751 0.500000
O O19 0.310145 0.872091 0.744074
O O20 0.681714 0.206263 0.500000
#
# Coordination Sequence:
#
# PCOD8235288 Si02
#       8
#     8   8   8   8   8   8   8   8
#     4   9  19  32  48  69  96 129 165 202 242 288
#     4  10  19  30  49  72  97 126 158 205 248 283
#     4  10  19  32  48  70  98 130 162 200 243 288
#     4   9  17  30  46  71 100 125 154 196 250 290
#     4  10  20  34  48  68  97 132 167 200 243 291
#     4  10  18  30  48  70  95 129 165 200 236 285
#     4   8  15  27  47  69  92 119 150 192 238 284
#     4  10  17  31  52  71  91 122 165 204 237 287
#
# _framework density 17.437239000000002
#
# number of rings (size 3 to 8) (size 9 to 14) (size 15 to 20)
#    0.000    2.500    2.500    1.500    0.000    0.500 
#    0.000    4.375    0.000    0.750    0.000    5.250 
#    0.000    0.000    0.000    6.625    0.000    8.000 
#
# Total GULP energy -793193.286770 kJ/mol
# GULP energy per Si atom -12393.645106 kJ/mol
# Density = 1.739755 g / cm^3
# Si number density = 17.437239 Si / 1000 Ang^3
#
#
#
# Elastic Constant Matrix: (Units=GPa)
#
#
# Indices 1 2 3 4 5 6 
#
# 1 99.4328 60.2610 15.3618 0.0000 0.0000 0.0000
# 2 60.2610 125.7313 14.6543 0.0000 0.0000 0.0000
# 3 15.3618 14.6543 25.1049 0.0000 0.0000 0.0000
# 4 0.0000 0.0000 0.0000 19.1451 0.0000 0.0000
# 5 0.0000 0.0000 0.0000 0.0000 16.1334 0.0000
# 6 0.0000 0.0000 0.0000 0.0000 0.0000 25.9154
#
#
#
# Elastic Compliance Matrix: (Units=1/GPa)
#
#
# Indices 1 2 3 4 5 6 
#
# 1 0.014797 -0.006478 -0.005274 0.000000 0.000000 0.000000
# 2 -0.006478 0.011370 -0.002673 0.000000 0.000000 0.000000
# 3 -0.005274 -0.002673 0.044620 0.000000 0.000000 0.000000
# 4 0.000000 0.000000 0.000000 0.052233 0.000000 0.000000
# 5 0.000000 0.000000 0.000000 0.000000 0.061983 0.000000
# 6 0.000000 0.000000 0.000000 0.000000 0.000000 0.038587
#
#
# Mechanical properties :
#
#
# Convention : Reuss Voigt Hill
#
# Bulk Modulus (GPa) = 23.84423 47.86924 35.85673
# Shear Modulus (GPa) = 18.76748 22.90490 20.83619
#
# Velocity S-wave (km/s) = 3.28424 3.62824 3.46052
# Velocity P-wave (km/s) = 5.29959 6.71298 6.04772
#
# Compressibility (1/GPa) = 0.04193887
#
# Stress axis : x y z
#
# Youngs Moduli (GPa) = 67.57906 87.95381 22.41145
#
# Poissons Ratio (x) = 0.56973 0.11819
# Poissons Ratio (y) = 0.43775 0.05991
# Poissons Ratio (z) = 0.35638 0.23510
#
# Static dielectric constant tensor:
#      x y z
#    x 3.244670 0.000000 0.000000 
#    y 0.000000 3.685510 0.000000 
#    z 0.000000 0.000000 3.006110 
# 
# 
# High freq. dielectric constant tensor:
#      x y z
#    x 1.645420 0.000000 0.000000 
#    y 0.000000 1.684800 0.000000 
#    z 0.000000 0.000000 1.650600 
# 
# From -- ./inp_files/8403.got.cif
#   From: 2010.06.25/outbox.cif.g09.slc.cpg/sg58_5_cif.got.tgz:8403.got - 2010.06.26 21:38:00.
