data_PCOD8235339
_publ_section_title
;
Structure prediction by ZEFSAII (Michael W. Deem and Ramdas Pophale) SiO2 
 PCOD8235339
Probable space group: P N N M
;
_chemical_formula_sum "Si O2"
_cell_formula_units_Z 64
_cell_length_a 9.845000
_cell_length_b 31.218420
_cell_length_c 13.410982
_cell_angle_alpha 90.000000
_cell_angle_beta 90.000000
_cell_angle_gamma 90.000000
_cell_volume 4121.802888
_symmetry_space_group_name_H-M "P N N M"
_symmetry_group_IT_number 58
_symmetry_cell_setting 'orthorhombic'
loop_
_space_group_symop_operation_xyz
x,y,z
-x,-y,z
1/2+x,1/2-y,1/2-z
1/2-x,1/2+y,1/2-z
-x,-y,-z
x,y,-z
1/2-x,1/2+y,1/2+z
1/2+x,1/2-y,1/2+z
loop_
_atom_site_type_symbol
_atom_site_label
_atom_site_fract_x
_atom_site_fract_y
_atom_site_fract_z
Si Si1 0.233527 0.101675 0.614136
Si Si2 0.840297 0.741886 0.612030
Si Si3 0.166207 0.309333 0.196142
Si Si4 0.274270 0.897973 0.617529
Si Si5 0.512875 0.953935 0.386525
Si Si6 0.646499 0.761677 0.888338
Si Si7 0.849770 0.313186 0.196854
Si Si8 0.015018 0.952039 0.617433
O O1 0.219627 0.118273 0.500000
O O2 0.334167 0.061587 0.619911
O O3 0.286145 0.140079 0.682626
O O4 0.094826 0.082160 0.658566
O O5 0.819087 0.724431 0.500000
O O6 0.814331 0.702626 0.687677
O O7 0.734764 0.780056 0.629922
O O8 0.995534 0.758688 0.626916
O O9 0.243823 0.353820 0.177114
O O10 0.238796 0.273786 0.128672
O O11 0.007832 0.312210 0.163982
O O12 0.276356 0.887219 0.500000
O O13 0.413111 0.918523 0.659797
O O14 0.159580 0.932320 0.645309
O O15 0.461798 0.959764 0.500000
O O16 0.500000 0.000000 0.331875
O O17 0.666488 0.801303 0.813086
O O18 0.662555 0.779886 0.000000
O O19 0.991035 0.955546 0.500000
O O20 0.000000 0.000000 0.663868
#
# Coordination Sequence:
#
# PCOD8235339 Si02
#       8
#     8   8   8   8   8   8   8   8
#     4  10  18  27  42  63  87 116 148 179 211 255
#     4   9  19  33  48  64  88 120 150 182 220 260
#     4  10  19  31  46  67  91 116 149 185 219 258
#     4  10  18  27  42  63  87 116 148 179 211 255
#     4   9  16  26  40  59  85 113 139 173 218 262
#     4   9  19  33  48  64  88 120 150 182 220 260
#     4  10  19  31  46  67  91 116 149 185 219 258
#     4   9  18  30  42  59  87 121 149 175 212 258
#
# _framework density 15.527186
#
# number of rings (size 3 to 8) (size 9 to 14) (size 15 to 20)
#    0.000    2.500    1.250    1.500    1.750    4.500 
#    0.000    0.000    0.000    0.000    0.000    0.000 
#    0.000    6.000    0.000    0.000    0.000    0.000 
#
# Total GULP energy -793344.300108 kJ/mol
# GULP energy per Si atom -12396.004689 kJ/mol
# Density = 1.549185 g / cm^3
# Si number density = 15.527186 Si / 1000 Ang^3
#
#
#
# Elastic Constant Matrix: (Units=GPa)
#
#
# Indices 1 2 3 4 5 6 
#
# 1 70.3060 28.2021 22.7563 0.0000 0.0000 0.0000
# 2 28.2021 98.4679 33.1815 0.0000 0.0000 0.0000
# 3 22.7563 33.1815 65.0819 0.0000 0.0000 0.0000
# 4 0.0000 0.0000 0.0000 15.0831 0.0000 0.0000
# 5 0.0000 0.0000 0.0000 0.0000 14.7390 0.0000
# 6 0.0000 0.0000 0.0000 0.0000 0.0000 28.4230
#
#
#
# Elastic Compliance Matrix: (Units=1/GPa)
#
#
# Indices 1 2 3 4 5 6 
#
# 1 0.016958 -0.003452 -0.004169 0.000000 0.000000 0.000000
# 2 -0.003452 0.012965 -0.005403 0.000000 0.000000 0.000000
# 3 -0.004169 -0.005403 0.019578 0.000000 0.000000 0.000000
# 4 0.000000 0.000000 0.000000 0.066299 0.000000 0.000000
# 5 0.000000 0.000000 0.000000 0.000000 0.067847 0.000000
# 6 0.000000 0.000000 0.000000 0.000000 0.000000 0.035183
#
#
# Mechanical properties :
#
#
# Convention : Reuss Voigt Hill
#
# Bulk Modulus (GPa) = 42.64084 44.68173 43.66128
# Shear Modulus (GPa) = 19.78665 21.63010 20.70837
#
# Velocity S-wave (km/s) = 3.57364 3.73640 3.65593
# Velocity P-wave (km/s) = 6.67454 6.88863 6.78243
#
# Compressibility (1/GPa) = 0.02345170
#
# Stress axis : x y z
#
# Youngs Moduli (GPa) = 58.97010 77.13097 51.07811
#
# Poissons Ratio (x) = 0.26624 0.21297
# Poissons Ratio (y) = 0.20356 0.27598
# Poissons Ratio (z) = 0.24587 0.41675
#
# Static dielectric constant tensor:
#      x y z
#    x 3.143490 0.000000 0.000000 
#    y 0.000000 2.950570 0.000000 
#    z 0.000000 0.000000 2.673290 
# 
# 
# High freq. dielectric constant tensor:
#      x y z
#    x 1.614140 0.000000 0.000000 
#    y 0.000000 1.594190 0.000000 
#    z 0.000000 0.000000 1.543040 
# 
# From -- ./inp_files/20403.got.cif
#   From: 2010.06.25/outbox.cif.g09.slc.cpg/sg58_11_cif.got.tgz:20403.got - 2010.06.26 21:38:00.
