data_PCOD8235099
_publ_section_title
;
Structure prediction by ZEFSAII (Michael W. Deem and Ramdas Pophale) SiO2 
 PCOD8235099
Probable space group: P B C M
;
_chemical_formula_sum "Si O2"
_cell_formula_units_Z 40
_cell_length_a 22.208547
_cell_length_b 8.463010
_cell_length_c 10.016307
_cell_angle_alpha 90.000000
_cell_angle_beta 90.000000
_cell_angle_gamma 90.000000
_cell_volume 1882.576473
_symmetry_space_group_name_H-M "P B C M"
_symmetry_group_IT_number 57
_symmetry_cell_setting 'orthorhombic'
loop_
_space_group_symop_operation_xyz
x,y,z
-x,-y,1/2+z
x,1/2-y,-z
-x,1/2+y,1/2-z
-x,-y,-z
x,y,1/2-z
-x,1/2+y,z
x,1/2-y,1/2+z
loop_
_atom_site_type_symbol
_atom_site_label
_atom_site_fract_x
_atom_site_fract_y
_atom_site_fract_z
Si Si1 0.873942 0.064937 0.018144
Si Si2 0.549545 0.072058 0.250000
Si Si3 0.742636 0.105571 0.098528
Si Si4 0.372743 0.065016 0.517734
Si Si5 0.950857 0.923608 0.250000
Si Si6 0.079910 0.440849 0.750000
Si Si7 0.420032 0.561600 0.750000
O O1 0.807801 0.028012 0.074914
O O2 0.924219 0.001992 0.117973
O O3 0.884272 0.250000 0.000000
O O4 0.879237 0.975937 0.878028
O O5 0.562425 0.256604 0.250000
O O6 0.575881 0.993033 0.117808
O O7 0.478140 0.050347 0.250000
O O8 0.738514 0.169257 0.250000
O O9 0.693104 0.970708 0.076457
O O10 0.730362 0.250000 0.000000
O O11 0.380375 0.250000 0.500000
O O12 0.379640 0.974645 0.378416
O O13 0.939618 0.738966 0.250000
O O14 0.022261 0.945682 0.250000
#
# Coordination Sequence:
#
# PCOD8235099 Si02
#       7
#     8   4   8   8   4   4   4
#     4  11  24  44  70  98 134 177 225 278 335 401
#     4  12  24  47  68  99 140 175 231 275 339 404
#     4  11  25  46  73 101 136 178 226 277 339 407
#     4  12  26  44  69 101 138 178 226 281 336 398
#     4  12  24  45  66 101 138 177 225 277 337 404
#     4  12  26  41  70  99 136 179 223 279 339 400
#     4  12  26  43  72 101 134 185 221 281 337 408
#
# _framework density 21.247478000000001
#
# number of rings (size 3 to 8) (size 9 to 14) (size 15 to 20)
#    0.000    0.400    2.000    7.200    5.600    1.600 
#    0.000    0.000    0.000    0.000    0.000    0.000 
#    0.000    0.000    0.000    0.000    0.000    0.000 
#
# Total GULP energy -496378.803674 kJ/mol
# GULP energy per Si atom -12409.470092 kJ/mol
# Density = 2.119912 g / cm^3
# Si number density = 21.247478 Si / 1000 Ang^3
#
#
#
# Elastic Constant Matrix: (Units=GPa)
#
#
# Indices 1 2 3 4 5 6 
#
# 1 92.9982 25.3144 38.5379 0.0000 0.0000 0.0000
# 2 25.3144 135.3011 38.6902 0.0000 0.0000 0.0000
# 3 38.5379 38.6902 178.4140 0.0000 0.0000 0.0000
# 4 0.0000 0.0000 0.0000 26.9330 0.0000 0.0000
# 5 0.0000 0.0000 0.0000 0.0000 42.8870 0.0000
# 6 0.0000 0.0000 0.0000 0.0000 0.0000 17.9681
#
#
#
# Elastic Compliance Matrix: (Units=1/GPa)
#
#
# Indices 1 2 3 4 5 6 
#
# 1 0.012135 -0.001621 -0.002270 0.000000 0.000000 0.000000
# 2 -0.001621 0.008096 -0.001405 0.000000 0.000000 0.000000
# 3 -0.002270 -0.001405 0.006400 0.000000 0.000000 0.000000
# 4 0.000000 0.000000 0.000000 0.037129 0.000000 0.000000
# 5 0.000000 0.000000 0.000000 0.000000 0.023317 0.000000
# 6 0.000000 0.000000 0.000000 0.000000 0.000000 0.055654
#
#
# Mechanical properties :
#
#
# Convention : Reuss Voigt Hill
#
# Bulk Modulus (GPa) = 62.35162 67.97758 65.16460
# Shear Modulus (GPa) = 31.51191 37.83566 34.67379
#
# Velocity S-wave (km/s) = 3.85527 4.22443 4.04406
# Velocity P-wave (km/s) = 7.01617 7.47376 7.24857
#
# Compressibility (1/GPa) = 0.01603808
#
# Stress axis : x y z
#
# Youngs Moduli (GPa) = 82.40813 123.51492 156.25112
#
# Poissons Ratio (x) = 0.20027 0.35462
# Poissons Ratio (y) = 0.13362 0.21961
# Poissons Ratio (z) = 0.18703 0.17360
#
# Static dielectric constant tensor:
#      x y z
#    x 4.022430 0.000000 0.000000 
#    y 0.000000 3.821860 0.000000 
#    z 0.000000 0.000000 4.118140 
# 
# 
# High freq. dielectric constant tensor:
#      x y z
#    x 1.845100 0.000000 0.000000 
#    y 0.000000 1.836220 0.000000 
#    z 0.000000 0.000000 1.857140 
# 
# From -- ./inp_files/9018.got.cif
#   From: 2010.03.12/outbox.cif.g09.slc.cpg/sg57_5_cif.got.tgz:9018.got - 2010.04.16 15:48:40.
