data_PCOD8235087
_publ_section_title
;
Structure prediction by ZEFSAII (Michael W. Deem and Ramdas Pophale) SiO2 
 PCOD8235087
Probable space group: P B C M
;
_chemical_formula_sum "Si O2"
_cell_formula_units_Z 40
_cell_length_a 6.105409
_cell_length_b 18.426452
_cell_length_c 16.095232
_cell_angle_alpha 90.000000
_cell_angle_beta 90.000000
_cell_angle_gamma 90.000000
_cell_volume 1810.730112
_symmetry_space_group_name_H-M "P B C M"
_symmetry_group_IT_number 57
_symmetry_cell_setting 'orthorhombic'
loop_
_space_group_symop_operation_xyz
x,y,z
-x,-y,1/2+z
x,1/2-y,-z
-x,1/2+y,1/2-z
-x,-y,-z
x,y,1/2-z
-x,1/2+y,z
x,1/2-y,1/2+z
loop_
_atom_site_type_symbol
_atom_site_label
_atom_site_fract_x
_atom_site_fract_y
_atom_site_fract_z
Si Si1 0.286624 0.425021 0.342785
Si Si2 0.964962 0.150938 0.970715
Si Si3 0.625031 0.193892 0.657829
Si Si4 0.642061 0.800234 0.569982
Si Si5 0.618767 0.443845 0.558959
O O1 0.190281 0.415176 0.250000
O O2 0.523636 0.386678 0.351090
O O3 0.312560 0.511177 0.359155
O O4 0.133210 0.388453 0.410333
O O5 0.812768 0.202807 0.912857
O O6 0.832869 0.088611 0.016888
O O7 0.100838 0.194707 0.043034
O O8 0.727389 0.203766 0.750000
O O9 0.424461 0.253145 0.650975
O O10 0.521893 0.750000 0.500000
O O11 0.547797 0.880078 0.581604
O O12 0.500000 0.500000 0.500000
#
# Coordination Sequence:
#
# PCOD8235087 Si02
#       5
#     8   8   8   8   8
#     4  11  24  42  65  99 135 171 222 278 335 398
#     4  12  22  41  73  97 130 180 227 272 331 410
#     4  11  25  45  68  99 139 176 219 282 340 392
#     4  12  24  41  67 100 130 175 230 275 327 406
#     4  12  23  42  67  97 132 174 223 277 330 400
#
# _framework density 22.090537000000001
#
# number of rings (size 3 to 8) (size 9 to 14) (size 15 to 20)
#    0.000    0.400    8.000    1.200    2.800    0.800 
#    0.000    1.000    0.000    0.000    0.000    0.000 
#    0.000    0.000    0.000    0.000    0.000    0.000 
#
# Total GULP energy -495549.141500 kJ/mol
# GULP energy per Si atom -12388.728538 kJ/mol
# Density = 2.204026 g / cm^3
# Si number density = 22.090537 Si / 1000 Ang^3
#
#
#
# Elastic Constant Matrix: (Units=GPa)
#
#
# Indices 1 2 3 4 5 6 
#
# 1 104.6296 28.0706 45.7066 0.0000 0.0000 0.0000
# 2 28.0706 109.5514 20.8870 0.0000 0.0000 0.0000
# 3 45.7066 20.8870 74.3904 0.0000 0.0000 0.0000
# 4 0.0000 0.0000 0.0000 30.0025 0.0000 0.0000
# 5 0.0000 0.0000 0.0000 0.0000 13.7003 0.0000
# 6 0.0000 0.0000 0.0000 0.0000 0.0000 49.8568
#
#
#
# Elastic Compliance Matrix: (Units=1/GPa)
#
#
# Indices 1 2 3 4 5 6 
#
# 1 0.013458 -0.001978 -0.007713 0.000000 0.000000 0.000000
# 2 -0.001978 0.009935 -0.001574 0.000000 0.000000 0.000000
# 3 -0.007713 -0.001574 0.018624 0.000000 0.000000 0.000000
# 4 0.000000 0.000000 0.000000 0.033331 0.000000 0.000000
# 5 0.000000 0.000000 0.000000 0.000000 0.072991 0.000000
# 6 0.000000 0.000000 0.000000 0.000000 0.000000 0.020057
#
#
# Mechanical properties :
#
#
# Convention : Reuss Voigt Hill
#
# Bulk Modulus (GPa) = 51.31952 53.09996 52.20974
# Shear Modulus (GPa) = 25.32651 31.63905 28.48278
#
# Velocity S-wave (km/s) = 3.38965 3.78861 3.59467
# Velocity P-wave (km/s) = 6.21302 6.57477 6.39645
#
# Compressibility (1/GPa) = 0.01948576
#
# Stress axis : x y z
#
# Youngs Moduli (GPa) = 74.30758 100.65369 53.69474
#
# Poissons Ratio (x) = 0.19906 0.41416
# Poissons Ratio (y) = 0.14696 0.08454
# Poissons Ratio (z) = 0.57315 0.15847
#
# Static dielectric constant tensor:
#      x y z
#    x 4.035830 0.000000 0.000000 
#    y 0.000000 4.510960 0.000000 
#    z 0.000000 0.000000 4.095880 
# 
# 
# High freq. dielectric constant tensor:
#      x y z
#    x 1.866410 0.000000 0.000000 
#    y 0.000000 1.881290 0.000000 
#    z 0.000000 0.000000 1.853500 
# 
# From -- ./inp_files/19963.got.cif
#   From: 2010.03.12/outbox.cif.g09.slc.cpg/sg57_10_cif.got.tgz:19963.got - 2010.04.16 15:48:40.
