data_PCOD8235402
_publ_section_title
;
Structure prediction by ZEFSAII (Michael W. Deem and Ramdas Pophale) SiO2 
 PCOD8235402
Probable space group: P N N M
;
_chemical_formula_sum "Si O2"
_cell_formula_units_Z 48
_cell_length_a 23.939640
_cell_length_b 13.870039
_cell_length_c 8.776510
_cell_angle_alpha 90.000000
_cell_angle_beta 90.000000
_cell_angle_gamma 90.000000
_cell_volume 2914.185208
_symmetry_space_group_name_H-M "P N N M"
_symmetry_group_IT_number 58
_symmetry_cell_setting 'orthorhombic'
loop_
_space_group_symop_operation_xyz
x,y,z
-x,-y,z
1/2+x,1/2-y,1/2-z
1/2-x,1/2+y,1/2-z
-x,-y,-z
x,y,-z
1/2-x,1/2+y,1/2+z
1/2+x,1/2-y,1/2+z
loop_
_atom_site_type_symbol
_atom_site_label
_atom_site_fract_x
_atom_site_fract_y
_atom_site_fract_z
Si Si1 0.328727 0.793179 0.320737
Si Si2 0.223896 0.891734 0.180489
Si Si3 0.438010 0.896960 0.679904
Si Si4 0.437827 0.113670 0.680522
Si Si5 0.337280 0.221469 0.180447
Si Si6 0.731397 0.394407 0.678184
O O1 0.320182 0.814039 0.500000
O O2 0.285092 0.856730 0.227879
O O3 0.390616 0.822468 0.264111
O O4 0.318968 0.680022 0.284906
O O5 0.175252 0.827934 0.255512
O O6 0.217112 0.000753 0.245884
O O7 0.217380 0.886524 0.000000
O O8 0.440565 0.901833 0.500000
O O9 0.498963 0.862042 0.735739
O O10 0.423733 0.005054 0.736527
O O11 0.430635 0.125043 0.500000
O O12 0.397595 0.188354 0.763640
O O13 0.289537 0.148616 0.244292
O O14 0.335874 0.227042 0.000000
O O15 0.739931 0.406685 0.500000
#
# Coordination Sequence:
#
# PCOD8235402 Si02
#       6
#     8   8   8   8   8   8
#     4   9  16  29  46  65  88 116 143 174 215 260
#     4  10  18  29  44  64  87 113 142 178 216 256
#     4   8  15  27  46  68  92 118 146 178 217 261
#     4   9  16  28  45  68  92 117 147 180 215 259
#     4  10  19  31  45  65  90 117 145 179 219 261
#     4   8  16  28  43  62  86 111 141 177 214 253
#
# _framework density 16.471155
#
# number of rings (size 3 to 8) (size 9 to 14) (size 15 to 20)
#    0.000    3.000    0.000    4.000    0.000    0.000 
#    0.000   10.000    0.000    1.000    0.000    7.000 
#    0.000    0.000    0.000    0.000    0.000    0.000 
#
# Total GULP energy -594931.632473 kJ/mol
# GULP energy per Si atom -12394.409010 kJ/mol
# Density = 1.643367 g / cm^3
# Si number density = 16.471155 Si / 1000 Ang^3
#
#
#
# Elastic Constant Matrix: (Units=GPa)
#
#
# Indices 1 2 3 4 5 6 
#
# 1 119.7517 69.8111 23.6640 0.0000 0.0000 0.0000
# 2 69.8111 136.9809 27.9633 0.0000 0.0000 0.0000
# 3 23.6640 27.9633 39.9686 0.0000 0.0000 0.0000
# 4 0.0000 0.0000 0.0000 16.6241 0.0000 0.0000
# 5 0.0000 0.0000 0.0000 0.0000 22.5688 0.0000
# 6 0.0000 0.0000 0.0000 0.0000 0.0000 30.0766
#
#
#
# Elastic Compliance Matrix: (Units=1/GPa)
#
#
# Indices 1 2 3 4 5 6 
#
# 1 0.012257 -0.005559 -0.003368 0.000000 0.000000 0.000000
# 2 -0.005559 0.011038 -0.004431 0.000000 0.000000 0.000000
# 3 -0.003368 -0.004431 0.030114 0.000000 0.000000 0.000000
# 4 0.000000 0.000000 0.000000 0.060153 0.000000 0.000000
# 5 0.000000 0.000000 0.000000 0.000000 0.044309 0.000000
# 6 0.000000 0.000000 0.000000 0.000000 0.000000 0.033248
#
#
# Mechanical properties :
#
#
# Convention : Reuss Voigt Hill
#
# Bulk Modulus (GPa) = 37.46324 59.95311 48.70818
# Shear Modulus (GPa) = 22.05240 25.53809 23.79524
#
# Velocity S-wave (km/s) = 3.66300 3.94188 3.80499
# Velocity P-wave (km/s) = 6.37842 7.56279 6.99571
#
# Compressibility (1/GPa) = 0.02669283
#
# Stress axis : x y z
#
# Youngs Moduli (GPa) = 81.58695 90.59574 33.20760
#
# Poissons Ratio (x) = 0.50364 0.11183
# Poissons Ratio (y) = 0.45356 0.14715
# Poissons Ratio (z) = 0.27474 0.40144
#
# Static dielectric constant tensor:
#      x y z
#    x 3.258980 0.000000 0.000000 
#    y 0.000000 3.313970 0.000000 
#    z 0.000000 0.000000 2.822150 
# 
# 
# High freq. dielectric constant tensor:
#      x y z
#    x 1.625630 0.000000 0.000000 
#    y 0.000000 1.628490 0.000000 
#    z 0.000000 0.000000 1.610900 
# 
# From -- ./inp_files/4215.got.cif
#   From: 2010.06.25/outbox.cif.g09.slc.cpg/sg58_3_cif.got.tgz:4215.got - 2010.06.26 21:38:00.
