data_PCOD8235101
_publ_section_title
;
Structure prediction by ZEFSAII (Michael W. Deem and Ramdas Pophale) SiO2 
 PCOD8235101
Probable space group: P B C M
;
_chemical_formula_sum "Si O2"
_cell_formula_units_Z 32
_cell_length_a 6.789977
_cell_length_b 9.399877
_cell_length_c 24.646624
_cell_angle_alpha 90.000000
_cell_angle_beta 90.000000
_cell_angle_gamma 90.000000
_cell_volume 1573.069511
_symmetry_space_group_name_H-M "P B C M"
_symmetry_group_IT_number 57
_symmetry_cell_setting 'orthorhombic'
loop_
_space_group_symop_operation_xyz
x,y,z
-x,-y,1/2+z
x,1/2-y,-z
-x,1/2+y,1/2-z
-x,-y,-z
x,y,1/2-z
-x,1/2+y,z
x,1/2-y,1/2+z
loop_
_atom_site_type_symbol
_atom_site_label
_atom_site_fract_x
_atom_site_fract_y
_atom_site_fract_z
Si Si1 0.360172 0.857665 0.750000
Si Si2 0.250238 0.185758 0.750000
Si Si3 0.300859 0.085182 0.503531
Si Si4 0.017921 0.525251 0.588508
Si Si5 0.939384 0.273342 0.662468
O O1 0.585627 0.809065 0.750000
O O2 0.257668 0.790162 0.802695
O O3 0.346676 0.029137 0.750000
O O4 0.118041 0.206856 0.696779
O O5 0.352179 0.250000 0.500000
O O6 0.192626 0.049288 0.559914
O O7 0.500000 0.000000 0.500000
O O8 0.167709 0.043411 0.453066
O O9 0.104290 0.674468 0.610334
O O10 0.998812 0.427803 0.641270
#
# Coordination Sequence:
#
# PCOD8235101 Si02
#       5
#     4   4   8   8   8
#     4  11  26  42  65  97 131 165 211 267 312 378
#     4  11  26  42  65  99 129 165 215 261 318 376
#     4  11  26  42  65  98 130 165 214 265 317 378
#     4  11  24  45  66  91 130 172 213 259 317 377
#     4  11  24  45  66  91 130 172 213 259 316 377
#
# _framework density 20.342395
#
# number of rings (size 3 to 8) (size 9 to 14) (size 15 to 20)
#    0.000    1.000    5.000    0.000    7.000    4.000 
#    0.000    0.000    0.000    0.000    0.000    0.000 
#    0.000    0.000    0.000    0.000    0.000    0.000 
#
# Total GULP energy -396959.320398 kJ/mol
# GULP energy per Si atom -12404.978762 kJ/mol
# Density = 2.029609 g / cm^3
# Si number density = 20.342395 Si / 1000 Ang^3
#
#
#
# Elastic Constant Matrix: (Units=GPa)
#
#
# Indices 1 2 3 4 5 6 
#
# 1 82.0776 56.9172 24.0482 0.0000 0.0000 0.0000
# 2 56.9172 136.4337 35.8754 0.0000 0.0000 0.0000
# 3 24.0482 35.8754 92.1496 0.0000 0.0000 0.0000
# 4 0.0000 0.0000 0.0000 43.8841 0.0000 0.0000
# 5 0.0000 0.0000 0.0000 0.0000 8.6387 0.0000
# 6 0.0000 0.0000 0.0000 0.0000 0.0000 39.4211
#
#
#
# Elastic Compliance Matrix: (Units=1/GPa)
#
#
# Indices 1 2 3 4 5 6 
#
# 1 0.017441 -0.006773 -0.001915 0.000000 0.000000 0.000000
# 2 -0.006773 0.010795 -0.002435 0.000000 0.000000 0.000000
# 3 -0.001915 -0.002435 0.012300 0.000000 0.000000 0.000000
# 4 0.000000 0.000000 0.000000 0.022787 0.000000 0.000000
# 5 0.000000 0.000000 0.000000 0.000000 0.115758 0.000000
# 6 0.000000 0.000000 0.000000 0.000000 0.000000 0.025367
#
#
# Mechanical properties :
#
#
# Convention : Reuss Voigt Hill
#
# Bulk Modulus (GPa) = 54.67307 60.48250 57.57778
# Shear Modulus (GPa) = 21.47849 31.31012 26.39430
#
# Velocity S-wave (km/s) = 3.25291 3.92746 3.60599
# Velocity P-wave (km/s) = 6.40650 7.09672 6.76043
#
# Compressibility (1/GPa) = 0.01829054
#
# Stress axis : x y z
#
# Youngs Moduli (GPa) = 57.33582 92.63282 81.30219
#
# Poissons Ratio (x) = 0.62736 0.15569
# Poissons Ratio (y) = 0.38831 0.19800
# Poissons Ratio (z) = 0.10979 0.22560
#
# Static dielectric constant tensor:
#      x y z
#    x 3.887870 0.000000 0.000000 
#    y 0.000000 3.857850 0.000000 
#    z 0.000000 0.000000 3.805260 
# 
# 
# High freq. dielectric constant tensor:
#      x y z
#    x 1.784040 0.000000 0.000000 
#    y 0.000000 1.817190 0.000000 
#    z 0.000000 0.000000 1.809020 
# 
# From -- ./inp_files/29001.got.cif
#   From: 2010.03.12/outbox.cif.g09.slc.cpg/sg57_15_cif.got.tgz:29001.got - 2010.04.16 15:48:40.
