data_PCOD8235603
_publ_section_title
;
Structure prediction by ZEFSAII (Michael W. Deem and Ramdas Pophale) SiO2 
 PCOD8235603
Probable space group: P N N M
;
_chemical_formula_sum "Si O2"
_cell_formula_units_Z 64
_cell_length_a 12.510192
_cell_length_b 28.561720
_cell_length_c 8.981911
_cell_angle_alpha 90.000000
_cell_angle_beta 90.000000
_cell_angle_gamma 90.000000
_cell_volume 3209.349982
_symmetry_space_group_name_H-M "P N N M"
_symmetry_group_IT_number 58
_symmetry_cell_setting 'orthorhombic'
loop_
_space_group_symop_operation_xyz
x,y,z
-x,-y,z
1/2+x,1/2-y,1/2-z
1/2-x,1/2+y,1/2-z
-x,-y,-z
x,y,-z
1/2-x,1/2+y,1/2+z
1/2+x,1/2-y,1/2+z
loop_
_atom_site_type_symbol
_atom_site_label
_atom_site_fract_x
_atom_site_fract_y
_atom_site_fract_z
Si Si1 0.281320 0.661292 0.671878
Si Si2 0.482417 0.050946 0.324122
Si Si3 0.059330 0.705593 0.323332
Si Si4 0.851545 0.122852 0.324785
Si Si5 0.992039 0.198892 0.173081
Si Si6 0.390575 0.860659 0.673785
Si Si7 0.248284 0.068861 0.675794
Si Si8 0.113350 0.982427 0.323226
O O1 0.267384 0.648979 0.500000
O O2 0.171350 0.683698 0.734120
O O3 0.379930 0.696662 0.697588
O O4 0.311463 0.613355 0.755547
O O5 0.479573 0.044569 0.500000
O O6 0.574859 0.086966 0.276854
O O7 0.370217 0.071663 0.268951
O O8 0.500000 0.000000 0.249909
O O9 0.055394 0.707023 0.500000
O O10 0.055412 0.757976 0.263226
O O11 0.957185 0.677313 0.264664
O O12 0.877345 0.125504 0.500000
O O13 0.938290 0.151792 0.233761
O O14 0.734531 0.144243 0.291424
O O15 0.857739 0.069407 0.265562
O O16 0.964324 0.204810 0.000000
O O17 0.415311 0.852647 0.500000
O O18 0.235235 0.072194 0.500000
O O19 0.200418 0.019811 0.734275
O O20 0.112154 0.981289 0.500000
O O21 0.000000 0.000000 0.260273
#
# Coordination Sequence:
#
# PCOD8235603 Si02
#       8
#     8   8   8   8   8   8   8   8
#     4  10  23  42  61  84 119 153 188 244 304 353
#     4   9  16  28  50  83 117 150 191 236 283 335
#     4  11  24  42  63  87 114 151 195 244 306 362
#     4  10  21  38  60  89 126 162 196 241 299 351
#     4  11  25  43  63  87 116 152 198 248 300 357
#     4  10  20  36  58  86 121 156 191 240 296 348
#     4  10  18  31  57  87 115 153 201 243 282 344
#     4   9  17  30  52  85 121 156 199 247 288 334
#
# _framework density 19.941731999999998
#
# number of rings (size 3 to 8) (size 9 to 14) (size 15 to 20)
#    0.000    2.000    1.250    2.250    1.750    6.000 
#    0.000    0.625    0.000    5.250    0.000    0.000 
#    0.000    0.000    0.000    0.000    0.000    0.000 
#
# Total GULP energy -793640.333913 kJ/mol
# GULP energy per Si atom -12400.630217 kJ/mol
# Density = 1.989634 g / cm^3
# Si number density = 19.941732 Si / 1000 Ang^3
#
#
#
# Elastic Constant Matrix: (Units=GPa)
#
#
# Indices 1 2 3 4 5 6 
#
# 1 100.9326 39.5329 30.2420 0.0000 0.0000 0.0000
# 2 39.5329 131.3433 37.2279 0.0000 0.0000 0.0000
# 3 30.2420 37.2279 45.2069 0.0000 0.0000 0.0000
# 4 0.0000 0.0000 0.0000 25.3113 0.0000 0.0000
# 5 0.0000 0.0000 0.0000 0.0000 18.9446 0.0000
# 6 0.0000 0.0000 0.0000 0.0000 0.0000 34.7979
#
#
#
# Elastic Compliance Matrix: (Units=1/GPa)
#
#
# Indices 1 2 3 4 5 6 
#
# 1 0.012726 -0.001849 -0.006991 0.000000 0.000000 0.000000
# 2 -0.001849 0.010200 -0.007163 0.000000 0.000000 0.000000
# 3 -0.006991 -0.007163 0.032696 0.000000 0.000000 0.000000
# 4 0.000000 0.000000 0.000000 0.039508 0.000000 0.000000
# 5 0.000000 0.000000 0.000000 0.000000 0.052785 0.000000
# 6 0.000000 0.000000 0.000000 0.000000 0.000000 0.028737
#
#
# Mechanical properties :
#
#
# Convention : Reuss Voigt Hill
#
# Bulk Modulus (GPa) = 42.34276 54.60984 48.47630
# Shear Modulus (GPa) = 23.09123 27.17610 25.13367
#
# Velocity S-wave (km/s) = 3.40654 3.69558 3.55400
# Velocity P-wave (km/s) = 6.06234 6.75677 6.41895
#
# Compressibility (1/GPa) = 0.02361679
#
# Stress axis : x y z
#
# Youngs Moduli (GPa) = 78.57626 98.03450 30.58471
#
# Poissons Ratio (x) = 0.18127 0.21382
# Poissons Ratio (y) = 0.14529 0.21908
# Poissons Ratio (z) = 0.54932 0.70224
#
# Static dielectric constant tensor:
#      x y z
#    x 3.783050 0.000000 0.000000 
#    y 0.000000 3.741350 0.000000 
#    z 0.000000 0.000000 3.245030 
# 
# 
# High freq. dielectric constant tensor:
#      x y z
#    x 1.790160 0.000000 0.000000 
#    y 0.000000 1.790450 0.000000 
#    z 0.000000 0.000000 1.738480 
# 
# From -- ./inp_files/4654.got.cif
#   From: 2010.06.25/outbox.cif.g09.slc.cpg/sg58_3_cif.got.tgz:4654.got - 2010.06.26 21:38:00.
