data_PCOD8235674
_publ_section_title
;
Structure prediction by ZEFSAII (Michael W. Deem and Ramdas Pophale) SiO2 
 PCOD8235674
Probable space group: P N N M
;
_chemical_formula_sum "Si O2"
_cell_formula_units_Z 64
_cell_length_a 20.640005
_cell_length_b 19.021780
_cell_length_c 8.888276
_cell_angle_alpha 90.000000
_cell_angle_beta 90.000000
_cell_angle_gamma 90.000000
_cell_volume 3489.622790
_symmetry_space_group_name_H-M "P N N M"
_symmetry_group_IT_number 58
_symmetry_cell_setting 'orthorhombic'
loop_
_space_group_symop_operation_xyz
x,y,z
-x,-y,z
1/2+x,1/2-y,1/2-z
1/2-x,1/2+y,1/2-z
-x,-y,-z
x,y,-z
1/2-x,1/2+y,1/2+z
1/2+x,1/2-y,1/2+z
loop_
_atom_site_type_symbol
_atom_site_label
_atom_site_fract_x
_atom_site_fract_y
_atom_site_fract_z
Si Si1 0.439334 0.545895 0.174900
Si Si2 0.988741 0.822280 0.175875
Si Si3 0.498005 0.819871 0.825354
Si Si4 0.634715 0.830034 0.676848
Si Si5 0.690272 0.537603 0.824464
Si Si6 0.637631 0.669942 0.325772
Si Si7 0.189562 0.538119 0.678823
Si Si8 0.562431 0.037435 0.174724
O O1 0.500000 0.500000 0.228359
O O2 0.439943 0.617627 0.269425
O O3 0.374822 0.504211 0.214397
O O4 0.444590 0.565018 0.000000
O O5 0.968059 0.750975 0.258635
O O6 0.062567 0.841464 0.218887
O O7 0.981386 0.809540 0.000000
O O8 0.563660 0.843440 0.743541
O O9 0.443112 0.879030 0.799600
O O10 0.514616 0.810127 0.000000
O O11 0.631575 0.843806 0.500000
O O12 0.657795 0.750259 0.710274
O O13 0.685566 0.883351 0.752816
O O14 0.682057 0.618325 0.772668
O O15 0.746325 0.500183 0.732992
O O16 0.706597 0.536262 0.000000
O O17 0.648767 0.652012 0.500000
O O18 0.190827 0.543383 0.500000
O O19 0.129098 0.492476 0.743032
O O20 0.500000 0.000000 0.250319
O O21 0.563094 0.017547 0.000000
#
# Coordination Sequence:
#
# PCOD8235674 Si02
#       8
#     8   8   8   8   8   8   8   8
#     4  10  20  36  57  82 109 143 185 228 278 335
#     4  10  20  33  53  84 117 144 181 235 286 333
#     4  10  18  32  56  82 112 148 187 231 281 335
#     4  10  20  35  55  84 116 145 185 234 282 330
#     4  11  23  38  57  83 115 146 186 236 279 333
#     4   9  19  35  55  80 111 146 182 224 276 335
#     4  11  22  38  59  82 113 152 190 229 281 340
#     4   9  17  33  56  83 109 139 186 230 268 324
#
# _framework density 18.340091000000001
#
# number of rings (size 3 to 8) (size 9 to 14) (size 15 to 20)
#    0.000    2.000    2.500    2.625    0.000    3.750 
#    0.000    4.375    0.000    3.000    0.000    0.000 
#    0.000    0.000    0.000    0.000    0.000    0.000 
#
# Total GULP energy -793703.762745 kJ/mol
# GULP energy per Si atom -12401.621293 kJ/mol
# Density = 1.829835 g / cm^3
# Si number density = 18.340091 Si / 1000 Ang^3
#
#
#
# Elastic Constant Matrix: (Units=GPa)
#
#
# Indices 1 2 3 4 5 6 
#
# 1 85.0782 56.3293 40.2068 0.0000 0.0000 0.0000
# 2 56.3293 137.6053 61.6109 0.0000 0.0000 0.0000
# 3 40.2068 61.6109 86.6207 0.0000 0.0000 0.0000
# 4 0.0000 0.0000 0.0000 31.6621 0.0000 0.0000
# 5 0.0000 0.0000 0.0000 0.0000 25.8197 0.0000
# 6 0.0000 0.0000 0.0000 0.0000 0.0000 27.3236
#
#
#
# Elastic Compliance Matrix: (Units=1/GPa)
#
#
# Indices 1 2 3 4 5 6 
#
# 1 0.017178 -0.005079 -0.004361 0.000000 0.000000 0.000000
# 2 -0.005079 0.012165 -0.006295 0.000000 0.000000 0.000000
# 3 -0.004361 -0.006295 0.018046 0.000000 0.000000 0.000000
# 4 0.000000 0.000000 0.000000 0.031583 0.000000 0.000000
# 5 0.000000 0.000000 0.000000 0.000000 0.038730 0.000000
# 6 0.000000 0.000000 0.000000 0.000000 0.000000 0.036598
#
#
# Mechanical properties :
#
#
# Convention : Reuss Voigt Hill
#
# Bulk Modulus (GPa) = 62.81813 69.51089 66.16451
# Shear Modulus (GPa) = 26.16757 27.03823 26.60290
#
# Velocity S-wave (km/s) = 3.78139 3.84379 3.81272
# Velocity P-wave (km/s) = 7.30694 7.59493 7.45233
#
# Compressibility (1/GPa) = 0.01591897
#
# Stress axis : x y z
#
# Youngs Moduli (GPa) = 58.21530 82.20412 55.41407
#
# Poissons Ratio (x) = 0.41754 0.24164
# Poissons Ratio (y) = 0.29570 0.34882
# Poissons Ratio (z) = 0.25385 0.51746
#
# Static dielectric constant tensor:
#      x y z
#    x 3.191590 0.000000 0.000000 
#    y 0.000000 3.522130 0.000000 
#    z 0.000000 0.000000 3.316050 
# 
# 
# High freq. dielectric constant tensor:
#      x y z
#    x 1.681810 0.000000 0.000000 
#    y 0.000000 1.725560 0.000000 
#    z 0.000000 0.000000 1.709820 
# 
# From -- ./inp_files/9322.got.cif
#   From: 2010.06.25/outbox.cif.g09.slc.cpg/sg58_5_cif.got.tgz:9322.got - 2010.06.26 21:38:00.
