data_PCOD8235781
_publ_section_title
;
Structure prediction by ZEFSAII (Michael W. Deem and Ramdas Pophale) SiO2 
 PCOD8235781
Probable space group: P N N M
;
_chemical_formula_sum "Si O2"
_cell_formula_units_Z 64
_cell_length_a 12.173084
_cell_length_b 30.591025
_cell_length_c 9.032098
_cell_angle_alpha 90.000000
_cell_angle_beta 90.000000
_cell_angle_gamma 90.000000
_cell_volume 3363.436934
_symmetry_space_group_name_H-M "P N N M"
_symmetry_group_IT_number 58
_symmetry_cell_setting 'orthorhombic'
loop_
_space_group_symop_operation_xyz
x,y,z
-x,-y,z
1/2+x,1/2-y,1/2-z
1/2-x,1/2+y,1/2-z
-x,-y,-z
x,y,-z
1/2-x,1/2+y,1/2+z
1/2+x,1/2-y,1/2+z
loop_
_atom_site_type_symbol
_atom_site_label
_atom_site_fract_x
_atom_site_fract_y
_atom_site_fract_z
Si Si1 0.010853 0.800158 0.676728
Si Si2 0.748164 0.072837 0.331915
Si Si3 0.148128 0.123902 0.676130
Si Si4 0.244025 0.827045 0.667667
Si Si5 0.967138 0.709004 0.176437
Si Si6 0.898775 0.376430 0.175483
Si Si7 0.461199 0.951131 0.829669
Si Si8 0.488207 0.451088 0.176192
O O1 0.008425 0.797599 0.500000
O O2 0.125649 0.819298 0.741768
O O3 0.004862 0.752516 0.744604
O O4 0.913455 0.832136 0.732671
O O5 0.738824 0.055039 0.500000
O O6 0.717277 0.123326 0.324200
O O7 0.663098 0.047770 0.229068
O O8 0.870671 0.066490 0.269873
O O9 0.145801 0.123340 0.500000
O O10 0.273059 0.123537 0.734553
O O11 0.083805 0.080977 0.737453
O O12 0.230624 0.811684 0.500000
O O13 0.343824 0.799582 0.738146
O O14 0.046255 0.669190 0.224935
O O15 0.969798 0.714535 0.000000
O O16 0.961894 0.417631 0.242295
O O17 0.903483 0.381784 0.000000
O O18 0.500000 0.000000 0.804190
O O19 0.462688 0.937110 0.000000
O O20 0.500000 0.500000 0.240153
O O21 0.493936 0.451077 0.000000
#
# Coordination Sequence:
#
# PCOD8235781 Si02
#       8
#     8   8   8   8   8   8   8   8
#     4  10  20  35  56  80 109 148 185 219 276 338
#     4  10  18  35  62  84 107 145 190 232 275 324
#     4   9  18  33  53  82 117 144 177 229 278 325
#     4   9  17  34  56  77 106 143 182 229 275 319
#     4  10  21  36  53  79 113 143 183 235 274 313
#     4  10  21  38  60  83 110 146 187 230 275 325
#     4  11  25  41  56  80 116 150 182 227 279 329
#     4   9  17  29  52  89 118 137 176 235 283 319
#
# _framework density 19.028155999999999
#
# number of rings (size 3 to 8) (size 9 to 14) (size 15 to 20)
#    0.000    2.250    2.500    0.375    3.500    1.500 
#    0.000    1.250    0.000    1.125    0.000    0.000 
#    0.000    0.000    0.000    0.000    0.000    0.000 
#
# Total GULP energy -793372.390696 kJ/mol
# GULP energy per Si atom -12396.443605 kJ/mol
# Density = 1.898485 g / cm^3
# Si number density = 19.028156 Si / 1000 Ang^3
#
#
#
# Elastic Constant Matrix: (Units=GPa)
#
#
# Indices 1 2 3 4 5 6 
#
# 1 142.4226 53.8240 26.6174 0.0000 0.0000 0.0000
# 2 53.8240 110.8444 31.5488 0.0000 0.0000 0.0000
# 3 26.6174 31.5488 24.5584 0.0000 0.0000 0.0000
# 4 0.0000 0.0000 0.0000 21.0730 0.0000 0.0000
# 5 0.0000 0.0000 0.0000 0.0000 9.9137 0.0000
# 6 0.0000 0.0000 0.0000 0.0000 0.0000 34.7683
#
#
#
# Elastic Compliance Matrix: (Units=1/GPa)
#
#
# Indices 1 2 3 4 5 6 
#
# 1 0.009251 -0.002583 -0.006709 0.000000 0.000000 0.000000
# 2 -0.002583 0.014943 -0.016397 0.000000 0.000000 0.000000
# 3 -0.006709 -0.016397 0.069055 0.000000 0.000000 0.000000
# 4 0.000000 0.000000 0.000000 0.047454 0.000000 0.000000
# 5 0.000000 0.000000 0.000000 0.000000 0.100871 0.000000
# 6 0.000000 0.000000 0.000000 0.000000 0.000000 0.028762
#
#
# Mechanical properties :
#
#
# Convention : Reuss Voigt Hill
#
# Bulk Modulus (GPa) = 23.88249 55.75619 39.81934
# Shear Modulus (GPa) = 14.89561 24.20667 19.55114
#
# Velocity S-wave (km/s) = 2.80093 3.57059 3.20892
# Velocity P-wave (km/s) = 4.79986 6.80914 5.89080
#
# Compressibility (1/GPa) = 0.04187168
#
# Stress axis : x y z
#
# Youngs Moduli (GPa) = 108.09339 66.92261 14.48128
#
# Poissons Ratio (x) = 0.17284 0.09716
# Poissons Ratio (y) = 0.27917 0.23745
# Poissons Ratio (z) = 0.72520 1.09731
#
# Static dielectric constant tensor:
#      x y z
#    x 3.863130 0.000000 0.000000 
#    y 0.000000 3.529470 0.000000 
#    z 0.000000 0.000000 3.014160 
# 
# 
# High freq. dielectric constant tensor:
#      x y z
#    x 1.761390 0.000000 0.000000 
#    y 0.000000 1.747870 0.000000 
#    z 0.000000 0.000000 1.684950 
# 
# From -- ./inp_files/4744.got.cif
#   From: 2010.06.25/outbox.cif.g09.slc.cpg/sg58_3_cif.got.tgz:4744.got - 2010.06.26 21:38:00.
