data_PCOD8235258
_publ_section_title
;
Structure prediction by ZEFSAII (Michael W. Deem and Ramdas Pophale) SiO2 
 PCOD8235258
Probable space group: P N N M
;
_chemical_formula_sum "Si O2"
_cell_formula_units_Z 24
_cell_length_a 8.150610
_cell_length_b 5.265613
_cell_length_c 25.337517
_cell_angle_alpha 90.000000
_cell_angle_beta 90.000000
_cell_angle_gamma 90.000000
_cell_volume 1087.434490
_symmetry_space_group_name_H-M "P N N M"
_symmetry_group_IT_number 58
_symmetry_cell_setting 'orthorhombic'
loop_
_space_group_symop_operation_xyz
x,y,z
-x,-y,z
1/2+x,1/2-y,1/2-z
1/2-x,1/2+y,1/2-z
-x,-y,-z
x,y,-z
1/2-x,1/2+y,1/2+z
1/2+x,1/2-y,1/2+z
loop_
_atom_site_type_symbol
_atom_site_label
_atom_site_fract_x
_atom_site_fract_y
_atom_site_fract_z
Si Si1 0.309481 0.725648 0.394248
Si Si2 0.172828 0.727686 0.061469
Si Si3 0.316610 0.594039 0.274275
O O1 0.502564 0.749028 0.406803
O O2 0.230215 0.488982 0.426624
O O3 0.276349 0.685980 0.332988
O O4 0.226484 0.987433 0.414956
O O5 0.137883 0.690027 0.000000
O O6 0.500000 0.500000 0.266792
O O7 0.205633 0.346864 0.261365
#
# Coordination Sequence:
#
# PCOD8235258 Si02
#       3
#     8   8   8
#     4  10  18  31  49  76 119 152 181 241 304 352
#     4  10  17  28  52  81 121 149 181 238 330 368
#     4  12  25  41  62  86 122 170 212 253 303 356
#
# _framework density 22.070295000000002
#
# number of rings (size 3 to 8) (size 9 to 14) (size 15 to 20)
#    0.000    1.333    3.333    8.000    4.667    0.000 
#    0.000    0.000    0.000    0.000    0.000    0.000 
#    0.000  154.667    0.000    0.000    0.000    0.000 
#
# Total GULP energy -297361.765601 kJ/mol
# GULP energy per Si atom -12390.073567 kJ/mol
# Density = 2.202006 g / cm^3
# Si number density = 22.070295 Si / 1000 Ang^3
#
#
#
# Elastic Constant Matrix: (Units=GPa)
#
#
# Indices 1 2 3 4 5 6 
#
# 1 9.0370 12.3441 13.5278 0.0000 0.0000 0.0000
# 2 12.3441 277.8713 82.5064 0.0000 0.0000 0.0000
# 3 13.5278 82.5064 150.8159 0.0000 0.0000 0.0000
# 4 0.0000 0.0000 0.0000 -93.1710 0.0000 0.0000
# 5 0.0000 0.0000 0.0000 0.0000 15.9035 0.0000
# 6 0.0000 0.0000 0.0000 0.0000 0.0000 17.3527
#
#
#
# Elastic Compliance Matrix: (Units=1/GPa)
#
#
# Indices 1 2 3 4 5 6 
#
# 1 0.129558 -0.002752 -0.010115 0.000000 0.000000 0.000000
# 2 -0.002752 0.004355 -0.002136 0.000000 0.000000 0.000000
# 3 -0.010115 -0.002136 0.008706 0.000000 0.000000 0.000000
# 4 0.000000 0.000000 0.000000 -0.010733 0.000000 0.000000
# 5 0.000000 0.000000 0.000000 0.000000 0.062879 0.000000
# 6 0.000000 0.000000 0.000000 0.000000 0.000000 0.057628
#
#
# Mechanical properties :
#
#
# Convention : Reuss Voigt Hill
#
# Bulk Modulus (GPa) = 8.87998 72.72009 40.80003
# Shear Modulus (GPa) = 15.62806 9.97344 12.80075
#
# Velocity S-wave (km/s) = 2.66391 2.12809 2.41093
# Velocity P-wave (km/s) = 3.67343 6.24973 5.12607
#
# Compressibility (1/GPa) = 0.11261285
#
# Stress axis : x y z
#
# Youngs Moduli (GPa) = 7.71857 229.61119 114.85907
#
# Poissons Ratio (x) = 0.63187 1.16185
# Poissons Ratio (y) = 0.02124 0.24531
# Poissons Ratio (z) = 0.07808 0.49039
#
# Static dielectric constant tensor:
#      x y z
#    x 3.154260 0.000000 0.000000 
#    y 0.000000 7.114220 0.000000 
#    z 0.000000 0.000000 3.955430 
# 
# 
# High freq. dielectric constant tensor:
#      x y z
#    x 1.776460 0.000000 0.000000 
#    y 0.000000 1.925350 0.000000 
#    z 0.000000 0.000000 1.877020 
# 
# From -- ./inp_files/30676.got.cif
#   From: 2010.06.25/outbox.cif.g09.slc.cpg/sg58_16_cif.got.tgz:30676.got - 2010.06.26 21:38:00.
