data_PCOD8235463
_publ_section_title
;
Structure prediction by ZEFSAII (Michael W. Deem and Ramdas Pophale) SiO2 
 PCOD8235463
Probable space group: P N N M
;
_chemical_formula_sum "Si O2"
_cell_formula_units_Z 56
_cell_length_a 19.361924
_cell_length_b 19.368948
_cell_length_c 8.871756
_cell_angle_alpha 90.000000
_cell_angle_beta 90.000000
_cell_angle_gamma 90.000000
_cell_volume 3327.086815
_symmetry_space_group_name_H-M "P N N M"
_symmetry_group_IT_number 58
_symmetry_cell_setting 'orthorhombic'
loop_
_space_group_symop_operation_xyz
x,y,z
-x,-y,z
1/2+x,1/2-y,1/2-z
1/2-x,1/2+y,1/2-z
-x,-y,-z
x,y,-z
1/2-x,1/2+y,1/2+z
1/2+x,1/2-y,1/2+z
loop_
_atom_site_type_symbol
_atom_site_label
_atom_site_fract_x
_atom_site_fract_y
_atom_site_fract_z
Si Si1 0.518785 0.205263 0.678156
Si Si2 0.709584 0.023432 0.321694
Si Si3 0.660477 0.265634 0.677526
Si Si4 0.259389 0.343880 0.321998
Si Si5 0.755925 0.369578 0.821794
Si Si6 0.444442 0.945543 0.679528
Si Si7 0.630401 0.763281 0.322502
O O1 0.511791 0.197958 0.500000
O O2 0.579367 0.259244 0.718610
O O3 0.536456 0.129716 0.744469
O O4 0.446349 0.232259 0.749132
O O5 0.714101 0.033226 0.500000
O O6 0.759372 0.078909 0.242601
O O7 0.631429 0.032983 0.263211
O O8 0.736340 0.948459 0.271407
O O9 0.673091 0.263797 0.500000
O O10 0.697937 0.199532 0.748122
O O11 0.687751 0.337608 0.745032
O O12 0.248031 0.344165 0.500000
O O13 0.332868 0.308871 0.278727
O O14 0.822838 0.327087 0.764386
O O15 0.747638 0.361929 0.000000
O O16 0.445420 0.945880 0.500000
O O17 0.500000 0.000000 0.743424
O O18 0.623596 0.769753 0.500000
#
# Coordination Sequence:
#
# PCOD8235463 Si02
#       7
#     8   8   8   8   8   8   8
#     4   9  15  25  44  70  94 117 152 198 236 271
#     4  10  18  30  48  72  97 124 161 197 236 282
#     4  10  18  30  49  71  94 122 160 200 237 281
#     4  10  19  31  48  69  96 128 160 195 236 284
#     4   9  18  31  48  70  97 126 156 196 238 284
#     4   9  15  23  41  71  99 120 147 188 235 279
#     4   8  15  28  45  68  94 120 155 197 238 274
#
# _framework density 16.831541000000001
#
# number of rings (size 3 to 8) (size 9 to 14) (size 15 to 20)
#    0.000    2.714    1.429    2.571    0.000    4.000 
#    0.000    0.000    0.000    9.857    0.000    6.000 
#    0.000    0.000    0.000    0.000    0.000    0.000 
#
# Total GULP energy -694207.070131 kJ/mol
# GULP energy per Si atom -12396.554824 kJ/mol
# Density = 1.679323 g / cm^3
# Si number density = 16.831541 Si / 1000 Ang^3
#
#
#
# Elastic Constant Matrix: (Units=GPa)
#
#
# Indices 1 2 3 4 5 6 
#
# 1 131.7487 90.4665 29.6640 0.0000 0.0000 0.0000
# 2 90.4665 149.3166 33.6529 0.0000 0.0000 0.0000
# 3 29.6640 33.6529 32.6104 0.0000 0.0000 0.0000
# 4 0.0000 0.0000 0.0000 24.1910 0.0000 0.0000
# 5 0.0000 0.0000 0.0000 0.0000 17.8831 0.0000
# 6 0.0000 0.0000 0.0000 0.0000 0.0000 26.7607
#
#
#
# Elastic Compliance Matrix: (Units=1/GPa)
#
#
# Indices 1 2 3 4 5 6 
#
# 1 0.013605 -0.007107 -0.005042 0.000000 0.000000 0.000000
# 2 -0.007107 0.012439 -0.006372 0.000000 0.000000 0.000000
# 3 -0.005042 -0.006372 0.041828 0.000000 0.000000 0.000000
# 4 0.000000 0.000000 0.000000 0.041338 0.000000 0.000000
# 5 0.000000 0.000000 0.000000 0.000000 0.055919 0.000000
# 6 0.000000 0.000000 0.000000 0.000000 0.000000 0.037368
#
#
# Mechanical properties :
#
#
# Convention : Reuss Voigt Hill
#
# Bulk Modulus (GPa) = 32.43600 69.02694 50.73147
# Shear Modulus (GPa) = 20.01479 24.42646 22.22062
#
# Velocity S-wave (km/s) = 3.45211 3.81364 3.63737
# Velocity P-wave (km/s) = 5.93314 7.77761 6.91713
#
# Compressibility (1/GPa) = 0.03082994
#
# Stress axis : x y z
#
# Youngs Moduli (GPa) = 73.50050 80.39208 23.90761
#
# Poissons Ratio (x) = 0.57132 0.12055
# Poissons Ratio (y) = 0.52234 0.15234
# Poissons Ratio (z) = 0.37061 0.51227
#
# Static dielectric constant tensor:
#      x y z
#    x 3.402470 0.000000 0.000000 
#    y 0.000000 3.218200 0.000000 
#    z 0.000000 0.000000 2.803080 
# 
# 
# High freq. dielectric constant tensor:
#      x y z
#    x 1.644670 0.000000 0.000000 
#    y 0.000000 1.644350 0.000000 
#    z 0.000000 0.000000 1.612310 
# 
# From -- ./inp_files/8182.got.cif
#   From: 2010.06.25/outbox.cif.g09.slc.cpg/sg58_5_cif.got.tgz:8182.got - 2010.06.26 21:38:00.
