data_PCOD8235599
_publ_section_title
;
Structure prediction by ZEFSAII (Michael W. Deem and Ramdas Pophale) SiO2 
 PCOD8235599
Probable space group: P N N M
;
_chemical_formula_sum "Si O2"
_cell_formula_units_Z 64
_cell_length_a 22.254897
_cell_length_b 9.723338
_cell_length_c 15.097756
_cell_angle_alpha 90.000000
_cell_angle_beta 90.000000
_cell_angle_gamma 90.000000
_cell_volume 3267.031890
_symmetry_space_group_name_H-M "P N N M"
_symmetry_group_IT_number 58
_symmetry_cell_setting 'orthorhombic'
loop_
_space_group_symop_operation_xyz
x,y,z
-x,-y,z
1/2+x,1/2-y,1/2-z
1/2-x,1/2+y,1/2-z
-x,-y,-z
x,y,-z
1/2-x,1/2+y,1/2+z
1/2+x,1/2-y,1/2+z
loop_
_atom_site_type_symbol
_atom_site_label
_atom_site_fract_x
_atom_site_fract_y
_atom_site_fract_z
Si Si1 0.275734 0.382964 0.600621
Si Si2 0.204601 0.196846 0.899367
Si Si3 0.356650 0.778464 0.898029
Si Si4 0.080523 0.556733 0.597744
Si Si5 0.832761 0.203331 0.401863
Si Si6 0.986565 0.350062 0.763011
Si Si7 0.116378 0.855136 0.220145
Si Si8 0.898597 0.838703 0.228851
O O1 0.295681 0.355099 0.500000
O O2 0.272188 0.544062 0.620823
O O3 0.212127 0.314973 0.620450
O O4 0.324942 0.314353 0.664440
O O5 0.261293 0.297035 0.883395
O O6 0.150548 0.236299 0.833581
O O7 0.181095 0.210670 0.000000
O O8 0.374811 0.657503 0.830513
O O9 0.400271 0.904729 0.872030
O O10 0.366128 0.732949 0.000000
O O11 0.052158 0.557293 0.500000
O O12 0.142637 0.641082 0.598470
O O13 0.028646 0.619678 0.659886
O O14 0.845109 0.137394 0.500000
O O15 0.867465 0.125042 0.323974
O O16 0.929297 0.268730 0.802417
O O17 0.000000 0.500000 0.808670
O O18 0.041063 0.247599 0.777525
O O19 0.089854 0.005399 0.194337
#
# Coordination Sequence:
#
# PCOD8235599 Si02
#       8
#     8   8   8   8   8   8   8   8
#     4   9  17  33  57  85 112 141 181 230 277 327
#     4   9  17  32  56  81 107 141 187 231 269 322
#     4  10  18  31  55  86 116 141 174 218 273 337
#     4   9  17  31  54  82 105 135 184 228 257 311
#     4   9  16  31  54  80 110 142 175 216 271 331
#     4  11  22  38  56  76 102 150 196 229 257 317
#     4  10  22  36  54  81 114 145 178 230 283 327
#     4  11  22  35  52  81 113 144 180 228 283 320
#
# _framework density 19.589646999999999
#
# number of rings (size 3 to 8) (size 9 to 14) (size 15 to 20)
#    0.000    2.250    2.500    1.125    0.000    1.250 
#    0.000    0.625    0.000    9.750    0.000    0.000 
#    0.000    0.000    0.000    0.000    0.000    0.000 
#
# Total GULP energy -793170.889987 kJ/mol
# GULP energy per Si atom -12393.295156 kJ/mol
# Density = 1.954506 g / cm^3
# Si number density = 19.589647 Si / 1000 Ang^3
#
#
#
# Elastic Constant Matrix: (Units=GPa)
#
#
# Indices 1 2 3 4 5 6 
#
# 1 105.5657 30.1510 28.5539 0.0000 0.0000 0.0000
# 2 30.1510 65.9640 8.0426 0.0000 0.0000 0.0000
# 3 28.5539 8.0426 49.4255 0.0000 0.0000 0.0000
# 4 0.0000 0.0000 0.0000 24.1035 0.0000 0.0000
# 5 0.0000 0.0000 0.0000 0.0000 23.8755 0.0000
# 6 0.0000 0.0000 0.0000 0.0000 0.0000 27.1189
#
#
#
# Elastic Compliance Matrix: (Units=1/GPa)
#
#
# Indices 1 2 3 4 5 6 
#
# 1 0.012657 -0.004993 -0.006500 0.000000 0.000000 0.000000
# 2 -0.004993 0.017436 0.000047 0.000000 0.000000 0.000000
# 3 -0.006500 0.000047 0.023980 0.000000 0.000000 0.000000
# 4 0.000000 0.000000 0.000000 0.041488 0.000000 0.000000
# 5 0.000000 0.000000 0.000000 0.000000 0.041884 0.000000
# 6 0.000000 0.000000 0.000000 0.000000 0.000000 0.036875
#
#
# Mechanical properties :
#
#
# Convention : Reuss Voigt Hill
#
# Bulk Modulus (GPa) = 32.06949 39.38334 35.72641
# Shear Modulus (GPa) = 24.08435 25.30009 24.69222
#
# Velocity S-wave (km/s) = 3.51015 3.59765 3.55417
# Velocity P-wave (km/s) = 5.73012 6.11598 5.92619
#
# Compressibility (1/GPa) = 0.03118229
#
# Stress axis : x y z
#
# Youngs Moduli (GPa) = 79.00871 57.35213 41.70182
#
# Poissons Ratio (x) = 0.28635 0.27105
# Poissons Ratio (y) = 0.39447 -0.00197
# Poissons Ratio (z) = 0.51353 -0.00271
#
# Static dielectric constant tensor:
#      x y z
#    x 3.601200 0.000000 0.000000 
#    y 0.000000 3.358880 0.000000 
#    z 0.000000 0.000000 3.546220 
# 
# 
# High freq. dielectric constant tensor:
#      x y z
#    x 1.768940 0.000000 0.000000 
#    y 0.000000 1.740700 0.000000 
#    z 0.000000 0.000000 1.748530 
# 
# From -- ./inp_files/23530.got.cif
#   From: 2010.06.25/outbox.cif.g09.slc.cpg/sg58_12_cif.got.tgz:23530.got - 2010.06.26 21:38:00.
