data_PCOD8235889
_publ_section_title
;
Structure prediction by ZEFSAII (Michael W. Deem and Ramdas Pophale) SiO2 
 PCOD8235889
Probable space group: P N N M
;
_chemical_formula_sum "Si O2"
_cell_formula_units_Z 64
_cell_length_a 15.335721
_cell_length_b 24.857248
_cell_length_c 9.115389
_cell_angle_alpha 90.000000
_cell_angle_beta 90.000000
_cell_angle_gamma 90.000000
_cell_volume 3474.821109
_symmetry_space_group_name_H-M "P N N M"
_symmetry_group_IT_number 58
_symmetry_cell_setting 'orthorhombic'
loop_
_space_group_symop_operation_xyz
x,y,z
-x,-y,z
1/2+x,1/2-y,1/2-z
1/2-x,1/2+y,1/2-z
-x,-y,-z
x,y,-z
1/2-x,1/2+y,1/2+z
1/2+x,1/2-y,1/2+z
loop_
_atom_site_type_symbol
_atom_site_label
_atom_site_fract_x
_atom_site_fract_y
_atom_site_fract_z
Si Si1 0.964914 0.107577 0.172113
Si Si2 0.995627 0.785311 0.328257
Si Si3 0.368941 0.570962 0.171260
Si Si4 0.057598 0.580474 0.674220
Si Si5 0.696517 0.311587 0.830687
Si Si6 0.116721 0.466660 0.670779
Si Si7 0.307866 0.468305 0.330484
Si Si8 0.871623 0.307824 0.672763
O O1 0.874748 0.078270 0.209848
O O2 0.959640 0.166500 0.240300
O O3 0.039831 0.071554 0.243726
O O4 0.982223 0.111910 0.000000
O O5 0.001624 0.799428 0.500000
O O6 0.892866 0.780204 0.285064
O O7 0.049182 0.732171 0.286471
O O8 0.315522 0.625246 0.204624
O O9 0.315719 0.520375 0.229193
O O10 0.388474 0.564935 0.000000
O O11 0.060747 0.587295 0.500000
O O12 0.109293 0.527861 0.732080
O O13 0.100638 0.634380 0.740666
O O14 0.957449 0.573628 0.732659
O O15 0.779493 0.289140 0.741681
O O16 0.716942 0.301539 0.000000
O O17 0.096900 0.472236 0.500000
O O18 0.212415 0.443354 0.702676
O O19 0.316846 0.486351 0.500000
O O20 0.857092 0.309400 0.500000
#
# Coordination Sequence:
#
# PCOD8235889 Si02
#       8
#     8   8   8   8   8   8   8   8
#     4  10  20  33  49  72 101 134 172 217 264 304
#     4   9  20  38  53  72 104 138 174 218 263 314
#     4  10  20  33  51  74 102 138 173 206 255 312
#     4   8  14  26  47  73  99 127 160 203 252 299
#     4   9  19  35  52  74 103 134 169 213 262 309
#     4   8  14  26  44  71 105 130 154 199 254 301
#     4  10  19  30  47  76 105 130 168 212 252 303
#     4  10  19  33  56  81  99 130 179 221 259 307
#
# _framework density 18.418213999999999
#
# number of rings (size 3 to 8) (size 9 to 14) (size 15 to 20)
#    0.000    2.750    0.000    3.375    0.000    6.500 
#    2.250    0.000    0.000    0.750    0.000    3.500 
#    0.000    0.000    0.000    0.000    0.000    0.000 
#
# Total GULP energy -793311.941592 kJ/mol
# GULP energy per Si atom -12395.499087 kJ/mol
# Density = 1.837629 g / cm^3
# Si number density = 18.418214 Si / 1000 Ang^3
#
#
#
# Elastic Constant Matrix: (Units=GPa)
#
#
# Indices 1 2 3 4 5 6 
#
# 1 151.0435 56.9380 37.1331 0.0000 0.0000 0.0000
# 2 56.9380 65.5110 26.7006 0.0000 0.0000 0.0000
# 3 37.1331 26.7006 42.2019 0.0000 0.0000 0.0000
# 4 0.0000 0.0000 0.0000 22.0719 0.0000 0.0000
# 5 0.0000 0.0000 0.0000 0.0000 21.9381 0.0000
# 6 0.0000 0.0000 0.0000 0.0000 0.0000 25.5224
#
#
#
# Elastic Compliance Matrix: (Units=1/GPa)
#
#
# Indices 1 2 3 4 5 6 
#
# 1 0.010486 -0.007213 -0.004663 0.000000 0.000000 0.000000
# 2 -0.007213 0.025531 -0.009806 0.000000 0.000000 0.000000
# 3 -0.004663 -0.009806 0.034002 0.000000 0.000000 0.000000
# 4 0.000000 0.000000 0.000000 0.045307 0.000000 0.000000
# 5 0.000000 0.000000 0.000000 0.000000 0.045583 0.000000
# 6 0.000000 0.000000 0.000000 0.000000 0.000000 0.039181
#
#
# Mechanical properties :
#
#
# Convention : Reuss Voigt Hill
#
# Bulk Modulus (GPa) = 37.51644 55.58887 46.55266
# Shear Modulus (GPa) = 19.81459 23.10544 21.46001
#
# Velocity S-wave (km/s) = 3.28352 3.54572 3.41714
# Velocity P-wave (km/s) = 5.89820 6.85637 6.39526
#
# Compressibility (1/GPa) = 0.02665498
#
# Stress axis : x y z
#
# Youngs Moduli (GPa) = 95.36392 39.16845 29.40966
#
# Poissons Ratio (x) = 0.28254 0.13713
# Poissons Ratio (y) = 0.68790 0.28839
# Poissons Ratio (z) = 0.44466 0.38408
#
# Static dielectric constant tensor:
#      x y z
#    x 3.528600 0.000000 0.000000 
#    y 0.000000 3.314310 0.000000 
#    z 0.000000 0.000000 3.104610 
# 
# 
# High freq. dielectric constant tensor:
#      x y z
#    x 1.728110 0.000000 0.000000 
#    y 0.000000 1.697660 0.000000 
#    z 0.000000 0.000000 1.683910 
# 
# From -- ./inp_files/6752.got.cif
#   From: 2010.06.25/outbox.cif.g09.slc.cpg/sg58_4_cif.got.tgz:6752.got - 2010.06.26 21:38:00.
