data_PCOD8235440
_publ_section_title
;
Structure prediction by ZEFSAII (Michael W. Deem and Ramdas Pophale) SiO2 
 PCOD8235440
Probable space group: P N N M
;
_chemical_formula_sum "Si O2"
_cell_formula_units_Z 64
_cell_length_a 21.058561
_cell_length_b 18.636397
_cell_length_c 8.488323
_cell_angle_alpha 90.000000
_cell_angle_beta 90.000000
_cell_angle_gamma 90.000000
_cell_volume 3331.290771
_symmetry_space_group_name_H-M "P N N M"
_symmetry_group_IT_number 58
_symmetry_cell_setting 'orthorhombic'
loop_
_space_group_symop_operation_xyz
x,y,z
-x,-y,z
1/2+x,1/2-y,1/2-z
1/2-x,1/2+y,1/2-z
-x,-y,-z
x,y,-z
1/2-x,1/2+y,1/2+z
1/2+x,1/2-y,1/2+z
loop_
_atom_site_type_symbol
_atom_site_label
_atom_site_fract_x
_atom_site_fract_y
_atom_site_fract_z
Si Si1 0.748481 0.083652 0.817770
Si Si2 0.611322 0.085639 0.813629
Si Si3 0.498385 0.669924 0.687246
Si Si4 0.376660 0.584787 0.686479
Si Si5 0.384307 0.420317 0.687807
Si Si6 0.751671 0.429973 0.817706
Si Si7 0.493950 0.167074 0.316376
Si Si8 0.120899 0.580274 0.317840
O O1 0.681212 0.113937 0.752719
O O2 0.816059 0.111482 0.746918
O O3 0.747748 0.998489 0.795656
O O4 0.748420 0.101147 0.000000
O O5 0.560839 0.129360 0.714081
O O6 0.604149 0.001636 0.771892
O O7 0.601539 0.098168 0.000000
O O8 0.499814 0.664710 0.500000
O O9 0.433772 0.634124 0.750469
O O10 0.558650 0.626819 0.758960
O O11 0.501639 0.751528 0.745018
O O12 0.369005 0.591306 0.500000
O O13 0.391971 0.503123 0.739454
O O14 0.311875 0.613788 0.769467
O O15 0.384787 0.416201 0.500000
O O16 0.818006 0.389430 0.779578
O O17 0.749092 0.451361 0.000000
O O18 0.477513 0.163493 0.500000
O O19 0.439350 0.128603 0.219314
O O20 0.137630 0.586488 0.500000
#
# Coordination Sequence:
#
# PCOD8235440 Si02
#       8
#     8   8   8   8   8   8   8   8
#     4   8  15  29  51  76  98 124 162 206 247 290
#     4   9  18  33  52  73  96 126 166 206 245 296
#     4   9  18  31  48  73 104 135 169 208 245 286
#     4   9  16  30  53  76  99 132 171 205 239 286
#     4   8  13  26  52  79  97 123 168 210 239 278
#     4  10  18  29  49  78 106 126 153 202 256 299
#     4  11  22  33  47  72 105 135 164 205 254 295
#     4  10  20  36  56  74  95 127 167 207 245 295
#
# _framework density 19.211773000000001
#
# number of rings (size 3 to 8) (size 9 to 14) (size 15 to 20)
#    0.000    2.750    0.000    4.125    0.000    5.500 
#    0.000    2.500    0.000   13.500    0.000    0.000 
#    0.000    0.000    0.000    0.000    0.000    0.000 
#
# Total GULP energy -793002.808400 kJ/mol
# GULP energy per Si atom -12390.668881 kJ/mol
# Density = 1.916805 g / cm^3
# Si number density = 19.211773 Si / 1000 Ang^3
#
#
#
# Elastic Constant Matrix: (Units=GPa)
#
#
# Indices 1 2 3 4 5 6 
#
# 1 182.6559 61.8882 20.5353 0.0000 0.0000 0.0000
# 2 61.8882 82.3365 19.7814 0.0000 0.0000 0.0000
# 3 20.5353 19.7814 25.0702 0.0000 0.0000 0.0000
# 4 0.0000 0.0000 0.0000 13.0810 0.0000 0.0000
# 5 0.0000 0.0000 0.0000 0.0000 21.1611 0.0000
# 6 0.0000 0.0000 0.0000 0.0000 0.0000 -7.7739
#
#
#
# Elastic Compliance Matrix: (Units=1/GPa)
#
#
# Indices 1 2 3 4 5 6 
#
# 1 0.007432 -0.005088 -0.002073 0.000000 0.000000 0.000000
# 2 -0.005088 0.018470 -0.010406 0.000000 0.000000 0.000000
# 3 -0.002073 -0.010406 0.049796 0.000000 0.000000 0.000000
# 4 0.000000 0.000000 0.000000 0.076447 0.000000 0.000000
# 5 0.000000 0.000000 0.000000 0.000000 0.047257 0.000000
# 6 0.000000 0.000000 0.000000 0.000000 0.000000 -0.128636
#
#
# Mechanical properties :
#
#
# Convention : Reuss Voigt Hill
#
# Bulk Modulus (GPa) = 24.65188 54.94137 39.79663
# Shear Modulus (GPa) = 41.86899 17.81748 29.84323
#
# Velocity S-wave (km/s) = 4.67340 3.04867 3.94557
# Velocity P-wave (km/s) = 6.47923 6.40721 6.44332
#
# Compressibility (1/GPa) = 0.04056486
#
# Stress axis : x y z
#
# Youngs Moduli (GPa) = 134.55723 54.14257 20.08179
#
# Poissons Ratio (x) = 0.27548 0.04162
# Poissons Ratio (y) = 0.68464 0.20896
# Poissons Ratio (z) = 0.27890 0.56339
#
# Static dielectric constant tensor:
#      x y z
#    x 4.239020 0.000000 0.000000 
#    y 0.000000 3.240110 0.000000 
#    z 0.000000 0.000000 3.104040 
# 
# 
# High freq. dielectric constant tensor:
#      x y z
#    x 1.780430 0.000000 0.000000 
#    y 0.000000 1.700230 0.000000 
#    z 0.000000 0.000000 1.715580 
# 
# From -- ./inp_files/9436.got.cif
#   From: 2010.06.25/outbox.cif.g09.slc.cpg/sg58_5_cif.got.tgz:9436.got - 2010.06.26 21:38:00.
