data_PCOD8235064
_publ_section_title
;
Structure prediction by ZEFSAII (Michael W. Deem and Ramdas Pophale) SiO2 
 PCOD8235064
Probable space group: P B C M
;
_chemical_formula_sum "Si O2"
_cell_formula_units_Z 40
_cell_length_a 12.213504
_cell_length_b 8.885598
_cell_length_c 17.862085
_cell_angle_alpha 90.000000
_cell_angle_beta 90.000000
_cell_angle_gamma 90.000000
_cell_volume 1938.470034
_symmetry_space_group_name_H-M "P B C M"
_symmetry_group_IT_number 57
_symmetry_cell_setting 'orthorhombic'
loop_
_space_group_symop_operation_xyz
x,y,z
-x,-y,1/2+z
x,1/2-y,-z
-x,1/2+y,1/2-z
-x,-y,-z
x,y,1/2-z
-x,1/2+y,z
x,1/2-y,1/2+z
loop_
_atom_site_type_symbol
_atom_site_label
_atom_site_fract_x
_atom_site_fract_y
_atom_site_fract_z
Si Si1 0.129870 0.183565 0.166216
Si Si2 0.799334 0.884401 0.054642
Si Si3 0.092748 0.822766 0.919511
Si Si4 0.612733 0.076841 0.522245
Si Si5 0.744551 0.119772 0.835879
O O1 0.104941 0.233062 0.250000
O O2 0.223451 0.296412 0.133075
O O3 0.021222 0.213886 0.118819
O O4 0.166524 0.012260 0.160746
O O5 0.899811 0.997846 0.068631
O O6 0.836877 0.750000 0.000000
O O7 0.698349 0.979899 0.025131
O O8 0.194130 0.767003 0.867437
O O9 0.106161 0.750000 0.000000
O O10 0.612421 0.250000 0.500000
O O11 0.641456 0.072824 0.611143
O O12 0.500000 0.000000 0.500000
O O13 0.703854 0.145098 0.750000
#
# Coordination Sequence:
#
# PCOD8235064 Si02
#       5
#     8   8   8   8   8
#     4  11  25  39  61  99 141 185 224 273 332 396
#     4  12  22  42  66  98 133 176 232 277 331 404
#     4  12  22  39  64  97 137 183 229 266 326 400
#     4  12  25  48  74 100 125 172 227 283 347 413
#     4  11  23  44  66  98 141 174 220 284 338 399
#
# _framework density 20.634829
#
# number of rings (size 3 to 8) (size 9 to 14) (size 15 to 20)
#    0.000    0.400    6.000    3.000    0.000    5.600 
#    0.000    2.000    0.000    0.000    0.000    0.000 
#    0.000    0.000    0.000    0.000    0.000    0.000 
#
# Total GULP energy -495764.719847 kJ/mol
# GULP energy per Si atom -12394.117996 kJ/mol
# Density = 2.058786 g / cm^3
# Si number density = 20.634829 Si / 1000 Ang^3
#
#
#
# Elastic Constant Matrix: (Units=GPa)
#
#
# Indices 1 2 3 4 5 6 
#
# 1 77.9967 31.3831 79.1179 0.0000 0.0000 0.0000
# 2 31.3831 144.8093 69.0743 0.0000 0.0000 0.0000
# 3 79.1179 69.0743 159.9907 0.0000 0.0000 0.0000
# 4 0.0000 0.0000 0.0000 32.7116 0.0000 0.0000
# 5 0.0000 0.0000 0.0000 0.0000 28.0732 0.0000
# 6 0.0000 0.0000 0.0000 0.0000 0.0000 31.9245
#
#
#
# Elastic Compliance Matrix: (Units=1/GPa)
#
#
# Indices 1 2 3 4 5 6 
#
# 1 0.025770 0.000622 -0.013012 0.000000 0.000000 0.000000
# 2 0.000622 0.008712 -0.004069 0.000000 0.000000 0.000000
# 3 -0.013012 -0.004069 0.014442 0.000000 0.000000 0.000000
# 4 0.000000 0.000000 0.000000 0.030570 0.000000 0.000000
# 5 0.000000 0.000000 0.000000 0.000000 0.035621 0.000000
# 6 0.000000 0.000000 0.000000 0.000000 0.000000 0.031324
#
#
# Mechanical properties :
#
#
# Convention : Reuss Voigt Hill
#
# Bulk Modulus (GPa) = 62.47870 82.43860 72.45865
# Shear Modulus (GPa) = 27.07215 32.08997 29.58106
#
# Velocity S-wave (km/s) = 3.62603 3.94780 3.79033
# Velocity P-wave (km/s) = 6.91916 7.79859 7.37200
#
# Compressibility (1/GPa) = 0.01600546
#
# Stress axis : x y z
#
# Youngs Moduli (GPa) = 38.80474 114.78914 69.24386
#
# Poissons Ratio (x) = -0.07139 0.90101
# Poissons Ratio (y) = -0.02413 0.28173
# Poissons Ratio (z) = 0.50493 0.46704
#
# Static dielectric constant tensor:
#      x y z
#    x 3.552630 0.000000 0.000000 
#    y 0.000000 4.349220 0.000000 
#    z 0.000000 0.000000 4.259250 
# 
# 
# High freq. dielectric constant tensor:
#      x y z
#    x 1.775330 0.000000 0.000000 
#    y 0.000000 1.832490 0.000000 
#    z 0.000000 0.000000 1.818470 
# 
# From -- ./inp_files/21608.got.cif
#   From: 2010.03.12/outbox.cif.g09.slc.cpg/sg57_11_cif.got.tgz:21608.got - 2010.04.16 15:48:40.
