data_PCOD8235823
_publ_section_title
;
Structure prediction by ZEFSAII (Michael W. Deem and Ramdas Pophale) SiO2 
 PCOD8235823
Probable space group: P N N M
;
_chemical_formula_sum "Si O2"
_cell_formula_units_Z 64
_cell_length_a 26.768297
_cell_length_b 18.368064
_cell_length_c 8.629790
_cell_angle_alpha 90.000000
_cell_angle_beta 90.000000
_cell_angle_gamma 90.000000
_cell_volume 4243.110616
_symmetry_space_group_name_H-M "P N N M"
_symmetry_group_IT_number 58
_symmetry_cell_setting 'orthorhombic'
loop_
_space_group_symop_operation_xyz
x,y,z
-x,-y,z
1/2+x,1/2-y,1/2-z
1/2-x,1/2+y,1/2-z
-x,-y,-z
x,y,-z
1/2-x,1/2+y,1/2+z
1/2+x,1/2-y,1/2+z
loop_
_atom_site_type_symbol
_atom_site_label
_atom_site_fract_x
_atom_site_fract_y
_atom_site_fract_z
Si Si1 0.746110 0.419599 0.818631
Si Si2 0.300867 0.785703 0.178179
Si Si3 0.553376 0.580897 0.183041
Si Si4 0.650686 0.657475 0.820263
Si Si5 0.349350 0.658628 0.680101
Si Si6 0.756188 0.075945 0.181376
Si Si7 0.442591 0.583502 0.183567
Si Si8 0.709538 0.791672 0.178404
O O1 0.691798 0.390369 0.767291
O O2 0.752539 0.503559 0.777900
O O3 0.791748 0.375906 0.732621
O O4 0.751813 0.409259 0.000000
O O5 0.343275 0.744942 0.279431
O O6 0.290369 0.870064 0.222195
O O7 0.249507 0.743677 0.207257
O O8 0.316318 0.778478 0.000000
O O9 0.595636 0.637000 0.243253
O O10 0.498492 0.604631 0.242087
O O11 0.567874 0.499510 0.236436
O O12 0.550164 0.580505 0.000000
O O13 0.691393 0.612231 0.726152
O O14 0.658470 0.745135 0.800063
O O15 0.656029 0.634990 0.000000
O O16 0.341826 0.645698 0.500000
O O17 0.404553 0.636044 0.729821
O O18 0.757543 0.058106 0.000000
O O19 0.436218 0.593116 0.000000
O O20 0.727494 0.787022 0.000000
#
# Coordination Sequence:
#
# PCOD8235823 Si02
#       8
#     8   8   8   8   8   8   8   8
#     4  11  20  29  42  58  80 110 141 169 202 245
#     4   9  17  29  43  58  79 107 136 165 200 243
#     4   8  15  27  43  61  80 107 142 174 201 237
#     4   9  16  27  43  61  82 111 142 168 201 242
#     4  11  20  29  42  60  83 109 140 174 206 239
#     4  10  19  29  42  62  85 107 135 170 205 241
#     4   9  16  28  44  60  81 109 141 173 204 239
#     4   9  16  26  40  58  81 106 135 171 203 234
#
# _framework density 15.083273999999999
#
# number of rings (size 3 to 8) (size 9 to 14) (size 15 to 20)
#    0.000    2.500    0.000    6.375    0.000    3.000 
#    0.000    1.875    0.000    0.000    0.000    0.000 
#    0.000    1.000    0.000   11.500    0.000    3.250 
#
# Total GULP energy -793022.456201 kJ/mol
# GULP energy per Si atom -12390.975878 kJ/mol
# Density = 1.504894 g / cm^3
# Si number density = 15.083274 Si / 1000 Ang^3
#
#
#
# Elastic Constant Matrix: (Units=GPa)
#
#
# Indices 1 2 3 4 5 6 
#
# 1 91.2241 54.8534 25.5558 0.0000 0.0000 0.0000
# 2 54.8534 94.3009 29.6316 0.0000 0.0000 0.0000
# 3 25.5558 29.6316 53.1357 0.0000 0.0000 0.0000
# 4 0.0000 0.0000 0.0000 21.6667 0.0000 0.0000
# 5 0.0000 0.0000 0.0000 0.0000 16.3759 0.0000
# 6 0.0000 0.0000 0.0000 0.0000 0.0000 28.4874
#
#
#
# Elastic Compliance Matrix: (Units=1/GPa)
#
#
# Indices 1 2 3 4 5 6 
#
# 1 0.017320 -0.009042 -0.003288 0.000000 0.000000 0.000000
# 2 -0.009042 0.017577 -0.005454 0.000000 0.000000 0.000000
# 3 -0.003288 -0.005454 0.023442 0.000000 0.000000 0.000000
# 4 0.000000 0.000000 0.000000 0.046154 0.000000 0.000000
# 5 0.000000 0.000000 0.000000 0.000000 0.061065 0.000000
# 6 0.000000 0.000000 0.000000 0.000000 0.000000 0.035103
#
#
# Mechanical properties :
#
#
# Convention : Reuss Voigt Hill
#
# Bulk Modulus (GPa) = 43.91099 50.97138 47.44119
# Shear Modulus (GPa) = 20.50700 21.88065 21.19382
#
# Velocity S-wave (km/s) = 3.69126 3.81288 3.75256
# Velocity P-wave (km/s) = 6.88061 7.29731 7.09202
#
# Compressibility (1/GPa) = 0.02277334
#
# Stress axis : x y z
#
# Youngs Moduli (GPa) = 57.73737 56.89145 42.65786
#
# Poissons Ratio (x) = 0.51439 0.14026
# Poissons Ratio (y) = 0.52203 0.23264
# Poissons Ratio (z) = 0.18984 0.31026
#
# Static dielectric constant tensor:
#      x y z
#    x 2.933970 0.000000 0.000000 
#    y 0.000000 3.218900 0.000000 
#    z 0.000000 0.000000 2.859650 
# 
# 
# High freq. dielectric constant tensor:
#      x y z
#    x 1.542290 0.000000 0.000000 
#    y 0.000000 1.569570 0.000000 
#    z 0.000000 0.000000 1.580940 
# 
# From -- ./inp_files/10545.got.cif
#   From: 2010.06.25/outbox.cif.g09.slc.cpg/sg58_6_cif.got.tgz:10545.got - 2010.06.26 21:38:00.
