data_PCOD8235932
_publ_section_title
;
Structure prediction by ZEFSAII (Michael W. Deem and Ramdas Pophale) SiO2 
 PCOD8235932
Probable space group: P N N M
;
_chemical_formula_sum "Si O2"
_cell_formula_units_Z 56
_cell_length_a 18.270779
_cell_length_b 20.941800
_cell_length_c 8.792992
_cell_angle_alpha 90.000000
_cell_angle_beta 90.000000
_cell_angle_gamma 90.000000
_cell_volume 3364.400975
_symmetry_space_group_name_H-M "P N N M"
_symmetry_group_IT_number 58
_symmetry_cell_setting 'orthorhombic'
loop_
_space_group_symop_operation_xyz
x,y,z
-x,-y,z
1/2+x,1/2-y,1/2-z
1/2-x,1/2+y,1/2-z
-x,-y,-z
x,y,-z
1/2-x,1/2+y,1/2+z
1/2+x,1/2-y,1/2+z
loop_
_atom_site_type_symbol
_atom_site_label
_atom_site_fract_x
_atom_site_fract_y
_atom_site_fract_z
Si Si1 0.584912 0.002102 0.177243
Si Si2 0.343767 0.130862 0.178905
Si Si3 0.147260 0.373878 0.175955
Si Si4 0.790630 0.189934 0.323761
Si Si5 0.427783 0.752869 0.823277
Si Si6 0.717085 0.311298 0.176501
Si Si7 0.081325 0.754439 0.179269
O O1 0.623888 0.056358 0.273950
O O2 0.500000 0.000000 0.219461
O O3 0.620463 0.935594 0.227578
O O4 0.597001 0.016425 0.000000
O O5 0.258676 0.130900 0.236439
O O6 0.390158 0.187246 0.255682
O O7 0.346740 0.140811 0.000000
O O8 0.235924 0.370002 0.200128
O O9 0.104071 0.320930 0.271790
O O10 0.127674 0.362367 0.000000
O O11 0.802989 0.205096 0.500000
O O12 0.750581 0.247715 0.243405
O O13 0.870309 0.185660 0.243831
O O14 0.370191 0.694462 0.796838
O O15 0.498352 0.733706 0.727873
O O16 0.448082 0.759567 0.000000
O O17 0.736050 0.316964 0.000000
O O18 0.087054 0.753182 0.000000
#
# Coordination Sequence:
#
# PCOD8235932 Si02
#       7
#     8   8   8   8   8   8   8
#     4  10  21  34  47  65  92 128 162 188 222 268
#     4  10  19  31  47  66  92 126 158 189 226 269
#     4  10  20  32  48  69  92 122 158 194 227 265
#     4   9  17  30  46  65  91 120 150 185 229 276
#     4  10  19  31  47  67  94 124 151 186 233 279
#     4   9  17  29  46  66  88 118 153 188 228 272
#     4  11  20  29  46  71  95 120 152 190 230 271
#
# _framework density 16.644864999999999
#
# number of rings (size 3 to 8) (size 9 to 14) (size 15 to 20)
#    0.000    2.143    0.000    6.000    0.000    6.000 
#    0.000    0.000    0.000    0.000    0.000    1.000 
#    0.000    8.000    0.000    0.000    0.000    0.000 
#
# Total GULP energy -694035.575664 kJ/mol
# GULP energy per Si atom -12393.492423 kJ/mol
# Density = 1.660698 g / cm^3
# Si number density = 16.644865 Si / 1000 Ang^3
#
#
#
# Elastic Constant Matrix: (Units=GPa)
#
#
# Indices 1 2 3 4 5 6 
#
# 1 125.8930 49.6994 55.0246 0.0000 0.0000 0.0000
# 2 49.6994 63.0171 31.6337 0.0000 0.0000 0.0000
# 3 55.0246 31.6337 108.3883 0.0000 0.0000 0.0000
# 4 0.0000 0.0000 0.0000 13.6949 0.0000 0.0000
# 5 0.0000 0.0000 0.0000 0.0000 29.8189 0.0000
# 6 0.0000 0.0000 0.0000 0.0000 0.0000 28.5840
#
#
#
# Elastic Compliance Matrix: (Units=1/GPa)
#
#
# Indices 1 2 3 4 5 6 
#
# 1 0.013001 -0.008131 -0.004227 0.000000 0.000000 0.000000
# 2 -0.008131 0.023679 -0.002783 0.000000 0.000000 0.000000
# 3 -0.004227 -0.002783 0.012184 0.000000 0.000000 0.000000
# 4 0.000000 0.000000 0.000000 0.073020 0.000000 0.000000
# 5 0.000000 0.000000 0.000000 0.000000 0.033536 0.000000
# 6 0.000000 0.000000 0.000000 0.000000 0.000000 0.034985
#
#
# Mechanical properties :
#
#
# Convention : Reuss Voigt Hill
#
# Bulk Modulus (GPa) = 53.81701 63.33488 58.57594
# Shear Modulus (GPa) = 22.03815 25.14895 23.59355
#
# Velocity S-wave (km/s) = 3.64266 3.89126 3.76901
# Velocity P-wave (km/s) = 7.07776 7.63692 7.36265
#
# Compressibility (1/GPa) = 0.01858149
#
# Stress axis : x y z
#
# Youngs Moduli (GPa) = 76.91859 42.23227 82.07481
#
# Poissons Ratio (x) = 0.34341 0.34691
# Poissons Ratio (y) = 0.62546 0.22839
# Poissons Ratio (z) = 0.32512 0.11752
#
# Static dielectric constant tensor:
#      x y z
#    x 3.837520 0.000000 0.000000 
#    y 0.000000 2.979860 0.000000 
#    z 0.000000 0.000000 3.264470 
# 
# 
# High freq. dielectric constant tensor:
#      x y z
#    x 1.651050 0.000000 0.000000 
#    y 0.000000 1.594080 0.000000 
#    z 0.000000 0.000000 1.660770 
# 
# From -- ./inp_files/8114.got.cif
#   From: 2010.06.25/outbox.cif.g09.slc.cpg/sg58_5_cif.got.tgz:8114.got - 2010.06.26 21:38:00.
