data_PCOD8235108
_publ_section_title
;
Structure prediction by ZEFSAII (Michael W. Deem and Ramdas Pophale) SiO2 
 PCOD8235108
Probable space group: P B C M
;
_chemical_formula_sum "Si O2"
_cell_formula_units_Z 48
_cell_length_a 19.551413
_cell_length_b 8.798833
_cell_length_c 14.063712
_cell_angle_alpha 90.000000
_cell_angle_beta 90.000000
_cell_angle_gamma 90.000000
_cell_volume 2419.375002
_symmetry_space_group_name_H-M "P B C M"
_symmetry_group_IT_number 57
_symmetry_cell_setting 'orthorhombic'
loop_
_space_group_symop_operation_xyz
x,y,z
-x,-y,1/2+z
x,1/2-y,-z
-x,1/2+y,1/2-z
-x,-y,-z
x,y,1/2-z
-x,1/2+y,z
x,1/2-y,1/2+z
loop_
_atom_site_type_symbol
_atom_site_label
_atom_site_fract_x
_atom_site_fract_y
_atom_site_fract_z
Si Si1 0.674091 0.426582 0.518340
Si Si2 0.937697 0.909045 0.545939
Si Si3 0.900749 0.447261 0.750000
Si Si4 0.552181 0.358367 0.641545
Si Si5 0.584516 0.008427 0.858688
Si Si6 0.824272 0.086973 0.050949
Si Si7 0.961418 0.794077 0.750000
O O1 0.682915 0.250000 0.500000
O O2 0.612504 0.453959 0.592160
O O3 0.652715 0.516608 0.421833
O O4 0.747382 0.482233 0.557071
O O5 0.948098 0.750000 0.500000
O O6 0.936406 0.890106 0.659289
O O7 0.865488 0.978566 0.518765
O O8 0.000000 0.000000 0.500000
O O9 0.854810 0.418960 0.842975
O O10 0.935571 0.617409 0.750000
O O11 0.956129 0.310532 0.750000
O O12 0.556689 0.408444 0.750000
O O13 0.477119 0.403461 0.603467
O O14 0.560044 0.180452 0.625128
O O15 0.604386 0.974324 0.750000
O O16 0.826883 0.250000 0.000000
#
# Coordination Sequence:
#
# PCOD8235108 Si02
#       7
#     8   8   4   8   8   8   4
#     4   9  19  36  54  80 113 155 194 239 301 359
#     4  12  23  42  65  93 126 157 206 255 306 372
#     4  12  26  42  70  94 124 161 209 254 318 377
#     4   9  17  30  54  81 107 145 192 243 293 346
#     4   9  17  32  54  80 112 144 195 245 295 350
#     4  11  25  42  62  93 128 162 207 259 307 375
#     4  12  24  42  70  96 122 165 203 256 318 361
#
# _framework density 19.839834
#
# number of rings (size 3 to 8) (size 9 to 14) (size 15 to 20)
#    0.000    1.667    3.333    1.000    3.500    0.000 
#    6.000    1.667    0.000    0.000    0.000    0.000 
#    0.000    0.000    0.000    0.000    0.000    0.000 
#
# Total GULP energy -594846.283599 kJ/mol
# GULP energy per Si atom -12392.630908 kJ/mol
# Density = 1.979468 g / cm^3
# Si number density = 19.839834 Si / 1000 Ang^3
#
#
#
# Elastic Constant Matrix: (Units=GPa)
#
#
# Indices 1 2 3 4 5 6 
#
# 1 149.0411 35.2476 67.4262 0.0000 0.0000 0.0000
# 2 35.2476 60.1168 34.0297 0.0000 0.0000 0.0000
# 3 67.4262 34.0297 140.7644 0.0000 0.0000 0.0000
# 4 0.0000 0.0000 0.0000 27.7912 0.0000 0.0000
# 5 0.0000 0.0000 0.0000 0.0000 43.8769 0.0000
# 6 0.0000 0.0000 0.0000 0.0000 0.0000 22.5648
#
#
#
# Elastic Compliance Matrix: (Units=1/GPa)
#
#
# Indices 1 2 3 4 5 6 
#
# 1 0.009105 -0.003325 -0.003558 0.000000 0.000000 0.000000
# 2 -0.003325 0.020486 -0.003360 0.000000 0.000000 0.000000
# 3 -0.003558 -0.003360 0.009620 0.000000 0.000000 0.000000
# 4 0.000000 0.000000 0.000000 0.035983 0.000000 0.000000
# 5 0.000000 0.000000 0.000000 0.000000 0.022791 0.000000
# 6 0.000000 0.000000 0.000000 0.000000 0.000000 0.044317
#
#
# Mechanical properties :
#
#
# Convention : Reuss Voigt Hill
#
# Bulk Modulus (GPa) = 53.39949 69.25881 61.32915
# Shear Modulus (GPa) = 29.58080 33.06117 31.32099
#
# Velocity S-wave (km/s) = 3.86551 4.08659 3.97759
# Velocity P-wave (km/s) = 6.84811 7.56649 7.21624
#
# Compressibility (1/GPa) = 0.01872677
#
# Stress axis : x y z
#
# Youngs Moduli (GPa) = 109.82538 48.81498 103.94540
#
# Poissons Ratio (x) = 0.16230 0.36981
# Poissons Ratio (y) = 0.36515 0.34923
# Poissons Ratio (z) = 0.39073 0.16401
#
# Static dielectric constant tensor:
#      x y z
#    x 3.969700 0.000000 0.000000 
#    y 0.000000 3.470940 0.000000 
#    z 0.000000 0.000000 3.937770 
# 
# 
# High freq. dielectric constant tensor:
#      x y z
#    x 1.774560 0.000000 0.000000 
#    y 0.000000 1.755160 0.000000 
#    z 0.000000 0.000000 1.791300 
# 
# From -- ./inp_files/19021.got.cif
#   From: 2010.03.12/outbox.cif.g09.slc.cpg/sg57_10_cif.got.tgz:19021.got - 2010.04.16 15:48:40.
