data_PCOD8235648
_publ_section_title
;
Structure prediction by ZEFSAII (Michael W. Deem and Ramdas Pophale) SiO2 
 PCOD8235648
Probable space group: P N N M
;
_chemical_formula_sum "Si O2"
_cell_formula_units_Z 64
_cell_length_a 15.529782
_cell_length_b 23.991051
_cell_length_c 9.017684
_cell_angle_alpha 90.000000
_cell_angle_beta 90.000000
_cell_angle_gamma 90.000000
_cell_volume 3359.770758
_symmetry_space_group_name_H-M "P N N M"
_symmetry_group_IT_number 58
_symmetry_cell_setting 'orthorhombic'
loop_
_space_group_symop_operation_xyz
x,y,z
-x,-y,z
1/2+x,1/2-y,1/2-z
1/2-x,1/2+y,1/2-z
-x,-y,-z
x,y,-z
1/2-x,1/2+y,1/2+z
1/2+x,1/2-y,1/2+z
loop_
_atom_site_type_symbol
_atom_site_label
_atom_site_fract_x
_atom_site_fract_y
_atom_site_fract_z
Si Si1 0.150761 0.862260 0.173542
Si Si2 0.162096 0.631909 0.674621
Si Si3 0.502678 0.062486 0.176650
Si Si4 0.662364 0.370780 0.176213
Si Si5 0.597759 0.252131 0.823855
Si Si6 0.659069 0.134694 0.825187
Si Si7 0.009870 0.064540 0.826132
Si Si8 0.596637 0.747600 0.174522
O O1 0.245066 0.887385 0.213275
O O2 0.146344 0.802912 0.251391
O O3 0.077139 0.904528 0.228350
O O4 0.142441 0.851556 0.000000
O O5 0.176546 0.624871 0.500000
O O6 0.082030 0.595003 0.730098
O O7 0.246214 0.609965 0.759200
O O8 0.144485 0.695694 0.718865
O O9 0.587763 0.092887 0.242305
O O10 0.500000 0.000000 0.240771
O O11 0.506616 0.061845 0.000000
O O12 0.643354 0.308174 0.234946
O O13 0.589917 0.412307 0.235312
O O14 0.663734 0.374122 0.000000
O O15 0.646175 0.197402 0.761261
O O16 0.500397 0.250721 0.763648
O O17 0.597714 0.252316 0.000000
O O18 0.644223 0.137508 0.000000
O O19 0.026205 0.074016 0.000000
O O20 0.000000 0.000000 0.787383
O O21 0.596300 0.738454 0.000000
#
# Coordination Sequence:
#
# PCOD8235648 Si02
#       8
#     8   8   8   8   8   8   8   8
#     4  10  20  33  54  81 108 140 176 221 271 320
#     4  10  20  34  55  82 112 143 177 223 275 324
#     4   9  17  30  51  78 105 137 178 218 257 310
#     4  11  22  36  57  81 107 144 186 227 273 330
#     4   9  16  29  50  74 103 137 171 213 263 318
#     4   9  16  29  49  75 104 134 173 214 260 315
#     4  10  22  39  56  78 111 146 182 229 280 325
#     4  10  18  32  54  78 108 143 176 216 269 326
#
# _framework density 19.048919000000001
#
# number of rings (size 3 to 8) (size 9 to 14) (size 15 to 20)
#    0.000    2.250    2.500    1.125    0.000    2.750 
#    0.000    3.750    0.000    1.125    0.000    0.000 
#    0.000    0.000    0.000    0.000    0.000    0.000 
#
# Total GULP energy -793570.208897 kJ/mol
# GULP energy per Si atom -12399.534514 kJ/mol
# Density = 1.900556 g / cm^3
# Si number density = 19.048919 Si / 1000 Ang^3
#
#
#
# Elastic Constant Matrix: (Units=GPa)
#
#
# Indices 1 2 3 4 5 6 
#
# 1 175.5953 79.9663 38.1114 0.0000 0.0000 0.0000
# 2 79.9663 144.0015 32.5296 0.0000 0.0000 0.0000
# 3 38.1114 32.5296 28.5765 0.0000 0.0000 0.0000
# 4 0.0000 0.0000 0.0000 21.4991 0.0000 0.0000
# 5 0.0000 0.0000 0.0000 0.0000 18.1926 0.0000
# 6 0.0000 0.0000 0.0000 0.0000 0.0000 15.0560
#
#
#
# Elastic Compliance Matrix: (Units=1/GPa)
#
#
# Indices 1 2 3 4 5 6 
#
# 1 0.008908 -0.003046 -0.008413 0.000000 0.000000 0.000000
# 2 -0.003046 0.010390 -0.007764 0.000000 0.000000 0.000000
# 3 -0.008413 -0.007764 0.055052 0.000000 0.000000 0.000000
# 4 0.000000 0.000000 0.000000 0.046514 0.000000 0.000000
# 5 0.000000 0.000000 0.000000 0.000000 0.054967 0.000000
# 6 0.000000 0.000000 0.000000 0.000000 0.000000 0.066419
#
#
# Mechanical properties :
#
#
# Convention : Reuss Voigt Hill
#
# Bulk Modulus (GPa) = 27.85267 72.15419 50.00343
# Shear Modulus (GPa) = 17.08440 24.12061 20.60251
#
# Velocity S-wave (km/s) = 2.99803 3.56229 3.29227
# Velocity P-wave (km/s) = 5.16117 7.40814 6.38428
#
# Compressibility (1/GPa) = 0.03590320
#
# Stress axis : x y z
#
# Youngs Moduli (GPa) = 112.25677 96.24565 18.16465
#
# Poissons Ratio (x) = 0.29321 0.15281
# Poissons Ratio (y) = 0.34198 0.14104
# Poissons Ratio (z) = 0.94437 0.74730
#
# Static dielectric constant tensor:
#      x y z
#    x 3.688390 0.000000 0.000000 
#    y 0.000000 3.596440 0.000000 
#    z 0.000000 0.000000 2.995900 
# 
# 
# High freq. dielectric constant tensor:
#      x y z
#    x 1.758870 0.000000 0.000000 
#    y 0.000000 1.740890 0.000000 
#    z 0.000000 0.000000 1.690830 
# 
# From -- ./inp_files/6900.got.cif
#   From: 2010.06.25/outbox.cif.g09.slc.cpg/sg58_4_cif.got.tgz:6900.got - 2010.06.26 21:38:00.
