data_PCOD8235848
_publ_section_title
;
Structure prediction by ZEFSAII (Michael W. Deem and Ramdas Pophale) SiO2 
 PCOD8235848
Probable space group: P N N M
;
_chemical_formula_sum "Si O2"
_cell_formula_units_Z 44
_cell_length_a 20.842564
_cell_length_b 5.257277
_cell_length_c 25.329028
_cell_angle_alpha 90.000000
_cell_angle_beta 90.000000
_cell_angle_gamma 90.000000
_cell_volume 2775.431595
_symmetry_space_group_name_H-M "P N N M"
_symmetry_group_IT_number 58
_symmetry_cell_setting 'orthorhombic'
loop_
_space_group_symop_operation_xyz
x,y,z
-x,-y,z
1/2+x,1/2-y,1/2-z
1/2-x,1/2+y,1/2-z
-x,-y,-z
x,y,-z
1/2-x,1/2+y,1/2+z
1/2+x,1/2-y,1/2+z
loop_
_atom_site_type_symbol
_atom_site_label
_atom_site_fract_x
_atom_site_fract_y
_atom_site_fract_z
Si Si1 0.228576 0.330753 0.182965
Si Si2 0.432339 0.369863 0.200683
Si Si3 0.391222 0.890922 0.938483
Si Si4 0.000000 0.500000 0.630117
Si Si5 0.341392 0.415547 0.889532
Si Si6 0.174197 0.828575 0.220088
O O1 0.269575 0.347226 0.129243
O O2 0.182150 0.575189 0.185229
O O3 0.275389 0.322975 0.232684
O O4 0.185324 0.075771 0.183358
O O5 0.500000 0.500000 0.211448
O O6 0.383350 0.513350 0.161168
O O7 0.398047 0.325918 0.256763
O O8 0.446802 0.114232 0.168958
O O9 0.340447 0.663625 0.927355
O O10 0.458370 0.817589 0.908656
O O11 0.368067 0.168910 0.919667
O O12 0.405048 0.905779 0.000000
#
# Coordination Sequence:
#
# PCOD8235848 Si02
#       6
#     8   8   8   4   8   8
#     4   9  17  31  44  64  81 109 147 190 235 264
#     4  10  19  30  44  64  91 121 157 186 231 261
#     4  11  21  33  47  66  87 119 161 200 239 271
#     4  10  21  32  44  62  94 130 158 198 227 266
#     4  10  20  33  49  62  87 117 153 199 239 276
#     4   9  18  27  46  63  85 108 147 192 219 270
#
# _framework density 15.853389999999999
#
# number of rings (size 3 to 8) (size 9 to 14) (size 15 to 20)
#    0.000    2.182    1.818    1.909    2.545    4.364 
#    0.000    2.727    0.000    0.000    0.000    0.000 
#    0.000    0.000    0.000    0.000    0.000   63.636 
#
# Total GULP energy -545146.253650 kJ/mol
# GULP energy per Si atom -12389.687583 kJ/mol
# Density = 1.581731 g / cm^3
# Si number density = 15.853390 Si / 1000 Ang^3
#
#
#
# Elastic Constant Matrix: (Units=GPa)
#
#
# Indices 1 2 3 4 5 6 
#
# 1 75.0855 30.4663 48.4656 0.0000 0.0000 0.0000
# 2 30.4663 104.0589 30.0333 0.0000 0.0000 0.0000
# 3 48.4656 30.0333 50.6784 0.0000 0.0000 0.0000
# 4 0.0000 0.0000 0.0000 21.2067 0.0000 0.0000
# 5 0.0000 0.0000 0.0000 0.0000 10.0675 0.0000
# 6 0.0000 0.0000 0.0000 0.0000 0.0000 18.4695
#
#
#
# Elastic Compliance Matrix: (Units=1/GPa)
#
#
# Indices 1 2 3 4 5 6 
#
# 1 0.034842 -0.000705 -0.032903 0.000000 0.000000 0.000000
# 2 -0.000705 0.011607 -0.006205 0.000000 0.000000 0.000000
# 3 -0.032903 -0.006205 0.054876 0.000000 0.000000 0.000000
# 4 0.000000 0.000000 0.000000 0.047155 0.000000 0.000000
# 5 0.000000 0.000000 0.000000 0.000000 0.099330 0.000000
# 6 0.000000 0.000000 0.000000 0.000000 0.000000 0.054143
#
#
# Mechanical properties :
#
#
# Convention : Reuss Voigt Hill
#
# Bulk Modulus (GPa) = 46.08322 49.75036 47.91679
# Shear Modulus (GPa) = 12.85967 18.00591 15.43279
#
# Velocity S-wave (km/s) = 2.85118 3.37378 3.12343
# Velocity P-wave (km/s) = 6.32222 6.82834 6.58015
#
# Compressibility (1/GPa) = 0.02169987
#
# Stress axis : x y z
#
# Youngs Moduli (GPa) = 28.70073 86.15448 18.22283
#
# Poissons Ratio (x) = 0.06070 0.59959
# Poissons Ratio (y) = 0.02022 0.11307
# Poissons Ratio (z) = 0.94435 0.53457
#
# Static dielectric constant tensor:
#      x y z
#    x 3.010170 0.000000 0.000000 
#    y 0.000000 3.125950 0.000000 
#    z 0.000000 0.000000 2.772660 
# 
# 
# High freq. dielectric constant tensor:
#      x y z
#    x 1.580440 0.000000 0.000000 
#    y 0.000000 1.620610 0.000000 
#    z 0.000000 0.000000 1.566380 
# 
# From -- ./inp_files/31000.got.cif
#   From: 2010.06.25/outbox.cif.g09.slc.cpg/sg58_16_cif.got.tgz:31000.got - 2010.06.26 21:38:00.
