data_PCOD8235573
_publ_section_title
;
Structure prediction by ZEFSAII (Michael W. Deem and Ramdas Pophale) SiO2 
 PCOD8235573
Probable space group: P N N M
;
_chemical_formula_sum "Si O2"
_cell_formula_units_Z 64
_cell_length_a 12.559174
_cell_length_b 15.647213
_cell_length_c 18.426495
_cell_angle_alpha 90.000000
_cell_angle_beta 90.000000
_cell_angle_gamma 90.000000
_cell_volume 3621.102394
_symmetry_space_group_name_H-M "P N N M"
_symmetry_group_IT_number 58
_symmetry_cell_setting 'orthorhombic'
loop_
_space_group_symop_operation_xyz
x,y,z
-x,-y,z
1/2+x,1/2-y,1/2-z
1/2-x,1/2+y,1/2-z
-x,-y,-z
x,y,-z
1/2-x,1/2+y,1/2+z
1/2+x,1/2-y,1/2+z
loop_
_atom_site_type_symbol
_atom_site_label
_atom_site_fract_x
_atom_site_fract_y
_atom_site_fract_z
Si Si1 0.376389 0.833511 0.809023
Si Si2 0.891471 0.450757 0.920041
Si Si3 0.667039 0.285252 0.315752
Si Si4 0.392510 0.173474 0.789525
Si Si5 0.690593 0.621601 0.415920
Si Si6 0.045041 0.729167 0.133205
Si Si7 0.686305 0.003411 0.272428
Si Si8 0.381790 0.519323 0.314020
O O1 0.342317 0.746879 0.767585
O O2 0.498936 0.825180 0.837163
O O3 0.299109 0.848677 0.876510
O O4 0.376355 0.910812 0.749875
O O5 0.914488 0.350641 0.912561
O O6 0.813169 0.486875 0.858623
O O7 0.000000 0.500000 0.909211
O O8 0.842006 0.466912 0.000000
O O9 0.794335 0.281968 0.333948
O O10 0.585719 0.232068 0.367473
O O11 0.627664 0.380844 0.324624
O O12 0.414848 0.225851 0.715979
O O13 0.363228 0.075833 0.771336
O O14 0.718234 0.613364 0.500000
O O15 0.594273 0.687125 0.403457
O O16 0.652301 0.529204 0.387793
O O17 0.809078 0.015502 0.251352
O O18 0.500000 0.500000 0.289503
#
# Coordination Sequence:
#
# PCOD8235573 Si02
#       8
#     8   8   8   8   8   8   8   8
#     4  10  19  32  55  80 104 135 182 224 265 311
#     4  10  19  32  50  78 109 137 168 215 278 330
#     4  10  18  31  53  77 104 131 174 226 264 303
#     4   9  17  30  52  76 105 129 169 227 267 306
#     4  11  22  36  53  76 111 147 180 218 265 320
#     4  10  18  32  50  78 109 134 176 217 268 314
#     4   9  18  31  53  77 102 134 172 222 270 311
#     4  10  20  35  52  76 105 138 180 219 262 310
#
# _framework density 17.674175000000002
#
# number of rings (size 3 to 8) (size 9 to 14) (size 15 to 20)
#    0.000    2.125    2.500    3.000    0.000    0.250 
#    0.000    0.000    0.000   16.125    0.000    1.750 
#    0.000    0.000    0.000    0.000    0.000    0.000 
#
# Total GULP energy -793203.777747 kJ/mol
# GULP energy per Si atom -12393.809027 kJ/mol
# Density = 1.763395 g / cm^3
# Si number density = 17.674175 Si / 1000 Ang^3
#
#
#
# Elastic Constant Matrix: (Units=GPa)
#
#
# Indices 1 2 3 4 5 6 
#
# 1 144.8624 20.1325 43.6321 0.0000 0.0000 0.0000
# 2 20.1325 79.4521 34.1992 0.0000 0.0000 0.0000
# 3 43.6321 34.1992 99.3782 0.0000 0.0000 0.0000
# 4 0.0000 0.0000 0.0000 -6.8590 0.0000 0.0000
# 5 0.0000 0.0000 0.0000 0.0000 46.4162 0.0000
# 6 0.0000 0.0000 0.0000 0.0000 0.0000 21.4045
#
#
#
# Elastic Compliance Matrix: (Units=1/GPa)
#
#
# Indices 1 2 3 4 5 6 
#
# 1 0.007980 -0.000603 -0.003296 0.000000 0.000000 0.000000
# 2 -0.000603 0.014820 -0.004835 0.000000 0.000000 0.000000
# 3 -0.003296 -0.004835 0.013174 0.000000 0.000000 0.000000
# 4 0.000000 0.000000 0.000000 -0.145793 0.000000 0.000000
# 5 0.000000 0.000000 0.000000 0.000000 0.021544 0.000000
# 6 0.000000 0.000000 0.000000 0.000000 0.000000 0.046719
#
#
# Mechanical properties :
#
#
# Convention : Reuss Voigt Hill
#
# Bulk Modulus (GPa) = 54.04028 57.73559 55.88793
# Shear Modulus (GPa) = -279.03167 27.24092 -125.89537
#
# Velocity S-wave (km/s) = -12.57848 3.93018 -8.44902
# Velocity P-wave (km/s) = 13.42815 7.30292 7.96814
#
# Compressibility (1/GPa) = 0.01850471
#
# Stress axis : x y z
#
# Youngs Moduli (GPa) = 125.31878 67.47479 75.90946
#
# Poissons Ratio (x) = 0.04071 0.25019
# Poissons Ratio (y) = 0.07561 0.36704
# Poissons Ratio (z) = 0.41303 0.32626
#
# Static dielectric constant tensor:
#      x y z
#    x 3.601240 0.000000 0.000000 
#    y 0.000000 1.461700 0.000000 
#    z 0.000000 0.000000 3.003870 
# 
# 
# High freq. dielectric constant tensor:
#      x y z
#    x 1.689490 0.000000 0.000000 
#    y 0.000000 1.696630 0.000000 
#    z 0.000000 0.000000 1.638180 
# 
# From -- ./inp_files/26348.got.cif
#   From: 2010.06.25/outbox.cif.g09.slc.cpg/sg58_14_cif.got.tgz:26348.got - 2010.06.26 21:38:00.
