data_PCOD8235525
_publ_section_title
;
Structure prediction by ZEFSAII (Michael W. Deem and Ramdas Pophale) SiO2 
 PCOD8235525
Probable space group: P N N M
;
_chemical_formula_sum "Si O2"
_cell_formula_units_Z 32
_cell_length_a 8.768594
_cell_length_b 5.317098
_cell_length_c 30.082567
_cell_angle_alpha 90.000000
_cell_angle_beta 90.000000
_cell_angle_gamma 90.000000
_cell_volume 1402.553769
_symmetry_space_group_name_H-M "P N N M"
_symmetry_group_IT_number 58
_symmetry_cell_setting 'orthorhombic'
loop_
_space_group_symop_operation_xyz
x,y,z
-x,-y,z
1/2+x,1/2-y,1/2-z
1/2-x,1/2+y,1/2-z
-x,-y,-z
x,y,-z
1/2-x,1/2+y,1/2+z
1/2+x,1/2-y,1/2+z
loop_
_atom_site_type_symbol
_atom_site_label
_atom_site_fract_x
_atom_site_fract_y
_atom_site_fract_z
Si Si1 0.900563 0.750693 0.724859
Si Si2 0.818262 0.754618 0.911716
Si Si3 0.827542 0.933514 0.182124
Si Si4 0.655264 0.755381 0.448322
O O1 0.814981 0.774015 0.772372
O O2 0.770232 0.692763 0.687889
O O3 0.000000 0.500000 0.726291
O O4 0.000000 0.000000 0.713371
O O5 0.770902 0.770236 0.859799
O O6 0.747343 0.499881 0.932809
O O7 0.000313 0.748361 0.919707
O O8 0.751088 0.001589 0.936872
O O9 0.000000 0.000000 0.171933
O O10 0.614223 0.770585 0.500000
#
# Coordination Sequence:
#
# PCOD8235525 Si02
#       4
#     8   8   8   8
#     4  11  26  42  60  87 127 167 207 276 320 369
#     4  10  19  29  51  79 109 156 190 239 289 391
#     4  11  22  40  63  87 117 161 220 252 311 373
#     4  10  18  31  47  80 126 152 174 246 330 372
#
# _framework density 22.815525000000001
#
# number of rings (size 3 to 8) (size 9 to 14) (size 15 to 20)
#    0.000    1.500    2.500    6.750    3.500    4.000 
#    0.000    0.000    0.000    0.000    0.000    0.000 
#    0.000   34.000    0.000    0.000    0.000    0.000 
#
# Total GULP energy -396471.042418 kJ/mol
# GULP energy per Si atom -12389.720076 kJ/mol
# Density = 2.276360 g / cm^3
# Si number density = 22.815525 Si / 1000 Ang^3
#
#
#
# Elastic Constant Matrix: (Units=GPa)
#
#
# Indices 1 2 3 4 5 6 
#
# 1 54.4005 38.4363 28.1938 0.0000 0.0000 0.0000
# 2 38.4363 234.9543 66.5195 0.0000 0.0000 0.0000
# 3 28.1938 66.5195 153.6147 0.0000 0.0000 0.0000
# 4 0.0000 0.0000 0.0000 43.1546 0.0000 0.0000
# 5 0.0000 0.0000 0.0000 0.0000 20.6599 0.0000
# 6 0.0000 0.0000 0.0000 0.0000 0.0000 19.1557
#
#
#
# Elastic Compliance Matrix: (Units=1/GPa)
#
#
# Indices 1 2 3 4 5 6 
#
# 1 0.021792 -0.002772 -0.002799 0.000000 0.000000 0.000000
# 2 -0.002772 0.005204 -0.001744 0.000000 0.000000 0.000000
# 3 -0.002799 -0.001744 0.007779 0.000000 0.000000 0.000000
# 4 0.000000 0.000000 0.000000 0.023172 0.000000 0.000000
# 5 0.000000 0.000000 0.000000 0.000000 0.048403 0.000000
# 6 0.000000 0.000000 0.000000 0.000000 0.000000 0.052204
#
#
# Mechanical properties :
#
#
# Convention : Reuss Voigt Hill
#
# Bulk Modulus (GPa) = 49.64668 78.80764 64.22716
# Shear Modulus (GPa) = 27.79331 37.24870 32.52101
#
# Velocity S-wave (km/s) = 3.49402 4.04493 3.77953
# Velocity P-wave (km/s) = 6.17129 7.51209 6.87446
#
# Compressibility (1/GPa) = 0.02014233
#
# Stress axis : x y z
#
# Youngs Moduli (GPa) = 45.88907 192.17544 128.55283
#
# Poissons Ratio (x) = 0.53280 0.35982
# Poissons Ratio (y) = 0.12723 0.22425
# Poissons Ratio (z) = 0.12844 0.33524
#
# Static dielectric constant tensor:
#      x y z
#    x 3.704200 0.000000 0.000000 
#    y 0.000000 6.250960 0.000000 
#    z 0.000000 0.000000 4.043020 
# 
# 
# High freq. dielectric constant tensor:
#      x y z
#    x 1.822520 0.000000 0.000000 
#    y 0.000000 1.933380 0.000000 
#    z 0.000000 0.000000 1.898160 
# 
# From -- ./inp_files/33935.got.cif
#   From: 2010.06.25/outbox.cif.g09.slc.cpg/sg58_17_cif.got.tgz:33935.got - 2010.06.26 21:38:00.
