data_PCOD8235938
_publ_section_title
;
Structure prediction by ZEFSAII (Michael W. Deem and Ramdas Pophale) SiO2 
 PCOD8235938
Probable space group: P N N M
;
_chemical_formula_sum "Si O2"
_cell_formula_units_Z 56
_cell_length_a 13.552270
_cell_length_b 28.908276
_cell_length_c 8.960058
_cell_angle_alpha 90.000000
_cell_angle_beta 90.000000
_cell_angle_gamma 90.000000
_cell_volume 3510.306667
_symmetry_space_group_name_H-M "P N N M"
_symmetry_group_IT_number 58
_symmetry_cell_setting 'orthorhombic'
loop_
_space_group_symop_operation_xyz
x,y,z
-x,-y,z
1/2+x,1/2-y,1/2-z
1/2-x,1/2+y,1/2-z
-x,-y,-z
x,y,-z
1/2-x,1/2+y,1/2+z
1/2+x,1/2-y,1/2+z
loop_
_atom_site_type_symbol
_atom_site_label
_atom_site_fract_x
_atom_site_fract_y
_atom_site_fract_z
Si Si1 0.306783 0.679161 0.669451
Si Si2 0.726899 0.685011 0.324883
Si Si3 0.883310 0.994522 0.164677
Si Si4 0.610227 0.594637 0.674252
Si Si5 0.613620 0.765220 0.826340
Si Si6 0.911625 0.725857 0.825104
Si Si7 0.597782 0.403714 0.174774
O O1 0.323001 0.662542 0.500000
O O2 0.194619 0.694908 0.695840
O O3 0.379798 0.721498 0.705957
O O4 0.328404 0.637115 0.779512
O O5 0.741503 0.694231 0.500000
O O6 0.691775 0.633047 0.290898
O O7 0.643539 0.719488 0.263809
O O8 0.829453 0.691312 0.239069
O O9 0.854613 0.952457 0.272808
O O10 0.844169 0.044612 0.223019
O O11 0.840792 0.983420 0.000000
O O12 0.000000 0.000000 0.157755
O O13 0.582605 0.593170 0.500000
O O14 0.509376 0.606453 0.758281
O O15 0.512288 0.784868 0.760913
O O16 0.602789 0.752113 0.000000
O O17 0.924042 0.716151 0.000000
O O18 0.587190 0.405310 0.000000
#
# Coordination Sequence:
#
# PCOD8235938 Si02
#       7
#     8   8   8   8   8   8   8
#     4   9  19  33  46  62  88 122 154 180 214 266
#     4  10  19  31  48  69  92 119 153 188 222 264
#     4   8  15  29  45  60  85 120 151 178 215 266
#     4   9  18  31  46  64  89 123 154 179 216 267
#     4  10  20  33  48  67  91 120 154 189 225 264
#     4  10  20  33  48  67  92 121 152 186 225 267
#     4  11  20  27  42  68  93 117 148 187 226 262
#
# _framework density 15.953021
#
# number of rings (size 3 to 8) (size 9 to 14) (size 15 to 20)
#    0.000    2.429    0.000    5.143    0.000   10.571 
#    0.000    0.000    0.000    0.000    0.000    1.000 
#    0.000    8.000    0.000    0.000    0.000    0.000 
#
# Total GULP energy -694370.735299 kJ/mol
# GULP energy per Si atom -12399.477416 kJ/mol
# Density = 1.591671 g / cm^3
# Si number density = 15.953021 Si / 1000 Ang^3
#
#
#
# Elastic Constant Matrix: (Units=GPa)
#
#
# Indices 1 2 3 4 5 6 
#
# 1 77.5140 38.2185 35.9840 0.0000 0.0000 0.0000
# 2 38.2185 109.9767 51.9720 0.0000 0.0000 0.0000
# 3 35.9840 51.9720 83.2355 0.0000 0.0000 0.0000
# 4 0.0000 0.0000 0.0000 23.3835 0.0000 0.0000
# 5 0.0000 0.0000 0.0000 0.0000 24.8547 0.0000
# 6 0.0000 0.0000 0.0000 0.0000 0.0000 17.7705
#
#
#
# Elastic Compliance Matrix: (Units=1/GPa)
#
#
# Indices 1 2 3 4 5 6 
#
# 1 0.017019 -0.003458 -0.005199 0.000000 0.000000 0.000000
# 2 -0.003458 0.013601 -0.006998 0.000000 0.000000 0.000000
# 3 -0.005199 -0.006998 0.018631 0.000000 0.000000 0.000000
# 4 0.000000 0.000000 0.000000 0.042765 0.000000 0.000000
# 5 0.000000 0.000000 0.000000 0.000000 0.040234 0.000000
# 6 0.000000 0.000000 0.000000 0.000000 0.000000 0.056273
#
#
# Mechanical properties :
#
#
# Convention : Reuss Voigt Hill
#
# Bulk Modulus (GPa) = 55.73165 58.11945 56.92555
# Shear Modulus (GPa) = 22.14220 22.83851 22.49035
#
# Velocity S-wave (km/s) = 3.72958 3.78777 3.75879
# Velocity P-wave (km/s) = 7.31827 7.45924 7.38909
#
# Compressibility (1/GPa) = 0.01794313
#
# Stress axis : x y z
#
# Youngs Moduli (GPa) = 58.75775 73.52170 53.67389
#
# Poissons Ratio (x) = 0.25421 0.27903
# Poissons Ratio (y) = 0.20316 0.37560
# Poissons Ratio (z) = 0.30546 0.51450
#
# Static dielectric constant tensor:
#      x y z
#    x 2.797640 0.000000 0.000000 
#    y 0.000000 3.301370 0.000000 
#    z 0.000000 0.000000 3.088100 
# 
# 
# High freq. dielectric constant tensor:
#      x y z
#    x 1.581470 0.000000 0.000000 
#    y 0.000000 1.610490 0.000000 
#    z 0.000000 0.000000 1.622240 
# 
# From -- ./inp_files/7116.got.cif
#   From: 2010.06.25/outbox.cif.g09.slc.cpg/sg58_4_cif.got.tgz:7116.got - 2010.06.26 21:38:00.
