data_PCOD8235675
_publ_section_title
;
Structure prediction by ZEFSAII (Michael W. Deem and Ramdas Pophale) SiO2 
 PCOD8235675
Probable space group: P N N M
;
_chemical_formula_sum "Si O2"
_cell_formula_units_Z 64
_cell_length_a 17.463992
_cell_length_b 11.489949
_cell_length_c 18.034168
_cell_angle_alpha 90.000000
_cell_angle_beta 90.000000
_cell_angle_gamma 90.000000
_cell_volume 3618.742957
_symmetry_space_group_name_H-M "P N N M"
_symmetry_group_IT_number 58
_symmetry_cell_setting 'orthorhombic'
loop_
_space_group_symop_operation_xyz
x,y,z
-x,-y,z
1/2+x,1/2-y,1/2-z
1/2-x,1/2+y,1/2-z
-x,-y,-z
x,y,-z
1/2-x,1/2+y,1/2+z
1/2+x,1/2-y,1/2+z
loop_
_atom_site_type_symbol
_atom_site_label
_atom_site_fract_x
_atom_site_fract_y
_atom_site_fract_z
Si Si1 0.774483 0.936385 0.415225
Si Si2 0.787871 0.180192 0.918416
Si Si3 0.159945 0.880469 0.768771
Si Si4 0.614055 0.849125 0.200489
Si Si5 0.359128 0.970259 0.916260
Si Si6 0.922083 0.940694 0.680630
Si Si7 0.560571 0.171726 0.209370
Si Si8 0.315970 0.957128 0.708953
O O1 0.773629 0.974948 0.500000
O O2 0.754626 0.801729 0.403799
O O3 0.859534 0.954447 0.383798
O O4 0.713650 0.022812 0.374769
O O5 0.851629 0.160448 0.854283
O O6 0.727803 0.074291 0.916710
O O7 0.827613 0.183082 0.000000
O O8 0.134131 0.786216 0.707228
O O9 0.249911 0.902502 0.759730
O O10 0.109225 0.994723 0.754411
O O11 0.525647 0.871250 0.220319
O O12 0.635172 0.899907 0.119032
O O13 0.664734 0.915116 0.261172
O O14 0.409717 0.882818 0.867295
O O15 0.391810 0.974100 0.000000
O O16 0.937038 0.809734 0.704692
O O17 0.000000 0.000000 0.651740
O O18 0.610682 0.127595 0.280279
#
# Coordination Sequence:
#
# PCOD8235675 Si02
#       8
#     8   8   8   8   8   8   8   8
#     4  10  20  35  56  81 113 148 188 227 278 340
#     4  10  18  32  56  83 109 143 187 230 274 329
#     4  11  20  35  57  81 110 146 195 235 279 326
#     4  11  21  34  54  84 113 144 187 235 282 335
#     4  10  20  35  56  81 113 151 183 225 279 333
#     4  11  22  36  55  84 112 151 191 229 277 345
#     4  11  21  36  55  84 113 148 191 231 285 332
#     4  10  20  33  58  79 108 145 187 239 276 327
#
# _framework density 17.685699
#
# number of rings (size 3 to 8) (size 9 to 14) (size 15 to 20)
#    0.000    1.500    6.250    1.500    1.750    1.250 
#    0.000    2.500    0.000    3.375    0.000    0.000 
#    0.000    0.000    0.000    0.000    0.000    0.000 
#
# Total GULP energy -793332.727952 kJ/mol
# GULP energy per Si atom -12395.823874 kJ/mol
# Density = 1.764545 g / cm^3
# Si number density = 17.685699 Si / 1000 Ang^3
#
#
#
# Elastic Constant Matrix: (Units=GPa)
#
#
# Indices 1 2 3 4 5 6 
#
# 1 65.4951 19.3843 46.6857 0.0000 0.0000 0.0000
# 2 19.3843 77.9169 47.9556 0.0000 0.0000 0.0000
# 3 46.6857 47.9556 136.6706 0.0000 0.0000 0.0000
# 4 0.0000 0.0000 0.0000 22.4769 0.0000 0.0000
# 5 0.0000 0.0000 0.0000 0.0000 17.9347 0.0000
# 6 0.0000 0.0000 0.0000 0.0000 0.0000 29.9098
#
#
#
# Elastic Compliance Matrix: (Units=1/GPa)
#
#
# Indices 1 2 3 4 5 6 
#
# 1 0.020243 -0.000995 -0.006566 0.000000 0.000000 0.000000
# 2 -0.000995 0.016418 -0.005421 0.000000 0.000000 0.000000
# 3 -0.006566 -0.005421 0.011462 0.000000 0.000000 0.000000
# 4 0.000000 0.000000 0.000000 0.044490 0.000000 0.000000
# 5 0.000000 0.000000 0.000000 0.000000 0.055758 0.000000
# 6 0.000000 0.000000 0.000000 0.000000 0.000000 0.033434
#
#
# Mechanical properties :
#
#
# Convention : Reuss Voigt Hill
#
# Bulk Modulus (GPa) = 45.12749 56.45928 50.79339
# Shear Modulus (GPa) = 23.23910 25.13475 24.18693
#
# Velocity S-wave (km/s) = 3.62885 3.77396 3.70212
# Velocity P-wave (km/s) = 6.56733 7.14026 6.85978
#
# Compressibility (1/GPa) = 0.02215944
#
# Stress axis : x y z
#
# Youngs Moduli (GPa) = 49.40000 60.90801 87.24643
#
# Poissons Ratio (x) = 0.06061 0.57283
# Poissons Ratio (y) = 0.04916 0.47296
# Poissons Ratio (z) = 0.32434 0.33018
#
# Static dielectric constant tensor:
#      x y z
#    x 3.229190 0.000000 0.000000 
#    y 0.000000 3.349700 0.000000 
#    z 0.000000 0.000000 3.318680 
# 
# 
# High freq. dielectric constant tensor:
#      x y z
#    x 1.673690 0.000000 0.000000 
#    y 0.000000 1.691740 0.000000 
#    z 0.000000 0.000000 1.667950 
# 
# From -- ./inp_files/27387.got.cif
#   From: 2010.06.25/outbox.cif.g09.slc.cpg/sg58_14_cif.got.tgz:27387.got - 2010.06.26 21:38:00.
