data_PCOD8235399
_publ_section_title
;
Structure prediction by ZEFSAII (Michael W. Deem and Ramdas Pophale) SiO2 
 PCOD8235399
Probable space group: P N N M
;
_chemical_formula_sum "Si O2"
_cell_formula_units_Z 64
_cell_length_a 24.270486
_cell_length_b 8.928121
_cell_length_c 18.507350
_cell_angle_alpha 90.000000
_cell_angle_beta 90.000000
_cell_angle_gamma 90.000000
_cell_volume 4010.354631
_symmetry_space_group_name_H-M "P N N M"
_symmetry_group_IT_number 58
_symmetry_cell_setting 'orthorhombic'
loop_
_space_group_symop_operation_xyz
x,y,z
-x,-y,z
1/2+x,1/2-y,1/2-z
1/2-x,1/2+y,1/2-z
-x,-y,-z
x,y,-z
1/2-x,1/2+y,1/2+z
1/2+x,1/2-y,1/2+z
loop_
_atom_site_type_symbol
_atom_site_label
_atom_site_fract_x
_atom_site_fract_y
_atom_site_fract_z
Si Si1 0.316149 0.830244 0.215807
Si Si2 0.311076 0.232407 0.419806
Si Si3 0.758885 0.700646 0.915974
Si Si4 0.619037 0.168264 0.351133
Si Si5 0.254085 0.536878 0.813525
Si Si6 0.426019 0.128740 0.418275
Si Si7 0.476465 0.659672 0.585575
Si Si8 0.721565 0.028925 0.081685
O O1 0.371273 0.835988 0.264108
O O2 0.298193 0.655926 0.214845
O O3 0.268796 0.939424 0.247275
O O4 0.323918 0.892134 0.133936
O O5 0.296221 0.166664 0.500000
O O6 0.295150 0.119013 0.356289
O O7 0.376926 0.252078 0.414340
O O8 0.280677 0.389975 0.409383
O O9 0.821991 0.688249 0.889454
O O10 0.721263 0.580092 0.872617
O O11 0.732226 0.858945 0.896403
O O12 0.756513 0.666522 0.000000
O O13 0.580778 0.308299 0.373189
O O14 0.587831 0.016105 0.371322
O O15 0.434287 0.071433 0.500000
O O16 0.480841 0.210494 0.390832
O O17 0.500000 0.500000 0.610966
O O18 0.465975 0.660265 0.500000
O O19 0.699011 0.042933 0.000000
#
# Coordination Sequence:
#
# PCOD8235399 Si02
#       8
#     8   8   8   8   8   8   8   8
#     4  10  19  31  45  65  92 123 157 194 238 279
#     4   9  16  28  46  68  89 120 158 190 225 273
#     4  10  18  29  47  68  92 125 162 194 226 274
#     4  11  20  31  47  66  92 126 164 199 229 280
#     4  10  18  29  43  63  93 122 155 196 227 274
#     4  10  18  31  49  68  90 122 159 194 232 270
#     4  10  22  35  47  66  95 127 163 205 239 266
#     4   9  19  31  46  67  94 122 154 193 232 279
#
# _framework density 15.958689
#
# number of rings (size 3 to 8) (size 9 to 14) (size 15 to 20)
#    0.000    2.125    2.500    3.375    1.750    1.500 
#    0.000    0.000    0.000    0.000    0.000    0.000 
#    0.000    2.500    0.000    0.000    0.000    1.125 
#
# Total GULP energy -793110.058019 kJ/mol
# GULP energy per Si atom -12392.344657 kJ/mol
# Density = 1.592237 g / cm^3
# Si number density = 15.958689 Si / 1000 Ang^3
#
#
#
# Elastic Constant Matrix: (Units=GPa)
#
#
# Indices 1 2 3 4 5 6 
#
# 1 49.9423 30.1035 32.7674 0.0000 0.0000 0.0000
# 2 30.1035 104.9916 47.7850 0.0000 0.0000 0.0000
# 3 32.7674 47.7850 81.1764 0.0000 0.0000 0.0000
# 4 0.0000 0.0000 0.0000 29.0429 0.0000 0.0000
# 5 0.0000 0.0000 0.0000 0.0000 18.9963 0.0000
# 6 0.0000 0.0000 0.0000 0.0000 0.0000 21.4369
#
#
#
# Elastic Compliance Matrix: (Units=1/GPa)
#
#
# Indices 1 2 3 4 5 6 
#
# 1 0.028414 -0.003998 -0.009116 0.000000 0.000000 0.000000
# 2 -0.003998 0.013573 -0.006376 0.000000 0.000000 0.000000
# 3 -0.009116 -0.006376 0.019752 0.000000 0.000000 0.000000
# 4 0.000000 0.000000 0.000000 0.034432 0.000000 0.000000
# 5 0.000000 0.000000 0.000000 0.000000 0.052642 0.000000
# 6 0.000000 0.000000 0.000000 0.000000 0.000000 0.046649
#
#
# Mechanical properties :
#
#
# Convention : Reuss Voigt Hill
#
# Bulk Modulus (GPa) = 43.93911 50.82468 47.38190
# Shear Modulus (GPa) = 20.65886 22.25885 21.45886
#
# Velocity S-wave (km/s) = 3.60185 3.73873 3.67093
# Velocity P-wave (km/s) = 6.70004 7.11015 6.90814
#
# Compressibility (1/GPa) = 0.02275877
#
# Stress axis : x y z
#
# Youngs Moduli (GPa) = 35.19385 73.67713 50.62818
#
# Poissons Ratio (x) = 0.29455 0.46153
# Poissons Ratio (y) = 0.14070 0.32280
# Poissons Ratio (z) = 0.32083 0.46976
#
# Static dielectric constant tensor:
#      x y z
#    x 2.752030 0.000000 0.000000 
#    y 0.000000 3.269640 0.000000 
#    z 0.000000 0.000000 3.190390 
# 
# 
# High freq. dielectric constant tensor:
#      x y z
#    x 1.559940 0.000000 0.000000 
#    y 0.000000 1.632230 0.000000 
#    z 0.000000 0.000000 1.606910 
# 
# From -- ./inp_files/27689.got.cif
#   From: 2010.06.25/outbox.cif.g09.slc.cpg/sg58_14_cif.got.tgz:27689.got - 2010.06.26 21:38:00.
