data_PCOD8235136
_publ_section_title
;
Structure prediction by ZEFSAII (Michael W. Deem and Ramdas Pophale) SiO2 
 PCOD8235136
Probable space group: P B C M
;
_chemical_formula_sum "Si O2"
_cell_formula_units_Z 32
_cell_length_a 11.255768
_cell_length_b 7.395248
_cell_length_c 17.446692
_cell_angle_alpha 90.000000
_cell_angle_beta 90.000000
_cell_angle_gamma 90.000000
_cell_volume 1452.248611
_symmetry_space_group_name_H-M "P B C M"
_symmetry_group_IT_number 57
_symmetry_cell_setting 'orthorhombic'
loop_
_space_group_symop_operation_xyz
x,y,z
-x,-y,1/2+z
x,1/2-y,-z
-x,1/2+y,1/2-z
-x,-y,-z
x,y,1/2-z
-x,1/2+y,z
x,1/2-y,1/2+z
loop_
_atom_site_type_symbol
_atom_site_label
_atom_site_fract_x
_atom_site_fract_y
_atom_site_fract_z
Si Si1 0.256029 0.452913 0.336526
Si Si2 0.326381 0.396422 0.597235
Si Si3 0.865338 0.456169 0.983140
Si Si4 0.417631 0.730923 0.414861
O O1 0.227085 0.512944 0.250000
O O2 0.272808 0.234586 0.337314
O O3 0.148585 0.508394 0.392228
O O4 0.372886 0.556713 0.368177
O O5 0.227536 0.418236 0.530240
O O6 0.372328 0.589238 0.630347
O O7 0.442548 0.286959 0.569230
O O8 0.838430 0.250000 0.000000
O O9 0.000000 0.500000 0.000000
O O10 0.359733 0.750000 0.500000
#
# Coordination Sequence:
#
# PCOD8235136 Si02
#       4
#     8   8   8   8
#     4  12  26  43  67 106 143 178 227 296 362 418
#     4  12  23  43  72 102 139 188 246 279 349 419
#     4  12  25  49  77 101 134 191 245 293 344 426
#     4  12  22  40  72 100 137 189 235 287 344 424
#
# _framework density 22.034794999999999
#
# number of rings (size 3 to 8) (size 9 to 14) (size 15 to 20)
#    0.000    0.000    7.500    4.500    0.000    2.000 
#    0.000    5.000    0.000    0.000    0.000    0.000 
#    0.000    0.000    0.000    0.000    0.000    0.000 
#
# Total GULP energy -396442.863981 kJ/mol
# GULP energy per Si atom -12388.839499 kJ/mol
# Density = 2.198464 g / cm^3
# Si number density = 22.034795 Si / 1000 Ang^3
#
#
#
# Elastic Constant Matrix: (Units=GPa)
#
#
# Indices 1 2 3 4 5 6 
#
# 1 170.6938 42.6173 62.7949 0.0000 0.0000 0.0000
# 2 42.6173 153.7185 45.8041 0.0000 0.0000 0.0000
# 3 62.7949 45.8041 147.2228 0.0000 0.0000 0.0000
# 4 0.0000 0.0000 0.0000 22.5229 0.0000 0.0000
# 5 0.0000 0.0000 0.0000 0.0000 9.1698 0.0000
# 6 0.0000 0.0000 0.0000 0.0000 0.0000 29.1055
#
#
#
# Elastic Compliance Matrix: (Units=1/GPa)
#
#
# Indices 1 2 3 4 5 6 
#
# 1 0.007138 -0.001181 -0.002677 0.000000 0.000000 0.000000
# 2 -0.001181 0.007366 -0.001788 0.000000 0.000000 0.000000
# 3 -0.002677 -0.001788 0.008491 0.000000 0.000000 0.000000
# 4 0.000000 0.000000 0.000000 0.044399 0.000000 0.000000
# 5 0.000000 0.000000 0.000000 0.000000 0.109054 0.000000
# 6 0.000000 0.000000 0.000000 0.000000 0.000000 0.034358
#
#
# Mechanical properties :
#
#
# Convention : Reuss Voigt Hill
#
# Bulk Modulus (GPa) = 85.45552 86.00753 85.73153
# Shear Modulus (GPa) = 22.12403 33.52089 27.82246
#
# Velocity S-wave (km/s) = 3.17211 3.90458 3.55725
# Velocity P-wave (km/s) = 7.23068 7.71006 7.47421
#
# Compressibility (1/GPa) = 0.01170199
#
# Stress axis : x y z
#
# Youngs Moduli (GPa) = 140.09036 135.76616 117.77854
#
# Poissons Ratio (x) = 0.16038 0.31531
# Poissons Ratio (y) = 0.16549 0.21056
# Poissons Ratio (z) = 0.37504 0.24271
#
# Static dielectric constant tensor:
#      x y z
#    x 4.037790 0.000000 0.000000 
#    y 0.000000 4.369540 0.000000 
#    z 0.000000 0.000000 3.482680 
# 
# 
# High freq. dielectric constant tensor:
#      x y z
#    x 1.866180 0.000000 0.000000 
#    y 0.000000 1.897080 0.000000 
#    z 0.000000 0.000000 1.817430 
# 
# From -- ./inp_files/17187.got.cif
#   From: 2010.03.12/outbox.cif.g09.slc.cpg/sg57_9_cif.got.tgz:17187.got - 2010.04.16 15:48:40.
