data_PCOD8235551
_publ_section_title
;
Structure prediction by ZEFSAII (Michael W. Deem and Ramdas Pophale) SiO2 
 PCOD8235551
Probable space group: P N N M
;
_chemical_formula_sum "Si O2"
_cell_formula_units_Z 48
_cell_length_a 16.661521
_cell_length_b 18.144011
_cell_length_c 8.840716
_cell_angle_alpha 90.000000
_cell_angle_beta 90.000000
_cell_angle_gamma 90.000000
_cell_volume 2672.608743
_symmetry_space_group_name_H-M "P N N M"
_symmetry_group_IT_number 58
_symmetry_cell_setting 'orthorhombic'
loop_
_space_group_symop_operation_xyz
x,y,z
-x,-y,z
1/2+x,1/2-y,1/2-z
1/2-x,1/2+y,1/2-z
-x,-y,-z
x,y,-z
1/2-x,1/2+y,1/2+z
1/2+x,1/2-y,1/2+z
loop_
_atom_site_type_symbol
_atom_site_label
_atom_site_fract_x
_atom_site_fract_y
_atom_site_fract_z
Si Si1 0.512359 0.914937 0.322316
Si Si2 0.762115 0.048089 0.321717
Si Si3 0.643023 0.171136 0.320139
Si Si4 0.674921 0.914307 0.824553
Si Si5 0.411254 0.519694 0.679974
Si Si6 0.332696 0.667594 0.324664
O O1 0.525185 0.903607 0.500000
O O2 0.436848 0.868909 0.259689
O O3 0.589975 0.884556 0.234492
O O4 0.500000 0.000000 0.281080
O O5 0.774011 0.042494 0.500000
O O6 0.722588 0.125792 0.272350
O O7 0.700239 0.985235 0.271345
O O8 0.848676 0.040461 0.242811
O O9 0.639593 0.173912 0.500000
O O10 0.647243 0.253454 0.248749
O O11 0.738998 0.849207 0.798424
O O12 0.670967 0.936735 0.000000
O O13 0.500000 0.500000 0.738344
O O14 0.405571 0.517284 0.500000
O O15 0.386907 0.600911 0.742719
O O16 0.353387 0.673294 0.500000
#
# Coordination Sequence:
#
# PCOD8235551 Si02
#       6
#     8   8   8   8   8   8
#     4  10  18  31  51  76 101 128 167 204 243 297
#     4  10  18  31  53  75  96 127 169 208 245 292
#     4   9  17  31  50  71  99 134 167 203 248 297
#     4  10  19  32  51  74 100 132 166 199 246 301
#     4   9  18  34  54  75 100 131 170 208 248 301
#     4   8  16  32  51  69  95 135 169 198 245 298
#
# _framework density 17.959980999999999
#
# number of rings (size 3 to 8) (size 9 to 14) (size 15 to 20)
#    0.000    2.667    1.667    2.000    0.000    0.667 
#    3.000    0.000    0.000   14.000    0.000    0.000 
#    0.000    0.000    0.000    0.000    0.000    0.000 
#
# Total GULP energy -595048.721415 kJ/mol
# GULP energy per Si atom -12396.848363 kJ/mol
# Density = 1.791910 g / cm^3
# Si number density = 17.959981 Si / 1000 Ang^3
#
#
#
# Elastic Constant Matrix: (Units=GPa)
#
#
# Indices 1 2 3 4 5 6 
#
# 1 168.5508 76.7373 29.1262 0.0000 0.0000 0.0000
# 2 76.7373 126.6078 19.4407 0.0000 0.0000 0.0000
# 3 29.1262 19.4407 25.2100 0.0000 0.0000 0.0000
# 4 0.0000 0.0000 0.0000 14.4021 0.0000 0.0000
# 5 0.0000 0.0000 0.0000 0.0000 31.2276 0.0000
# 6 0.0000 0.0000 0.0000 0.0000 0.0000 23.8131
#
#
#
# Elastic Compliance Matrix: (Units=1/GPa)
#
#
# Indices 1 2 3 4 5 6 
#
# 1 0.009216 -0.004482 -0.007192 0.000000 0.000000 0.000000
# 2 -0.004482 0.011139 -0.003412 0.000000 0.000000 0.000000
# 3 -0.007192 -0.003412 0.050607 0.000000 0.000000 0.000000
# 4 0.000000 0.000000 0.000000 0.069434 0.000000 0.000000
# 5 0.000000 0.000000 0.000000 0.000000 0.032023 0.000000
# 6 0.000000 0.000000 0.000000 0.000000 0.000000 0.041994
#
#
# Mechanical properties :
#
#
# Convention : Reuss Voigt Hill
#
# Bulk Modulus (GPa) = 24.51515 63.44188 43.97851
# Shear Modulus (GPa) = 19.36638 26.89285 23.12962
#
# Velocity S-wave (km/s) = 3.28732 3.87379 3.59254
# Velocity P-wave (km/s) = 5.29983 7.44373 6.46132
#
# Compressibility (1/GPa) = 0.04079110
#
# Stress axis : x y z
#
# Youngs Moduli (GPa) = 108.50647 89.77800 19.76029
#
# Poissons Ratio (x) = 0.40235 0.14211
# Poissons Ratio (y) = 0.48628 0.06742
# Poissons Ratio (z) = 0.78034 0.30630
#
# Static dielectric constant tensor:
#      x y z
#    x 3.483850 0.000000 0.000000 
#    y 0.000000 3.532230 0.000000 
#    z 0.000000 0.000000 3.006760 
# 
# 
# High freq. dielectric constant tensor:
#      x y z
#    x 1.703110 0.000000 0.000000 
#    y 0.000000 1.684070 0.000000 
#    z 0.000000 0.000000 1.664480 
# 
# From -- ./inp_files/7838.got.cif
#   From: 2010.06.25/outbox.cif.g09.slc.cpg/sg58_4_cif.got.tgz:7838.got - 2010.06.26 21:38:00.
