data_PCOD8235100
_publ_section_title
;
Structure prediction by ZEFSAII (Michael W. Deem and Ramdas Pophale) SiO2 
 PCOD8235100
Probable space group: P B C M
;
_chemical_formula_sum "Si O2"
_cell_formula_units_Z 40
_cell_length_a 15.715231
_cell_length_b 11.652282
_cell_length_c 9.422912
_cell_angle_alpha 90.000000
_cell_angle_beta 90.000000
_cell_angle_gamma 90.000000
_cell_volume 1725.507658
_symmetry_space_group_name_H-M "P B C M"
_symmetry_group_IT_number 57
_symmetry_cell_setting 'orthorhombic'
loop_
_space_group_symop_operation_xyz
x,y,z
-x,-y,1/2+z
x,1/2-y,-z
-x,1/2+y,1/2-z
-x,-y,-z
x,y,1/2-z
-x,1/2+y,z
x,1/2-y,1/2+z
loop_
_atom_site_type_symbol
_atom_site_label
_atom_site_fract_x
_atom_site_fract_y
_atom_site_fract_z
Si Si1 0.330161 0.352824 0.592386
Si Si2 0.136250 0.501665 0.250000
Si Si3 0.062301 0.974627 0.250000
Si Si4 0.414652 0.531837 0.084091
Si Si5 0.807662 0.268758 0.250000
Si Si6 0.853925 0.627424 0.024970
Si Si7 0.682926 0.250000 0.500000
O O1 0.371190 0.250000 0.500000
O O2 0.373050 0.357860 0.750000
O O3 0.341498 0.465100 0.498694
O O4 0.229443 0.338626 0.615184
O O5 0.157715 0.637438 0.250000
O O6 0.177230 0.440861 0.385861
O O7 0.038226 0.462069 0.250000
O O8 0.110256 0.852000 0.250000
O O9 0.083807 0.045099 0.390330
O O10 0.423369 0.498211 0.250000
O O11 0.383123 0.661695 0.070970
O O12 0.500000 0.500000 0.000000
O O13 0.747398 0.299329 0.382358
O O14 0.901717 0.750000 0.000000
#
# Coordination Sequence:
#
# PCOD8235100 Si02
#       7
#     8   4   4   8   4   8   4
#     4  11  24  44  74 105 143 191 244 300 365 450
#     4  12  27  44  71 106 150 193 258 322 388 454
#     4  12  25  46  71 106 146 195 252 326 390 452
#     4  12  28  48  78 112 155 192 246 308 375 450
#     4  12  26  48  78 108 150 208 266 318 380 472
#     4  11  25  43  72 101 144 191 248 309 386 463
#     4  12  28  50  78 110 150 204 258 306 380 462
#
# _framework density 23.181584000000001
#
# number of rings (size 3 to 8) (size 9 to 14) (size 15 to 20)
#    0.000    0.400    2.000    6.000   12.600    0.000 
#    0.000    0.000    0.000    0.000    0.000    0.000 
#    0.000    0.000    0.000    0.000    0.000    0.000 
#
# Total GULP energy -495817.920617 kJ/mol
# GULP energy per Si atom -12395.448015 kJ/mol
# Density = 2.312882 g / cm^3
# Si number density = 23.181584 Si / 1000 Ang^3
#
#
#
# Elastic Constant Matrix: (Units=GPa)
#
#
# Indices 1 2 3 4 5 6 
#
# 1 94.3434 20.7190 25.9122 0.0000 0.0000 0.0000
# 2 20.7190 135.5292 43.3205 0.0000 0.0000 0.0000
# 3 25.9122 43.3205 188.9348 0.0000 0.0000 0.0000
# 4 0.0000 0.0000 0.0000 38.8095 0.0000 0.0000
# 5 0.0000 0.0000 0.0000 0.0000 26.4937 0.0000
# 6 0.0000 0.0000 0.0000 0.0000 0.0000 36.2428
#
#
#
# Elastic Compliance Matrix: (Units=1/GPa)
#
#
# Indices 1 2 3 4 5 6 
#
# 1 0.011230 -0.001321 -0.001237 0.000000 0.000000 0.000000
# 2 -0.001321 0.008117 -0.001680 0.000000 0.000000 0.000000
# 3 -0.001237 -0.001680 0.005848 0.000000 0.000000 0.000000
# 4 0.000000 0.000000 0.000000 0.025767 0.000000 0.000000
# 5 0.000000 0.000000 0.000000 0.000000 0.037745 0.000000
# 6 0.000000 0.000000 0.000000 0.000000 0.000000 0.027592
#
#
# Mechanical properties :
#
#
# Convention : Reuss Voigt Hill
#
# Bulk Modulus (GPa) = 59.81646 66.52343 63.16995
# Shear Modulus (GPa) = 38.35896 42.23291 40.29593
#
# Velocity S-wave (km/s) = 4.07223 4.27292 4.17378
# Velocity P-wave (km/s) = 6.92606 7.28716 7.10890
#
# Compressibility (1/GPa) = 0.01671781
#
# Stress axis : x y z
#
# Youngs Moduli (GPa) = 89.05083 123.19098 171.00682
#
# Poissons Ratio (x) = 0.16277 0.21156
# Poissons Ratio (y) = 0.11766 0.28730
# Poissons Ratio (z) = 0.11017 0.20696
#
# Static dielectric constant tensor:
#      x y z
#    x 3.938820 0.000000 0.000000 
#    y 0.000000 4.486710 0.000000 
#    z 0.000000 0.000000 4.494620 
# 
# 
# High freq. dielectric constant tensor:
#      x y z
#    x 1.906750 0.000000 0.000000 
#    y 0.000000 1.924160 0.000000 
#    z 0.000000 0.000000 1.937970 
# 
# From -- ./inp_files/6313.got.cif
#   From: 2010.03.12/outbox.cif.g09.slc.cpg/sg57_4_cif.got.tgz:6313.got - 2010.04.16 15:48:40.
