data_PCOD8235377
_publ_section_title
;
Structure prediction by ZEFSAII (Michael W. Deem and Ramdas Pophale) SiO2 
 PCOD8235377
Probable space group: P N N M
;
_chemical_formula_sum "Si O2"
_cell_formula_units_Z 40
_cell_length_a 12.627302
_cell_length_b 21.206813
_cell_length_c 8.693146
_cell_angle_alpha 90.000000
_cell_angle_beta 90.000000
_cell_angle_gamma 90.000000
_cell_volume 2327.892643
_symmetry_space_group_name_H-M "P N N M"
_symmetry_group_IT_number 58
_symmetry_cell_setting 'orthorhombic'
loop_
_space_group_symop_operation_xyz
x,y,z
-x,-y,z
1/2+x,1/2-y,1/2-z
1/2-x,1/2+y,1/2-z
-x,-y,-z
x,y,-z
1/2-x,1/2+y,1/2+z
1/2+x,1/2-y,1/2+z
loop_
_atom_site_type_symbol
_atom_site_label
_atom_site_fract_x
_atom_site_fract_y
_atom_site_fract_z
Si Si1 0.899054 0.702313 0.819241
Si Si2 0.996717 0.069870 0.681392
Si Si3 0.384402 0.195884 0.181461
Si Si4 0.673126 0.332330 0.180266
Si Si5 0.827119 0.165539 0.318644
O O1 0.878663 0.773832 0.768488
O O2 0.796946 0.659400 0.774799
O O3 0.000009 0.672072 0.733552
O O4 0.919716 0.701569 0.000000
O O5 0.980472 0.064067 0.500000
O O6 0.896533 0.108573 0.752419
O O7 0.105761 0.105504 0.720312
O O8 0.000000 0.000000 0.755715
O O9 0.292808 0.154622 0.262735
O O10 0.371742 0.267671 0.241373
O O11 0.371003 0.189222 0.000000
O O12 0.670065 0.317178 0.000000
O O13 0.842226 0.165870 0.500000
#
# Coordination Sequence:
#
# PCOD8235377 Si02
#       5
#     8   8   8   8   8
#     4  10  18  28  46  70  98 127 154 194 244 291
#     4   9  16  28  48  71  96 126 159 197 238 282
#     4  10  18  30  47  68  97 126 156 199 243 284
#     4  10  18  29  46  71  99 125 159 196 239 292
#     4   8  15  27  42  66  95 119 150 193 236 279
#
# _framework density 17.182922999999999
#
# number of rings (size 3 to 8) (size 9 to 14) (size 15 to 20)
#    0.000    2.600    2.000    3.000    0.000    0.000 
#    0.000    0.000    0.000    3.600    0.000    8.400 
#    0.000    0.000    0.000    0.000    0.000    0.000 
#
# Total GULP energy -495803.931087 kJ/mol
# GULP energy per Si atom -12395.098277 kJ/mol
# Density = 1.714381 g / cm^3
# Si number density = 17.182923 Si / 1000 Ang^3
#
#
#
# Elastic Constant Matrix: (Units=GPa)
#
#
# Indices 1 2 3 4 5 6 
#
# 1 155.1053 56.0460 23.6290 0.0000 0.0000 0.0000
# 2 56.0460 90.8601 15.0332 0.0000 0.0000 0.0000
# 3 23.6290 15.0332 25.0853 0.0000 0.0000 0.0000
# 4 0.0000 0.0000 0.0000 11.9595 0.0000 0.0000
# 5 0.0000 0.0000 0.0000 0.0000 27.5655 0.0000
# 6 0.0000 0.0000 0.0000 0.0000 0.0000 21.9797
#
#
#
# Elastic Compliance Matrix: (Units=1/GPa)
#
#
# Indices 1 2 3 4 5 6 
#
# 1 0.008976 -0.004593 -0.005702 0.000000 0.000000 0.000000
# 2 -0.004593 0.014568 -0.004404 0.000000 0.000000 0.000000
# 3 -0.005702 -0.004404 0.047874 0.000000 0.000000 0.000000
# 4 0.000000 0.000000 0.000000 0.083616 0.000000 0.000000
# 5 0.000000 0.000000 0.000000 0.000000 0.036277 0.000000
# 6 0.000000 0.000000 0.000000 0.000000 0.000000 0.045497
#
#
# Mechanical properties :
#
#
# Convention : Reuss Voigt Hill
#
# Bulk Modulus (GPa) = 23.79836 51.16300 37.48068
# Shear Modulus (GPa) = 17.84372 24.05710 20.95041
#
# Velocity S-wave (km/s) = 3.22601 3.74580 3.49558
# Velocity P-wave (km/s) = 5.26842 6.96765 6.17674
#
# Compressibility (1/GPa) = 0.04201971
#
# Stress axis : x y z
#
# Youngs Moduli (GPa) = 111.41405 68.64487 20.88817
#
# Poissons Ratio (x) = 0.31529 0.11910
# Poissons Ratio (y) = 0.51173 0.09199
# Poissons Ratio (z) = 0.63527 0.30230
#
# Static dielectric constant tensor:
#      x y z
#    x 3.616380 0.000000 0.000000 
#    y 0.000000 3.133130 0.000000 
#    z 0.000000 0.000000 2.989180 
# 
# 
# High freq. dielectric constant tensor:
#      x y z
#    x 1.683670 0.000000 0.000000 
#    y 0.000000 1.613500 0.000000 
#    z 0.000000 0.000000 1.641800 
# 
# From -- ./inp_files/3999.got.cif
#   From: 2010.06.25/outbox.cif.g09.slc.cpg/sg58_2_cif.got.tgz:3999.got - 2010.06.26 21:38:00.
