data_PCOD8235691
_publ_section_title
;
Structure prediction by ZEFSAII (Michael W. Deem and Ramdas Pophale) SiO2 
 PCOD8235691
Probable space group: P N N M
;
_chemical_formula_sum "Si O2"
_cell_formula_units_Z 56
_cell_length_a 21.501262
_cell_length_b 9.507604
_cell_length_c 14.666479
_cell_angle_alpha 90.000000
_cell_angle_beta 90.000000
_cell_angle_gamma 90.000000
_cell_volume 2998.202077
_symmetry_space_group_name_H-M "P N N M"
_symmetry_group_IT_number 58
_symmetry_cell_setting 'orthorhombic'
loop_
_space_group_symop_operation_xyz
x,y,z
-x,-y,z
1/2+x,1/2-y,1/2-z
1/2-x,1/2+y,1/2-z
-x,-y,-z
x,y,-z
1/2-x,1/2+y,1/2+z
1/2+x,1/2-y,1/2+z
loop_
_atom_site_type_symbol
_atom_site_label
_atom_site_fract_x
_atom_site_fract_y
_atom_site_fract_z
Si Si1 0.437177 0.084643 0.603704
Si Si2 0.155701 0.501991 0.255047
Si Si3 0.948210 0.100012 0.898181
Si Si4 0.785534 0.007542 0.660235
Si Si5 0.698816 0.203457 0.898789
Si Si6 0.707920 0.811586 0.899779
Si Si7 0.313600 0.480907 0.644432
O O1 0.407238 0.086421 0.500000
O O2 0.445316 0.242932 0.643616
O O3 0.500000 0.000000 0.596581
O O4 0.399321 0.003038 0.682221
O O5 0.215954 0.509587 0.193600
O O6 0.154911 0.362858 0.319706
O O7 0.158081 0.633984 0.325254
O O8 0.880374 0.027175 0.903215
O O9 0.973128 0.123130 0.000000
O O10 0.000000 0.000000 0.848199
O O11 0.790344 0.143866 0.597351
O O12 0.829418 0.025132 0.748338
O O13 0.805245 0.871256 0.603691
O O14 0.769871 0.150987 0.883373
O O15 0.676861 0.156943 0.000000
O O16 0.776969 0.874714 0.879330
O O17 0.687219 0.863089 0.000000
#
# Coordination Sequence:
#
# PCOD8235691 Si02
#       7
#     8   8   8   8   8   8   8
#     4  10  22  38  55  77 104 137 176 217 260 308
#     4  10  19  35  52  73 103 138 174 210 255 313
#     4  10  20  33  50  72 101 137 175 213 258 313
#     4  10  19  30  48  77 106 135 171 212 256 301
#     4  10  19  32  52  76 106 139 171 210 260 313
#     4  10  19  31  51  77 105 135 170 212 257 306
#     4  10  18  33  49  70 103 140 174 208 253 310
#
# _framework density 18.677861
#
# number of rings (size 3 to 8) (size 9 to 14) (size 15 to 20)
#    0.000    2.286    0.000    8.143    0.000    4.571 
#    0.000    1.429    0.000    1.714    0.000    0.000 
#    0.000    8.000    0.000    0.000    0.000    0.000 
#
# Total GULP energy -693773.673925 kJ/mol
# GULP energy per Si atom -12388.815606 kJ/mol
# Density = 1.863535 g / cm^3
# Si number density = 18.677861 Si / 1000 Ang^3
#
#
#
# Elastic Constant Matrix: (Units=GPa)
#
#
# Indices 1 2 3 4 5 6 
#
# 1 60.9425 27.6164 34.3142 0.0000 0.0000 0.0000
# 2 27.6164 140.5964 30.1135 0.0000 0.0000 0.0000
# 3 34.3142 30.1135 112.6397 0.0000 0.0000 0.0000
# 4 0.0000 0.0000 0.0000 18.6542 0.0000 0.0000
# 5 0.0000 0.0000 0.0000 0.0000 225.5347 0.0000
# 6 0.0000 0.0000 0.0000 0.0000 0.0000 8.2993
#
#
#
# Elastic Compliance Matrix: (Units=1/GPa)
#
#
# Indices 1 2 3 4 5 6 
#
# 1 0.020867 -0.002903 -0.005581 0.000000 0.000000 0.000000
# 2 -0.002903 0.007949 -0.001240 0.000000 0.000000 0.000000
# 3 -0.005581 -0.001240 0.010910 0.000000 0.000000 0.000000
# 4 0.000000 0.000000 0.000000 0.053607 0.000000 0.000000
# 5 0.000000 0.000000 0.000000 0.000000 0.004434 0.000000
# 6 0.000000 0.000000 0.000000 0.000000 0.000000 0.120492
#
#
# Mechanical properties :
#
#
# Convention : Reuss Voigt Hill
#
# Bulk Modulus (GPa) = 49.31971 55.36297 52.34134
# Shear Modulus (GPa) = 20.45275 65.30661 42.87968
#
# Velocity S-wave (km/s) = 3.31271 5.91951 4.79660
# Velocity P-wave (km/s) = 6.41052 8.74220 7.66554
#
# Compressibility (1/GPa) = 0.02027587
#
# Stress axis : x y z
#
# Youngs Moduli (GPa) = 47.92294 125.80903 91.66275
#
# Poissons Ratio (x) = 0.36528 0.51153
# Poissons Ratio (y) = 0.13914 0.11371
# Poissons Ratio (z) = 0.26744 0.15607
#
# Static dielectric constant tensor:
#      x y z
#    x 3.010960 0.000000 0.000000 
#    y 0.000000 3.577830 0.000000 
#    z 0.000000 0.000000 3.680290 
# 
# 
# High freq. dielectric constant tensor:
#      x y z
#    x 1.665530 0.000000 0.000000 
#    y 0.000000 1.738730 0.000000 
#    z 0.000000 0.000000 1.730670 
# 
# From -- ./inp_files/23255.got.cif
#   From: 2010.06.25/outbox.cif.g09.slc.cpg/sg58_12_cif.got.tgz:23255.got - 2010.06.26 21:38:00.
