data_PCOD8235111
_publ_section_title
;
Structure prediction by ZEFSAII (Michael W. Deem and Ramdas Pophale) SiO2 
 PCOD8235111
Probable space group: P B C M
;
_chemical_formula_sum "Si O2"
_cell_formula_units_Z 40
_cell_length_a 4.840861
_cell_length_b 13.841298
_cell_length_c 21.384531
_cell_angle_alpha 90.000000
_cell_angle_beta 90.000000
_cell_angle_gamma 90.000000
_cell_volume 1432.844831
_symmetry_space_group_name_H-M "P B C M"
_symmetry_group_IT_number 57
_symmetry_cell_setting 'orthorhombic'
loop_
_space_group_symop_operation_xyz
x,y,z
-x,-y,1/2+z
x,1/2-y,-z
-x,1/2+y,1/2-z
-x,-y,-z
x,y,1/2-z
-x,1/2+y,z
x,1/2-y,1/2+z
loop_
_atom_site_type_symbol
_atom_site_label
_atom_site_fract_x
_atom_site_fract_y
_atom_site_fract_z
Si Si1 0.495821 0.279732 0.180393
Si Si2 0.998857 0.604498 0.863322
Si Si3 0.859628 0.855030 0.996938
Si Si4 0.379288 0.441748 0.821334
Si Si5 0.371158 0.936729 0.555491
O O1 0.622510 0.279558 0.250000
O O2 0.743759 0.318270 0.135675
O O3 0.371401 0.173426 0.164841
O O4 0.241288 0.353569 0.179935
O O5 0.095871 0.500358 0.835072
O O6 0.869306 0.594104 0.934125
O O7 0.050053 0.917713 0.951308
O O8 0.567962 0.843826 0.959434
O O9 0.990836 0.750000 0.000000
O O10 0.474795 0.462064 0.750000
O O11 0.593593 0.481047 0.874226
O O12 0.500000 0.000000 0.500000
#
# Coordination Sequence:
#
# PCOD8235111 Si02
#       5
#     8   8   8   8   8
#     4  11  25  45  68 104 147 188 245 304 361 437
#     4  12  25  46  74 105 145 192 245 301 363 437
#     4  12  25  45  74 105 143 189 240 301 364 427
#     4  11  26  47  75 106 146 197 242 299 370 432
#     4  12  25  46  71 104 143 182 240 298 356 428
#
# _framework density 27.916488999999999
#
# number of rings (size 3 to 8) (size 9 to 14) (size 15 to 20)
#    0.000    0.400    2.000    6.600    0.000    1.600 
#    0.000    7.000    0.000    0.000    0.000    0.000 
#    0.000    0.000    0.000    0.000    0.000    0.000 
#
# Total GULP energy -495542.256018 kJ/mol
# GULP energy per Si atom -12388.556400 kJ/mol
# Density = 2.785295 g / cm^3
# Si number density = 27.916489 Si / 1000 Ang^3
#
#
#
# Elastic Constant Matrix: (Units=GPa)
#
#
# Indices 1 2 3 4 5 6 
#
# 1 87.7697 5.5510 24.9868 0.0000 0.0000 0.0000
# 2 5.5510 111.7668 41.7925 0.0000 0.0000 0.0000
# 3 24.9868 41.7925 207.0298 0.0000 0.0000 0.0000
# 4 0.0000 0.0000 0.0000 39.8561 0.0000 0.0000
# 5 0.0000 0.0000 0.0000 0.0000 46.4956 0.0000
# 6 0.0000 0.0000 0.0000 0.0000 0.0000 22.7528
#
#
#
# Elastic Compliance Matrix: (Units=1/GPa)
#
#
# Indices 1 2 3 4 5 6 
#
# 1 0.011799 -0.000058 -0.001412 0.000000 0.000000 0.000000
# 2 -0.000058 0.009678 -0.001947 0.000000 0.000000 0.000000
# 3 -0.001412 -0.001947 0.005394 0.000000 0.000000 0.000000
# 4 0.000000 0.000000 0.000000 0.025090 0.000000 0.000000
# 5 0.000000 0.000000 0.000000 0.000000 0.021507 0.000000
# 6 0.000000 0.000000 0.000000 0.000000 0.000000 0.043951
#
#
# Mechanical properties :
#
#
# Convention : Reuss Voigt Hill
#
# Bulk Modulus (GPa) = 49.90781 61.24743 55.57762
# Shear Modulus (GPa) = 38.18775 44.10331 41.14553
#
# Velocity S-wave (km/s) = 3.70256 3.97902 3.84328
# Velocity P-wave (km/s) = 6.01623 6.56485 6.29652
#
# Compressibility (1/GPa) = 0.02003695
#
# Stress axis : x y z
#
# Youngs Moduli (GPa) = 84.75150 103.32726 185.40306
#
# Poissons Ratio (x) = 0.00598 0.26186
# Poissons Ratio (y) = 0.00491 0.36092
# Poissons Ratio (z) = 0.11970 0.20114
#
# Static dielectric constant tensor:
#      x y z
#    x 24.834620 0.000000 0.000000 
#    y 0.000000 4.185320 0.000000 
#    z 0.000000 0.000000 4.484760 
# 
# 
# High freq. dielectric constant tensor:
#      x y z
#    x 2.127710 0.000000 0.000000 
#    y 0.000000 2.157280 0.000000 
#    z 0.000000 0.000000 2.142380 
# 
# From -- ./inp_files/26130.got.cif
#   From: 2010.03.12/outbox.cif.g09.slc.cpg/sg57_14_cif.got.tgz:26130.got - 2010.04.16 15:48:40.
