data_PCOD8235499
_publ_section_title
;
Structure prediction by ZEFSAII (Michael W. Deem and Ramdas Pophale) SiO2 
 PCOD8235499
Probable space group: P N N M
;
_chemical_formula_sum "Si O2"
_cell_formula_units_Z 64
_cell_length_a 14.637885
_cell_length_b 27.695657
_cell_length_c 8.861188
_cell_angle_alpha 90.000000
_cell_angle_beta 90.000000
_cell_angle_gamma 90.000000
_cell_volume 3592.377384
_symmetry_space_group_name_H-M "P N N M"
_symmetry_group_IT_number 58
_symmetry_cell_setting 'orthorhombic'
loop_
_space_group_symop_operation_xyz
x,y,z
-x,-y,z
1/2+x,1/2-y,1/2-z
1/2-x,1/2+y,1/2-z
-x,-y,-z
x,y,-z
1/2-x,1/2+y,1/2+z
1/2+x,1/2-y,1/2+z
loop_
_atom_site_type_symbol
_atom_site_label
_atom_site_fract_x
_atom_site_fract_y
_atom_site_fract_z
Si Si1 0.395322 0.944317 0.821079
Si Si2 0.218066 0.640494 0.675023
Si Si3 0.092341 0.179276 0.826589
Si Si4 0.715597 0.140116 0.322795
Si Si5 0.596834 0.782688 0.325154
Si Si6 0.390440 0.329532 0.673045
Si Si7 0.907894 0.719756 0.678001
Si Si8 0.898458 0.447701 0.678135
O O1 0.327457 0.909612 0.733382
O O2 0.499539 0.931799 0.773752
O O3 0.373656 0.998726 0.763870
O O4 0.381303 0.938194 0.000000
O O5 0.191788 0.646623 0.500000
O O6 0.327833 0.639764 0.697291
O O7 0.180596 0.686087 0.765391
O O8 0.174875 0.591014 0.740837
O O9 0.112720 0.225433 0.723860
O O10 0.994754 0.155307 0.785712
O O11 0.088332 0.197654 0.000000
O O12 0.703273 0.144477 0.500000
O O13 0.822806 0.140379 0.279691
O O14 0.670342 0.185928 0.243711
O O15 0.580081 0.793063 0.500000
O O16 0.621215 0.727249 0.294984
O O17 0.505652 0.798226 0.237392
O O18 0.367411 0.341891 0.500000
O O19 0.905954 0.714825 0.500000
O O20 0.894815 0.450295 0.500000
#
# Coordination Sequence:
#
# PCOD8235499 Si02
#       8
#     8   8   8   8   8   8   8   8
#     4   9  17  33  54  75 101 131 161 195 241 298
#     4  10  18  30  51  77 102 131 166 202 246 298
#     4   9  19  34  51  72 100 131 167 211 248 284
#     4  12  23  33  49  74 100 128 167 210 250 295
#     4  10  20  33  49  74 106 135 166 204 243 288
#     4   9  19  35  50  67  96 134 171 207 247 288
#     4  11  21  33  50  71  99 135 169 201 244 296
#     4   8  16  31  53  78 101 127 160 196 238 297
#
# _framework density 17.815498999999999
#
# number of rings (size 3 to 8) (size 9 to 14) (size 15 to 20)
#    0.000    2.250    0.000    5.625    0.000    6.000 
#    0.000    1.875    0.000    0.750    0.000    5.250 
#    0.000    0.000    0.000    0.000    0.000    0.000 
#
# Total GULP energy -793592.488468 kJ/mol
# GULP energy per Si atom -12399.882632 kJ/mol
# Density = 1.777495 g / cm^3
# Si number density = 17.815499 Si / 1000 Ang^3
#
#
#
# Elastic Constant Matrix: (Units=GPa)
#
#
# Indices 1 2 3 4 5 6 
#
# 1 137.6875 67.5006 49.1131 0.0000 0.0000 0.0000
# 2 67.5006 77.2227 36.4826 0.0000 0.0000 0.0000
# 3 49.1131 36.4826 90.9204 0.0000 0.0000 0.0000
# 4 0.0000 0.0000 0.0000 21.2758 0.0000 0.0000
# 5 0.0000 0.0000 0.0000 0.0000 19.7742 0.0000
# 6 0.0000 0.0000 0.0000 0.0000 0.0000 28.3569
#
#
#
# Elastic Compliance Matrix: (Units=1/GPa)
#
#
# Indices 1 2 3 4 5 6 
#
# 1 0.013394 -0.010229 -0.003131 0.000000 0.000000 0.000000
# 2 -0.010229 0.023790 -0.004021 0.000000 0.000000 0.000000
# 3 -0.003131 -0.004021 0.014303 0.000000 0.000000 0.000000
# 4 0.000000 0.000000 0.000000 0.047002 0.000000 0.000000
# 5 0.000000 0.000000 0.000000 0.000000 0.050571 0.000000
# 6 0.000000 0.000000 0.000000 0.000000 0.000000 0.035265
#
#
# Mechanical properties :
#
#
# Convention : Reuss Voigt Hill
#
# Bulk Modulus (GPa) = 59.78396 68.00258 63.89327
# Shear Modulus (GPa) = 22.25576 24.06367 23.15971
#
# Velocity S-wave (km/s) = 3.53829 3.67920 3.60943
# Velocity P-wave (km/s) = 7.09385 7.50346 7.30153
#
# Compressibility (1/GPa) = 0.01672689
#
# Stress axis : x y z
#
# Youngs Moduli (GPa) = 74.65916 42.03441 69.91472
#
# Poissons Ratio (x) = 0.42996 0.21889
# Poissons Ratio (y) = 0.76367 0.28110
# Poissons Ratio (z) = 0.23375 0.16900
#
# Static dielectric constant tensor:
#      x y z
#    x 3.492250 0.000000 0.000000 
#    y 0.000000 3.306410 0.000000 
#    z 0.000000 0.000000 3.153380 
# 
# 
# High freq. dielectric constant tensor:
#      x y z
#    x 1.695070 0.000000 0.000000 
#    y 0.000000 1.665180 0.000000 
#    z 0.000000 0.000000 1.677580 
# 
# From -- ./inp_files/7147.got.cif
#   From: 2010.06.25/outbox.cif.g09.slc.cpg/sg58_4_cif.got.tgz:7147.got - 2010.06.26 21:38:00.
