data_PCOD8235768
_publ_section_title
;
Structure prediction by ZEFSAII (Michael W. Deem and Ramdas Pophale) SiO2 
 PCOD8235768
Probable space group: P N N M
;
_chemical_formula_sum "Si O2"
_cell_formula_units_Z 64
_cell_length_a 14.293628
_cell_length_b 16.806846
_cell_length_c 15.053590
_cell_angle_alpha 90.000000
_cell_angle_beta 90.000000
_cell_angle_gamma 90.000000
_cell_volume 3616.336037
_symmetry_space_group_name_H-M "P N N M"
_symmetry_group_IT_number 58
_symmetry_cell_setting 'orthorhombic'
loop_
_space_group_symop_operation_xyz
x,y,z
-x,-y,z
1/2+x,1/2-y,1/2-z
1/2-x,1/2+y,1/2-z
-x,-y,-z
x,y,-z
1/2-x,1/2+y,1/2+z
1/2+x,1/2-y,1/2+z
loop_
_atom_site_type_symbol
_atom_site_label
_atom_site_fract_x
_atom_site_fract_y
_atom_site_fract_z
Si Si1 0.382918 0.651611 0.696222
Si Si2 0.895337 0.517174 0.103716
Si Si3 0.742813 0.405226 0.147825
Si Si4 0.867913 0.265500 0.901320
Si Si5 0.921757 0.694693 0.100133
Si Si6 0.890175 0.996068 0.905843
Si Si7 0.400359 0.465350 0.900755
Si Si8 0.401141 0.373484 0.729763
O O1 0.303184 0.632815 0.766266
O O2 0.374699 0.742880 0.666971
O O3 0.361127 0.594579 0.613336
O O4 0.486832 0.633020 0.731783
O O5 0.828711 0.465445 0.167614
O O6 0.874393 0.610057 0.119934
O O7 0.000000 0.500000 0.133103
O O8 0.878751 0.494168 0.000000
O O9 0.784072 0.329378 0.095209
O O10 0.668406 0.458646 0.094662
O O11 0.856125 0.203803 0.818667
O O12 0.966178 0.310913 0.886796
O O13 0.868978 0.223599 0.000000
O O14 0.899564 0.721712 0.000000
O O15 0.859616 0.052849 0.825986
O O16 0.843465 0.021222 0.000000
O O17 0.000000 0.000000 0.916607
O O18 0.500000 0.500000 0.870306
O O19 0.370158 0.394802 0.831437
O O20 0.404155 0.428009 0.000000
#
# Coordination Sequence:
#
# PCOD8235768 Si02
#       8
#     8   8   8   8   8   8   8   8
#     4  10  19  31  49  77 116 143 177 227 274 333
#     4  10  19  34  55  79 109 142 185 234 280 333
#     4  12  21  34  53  81 113 147 184 226 277 334
#     4  10  20  33  55  83 110 141 181 237 291 334
#     4   9  18  34  55  79 108 143 183 229 289 335
#     4   9  15  27  50  75 105 142 176 216 272 329
#     4  11  21  35  54  78 113 155 190 223 267 332
#     4  10  18  35  51  76 108 144 187 223 275 333
#
# _framework density 17.697469999999999
#
# number of rings (size 3 to 8) (size 9 to 14) (size 15 to 20)
#    0.000    1.875    3.750    2.250    0.000    4.000 
#    0.000    0.000    0.000    0.750    0.000    0.000 
#    0.000    2.000    0.000    1.500    0.000    0.000 
#
# Total GULP energy -792847.628259 kJ/mol
# GULP energy per Si atom -12388.244192 kJ/mol
# Density = 1.765719 g / cm^3
# Si number density = 17.697470 Si / 1000 Ang^3
#
#
#
# Elastic Constant Matrix: (Units=GPa)
#
#
# Indices 1 2 3 4 5 6 
#
# 1 70.6036 37.0032 23.5302 0.0000 0.0000 0.0000
# 2 37.0032 100.4895 50.1651 0.0000 0.0000 0.0000
# 3 23.5302 50.1651 108.1278 0.0000 0.0000 0.0000
# 4 0.0000 0.0000 0.0000 27.2702 0.0000 0.0000
# 5 0.0000 0.0000 0.0000 0.0000 24.8282 0.0000
# 6 0.0000 0.0000 0.0000 0.0000 0.0000 30.0435
#
#
#
# Elastic Compliance Matrix: (Units=1/GPa)
#
#
# Indices 1 2 3 4 5 6 
#
# 1 0.017646 -0.005962 -0.001074 0.000000 0.000000 0.000000
# 2 -0.005962 0.014965 -0.005645 0.000000 0.000000 0.000000
# 3 -0.001074 -0.005645 0.012101 0.000000 0.000000 0.000000
# 4 0.000000 0.000000 0.000000 0.036670 0.000000 0.000000
# 5 0.000000 0.000000 0.000000 0.000000 0.040277 0.000000
# 6 0.000000 0.000000 0.000000 0.000000 0.000000 0.033285
#
#
# Mechanical properties :
#
#
# Convention : Reuss Voigt Hill
#
# Bulk Modulus (GPa) = 51.68069 55.62422 53.65246
# Shear Modulus (GPa) = 26.77287 27.66321 27.21804
#
# Velocity S-wave (km/s) = 3.89370 3.95792 3.92594
# Velocity P-wave (km/s) = 7.03422 7.23779 7.13673
#
# Compressibility (1/GPa) = 0.01934959
#
# Stress axis : x y z
#
# Youngs Moduli (GPa) = 56.67002 66.82367 82.63608
#
# Poissons Ratio (x) = 0.39837 0.08877
# Poissons Ratio (y) = 0.33784 0.46652
# Poissons Ratio (z) = 0.06088 0.37725
#
# Static dielectric constant tensor:
#      x y z
#    x 3.146820 0.000000 0.000000 
#    y 0.000000 3.386600 0.000000 
#    z 0.000000 0.000000 3.287610 
# 
# 
# High freq. dielectric constant tensor:
#      x y z
#    x 1.654870 0.000000 0.000000 
#    y 0.000000 1.686760 0.000000 
#    z 0.000000 0.000000 1.671950 
# 
# From -- ./inp_files/22457.got.cif
#   From: 2010.06.25/outbox.cif.g09.slc.cpg/sg58_12_cif.got.tgz:22457.got - 2010.06.26 21:38:00.
