data_PCOD8235839
_publ_section_title
;
Structure prediction by ZEFSAII (Michael W. Deem and Ramdas Pophale) SiO2 
 PCOD8235839
Probable space group: P N N M
;
_chemical_formula_sum "Si O2"
_cell_formula_units_Z 64
_cell_length_a 21.637610
_cell_length_b 18.829704
_cell_length_c 9.142527
_cell_angle_alpha 90.000000
_cell_angle_beta 90.000000
_cell_angle_gamma 90.000000
_cell_volume 3724.937870
_symmetry_space_group_name_H-M "P N N M"
_symmetry_group_IT_number 58
_symmetry_cell_setting 'orthorhombic'
loop_
_space_group_symop_operation_xyz
x,y,z
-x,-y,z
1/2+x,1/2-y,1/2-z
1/2-x,1/2+y,1/2-z
-x,-y,-z
x,y,-z
1/2-x,1/2+y,1/2+z
1/2+x,1/2-y,1/2+z
loop_
_atom_site_type_symbol
_atom_site_label
_atom_site_fract_x
_atom_site_fract_y
_atom_site_fract_z
Si Si1 0.808511 0.011803 0.834047
Si Si2 0.437335 0.529127 0.331265
Si Si3 0.020711 0.578123 0.670340
Si Si4 0.381416 0.677672 0.673069
Si Si5 0.815528 0.570791 0.667454
Si Si6 0.228812 0.123683 0.331366
Si Si7 0.089239 0.315587 0.330153
Si Si8 0.357379 0.069837 0.670521
O O1 0.759869 0.077092 0.816907
O O2 0.881482 0.028912 0.809264
O O3 0.790075 0.955512 0.712546
O O4 0.802066 0.979882 0.000000
O O5 0.500000 0.500000 0.252898
O O6 0.452912 0.540694 0.500000
O O7 0.415778 0.605978 0.270098
O O8 0.036883 0.578232 0.500000
O O9 0.081253 0.602332 0.758365
O O10 0.000000 0.500000 0.721855
O O11 0.967293 0.633372 0.709352
O O12 0.378639 0.681960 0.500000
O O13 0.310983 0.679077 0.735399
O O14 0.418281 0.744790 0.735192
O O15 0.834942 0.555377 0.500000
O O16 0.847013 0.644489 0.715760
O O17 0.841933 0.506045 0.759791
O O18 0.212681 0.137242 0.500000
O O19 0.302640 0.127784 0.302881
O O20 0.089593 0.294569 0.500000
O O21 0.367765 0.056802 0.500000
#
# Coordination Sequence:
#
# PCOD8235839 Si02
#       8
#     8   8   8   8   8   8   8   8
#     4   8  14  25  46  73  94 117 153 195 237 285
#     4   8  14  27  49  75  98 120 154 201 250 296
#     4  10  19  33  50  71  99 138 180 207 240 299
#     4  10  20  33  51  74  97 127 167 210 256 305
#     4   9  16  29  47  68  95 128 166 201 238 294
#     4   9  17  30  48  70  96 123 154 197 248 295
#     4  10  20  33  50  69  97 137 171 207 252 300
#     4  10  19  29  47  75 101 125 159 211 257 285
#
# _framework density 17.181495000000002
#
# number of rings (size 3 to 8) (size 9 to 14) (size 15 to 20)
#    0.000    2.750    1.250    1.875    0.000    2.750 
#    0.000    0.000    2.750    9.375    0.000    0.000 
#    0.000    0.000    0.000    0.000    0.000    0.000 
#
# Total GULP energy -792956.618604 kJ/mol
# GULP energy per Si atom -12389.947166 kJ/mol
# Density = 1.714239 g / cm^3
# Si number density = 17.181495 Si / 1000 Ang^3
#
#
#
# Elastic Constant Matrix: (Units=GPa)
#
#
# Indices 1 2 3 4 5 6 
#
# 1 145.2449 54.0102 45.1286 0.0000 0.0000 0.0000
# 2 54.0102 72.9925 31.6962 0.0000 0.0000 0.0000
# 3 45.1286 31.6962 61.0936 0.0000 0.0000 0.0000
# 4 0.0000 0.0000 0.0000 21.5453 0.0000 0.0000
# 5 0.0000 0.0000 0.0000 0.0000 19.2825 0.0000
# 6 0.0000 0.0000 0.0000 0.0000 0.0000 22.7315
#
#
#
# Elastic Compliance Matrix: (Units=1/GPa)
#
#
# Indices 1 2 3 4 5 6 
#
# 1 0.010487 -0.005674 -0.004803 0.000000 0.000000 0.000000
# 2 -0.005674 0.020754 -0.006576 0.000000 0.000000 0.000000
# 3 -0.004803 -0.006576 0.023328 0.000000 0.000000 0.000000
# 4 0.000000 0.000000 0.000000 0.046414 0.000000 0.000000
# 5 0.000000 0.000000 0.000000 0.000000 0.051861 0.000000
# 6 0.000000 0.000000 0.000000 0.000000 0.000000 0.043992
#
#
# Mechanical properties :
#
#
# Convention : Reuss Voigt Hill
#
# Bulk Modulus (GPa) = 48.86890 60.11122 54.49006
# Shear Modulus (GPa) = 21.02936 22.61160 21.82048
#
# Velocity S-wave (km/s) = 3.50230 3.63167 3.56757
# Velocity P-wave (km/s) = 6.69771 7.25585 6.98236
#
# Compressibility (1/GPa) = 0.02046291
#
# Stress axis : x y z
#
# Youngs Moduli (GPa) = 95.35402 48.18269 42.86734
#
# Poissons Ratio (x) = 0.27341 0.20588
# Poissons Ratio (y) = 0.54108 0.28190
# Poissons Ratio (z) = 0.45796 0.31685
#
# Static dielectric constant tensor:
#      x y z
#    x 3.681720 0.000000 0.000000 
#    y 0.000000 2.925530 0.000000 
#    z 0.000000 0.000000 3.100000 
# 
# 
# High freq. dielectric constant tensor:
#      x y z
#    x 1.676220 0.000000 0.000000 
#    y 0.000000 1.617510 0.000000 
#    z 0.000000 0.000000 1.654370 
# 
# From -- ./inp_files/9423.got.cif
#   From: 2010.06.25/outbox.cif.g09.slc.cpg/sg58_5_cif.got.tgz:9423.got - 2010.06.26 21:38:00.
