data_PCOD8235859
_publ_section_title
;
Structure prediction by ZEFSAII (Michael W. Deem and Ramdas Pophale) SiO2 
 PCOD8235859
Probable space group: P N N M
;
_chemical_formula_sum "Si O2"
_cell_formula_units_Z 64
_cell_length_a 15.828047
_cell_length_b 18.337267
_cell_length_c 13.839466
_cell_angle_alpha 90.000000
_cell_angle_beta 90.000000
_cell_angle_gamma 90.000000
_cell_volume 4016.809845
_symmetry_space_group_name_H-M "P N N M"
_symmetry_group_IT_number 58
_symmetry_cell_setting 'orthorhombic'
loop_
_space_group_symop_operation_xyz
x,y,z
-x,-y,z
1/2+x,1/2-y,1/2-z
1/2-x,1/2+y,1/2-z
-x,-y,-z
x,y,-z
1/2-x,1/2+y,1/2+z
1/2+x,1/2-y,1/2+z
loop_
_atom_site_type_symbol
_atom_site_label
_atom_site_fract_x
_atom_site_fract_y
_atom_site_fract_z
Si Si1 0.740690 0.471584 0.113376
Si Si2 0.402777 0.479052 0.607000
Si Si3 0.550856 0.650519 0.267743
Si Si4 0.857826 0.889475 0.229304
Si Si5 0.317939 0.365930 0.887795
Si Si6 0.322539 0.750285 0.389285
Si Si7 0.569007 0.944792 0.385529
Si Si8 0.013837 0.712238 0.110913
O O1 0.688210 0.410162 0.170908
O O2 0.706871 0.551613 0.138794
O O3 0.837846 0.468399 0.147319
O O4 0.731447 0.453734 0.000000
O O5 0.500000 0.500000 0.599384
O O6 0.365888 0.465103 0.500000
O O7 0.394684 0.406229 0.669483
O O8 0.348893 0.543683 0.654907
O O9 0.455808 0.624770 0.247833
O O10 0.596351 0.657765 0.165038
O O11 0.555456 0.726154 0.323834
O O12 0.814176 0.819273 0.180819
O O13 0.243688 0.311283 0.856085
O O14 0.337131 0.358530 0.000000
O O15 0.307660 0.724881 0.500000
O O16 0.413212 0.787888 0.379336
O O17 0.560678 0.946353 0.500000
O O18 0.548877 0.863785 0.348230
O O19 0.500000 0.000000 0.340185
O O20 0.040760 0.725990 0.000000
#
# Coordination Sequence:
#
# PCOD8235859 Si02
#       8
#     8   8   8   8   8   8   8   8
#     4  10  20  32  47  70  99 130 160 194 237 282
#     4   9  16  28  46  67  93 121 151 190 235 282
#     4  10  19  30  45  70  98 128 160 188 234 285
#     4  10  19  31  47  70  97 126 160 197 234 284
#     4  10  20  33  48  67  96 131 165 196 230 282
#     4   9  18  32  50  70  94 123 157 202 246 281
#     4   9  17  30  49  71  95 121 155 199 246 290
#     4   9  17  30  49  72  95 120 152 197 249 293
#
# _framework density 15.933040999999999
#
# number of rings (size 3 to 8) (size 9 to 14) (size 15 to 20)
#    0.000    2.500    1.250    1.500    1.750    6.500 
#    0.000    1.250    0.000    0.000    0.000    0.000 
#    0.000    2.500    0.000    0.000    0.000    0.000 
#
# Total GULP energy -793596.294677 kJ/mol
# GULP energy per Si atom -12399.942104 kJ/mol
# Density = 1.589678 g / cm^3
# Si number density = 15.933041 Si / 1000 Ang^3
#
#
#
# Elastic Constant Matrix: (Units=GPa)
#
#
# Indices 1 2 3 4 5 6 
#
# 1 67.5380 44.5294 44.6013 0.0000 0.0000 0.0000
# 2 44.5294 106.7784 46.2139 0.0000 0.0000 0.0000
# 3 44.6013 46.2139 70.3296 0.0000 0.0000 0.0000
# 4 0.0000 0.0000 0.0000 16.8042 0.0000 0.0000
# 5 0.0000 0.0000 0.0000 0.0000 21.2517 0.0000
# 6 0.0000 0.0000 0.0000 0.0000 0.0000 25.0989
#
#
#
# Elastic Compliance Matrix: (Units=1/GPa)
#
#
# Indices 1 2 3 4 5 6 
#
# 1 0.027609 -0.005500 -0.013895 0.000000 0.000000 0.000000
# 2 -0.005500 0.014183 -0.005832 0.000000 0.000000 0.000000
# 3 -0.013895 -0.005832 0.026862 0.000000 0.000000 0.000000
# 4 0.000000 0.000000 0.000000 0.059509 0.000000 0.000000
# 5 0.000000 0.000000 0.000000 0.000000 0.047055 0.000000
# 6 0.000000 0.000000 0.000000 0.000000 0.000000 0.039842
#
#
# Mechanical properties :
#
#
# Convention : Reuss Voigt Hill
#
# Bulk Modulus (GPa) = 54.94105 57.25945 56.10025
# Shear Modulus (GPa) = 18.41083 19.91773 19.16428
#
# Velocity S-wave (km/s) = 3.40297 3.53950 3.47190
# Velocity P-wave (km/s) = 7.07090 7.26083 7.16649
#
# Compressibility (1/GPa) = 0.01820133
#
# Stress axis : x y z
#
# Youngs Moduli (GPa) = 36.22070 70.50833 37.22676
#
# Poissons Ratio (x) = 0.38779 0.51725
# Poissons Ratio (y) = 0.19921 0.21709
# Poissons Ratio (z) = 0.50327 0.41118
#
# Static dielectric constant tensor:
#      x y z
#    x 2.898980 0.000000 0.000000 
#    y 0.000000 3.139520 0.000000 
#    z 0.000000 0.000000 2.897510 
# 
# 
# High freq. dielectric constant tensor:
#      x y z
#    x 1.597510 0.000000 0.000000 
#    y 0.000000 1.622410 0.000000 
#    z 0.000000 0.000000 1.593160 
# 
# From -- ./inp_files/22435.got.cif
#   From: 2010.06.25/outbox.cif.g09.slc.cpg/sg58_12_cif.got.tgz:22435.got - 2010.06.26 21:38:00.
