data_PCOD8235278
_publ_section_title
;
Structure prediction by ZEFSAII (Michael W. Deem and Ramdas Pophale) SiO2 
 PCOD8235278
Probable space group: P N N M
;
_chemical_formula_sum "Si O2"
_cell_formula_units_Z 40
_cell_length_a 8.509355
_cell_length_b 14.544288
_cell_length_c 18.758645
_cell_angle_alpha 90.000000
_cell_angle_beta 90.000000
_cell_angle_gamma 90.000000
_cell_volume 2321.616986
_symmetry_space_group_name_H-M "P N N M"
_symmetry_group_IT_number 58
_symmetry_cell_setting 'orthorhombic'
loop_
_space_group_symop_operation_xyz
x,y,z
-x,-y,z
1/2+x,1/2-y,1/2-z
1/2-x,1/2+y,1/2-z
-x,-y,-z
x,y,-z
1/2-x,1/2+y,1/2+z
1/2+x,1/2-y,1/2+z
loop_
_atom_site_type_symbol
_atom_site_label
_atom_site_fract_x
_atom_site_fract_y
_atom_site_fract_z
Si Si1 0.688780 0.407448 0.148829
Si Si2 0.236169 0.030524 0.500000
Si Si3 0.040847 0.902239 0.781656
Si Si4 0.367464 0.939860 0.268267
Si Si5 0.561229 0.139068 0.500000
Si Si6 0.526251 0.784955 0.644364
O O1 0.541873 0.396045 0.202971
O O2 0.803197 0.490930 0.171282
O O3 0.788454 0.312361 0.144417
O O4 0.634338 0.436867 0.068990
O O5 0.405466 0.078185 0.500000
O O6 0.278602 0.921702 0.500000
O O7 0.228689 0.901637 0.779853
O O8 0.991743 0.819293 0.832092
O O9 0.000000 0.000000 0.817670
O O10 0.442173 0.849214 0.299450
O O11 0.500000 0.000000 0.225454
O O12 0.557894 0.204942 0.568497
#
# Coordination Sequence:
#
# PCOD8235278 Si02
#       6
#     8   4   8   8   4   8
#     4   9  17  29  48  71  97 124 158 206 253 293
#     4   9  14  28  48  75  99 121 161 207 255 308
#     4  10  20  31  43  69 101 130 165 202 241 290
#     4   9  17  30  48  68  93 125 161 194 248 299
#     4   9  16  26  50  74  94 126 167 204 250 303
#     4  10  17  30  49  69  94 129 165 204 245 296
#
# _framework density 17.229371
#
# number of rings (size 3 to 8) (size 9 to 14) (size 15 to 20)
#    0.000    2.600    2.000    1.200    0.000    0.000 
#    0.000    6.000    0.000    0.000    0.000    0.700 
#    0.000    0.000    0.000    2.000    0.000    0.000 
#
# Total GULP energy -495535.216189 kJ/mol
# GULP energy per Si atom -12388.380405 kJ/mol
# Density = 1.719016 g / cm^3
# Si number density = 17.229371 Si / 1000 Ang^3
#
#
#
# Elastic Constant Matrix: (Units=GPa)
#
#
# Indices 1 2 3 4 5 6 
#
# 1 76.4949 31.3270 23.7416 0.0000 0.0000 0.0000
# 2 31.3270 128.5716 57.7862 0.0000 0.0000 0.0000
# 3 23.7416 57.7862 73.8482 0.0000 0.0000 0.0000
# 4 0.0000 0.0000 0.0000 13.5300 0.0000 0.0000
# 5 0.0000 0.0000 0.0000 0.0000 11.6265 0.0000
# 6 0.0000 0.0000 0.0000 0.0000 0.0000 18.3608
#
#
#
# Elastic Compliance Matrix: (Units=1/GPa)
#
#
# Indices 1 2 3 4 5 6 
#
# 1 0.014945 -0.002286 -0.003016 0.000000 0.000000 0.000000
# 2 -0.002286 0.012347 -0.008926 0.000000 0.000000 0.000000
# 3 -0.003016 -0.008926 0.021496 0.000000 0.000000 0.000000
# 4 0.000000 0.000000 0.000000 0.073910 0.000000 0.000000
# 5 0.000000 0.000000 0.000000 0.000000 0.086011 0.000000
# 6 0.000000 0.000000 0.000000 0.000000 0.000000 0.054464
#
#
# Mechanical properties :
#
#
# Convention : Reuss Voigt Hill
#
# Bulk Modulus (GPa) = 49.18608 56.06936 52.62772
# Shear Modulus (GPa) = 16.75574 19.77412 18.26493
#
# Velocity S-wave (km/s) = 3.12189 3.39145 3.25946
# Velocity P-wave (km/s) = 6.45017 6.92455 6.69157
#
# Compressibility (1/GPa) = 0.02033096
#
# Stress axis : x y z
#
# Youngs Moduli (GPa) = 66.91220 80.99357 46.52078
#
# Poissons Ratio (x) = 0.18514 0.14031
# Poissons Ratio (y) = 0.15295 0.41526
# Poissons Ratio (z) = 0.20181 0.72298
#
# Static dielectric constant tensor:
#      x y z
#    x 3.271950 0.000000 0.000000 
#    y 0.000000 3.175250 0.000000 
#    z 0.000000 0.000000 3.010180 
# 
# 
# High freq. dielectric constant tensor:
#      x y z
#    x 1.662560 0.000000 0.000000 
#    y 0.000000 1.656520 0.000000 
#    z 0.000000 0.000000 1.627690 
# 
# From -- ./inp_files/19514.got.cif
#   From: 2010.06.25/outbox.cif.g09.slc.cpg/sg58_10_cif.got.tgz:19514.got - 2010.06.26 21:38:00.
