data_PCOD8235352
_publ_section_title
;
Structure prediction by ZEFSAII (Michael W. Deem and Ramdas Pophale) SiO2 
 PCOD8235352
Probable space group: P N N M
;
_chemical_formula_sum "Si O2"
_cell_formula_units_Z 64
_cell_length_a 18.277841
_cell_length_b 26.262371
_cell_length_c 9.114768
_cell_angle_alpha 90.000000
_cell_angle_beta 90.000000
_cell_angle_gamma 90.000000
_cell_volume 4375.265844
_symmetry_space_group_name_H-M "P N N M"
_symmetry_group_IT_number 58
_symmetry_cell_setting 'orthorhombic'
loop_
_space_group_symop_operation_xyz
x,y,z
-x,-y,z
1/2+x,1/2-y,1/2-z
1/2-x,1/2+y,1/2-z
-x,-y,-z
x,y,-z
1/2-x,1/2+y,1/2+z
1/2+x,1/2-y,1/2+z
loop_
_atom_site_type_symbol
_atom_site_label
_atom_site_fract_x
_atom_site_fract_y
_atom_site_fract_z
Si Si1 0.584799 0.057676 0.826903
Si Si2 0.577702 0.750019 0.328374
Si Si3 0.581109 0.942487 0.828312
Si Si4 0.071751 0.261362 0.668329
Si Si5 0.216171 0.212106 0.335337
Si Si6 0.344306 0.851783 0.671438
Si Si7 0.703391 0.704494 0.832025
Si Si8 0.342052 0.145018 0.334623
O O1 0.501568 0.071561 0.782218
O O2 0.639097 0.092466 0.733463
O O3 0.601119 0.999665 0.779178
O O4 0.597394 0.065654 0.000000
O O5 0.567285 0.742439 0.500000
O O6 0.500112 0.743972 0.251738
O O7 0.630678 0.704932 0.268269
O O8 0.612328 0.804778 0.287930
O O9 0.638460 0.903138 0.762354
O O10 0.588238 0.938613 0.000000
O O11 0.052966 0.274631 0.500000
O O12 0.128115 0.213208 0.677559
O O13 0.106963 0.311290 0.740390
O O14 0.238764 0.232374 0.500000
O O15 0.246926 0.247265 0.207352
O O16 0.254691 0.156812 0.316207
O O17 0.364808 0.847644 0.500000
O O18 0.256856 0.843792 0.695121
O O19 0.678238 0.708104 0.000000
O O20 0.361976 0.130311 0.500000
#
# Coordination Sequence:
#
# PCOD8235352 Si02
#       8
#     8   8   8   8   8   8   8   8
#     4   9  18  31  43  56  79 109 139 171 206 241
#     4  10  19  29  41  60  85 109 137 171 203 239
#     4   9  18  30  42  58  79 105 139 174 203 237
#     4  10  18  28  43  60  81 111 141 167 201 243
#     4   8  16  29  41  56  80 108 136 166 201 241
#     4  10  19  29  42  61  83 107 139 174 204 239
#     4   9  17  28  41  58  80 106 136 168 201 239
#     4   9  17  28  41  57  79 107 135 165 202 239
#
# _framework density 14.627682999999999
#
# number of rings (size 3 to 8) (size 9 to 14) (size 15 to 20)
#    0.000    2.750    0.000    3.750    0.000    7.500 
#    0.000    1.250    0.000    0.000    0.000    0.000 
#    0.000    1.000    0.000   11.250    0.000    5.625 
#
# Total GULP energy -793129.191746 kJ/mol
# GULP energy per Si atom -12392.643621 kJ/mol
# Density = 1.459439 g / cm^3
# Si number density = 14.627683 Si / 1000 Ang^3
#
#
#
# Elastic Constant Matrix: (Units=GPa)
#
#
# Indices 1 2 3 4 5 6 
#
# 1 98.6033 48.0929 48.9825 0.0000 0.0000 0.0000
# 2 48.0929 73.1118 39.0683 0.0000 0.0000 0.0000
# 3 48.9825 39.0683 74.2103 0.0000 0.0000 0.0000
# 4 0.0000 0.0000 0.0000 22.8183 0.0000 0.0000
# 5 0.0000 0.0000 0.0000 0.0000 24.9354 0.0000
# 6 0.0000 0.0000 0.0000 0.0000 0.0000 23.9870
#
#
#
# Elastic Compliance Matrix: (Units=1/GPa)
#
#
# Indices 1 2 3 4 5 6 
#
# 1 0.017605 -0.007473 -0.007686 0.000000 0.000000 0.000000
# 2 -0.007473 0.022204 -0.006757 0.000000 0.000000 0.000000
# 3 -0.007686 -0.006757 0.022105 0.000000 0.000000 0.000000
# 4 0.000000 0.000000 0.000000 0.043825 0.000000 0.000000
# 5 0.000000 0.000000 0.000000 0.000000 0.040104 0.000000
# 6 0.000000 0.000000 0.000000 0.000000 0.000000 0.041689
#
#
# Mechanical properties :
#
#
# Convention : Reuss Voigt Hill
#
# Bulk Modulus (GPa) = 55.30137 57.57921 56.44029
# Shear Modulus (GPa) = 21.06236 21.66690 21.36463
#
# Velocity S-wave (km/s) = 3.79871 3.85285 3.82588
# Velocity P-wave (km/s) = 7.55833 7.69683 7.62789
#
# Compressibility (1/GPa) = 0.01808273
#
# Stress axis : x y z
#
# Youngs Moduli (GPa) = 56.80315 45.03639 45.23845
#
# Poissons Ratio (x) = 0.33658 0.34768
# Poissons Ratio (y) = 0.42452 0.30566
# Poissons Ratio (z) = 0.43656 0.30430
#
# Static dielectric constant tensor:
#      x y z
#    x 2.974330 0.000000 0.000000 
#    y 0.000000 2.673900 0.000000 
#    z 0.000000 0.000000 2.901740 
# 
# 
# High freq. dielectric constant tensor:
#      x y z
#    x 1.551230 0.000000 0.000000 
#    y 0.000000 1.520220 0.000000 
#    z 0.000000 0.000000 1.572830 
# 
# From -- ./inp_files/8485.got.cif
#   From: 2010.06.25/outbox.cif.g09.slc.cpg/sg58_5_cif.got.tgz:8485.got - 2010.06.26 21:38:00.
