data_PCOD8235641
_publ_section_title
;
Structure prediction by ZEFSAII (Michael W. Deem and Ramdas Pophale) SiO2 
 PCOD8235641
Probable space group: P N N M
;
_chemical_formula_sum "Si O2"
_cell_formula_units_Z 48
_cell_length_a 18.198954
_cell_length_b 16.601892
_cell_length_c 8.891636
_cell_angle_alpha 90.000000
_cell_angle_beta 90.000000
_cell_angle_gamma 90.000000
_cell_volume 2686.492838
_symmetry_space_group_name_H-M "P N N M"
_symmetry_group_IT_number 58
_symmetry_cell_setting 'orthorhombic'
loop_
_space_group_symop_operation_xyz
x,y,z
-x,-y,z
1/2+x,1/2-y,1/2-z
1/2-x,1/2+y,1/2-z
-x,-y,-z
x,y,-z
1/2-x,1/2+y,1/2+z
1/2+x,1/2-y,1/2+z
loop_
_atom_site_type_symbol
_atom_site_label
_atom_site_fract_x
_atom_site_fract_y
_atom_site_fract_z
Si Si1 0.089698 0.817404 0.675409
Si Si2 0.081143 0.996612 0.324497
Si Si3 0.666107 0.824381 0.322737
Si Si4 0.948458 0.747841 0.822029
Si Si5 0.331229 0.648533 0.821978
Si Si6 0.476884 0.085726 0.677463
O O1 0.079006 0.799755 0.500000
O O2 0.116218 0.908940 0.704704
O O3 0.152492 0.760905 0.743104
O O4 0.011450 0.804847 0.754792
O O5 0.073513 0.014964 0.500000
O O6 0.133202 0.066212 0.256780
O O7 0.000000 0.000000 0.250710
O O8 0.658911 0.810278 0.500000
O O9 0.746073 0.854946 0.274639
O O10 0.604761 0.888670 0.267304
O O11 0.870296 0.774471 0.754197
O O12 0.964792 0.654973 0.776165
O O13 0.947957 0.758073 0.000000
O O14 0.339396 0.657326 0.000000
O O15 0.475458 0.075934 0.500000
O O16 0.500000 0.000000 0.751537
#
# Coordination Sequence:
#
# PCOD8235641 Si02
#       6
#     8   8   8   8   8   8
#     4  10  18  32  54  75  99 133 169 206 247 299
#     4   9  16  29  51  77  99 127 172 209 240 299
#     4   9  19  34  52  73 101 135 169 210 261 307
#     4  10  19  31  51  78 102 128 167 209 253 304
#     4  10  19  34  52  72 103 139 170 207 258 306
#     4   8  15  31  52  73  95 125 169 215 249 290
#
# _framework density 17.867159999999998
#
# number of rings (size 3 to 8) (size 9 to 14) (size 15 to 20)
#    0.000    2.667    1.667    2.000    0.000    0.667 
#    3.000    2.500    0.000   12.500    0.000    0.000 
#    0.000    0.000    0.000    0.000    0.000    0.000 
#
# Total GULP energy -595023.717440 kJ/mol
# GULP energy per Si atom -12396.327447 kJ/mol
# Density = 1.782649 g / cm^3
# Si number density = 17.867160 Si / 1000 Ang^3
#
#
#
# Elastic Constant Matrix: (Units=GPa)
#
#
# Indices 1 2 3 4 5 6 
#
# 1 141.0924 89.9072 32.8961 0.0000 0.0000 0.0000
# 2 89.9072 145.3882 29.6143 0.0000 0.0000 0.0000
# 3 32.8961 29.6143 37.9920 0.0000 0.0000 0.0000
# 4 0.0000 0.0000 0.0000 23.1576 0.0000 0.0000
# 5 0.0000 0.0000 0.0000 0.0000 23.9684 0.0000
# 6 0.0000 0.0000 0.0000 0.0000 0.0000 26.6042
#
#
#
# Elastic Compliance Matrix: (Units=1/GPa)
#
#
# Indices 1 2 3 4 5 6 
#
# 1 0.012684 -0.006665 -0.005787 0.000000 0.000000 0.000000
# 2 -0.006665 0.011678 -0.003332 0.000000 0.000000 0.000000
# 3 -0.005787 -0.003332 0.033930 0.000000 0.000000 0.000000
# 4 0.000000 0.000000 0.000000 0.043182 0.000000 0.000000
# 5 0.000000 0.000000 0.000000 0.000000 0.041722 0.000000
# 6 0.000000 0.000000 0.000000 0.000000 0.000000 0.037588
#
#
# Mechanical properties :
#
#
# Convention : Reuss Voigt Hill
#
# Bulk Modulus (GPa) = 37.42075 69.92310 53.67192
# Shear Modulus (GPa) = 22.59775 26.21638 24.40706
#
# Velocity S-wave (km/s) = 3.56021 3.83468 3.69999
# Velocity P-wave (km/s) = 6.15544 7.66983 6.95398
#
# Compressibility (1/GPa) = 0.02672314
#
# Stress axis : x y z
#
# Youngs Moduli (GPa) = 78.84041 85.62849 29.47242
#
# Poissons Ratio (x) = 0.57069 0.17057
# Poissons Ratio (y) = 0.52545 0.09821
# Poissons Ratio (z) = 0.45628 0.28534
#
# Static dielectric constant tensor:
#      x y z
#    x 3.354090 0.000000 0.000000 
#    y 0.000000 3.576530 0.000000 
#    z 0.000000 0.000000 3.039250 
# 
# 
# High freq. dielectric constant tensor:
#      x y z
#    x 1.680990 0.000000 0.000000 
#    y 0.000000 1.697510 0.000000 
#    z 0.000000 0.000000 1.661750 
# 
# From -- ./inp_files/7870.got.cif
#   From: 2010.06.25/outbox.cif.g09.slc.cpg/sg58_4_cif.got.tgz:7870.got - 2010.06.26 21:38:00.
