data_PCOD8235882
_publ_section_title
;
Structure prediction by ZEFSAII (Michael W. Deem and Ramdas Pophale) SiO2 
 PCOD8235882
Probable space group: P N N M
;
_chemical_formula_sum "Si O2"
_cell_formula_units_Z 56
_cell_length_a 20.253653
_cell_length_b 16.929676
_cell_length_c 9.225671
_cell_angle_alpha 90.000000
_cell_angle_beta 90.000000
_cell_angle_gamma 90.000000
_cell_volume 3163.369877
_symmetry_space_group_name_H-M "P N N M"
_symmetry_group_IT_number 58
_symmetry_cell_setting 'orthorhombic'
loop_
_space_group_symop_operation_xyz
x,y,z
-x,-y,z
1/2+x,1/2-y,1/2-z
1/2-x,1/2+y,1/2-z
-x,-y,-z
x,y,-z
1/2-x,1/2+y,1/2+z
1/2+x,1/2-y,1/2+z
loop_
_atom_site_type_symbol
_atom_site_label
_atom_site_fract_x
_atom_site_fract_y
_atom_site_fract_z
Si Si1 0.525052 0.911285 0.836716
Si Si2 0.395820 0.472023 0.661703
Si Si3 0.379873 0.712521 0.829304
Si Si4 0.294653 0.561990 0.169114
Si Si5 0.853854 0.463225 0.168823
Si Si6 0.401610 0.862362 0.330123
Si Si7 0.514964 0.373913 0.336676
O O1 0.596501 0.908887 0.760733
O O2 0.474211 0.860468 0.741782
O O3 0.500000 0.000000 0.840463
O O4 0.529915 0.876940 0.000000
O O5 0.369820 0.455554 0.500000
O O6 0.332457 0.487116 0.761772
O O7 0.441482 0.548164 0.664056
O O8 0.440384 0.397196 0.713906
O O9 0.326544 0.645769 0.786016
O O10 0.359271 0.792803 0.746262
O O11 0.453225 0.688177 0.774650
O O12 0.381929 0.727578 0.000000
O O13 0.219078 0.561059 0.220313
O O14 0.300243 0.548068 0.000000
O O15 0.864305 0.555812 0.200806
O O16 0.865948 0.445177 0.000000
O O17 0.408782 0.845868 0.500000
O O18 0.513730 0.338478 0.500000
#
# Coordination Sequence:
#
# PCOD8235882 Si02
#       7
#     8   8   8   8   8   8   8
#     4   9  17  30  50  76  99 118 150 199 247 287
#     4   8  14  25  43  66  91 120 158 200 235 279
#     4  10  19  30  47  72 100 128 162 205 250 294
#     4   9  18  31  48  71  99 132 168 204 243 292
#     4   9  18  33  52  73  97 129 168 202 242 295
#     4  10  19  32  52  73  96 127 163 204 248 298
#     4   8  14  26  43  64  91 122 158 198 238 281
#
# _framework density 17.702641
#
# number of rings (size 3 to 8) (size 9 to 14) (size 15 to 20)
#    0.000    3.000    0.000    2.143    0.000    4.000 
#    0.000    2.857    3.143    0.000    0.000    0.000 
#    0.000    0.000    0.000    0.000    0.000    0.000 
#
# Total GULP energy -694118.810520 kJ/mol
# GULP energy per Si atom -12394.978759 kJ/mol
# Density = 1.766235 g / cm^3
# Si number density = 17.702641 Si / 1000 Ang^3
#
#
#
# Elastic Constant Matrix: (Units=GPa)
#
#
# Indices 1 2 3 4 5 6 
#
# 1 118.9308 33.8231 52.0138 0.0000 0.0000 0.0000
# 2 33.8231 57.3499 35.3652 0.0000 0.0000 0.0000
# 3 52.0138 35.3652 88.2754 0.0000 0.0000 0.0000
# 4 0.0000 0.0000 0.0000 26.1034 0.0000 0.0000
# 5 0.0000 0.0000 0.0000 0.0000 26.6464 0.0000
# 6 0.0000 0.0000 0.0000 0.0000 0.0000 16.3020
#
#
#
# Elastic Compliance Matrix: (Units=1/GPa)
#
#
# Indices 1 2 3 4 5 6 
#
# 1 0.011851 -0.003564 -0.005555 0.000000 0.000000 0.000000
# 2 -0.003564 0.024230 -0.007607 0.000000 0.000000 0.000000
# 3 -0.005555 -0.007607 0.017649 0.000000 0.000000 0.000000
# 4 0.000000 0.000000 0.000000 0.038309 0.000000 0.000000
# 5 0.000000 0.000000 0.000000 0.000000 0.037529 0.000000
# 6 0.000000 0.000000 0.000000 0.000000 0.000000 0.061342
#
#
# Mechanical properties :
#
#
# Convention : Reuss Voigt Hill
#
# Bulk Modulus (GPa) = 49.31547 56.32892 52.82220
# Shear Modulus (GPa) = 21.63361 23.36727 22.50044
#
# Velocity S-wave (km/s) = 3.49958 3.63711 3.56901
# Velocity P-wave (km/s) = 6.65189 7.03752 6.84742
#
# Compressibility (1/GPa) = 0.02027761
#
# Stress axis : x y z
#
# Youngs Moduli (GPa) = 84.37840 41.27181 56.66014
#
# Poissons Ratio (x) = 0.14708 0.31477
# Poissons Ratio (y) = 0.30071 0.43102
# Poissons Ratio (z) = 0.46875 0.31396
#
# Static dielectric constant tensor:
#      x y z
#    x 3.359200 0.000000 0.000000 
#    y 0.000000 3.199770 0.000000 
#    z 0.000000 0.000000 3.371610 
# 
# 
# High freq. dielectric constant tensor:
#      x y z
#    x 1.668540 0.000000 0.000000 
#    y 0.000000 1.660250 0.000000 
#    z 0.000000 0.000000 1.687980 
# 
# From -- ./inp_files/9178.got.cif
#   From: 2010.06.25/outbox.cif.g09.slc.cpg/sg58_5_cif.got.tgz:9178.got - 2010.06.26 21:38:00.
