data_PCOD8235239
_publ_section_title
;
Structure prediction by ZEFSAII (Michael W. Deem and Ramdas Pophale) SiO2 
 PCOD8235239
Probable space group: P N N M
;
_chemical_formula_sum "Si O2"
_cell_formula_units_Z 56
_cell_length_a 13.688821
_cell_length_b 29.197408
_cell_length_c 8.649339
_cell_angle_alpha 90.000000
_cell_angle_beta 90.000000
_cell_angle_gamma 90.000000
_cell_volume 3456.951307
_symmetry_space_group_name_H-M "P N N M"
_symmetry_group_IT_number 58
_symmetry_cell_setting 'orthorhombic'
loop_
_space_group_symop_operation_xyz
x,y,z
-x,-y,z
1/2+x,1/2-y,1/2-z
1/2-x,1/2+y,1/2-z
-x,-y,-z
x,y,-z
1/2-x,1/2+y,1/2+z
1/2+x,1/2-y,1/2+z
loop_
_atom_site_type_symbol
_atom_site_label
_atom_site_fract_x
_atom_site_fract_y
_atom_site_fract_z
Si Si1 0.100769 0.767270 0.817194
Si Si2 0.894885 0.771946 0.682506
Si Si3 0.209577 0.683935 0.318450
Si Si4 0.615814 0.003073 0.329351
Si Si5 0.388280 0.097674 0.317709
Si Si6 0.288586 0.818053 0.182342
Si Si7 0.899330 0.594214 0.681103
O O1 0.125917 0.718890 0.737951
O O2 0.179355 0.805474 0.760834
O O3 0.995387 0.785079 0.765853
O O4 0.105576 0.759912 0.000000
O O5 0.909638 0.774722 0.500000
O O6 0.811928 0.807674 0.732601
O O7 0.863434 0.721246 0.738906
O O8 0.224671 0.689329 0.500000
O O9 0.176350 0.632826 0.278647
O O10 0.657142 0.014238 0.500000
O O11 0.652885 0.953086 0.273688
O O12 0.500000 0.000000 0.336291
O O13 0.647388 0.044155 0.215130
O O14 0.378635 0.106817 0.500000
O O15 0.501319 0.102341 0.272952
O O16 0.322849 0.867592 0.242967
O O17 0.289173 0.818281 0.000000
O O18 0.920461 0.599182 0.500000
#
# Coordination Sequence:
#
# PCOD8235239 Si02
#       7
#     8   8   8   8   8   8   8
#     4  10  19  33  49  66  92 124 155 188 227 268
#     4  10  19  33  49  67  93 122 154 191 228 267
#     4  11  21  32  47  69  93 120 156 191 228 274
#     4   8  16  29  42  60  89 121 150 183 227 275
#     4  10  19  31  45  63  91 124 154 188 230 273
#     4   8  17  30  44  64  91 120 148 181 220 263
#     4  10  17  27  45  68  93 121 153 188 225 268
#
# _framework density 16.199244
#
# number of rings (size 3 to 8) (size 9 to 14) (size 15 to 20)
#    0.000    2.429    0.000    5.571    0.000    4.286 
#    0.000    7.857    0.000    0.000    0.000    1.000 
#    0.000    8.000    0.000    0.000    0.000    0.000 
#
# Total GULP energy -694211.348672 kJ/mol
# GULP energy per Si atom -12396.631226 kJ/mol
# Density = 1.616237 g / cm^3
# Si number density = 16.199244 Si / 1000 Ang^3
#
#
#
# Elastic Constant Matrix: (Units=GPa)
#
#
# Indices 1 2 3 4 5 6 
#
# 1 75.7454 38.9623 8.3606 0.0000 0.0000 0.0000
# 2 38.9623 113.7701 20.2873 0.0000 0.0000 0.0000
# 3 8.3606 20.2873 48.1835 0.0000 0.0000 0.0000
# 4 0.0000 0.0000 0.0000 25.1661 0.0000 0.0000
# 5 0.0000 0.0000 0.0000 0.0000 21.5238 0.0000
# 6 0.0000 0.0000 0.0000 0.0000 0.0000 21.6991
#
#
#
# Elastic Compliance Matrix: (Units=1/GPa)
#
#
# Indices 1 2 3 4 5 6 
#
# 1 0.016037 -0.005401 -0.000508 0.000000 0.000000 0.000000
# 2 -0.005401 0.011322 -0.003830 0.000000 0.000000 0.000000
# 3 -0.000508 -0.003830 0.022455 0.000000 0.000000 0.000000
# 4 0.000000 0.000000 0.000000 0.039736 0.000000 0.000000
# 5 0.000000 0.000000 0.000000 0.000000 0.046460 0.000000
# 6 0.000000 0.000000 0.000000 0.000000 0.000000 0.046085
#
#
# Mechanical properties :
#
#
# Convention : Reuss Voigt Hill
#
# Bulk Modulus (GPa) = 32.96599 41.43552 37.20075
# Shear Modulus (GPa) = 23.61993 25.01706 24.31850
#
# Velocity S-wave (km/s) = 3.82264 3.93407 3.87875
# Velocity P-wave (km/s) = 6.31489 6.80221 6.56308
#
# Compressibility (1/GPa) = 0.03033430
#
# Stress axis : x y z
#
# Youngs Moduli (GPa) = 62.35731 88.32065 44.53394
#
# Poissons Ratio (x) = 0.47705 0.02264
# Poissons Ratio (y) = 0.33681 0.17056
# Poissons Ratio (z) = 0.03170 0.33827
#
# Static dielectric constant tensor:
#      x y z
#    x 2.928970 0.000000 0.000000 
#    y 0.000000 3.437570 0.000000 
#    z 0.000000 0.000000 3.045260 
# 
# 
# High freq. dielectric constant tensor:
#      x y z
#    x 1.590960 0.000000 0.000000 
#    y 0.000000 1.621190 0.000000 
#    z 0.000000 0.000000 1.627050 
# 
# From -- ./inp_files/7124.got.cif
#   From: 2010.06.25/outbox.cif.g09.slc.cpg/sg58_4_cif.got.tgz:7124.got - 2010.06.26 21:38:00.
