data_PCOD8235521
_publ_section_title
;
Structure prediction by ZEFSAII (Michael W. Deem and Ramdas Pophale) SiO2 
 PCOD8235521
Probable space group: P N N M
;
_chemical_formula_sum "Si O2"
_cell_formula_units_Z 56
_cell_length_a 13.920026
_cell_length_b 22.184617
_cell_length_c 9.271171
_cell_angle_alpha 90.000000
_cell_angle_beta 90.000000
_cell_angle_gamma 90.000000
_cell_volume 2863.034446
_symmetry_space_group_name_H-M "P N N M"
_symmetry_group_IT_number 58
_symmetry_cell_setting 'orthorhombic'
loop_
_space_group_symop_operation_xyz
x,y,z
-x,-y,z
1/2+x,1/2-y,1/2-z
1/2-x,1/2+y,1/2-z
-x,-y,-z
x,y,-z
1/2-x,1/2+y,1/2+z
1/2+x,1/2-y,1/2+z
loop_
_atom_site_type_symbol
_atom_site_label
_atom_site_fract_x
_atom_site_fract_y
_atom_site_fract_z
Si Si1 0.900082 0.033389 0.833398
Si Si2 0.585886 0.882424 0.668342
Si Si3 0.309994 0.829761 0.663810
Si Si4 0.096174 0.842363 0.334694
Si Si5 0.281480 0.041403 0.162527
Si Si6 0.492466 0.756723 0.335117
Si Si7 0.591182 0.072666 0.163614
O O1 0.901072 0.093293 0.740243
O O2 0.815848 0.988980 0.777209
O O3 0.880372 0.050498 0.000000
O O4 0.000000 0.000000 0.812948
O O5 0.589281 0.896636 0.500000
O O6 0.687880 0.901482 0.739133
O O7 0.563857 0.812332 0.698819
O O8 0.502645 0.922811 0.738487
O O9 0.331915 0.852026 0.500000
O O10 0.199709 0.809349 0.679688
O O11 0.382383 0.775036 0.700080
O O12 0.325740 0.884334 0.774077
O O13 0.067613 0.852376 0.500000
O O14 0.016662 0.799848 0.263922
O O15 0.369634 0.994796 0.166544
O O16 0.263997 0.064753 0.000000
O O17 0.503740 0.736190 0.500000
O O18 0.566265 0.092193 0.000000
#
# Coordination Sequence:
#
# PCOD8235521 Si02
#       7
#     8   8   8   8   8   8   8
#     4  10  22  42  64  85 114 155 198 237 287 350
#     4  10  21  35  53  81 118 154 185 229 287 343
#     4   9  19  36  57  82 112 148 189 234 289 349
#     4  11  22  38  63  90 115 147 192 246 295 339
#     4  10  20  34  54  83 113 148 191 233 281 339
#     4   9  20  39  58  80 115 155 195 234 284 352
#     4  10  18  30  53  83 113 145 185 230 276 337
#
# _framework density 19.559666
#
# number of rings (size 3 to 8) (size 9 to 14) (size 15 to 20)
#    0.000    2.143    1.429    2.571    0.000    7.143 
#    2.571    0.000    0.000    0.000    0.000    0.000 
#    0.000    0.000    0.000    0.000    0.000    0.000 
#
# Total GULP energy -694405.474001 kJ/mol
# GULP energy per Si atom -12400.097750 kJ/mol
# Density = 1.951515 g / cm^3
# Si number density = 19.559666 Si / 1000 Ang^3
#
#
#
# Elastic Constant Matrix: (Units=GPa)
#
#
# Indices 1 2 3 4 5 6 
#
# 1 67.0744 36.0476 36.3015 0.0000 0.0000 0.0000
# 2 36.0476 46.9349 37.3873 0.0000 0.0000 0.0000
# 3 36.3015 37.3873 96.9314 0.0000 0.0000 0.0000
# 4 0.0000 0.0000 0.0000 29.1234 0.0000 0.0000
# 5 0.0000 0.0000 0.0000 0.0000 17.7126 0.0000
# 6 0.0000 0.0000 0.0000 0.0000 0.0000 27.7960
#
#
#
# Elastic Compliance Matrix: (Units=1/GPa)
#
#
# Indices 1 2 3 4 5 6 
#
# 1 0.025953 -0.017597 -0.002932 0.000000 0.000000 0.000000
# 2 -0.017597 0.042687 -0.009875 0.000000 0.000000 0.000000
# 3 -0.002932 -0.009875 0.015223 0.000000 0.000000 0.000000
# 4 0.000000 0.000000 0.000000 0.034337 0.000000 0.000000
# 5 0.000000 0.000000 0.000000 0.000000 0.056457 0.000000
# 6 0.000000 0.000000 0.000000 0.000000 0.000000 0.035976
#
#
# Mechanical properties :
#
#
# Convention : Reuss Voigt Hill
#
# Bulk Modulus (GPa) = 43.37299 47.82371 45.59835
# Shear Modulus (GPa) = 17.91306 21.67336 19.79321
#
# Velocity S-wave (km/s) = 3.02953 3.33237 3.18455
# Velocity P-wave (km/s) = 5.87028 6.26973 6.07329
#
# Compressibility (1/GPa) = 0.02305582
#
# Stress axis : x y z
#
# Youngs Moduli (GPa) = 38.53144 23.42633 65.68821
#
# Poissons Ratio (x) = 0.41223 0.19261
# Poissons Ratio (y) = 0.67803 0.64864
# Poissons Ratio (z) = 0.11298 0.23133
#
# Static dielectric constant tensor:
#      x y z
#    x 3.653850 0.000000 0.000000 
#    y 0.000000 3.284640 0.000000 
#    z 0.000000 0.000000 3.660440 
# 
# 
# High freq. dielectric constant tensor:
#      x y z
#    x 1.762290 0.000000 0.000000 
#    y 0.000000 1.740130 0.000000 
#    z 0.000000 0.000000 1.765120 
# 
# From -- ./inp_files/6286.got.cif
#   From: 2010.06.25/outbox.cif.g09.slc.cpg/sg58_4_cif.got.tgz:6286.got - 2010.06.26 21:38:00.
