data_PCOD8235963
_publ_section_title
;
Structure prediction by ZEFSAII (Michael W. Deem and Ramdas Pophale) SiO2 
 PCOD8235963
Probable space group: P N N M
;
_chemical_formula_sum "Si O2"
_cell_formula_units_Z 48
_cell_length_a 19.229675
_cell_length_b 15.516124
_cell_length_c 9.345963
_cell_angle_alpha 90.000000
_cell_angle_beta 90.000000
_cell_angle_gamma 90.000000
_cell_volume 2788.555184
_symmetry_space_group_name_H-M "P N N M"
_symmetry_group_IT_number 58
_symmetry_cell_setting 'orthorhombic'
loop_
_space_group_symop_operation_xyz
x,y,z
-x,-y,z
1/2+x,1/2-y,1/2-z
1/2-x,1/2+y,1/2-z
-x,-y,-z
x,y,-z
1/2-x,1/2+y,1/2+z
1/2+x,1/2-y,1/2+z
loop_
_atom_site_type_symbol
_atom_site_label
_atom_site_fract_x
_atom_site_fract_y
_atom_site_fract_z
Si Si1 0.799965 0.939202 0.335955
Si Si2 0.557557 0.432453 0.665889
Si Si3 0.810321 0.750250 0.339242
Si Si4 0.206272 0.435189 0.660576
Si Si5 0.957199 0.580919 0.665588
Si Si6 0.945503 0.741450 0.835603
O O1 0.810896 0.965517 0.500000
O O2 0.873786 0.947630 0.258636
O O3 0.769556 0.840981 0.323328
O O4 0.743453 0.002421 0.270274
O O5 0.500000 0.500000 0.717401
O O6 0.577870 0.446135 0.500000
O O7 0.523514 0.337397 0.688604
O O8 0.844777 0.746668 0.500000
O O9 0.763879 0.663317 0.322573
O O10 0.866347 0.747795 0.214635
O O11 0.219836 0.469227 0.500000
O O12 0.124234 0.434142 0.694503
O O13 0.974117 0.594207 0.500000
O O14 0.984529 0.667209 0.745617
O O15 0.000000 0.500000 0.727144
O O16 0.948000 0.713726 0.000000
#
# Coordination Sequence:
#
# PCOD8235963 Si02
#       6
#     8   8   8   8   8   8
#     4  10  19  31  49  73  97 121 155 198 236 271
#     4   9  18  33  51  70  95 127 158 188 230 284
#     4   8  16  31  48  65  90 126 159 186 227 282
#     4   9  17  31  50  69  92 125 159 189 229 281
#     4   9  18  33  51  69  93 127 160 190 232 284
#     4   9  16  27  47  72  93 118 155 195 230 269
#
# _framework density 17.213215000000002
#
# number of rings (size 3 to 8) (size 9 to 14) (size 15 to 20)
#    0.000    3.000    0.000    2.000    0.000    4.667 
#    0.000    1.667    0.000    6.000    0.000    0.000 
#    0.000    0.000    0.000    0.000    0.000    0.000 
#
# Total GULP energy -594720.586022 kJ/mol
# GULP energy per Si atom -12390.012209 kJ/mol
# Density = 1.717404 g / cm^3
# Si number density = 17.213215 Si / 1000 Ang^3
#
#
#
# Elastic Constant Matrix: (Units=GPa)
#
#
# Indices 1 2 3 4 5 6 
#
# 1 42.9536 49.4839 33.3836 0.0000 0.0000 0.0000
# 2 49.4839 157.6527 67.8844 0.0000 0.0000 0.0000
# 3 33.3836 67.8844 86.4561 0.0000 0.0000 0.0000
# 4 0.0000 0.0000 0.0000 32.0997 0.0000 0.0000
# 5 0.0000 0.0000 0.0000 0.0000 20.7515 0.0000
# 6 0.0000 0.0000 0.0000 0.0000 0.0000 28.8797
#
#
#
# Elastic Compliance Matrix: (Units=1/GPa)
#
#
# Indices 1 2 3 4 5 6 
#
# 1 0.040204 -0.008966 -0.008484 0.000000 0.000000 0.000000
# 2 -0.008966 0.011583 -0.005632 0.000000 0.000000 0.000000
# 3 -0.008484 -0.005632 0.019265 0.000000 0.000000 0.000000
# 4 0.000000 0.000000 0.000000 0.031153 0.000000 0.000000
# 5 0.000000 0.000000 0.000000 0.000000 0.048189 0.000000
# 6 0.000000 0.000000 0.000000 0.000000 0.000000 0.034626
#
#
# Mechanical properties :
#
#
# Convention : Reuss Voigt Hill
#
# Bulk Modulus (GPa) = 40.18236 65.39622 52.78929
# Shear Modulus (GPa) = 20.87852 25.43356 23.15604
#
# Velocity S-wave (km/s) = 3.48650 3.84807 3.67174
# Velocity P-wave (km/s) = 6.29302 7.60381 6.97926
#
# Compressibility (1/GPa) = 0.02488654
#
# Stress axis : x y z
#
# Youngs Moduli (GPa) = 24.87325 86.33645 51.90736
#
# Poissons Ratio (x) = 0.77409 0.44039
# Poissons Ratio (y) = 0.22301 0.29237
# Poissons Ratio (z) = 0.21103 0.48629
#
# Static dielectric constant tensor:
#      x y z
#    x 2.725950 0.000000 0.000000 
#    y 0.000000 3.747920 0.000000 
#    z 0.000000 0.000000 3.264910 
# 
# 
# High freq. dielectric constant tensor:
#      x y z
#    x 1.606510 0.000000 0.000000 
#    y 0.000000 1.687850 0.000000 
#    z 0.000000 0.000000 1.671810 
# 
# From -- ./inp_files/6024.got.cif
#   From: 2010.06.25/outbox.cif.g09.slc.cpg/sg58_4_cif.got.tgz:6024.got - 2010.06.26 21:38:00.
