data_PCOD8235562
_publ_section_title
;
Structure prediction by ZEFSAII (Michael W. Deem and Ramdas Pophale) SiO2 
 PCOD8235562
Probable space group: P N N M
;
_chemical_formula_sum "Si O2"
_cell_formula_units_Z 64
_cell_length_a 11.328742
_cell_length_b 17.328743
_cell_length_c 18.755322
_cell_angle_alpha 90.000000
_cell_angle_beta 90.000000
_cell_angle_gamma 90.000000
_cell_volume 3681.910876
_symmetry_space_group_name_H-M "P N N M"
_symmetry_group_IT_number 58
_symmetry_cell_setting 'orthorhombic'
loop_
_space_group_symop_operation_xyz
x,y,z
-x,-y,z
1/2+x,1/2-y,1/2-z
1/2-x,1/2+y,1/2-z
-x,-y,-z
x,y,-z
1/2-x,1/2+y,1/2+z
1/2+x,1/2-y,1/2+z
loop_
_atom_site_type_symbol
_atom_site_label
_atom_site_fract_x
_atom_site_fract_y
_atom_site_fract_z
Si Si1 0.614069 0.696710 0.281699
Si Si2 0.296301 0.060920 0.762466
Si Si3 0.451080 0.174141 0.173173
Si Si4 0.838872 0.609534 0.748804
Si Si5 0.979814 0.417496 0.861620
Si Si6 0.163632 0.721313 0.920156
Si Si7 0.442010 0.699794 0.081777
Si Si8 0.955957 0.914029 0.294393
O O1 0.568205 0.772787 0.242633
O O2 0.741846 0.676556 0.250083
O O3 0.617088 0.714081 0.365937
O O4 0.526911 0.625115 0.270125
O O5 0.339004 0.114055 0.830699
O O6 0.402697 0.066093 0.707623
O O7 0.179711 0.094972 0.726918
O O8 0.277804 0.970472 0.777419
O O9 0.568963 0.125837 0.186217
O O10 0.477507 0.225595 0.103032
O O11 0.894206 0.610513 0.828990
O O12 0.913234 0.357284 0.912557
O O13 0.000000 0.500000 0.902211
O O14 0.302448 0.709812 0.906012
O O15 0.143448 0.752150 0.000000
O O16 0.482633 0.628964 0.131181
O O17 0.470527 0.679975 0.000000
O O18 0.000000 0.000000 0.305445
#
# Coordination Sequence:
#
# PCOD8235562 Si02
#       8
#     8   8   8   8   8   8   8   8
#     4  11  20  32  52  81 105 134 184 222 265 319
#     4  10  18  33  52  83 104 133 181 223 278 305
#     4  10  19  31  57  76 105 141 172 233 265 308
#     4  10  18  31  52  79 107 132 175 229 270 307
#     4   9  18  32  53  75 109 139 172 226 264 315
#     4  11  20  33  52  76 111 146 178 220 267 324
#     4  10  21  35  53  79 112 145 178 214 269 331
#     4  11  21  34  56  82 106 140 177 224 271 324
#
# _framework density 17.382277999999999
#
# number of rings (size 3 to 8) (size 9 to 14) (size 15 to 20)
#    0.000    1.750    6.250    1.125    1.750    0.500 
#    0.000    0.000    0.000    9.375    0.000    0.000 
#    0.000    0.000    0.000    0.000    0.000    0.000 
#
# Total GULP energy -793116.398015 kJ/mol
# GULP energy per Si atom -12392.443719 kJ/mol
# Density = 1.734272 g / cm^3
# Si number density = 17.382278 Si / 1000 Ang^3
#
#
#
# Elastic Constant Matrix: (Units=GPa)
#
#
# Indices 1 2 3 4 5 6 
#
# 1 63.2137 21.5920 31.5952 0.0000 0.0000 0.0000
# 2 21.5920 78.5458 47.5287 0.0000 0.0000 0.0000
# 3 31.5952 47.5287 93.3122 0.0000 0.0000 0.0000
# 4 0.0000 0.0000 0.0000 18.6243 0.0000 0.0000
# 5 0.0000 0.0000 0.0000 0.0000 17.2856 0.0000
# 6 0.0000 0.0000 0.0000 0.0000 0.0000 23.2115
#
#
#
# Elastic Compliance Matrix: (Units=1/GPa)
#
#
# Indices 1 2 3 4 5 6 
#
# 1 0.019246 -0.001948 -0.005525 0.000000 0.000000 0.000000
# 2 -0.001948 0.018601 -0.008815 0.000000 0.000000 0.000000
# 3 -0.005525 -0.008815 0.017077 0.000000 0.000000 0.000000
# 4 0.000000 0.000000 0.000000 0.053693 0.000000 0.000000
# 5 0.000000 0.000000 0.000000 0.000000 0.057852 0.000000
# 6 0.000000 0.000000 0.000000 0.000000 0.000000 0.043082
#
#
# Mechanical properties :
#
#
# Convention : Reuss Voigt Hill
#
# Bulk Modulus (GPa) = 44.74343 48.50041 46.62192
# Shear Modulus (GPa) = 20.03408 20.78134 20.40771
#
# Velocity S-wave (km/s) = 3.39862 3.46142 3.43016
# Velocity P-wave (km/s) = 6.41853 6.62858 6.52440
#
# Compressibility (1/GPa) = 0.02234965
#
# Stress axis : x y z
#
# Youngs Moduli (GPa) = 51.95920 53.76118 58.55771
#
# Poissons Ratio (x) = 0.10471 0.32350
# Poissons Ratio (y) = 0.10120 0.51618
# Poissons Ratio (z) = 0.28705 0.47390
#
# Static dielectric constant tensor:
#      x y z
#    x 3.388260 0.000000 0.000000 
#    y 0.000000 3.575330 0.000000 
#    z 0.000000 0.000000 2.928090 
# 
# 
# High freq. dielectric constant tensor:
#      x y z
#    x 1.677610 0.000000 0.000000 
#    y 0.000000 1.681580 0.000000 
#    z 0.000000 0.000000 1.624780 
# 
# From -- ./inp_files/26457.got.cif
#   From: 2010.06.25/outbox.cif.g09.slc.cpg/sg58_14_cif.got.tgz:26457.got - 2010.06.26 21:38:00.
