data_PCOD8235765
_publ_section_title
;
Structure prediction by ZEFSAII (Michael W. Deem and Ramdas Pophale) SiO2 
 PCOD8235765
Probable space group: P N N M
;
_chemical_formula_sum "Si O2"
_cell_formula_units_Z 48
_cell_length_a 9.157384
_cell_length_b 18.730312
_cell_length_c 14.112317
_cell_angle_alpha 90.000000
_cell_angle_beta 90.000000
_cell_angle_gamma 90.000000
_cell_volume 2420.553918
_symmetry_space_group_name_H-M "P N N M"
_symmetry_group_IT_number 58
_symmetry_cell_setting 'orthorhombic'
loop_
_space_group_symop_operation_xyz
x,y,z
-x,-y,z
1/2+x,1/2-y,1/2-z
1/2-x,1/2+y,1/2-z
-x,-y,-z
x,y,-z
1/2-x,1/2+y,1/2+z
1/2+x,1/2-y,1/2+z
loop_
_atom_site_type_symbol
_atom_site_label
_atom_site_fract_x
_atom_site_fract_y
_atom_site_fract_z
Si Si1 0.065857 0.420460 0.000000
Si Si2 0.726237 0.320951 0.213712
Si Si3 0.325118 0.489084 0.500000
Si Si4 0.640925 0.049197 0.694588
Si Si5 0.174719 0.333913 0.500000
Si Si6 0.297973 0.183774 0.500000
Si Si7 0.449636 0.818214 0.198833
Si Si8 0.850056 0.960933 0.805078
O O1 0.165551 0.413503 0.907194
O O2 0.000000 0.500000 0.000000
O O3 0.954544 0.354049 0.000000
O O4 0.723329 0.339933 0.100423
O O5 0.641564 0.248741 0.236649
O O6 0.636191 0.378993 0.274511
O O7 0.889263 0.315909 0.256313
O O8 0.500000 0.500000 0.500000
O O9 0.268705 0.406904 0.500000
O O10 0.262765 0.528656 0.594789
O O11 0.633082 0.110600 0.771271
O O12 0.500000 0.000000 0.695535
O O13 0.775254 0.998825 0.716441
O O14 0.298235 0.270602 0.500000
O O15 0.060151 0.323169 0.414442
O O16 0.000000 0.000000 0.821904
#
# Coordination Sequence:
#
# PCOD8235765 Si02
#       8
#     4   8   4   8   4   4   8   8
#     4  10  18  34  63  89 116 155 215 246 294 379
#     4  11  24  42  63  94 124 168 209 254 320 373
#     4  10  22  39  61  92 124 167 211 252 308 384
#     4  11  20  39  63  92 120 162 211 256 310 367
#     4  10  22  39  64  91 128 163 210 259 320 363
#     4  10  20  40  64  90 122 167 206 255 306 381
#     4  11  23  40  65  89 126 164 207 257 313 376
#     4  11  24  41  63  91 129 165 209 264 315 370
#
# _framework density 19.830169999999999
#
# number of rings (size 3 to 8) (size 9 to 14) (size 15 to 20)
#    0.000    1.333    5.000    1.000    2.333    2.000 
#    0.000    5.000    0.000    0.000    0.000    0.000 
#    0.000    0.000    0.000    0.000    0.000    0.000 
#
# Total GULP energy -594647.211311 kJ/mol
# GULP energy per Si atom -12388.483569 kJ/mol
# Density = 1.978504 g / cm^3
# Si number density = 19.830170 Si / 1000 Ang^3
#
#
#
# Elastic Constant Matrix: (Units=GPa)
#
#
# Indices 1 2 3 4 5 6 
#
# 1 52.2041 20.6877 25.5949 0.0000 0.0000 0.0000
# 2 20.6877 120.2394 54.1854 0.0000 0.0000 0.0000
# 3 25.5949 54.1854 144.4372 0.0000 0.0000 0.0000
# 4 0.0000 0.0000 0.0000 32.6117 0.0000 0.0000
# 5 0.0000 0.0000 0.0000 0.0000 15.2188 0.0000
# 6 0.0000 0.0000 0.0000 0.0000 0.0000 38.9676
#
#
#
# Elastic Compliance Matrix: (Units=1/GPa)
#
#
# Indices 1 2 3 4 5 6 
#
# 1 0.021534 -0.002389 -0.002920 0.000000 0.000000 0.000000
# 2 -0.002389 0.010274 -0.003431 0.000000 0.000000 0.000000
# 3 -0.002920 -0.003431 0.008728 0.000000 0.000000 0.000000
# 4 0.000000 0.000000 0.000000 0.030664 0.000000 0.000000
# 5 0.000000 0.000000 0.000000 0.000000 0.065708 0.000000
# 6 0.000000 0.000000 0.000000 0.000000 0.000000 0.025662
#
#
# Mechanical properties :
#
#
# Convention : Reuss Voigt Hill
#
# Bulk Modulus (GPa) = 43.37223 57.53519 50.45371
# Shear Modulus (GPa) = 26.63331 31.78714 29.21022
#
# Velocity S-wave (km/s) = 3.66877 4.00805 3.84216
# Velocity P-wave (km/s) = 6.31394 7.10607 6.72168
#
# Compressibility (1/GPa) = 0.02305623
#
# Stress axis : x y z
#
# Youngs Moduli (GPa) = 46.43848 97.33372 114.57567
#
# Poissons Ratio (x) = 0.23256 0.33451
# Poissons Ratio (y) = 0.11096 0.39309
# Poissons Ratio (z) = 0.13558 0.33394
#
# Static dielectric constant tensor:
#      x y z
#    x 3.190860 0.000000 0.000000 
#    y 0.000000 3.802700 0.000000 
#    z 0.000000 0.000000 4.516230 
# 
# 
# High freq. dielectric constant tensor:
#      x y z
#    x 1.735920 0.000000 0.000000 
#    y 0.000000 1.785530 0.000000 
#    z 0.000000 0.000000 1.802630 
# 
# From -- ./inp_files/19918.got.cif
#   From: 2010.06.25/outbox.cif.g09.slc.cpg/sg58_10_cif.got.tgz:19918.got - 2010.06.26 21:38:00.
