data_PCOD8235383
_publ_section_title
;
Structure prediction by ZEFSAII (Michael W. Deem and Ramdas Pophale) SiO2 
 PCOD8235383
Probable space group: P N N M
;
_chemical_formula_sum "Si O2"
_cell_formula_units_Z 48
_cell_length_a 13.870012
_cell_length_b 23.835150
_cell_length_c 8.743219
_cell_angle_alpha 90.000000
_cell_angle_beta 90.000000
_cell_angle_gamma 90.000000
_cell_volume 2890.454138
_symmetry_space_group_name_H-M "P N N M"
_symmetry_group_IT_number 58
_symmetry_cell_setting 'orthorhombic'
loop_
_space_group_symop_operation_xyz
x,y,z
-x,-y,z
1/2+x,1/2-y,1/2-z
1/2-x,1/2+y,1/2-z
-x,-y,-z
x,y,-z
1/2-x,1/2+y,1/2+z
1/2+x,1/2-y,1/2+z
loop_
_atom_site_type_symbol
_atom_site_label
_atom_site_fract_x
_atom_site_fract_y
_atom_site_fract_z
Si Si1 0.396448 0.942083 0.680486
Si Si2 0.397477 0.058073 0.820006
Si Si3 0.894216 0.223286 0.180418
Si Si4 0.296657 0.171233 0.821963
Si Si5 0.607185 0.270620 0.321298
Si Si6 0.777615 0.664599 0.180312
O O1 0.415322 0.942461 0.500000
O O2 0.495744 0.926546 0.763913
O O3 0.316764 0.896331 0.727859
O O4 0.358417 0.002584 0.735302
O O5 0.325742 0.108399 0.775581
O O6 0.399776 0.046787 0.000000
O O7 0.858826 0.285123 0.225173
O O8 0.828089 0.174036 0.249459
O O9 0.002448 0.215389 0.248859
O O10 0.891885 0.217030 0.000000
O O11 0.182892 0.179335 0.785806
O O12 0.317769 0.183143 0.000000
O O13 0.592294 0.261987 0.500000
O O14 0.649896 0.212285 0.254385
O O15 0.767700 0.670898 0.000000
#
# Coordination Sequence:
#
# PCOD8235383 Si02
#       6
#     8   8   8   8   8   8
#     4  10  19  31  48  67  92 125 153 182 226 277
#     4  10  19  30  47  70  94 119 151 192 228 263
#     4  10  18  28  47  71  91 114 149 190 223 261
#     4   9  18  32  47  64  92 125 149 177 224 274
#     4   8  15  29  46  64  88 117 147 178 218 267
#     4   9  18  32  47  64  91 124 151 179 223 274
#
# _framework density 16.606387000000002
#
# number of rings (size 3 to 8) (size 9 to 14) (size 15 to 20)
#    0.000    2.667    0.000    4.500    0.000    4.000 
#    0.000    8.333    0.000    1.000    0.000    7.000 
#    0.000    0.000    0.000    0.000    0.000    0.000 
#
# Total GULP energy -595054.095535 kJ/mol
# GULP energy per Si atom -12396.960324 kJ/mol
# Density = 1.656859 g / cm^3
# Si number density = 16.606387 Si / 1000 Ang^3
#
#
#
# Elastic Constant Matrix: (Units=GPa)
#
#
# Indices 1 2 3 4 5 6 
#
# 1 135.3211 68.4996 23.3412 0.0000 0.0000 0.0000
# 2 68.4996 116.6532 24.3870 0.0000 0.0000 0.0000
# 3 23.3412 24.3870 34.5489 0.0000 0.0000 0.0000
# 4 0.0000 0.0000 0.0000 19.0007 0.0000 0.0000
# 5 0.0000 0.0000 0.0000 0.0000 20.1408 0.0000
# 6 0.0000 0.0000 0.0000 0.0000 0.0000 30.1527
#
#
#
# Elastic Compliance Matrix: (Units=1/GPa)
#
#
# Indices 1 2 3 4 5 6 
#
# 1 0.010830 -0.005666 -0.003317 0.000000 0.000000 0.000000
# 2 -0.005666 0.013021 -0.005363 0.000000 0.000000 0.000000
# 3 -0.003317 -0.005363 0.034971 0.000000 0.000000 0.000000
# 4 0.000000 0.000000 0.000000 0.052630 0.000000 0.000000
# 5 0.000000 0.000000 0.000000 0.000000 0.049650 0.000000
# 6 0.000000 0.000000 0.000000 0.000000 0.000000 0.033165
#
#
# Mechanical properties :
#
#
# Convention : Reuss Voigt Hill
#
# Bulk Modulus (GPa) = 33.19016 57.66432 45.42724
# Shear Modulus (GPa) = 21.45897 25.21186 23.33541
#
# Velocity S-wave (km/s) = 3.59863 3.90064 3.75268
# Velocity P-wave (km/s) = 6.10710 7.42201 6.79643
#
# Compressibility (1/GPa) = 0.03012941
#
# Stress axis : x y z
#
# Youngs Moduli (GPa) = 92.33444 76.80061 28.59491
#
# Poissons Ratio (x) = 0.43516 0.09486
# Poissons Ratio (y) = 0.52317 0.15335
# Poissons Ratio (z) = 0.30631 0.41188
#
# Static dielectric constant tensor:
#      x y z
#    x 3.295790 0.000000 0.000000 
#    y 0.000000 3.166570 0.000000 
#    z 0.000000 0.000000 3.024900 
# 
# 
# High freq. dielectric constant tensor:
#      x y z
#    x 1.632460 0.000000 0.000000 
#    y 0.000000 1.630190 0.000000 
#    z 0.000000 0.000000 1.633620 
# 
# From -- ./inp_files/6545.got.cif
#   From: 2010.06.25/outbox.cif.g09.slc.cpg/sg58_4_cif.got.tgz:6545.got - 2010.06.26 21:38:00.
