data_PCOD8235488
_publ_section_title
;
Structure prediction by ZEFSAII (Michael W. Deem and Ramdas Pophale) SiO2 
 PCOD8235488
Probable space group: P N N M
;
_chemical_formula_sum "Si O2"
_cell_formula_units_Z 56
_cell_length_a 16.345367
_cell_length_b 19.604373
_cell_length_c 9.303083
_cell_angle_alpha 90.000000
_cell_angle_beta 90.000000
_cell_angle_gamma 90.000000
_cell_volume 2981.086163
_symmetry_space_group_name_H-M "P N N M"
_symmetry_group_IT_number 58
_symmetry_cell_setting 'orthorhombic'
loop_
_space_group_symop_operation_xyz
x,y,z
-x,-y,z
1/2+x,1/2-y,1/2-z
1/2-x,1/2+y,1/2-z
-x,-y,-z
x,y,-z
1/2-x,1/2+y,1/2+z
1/2+x,1/2-y,1/2+z
loop_
_atom_site_type_symbol
_atom_site_label
_atom_site_fract_x
_atom_site_fract_y
_atom_site_fract_z
Si Si1 0.375594 0.616736 0.341836
Si Si2 0.117061 0.963916 0.161117
Si Si3 0.019047 0.858863 0.664905
Si Si4 0.762607 0.587812 0.168531
Si Si5 0.593555 0.989890 0.667311
Si Si6 0.178243 0.776650 0.664197
Si Si7 0.691771 0.874146 0.829080
O O1 0.376275 0.651216 0.500000
O O2 0.413230 0.541265 0.349450
O O3 0.432277 0.662379 0.236742
O O4 0.283976 0.608143 0.284981
O O5 0.051202 0.925446 0.256020
O O6 0.205314 0.961375 0.238254
O O7 0.123424 0.932420 0.000000
O O8 0.003469 0.876588 0.500000
O O9 0.084752 0.799416 0.685319
O O10 0.855242 0.560566 0.194726
O O11 0.743589 0.666138 0.222039
O O12 0.738215 0.582558 0.000000
O O13 0.596841 0.970712 0.500000
O O14 0.630159 0.926272 0.753692
O O15 0.500000 0.000000 0.718527
O O16 0.201414 0.765250 0.500000
O O17 0.181709 0.702342 0.736717
O O18 0.676157 0.878946 0.000000
#
# Coordination Sequence:
#
# PCOD8235488 Si02
#       7
#     8   8   8   8   8   8   8
#     4  10  20  32  49  78 108 136 172 219 271 318
#     4  10  18  30  50  77 108 134 168 216 262 311
#     4  10  20  33  51  76 105 142 180 211 262 325
#     4   9  17  33  56  78 105 144 183 220 270 326
#     4  10  21  37  57  85 115 142 183 235 280 327
#     4   8  17  35  56  76 102 143 187 225 269 329
#     4  10  20  38  59  78 107 146 187 227 277 331
#
# _framework density 18.785098999999999
#
# number of rings (size 3 to 8) (size 9 to 14) (size 15 to 20)
#    0.000    2.429    1.429    2.143    0.000    3.714 
#    2.571    3.571    0.000    0.000    0.000    0.000 
#    0.000    0.000    0.000    0.000    0.000    0.000 
#
# Total GULP energy -693865.101286 kJ/mol
# GULP energy per Si atom -12390.448237 kJ/mol
# Density = 1.874234 g / cm^3
# Si number density = 18.785099 Si / 1000 Ang^3
#
#
#
# Elastic Constant Matrix: (Units=GPa)
#
#
# Indices 1 2 3 4 5 6 
#
# 1 133.9830 49.6920 56.4677 0.0000 0.0000 0.0000
# 2 49.6920 110.6461 35.4338 0.0000 0.0000 0.0000
# 3 56.4677 35.4338 77.0160 0.0000 0.0000 0.0000
# 4 0.0000 0.0000 0.0000 17.0858 0.0000 0.0000
# 5 0.0000 0.0000 0.0000 0.0000 29.9722 0.0000
# 6 0.0000 0.0000 0.0000 0.0000 0.0000 11.1208
#
#
#
# Elastic Compliance Matrix: (Units=1/GPa)
#
#
# Indices 1 2 3 4 5 6 
#
# 1 0.011544 -0.002902 -0.007129 0.000000 0.000000 0.000000
# 2 -0.002902 0.011329 -0.003085 0.000000 0.000000 0.000000
# 3 -0.007129 -0.003085 0.019631 0.000000 0.000000 0.000000
# 4 0.000000 0.000000 0.000000 0.058528 0.000000 0.000000
# 5 0.000000 0.000000 0.000000 0.000000 0.033364 0.000000
# 6 0.000000 0.000000 0.000000 0.000000 0.000000 0.089921
#
#
# Mechanical properties :
#
#
# Convention : Reuss Voigt Hill
#
# Bulk Modulus (GPa) = 61.45295 67.20358 64.32827
# Shear Modulus (GPa) = 19.53327 23.63921 21.58624
#
# Velocity S-wave (km/s) = 3.22813 3.55125 3.39354
# Velocity P-wave (km/s) = 6.83221 7.25725 7.04794
#
# Compressibility (1/GPa) = 0.01627261
#
# Stress axis : x y z
#
# Youngs Moduli (GPa) = 86.62138 88.27040 50.94036
#
# Poissons Ratio (x) = 0.25612 0.36317
# Poissons Ratio (y) = 0.25134 0.15714
# Poissons Ratio (z) = 0.61756 0.27230
#
# Static dielectric constant tensor:
#      x y z
#    x 3.547030 0.000000 0.000000 
#    y 0.000000 3.412230 0.000000 
#    z 0.000000 0.000000 3.420500 
# 
# 
# High freq. dielectric constant tensor:
#      x y z
#    x 1.732040 0.000000 0.000000 
#    y 0.000000 1.712740 0.000000 
#    z 0.000000 0.000000 1.715110 
# 
# From -- ./inp_files/6327.got.cif
#   From: 2010.06.25/outbox.cif.g09.slc.cpg/sg58_4_cif.got.tgz:6327.got - 2010.06.26 21:38:00.
