data_PCOD8235740
_publ_section_title
;
Structure prediction by ZEFSAII (Michael W. Deem and Ramdas Pophale) SiO2 
 PCOD8235740
Probable space group: P N N M
;
_chemical_formula_sum "Si O2"
_cell_formula_units_Z 64
_cell_length_a 20.654573
_cell_length_b 19.683670
_cell_length_c 9.003095
_cell_angle_alpha 90.000000
_cell_angle_beta 90.000000
_cell_angle_gamma 90.000000
_cell_volume 3660.278487
_symmetry_space_group_name_H-M "P N N M"
_symmetry_group_IT_number 58
_symmetry_cell_setting 'orthorhombic'
loop_
_space_group_symop_operation_xyz
x,y,z
-x,-y,z
1/2+x,1/2-y,1/2-z
1/2-x,1/2+y,1/2-z
-x,-y,-z
x,y,-z
1/2-x,1/2+y,1/2+z
1/2+x,1/2-y,1/2+z
loop_
_atom_site_type_symbol
_atom_site_label
_atom_site_fract_x
_atom_site_fract_y
_atom_site_fract_z
Si Si1 0.436850 0.710046 0.327769
Si Si2 0.186933 0.718263 0.826580
Si Si3 0.380476 0.433629 0.174502
Si Si4 0.241045 0.576655 0.172136
Si Si5 0.568015 0.710442 0.175070
Si Si6 0.375644 0.568491 0.327868
Si Si7 0.265603 0.929132 0.674288
Si Si8 0.690727 0.212267 0.676518
O O1 0.450747 0.724983 0.500000
O O2 0.498185 0.733958 0.232540
O O3 0.424284 0.630571 0.299777
O O4 0.375993 0.754073 0.270789
O O5 0.190345 0.636916 0.799766
O O6 0.121702 0.743081 0.750847
O O7 0.249412 0.751419 0.753583
O O8 0.185646 0.736394 0.000000
O O9 0.422490 0.368396 0.220073
O O10 0.407119 0.501679 0.252980
O O11 0.307669 0.420458 0.233393
O O12 0.382473 0.446770 0.000000
O O13 0.306470 0.589493 0.262013
O O14 0.208533 0.504187 0.220954
O O15 0.261664 0.572665 0.000000
O O16 0.573532 0.720805 0.000000
O O17 0.365611 0.553875 0.500000
O O18 0.263688 0.921663 0.500000
O O19 0.309815 0.866744 0.731807
O O20 0.699545 0.220337 0.500000
#
# Coordination Sequence:
#
# PCOD8235740 Si02
#       8
#     8   8   8   8   8   8   8   8
#     4  10  22  36  51  76 109 141 175 221 269 313
#     4  11  21  33  54  81 109 136 172 225 268 309
#     4   9  18  33  51  72 101 139 180 217 253 309
#     4   9  18  32  51  78 108 137 172 214 258 311
#     4  11  23  38  55  73 102 144 185 222 263 319
#     4  10  19  31  50  76 108 141 172 214 260 311
#     4   8  14  29  53  76 100 131 171 212 251 304
#     4  10  18  34  57  78 105 139 177 217 261 317
#
# _framework density 17.485009000000002
#
# number of rings (size 3 to 8) (size 9 to 14) (size 15 to 20)
#    0.000    2.250    2.500    1.875    0.000    3.500 
#    0.000    2.500    0.000    0.750    0.000    5.250 
#    0.000    0.000    0.000    0.000    0.000    0.000 
#
# Total GULP energy -793373.502439 kJ/mol
# GULP energy per Si atom -12396.460976 kJ/mol
# Density = 1.744521 g / cm^3
# Si number density = 17.485009 Si / 1000 Ang^3
#
#
#
# Elastic Constant Matrix: (Units=GPa)
#
#
# Indices 1 2 3 4 5 6 
#
# 1 109.7889 62.7243 41.5066 0.0000 0.0000 0.0000
# 2 62.7243 116.4593 41.4539 0.0000 0.0000 0.0000
# 3 41.5066 41.4539 57.8206 0.0000 0.0000 0.0000
# 4 0.0000 0.0000 0.0000 24.8102 0.0000 0.0000
# 5 0.0000 0.0000 0.0000 0.0000 26.4409 0.0000
# 6 0.0000 0.0000 0.0000 0.0000 0.0000 22.0479
#
#
#
# Elastic Compliance Matrix: (Units=1/GPa)
#
#
# Indices 1 2 3 4 5 6 
#
# 1 0.014823 -0.005634 -0.006602 0.000000 0.000000 0.000000
# 2 -0.005634 0.013670 -0.005756 0.000000 0.000000 0.000000
# 3 -0.006602 -0.005756 0.026161 0.000000 0.000000 0.000000
# 4 0.000000 0.000000 0.000000 0.040306 0.000000 0.000000
# 5 0.000000 0.000000 0.000000 0.000000 0.037820 0.000000
# 6 0.000000 0.000000 0.000000 0.000000 0.000000 0.045356
#
#
# Mechanical properties :
#
#
# Convention : Reuss Voigt Hill
#
# Bulk Modulus (GPa) = 53.56099 63.93759 58.74929
# Shear Modulus (GPa) = 22.69197 23.88539 23.28868
#
# Velocity S-wave (km/s) = 3.60640 3.70002 3.65351
# Velocity P-wave (km/s) = 6.93113 7.40945 7.17428
#
# Compressibility (1/GPa) = 0.01867031
#
# Stress axis : x y z
#
# Youngs Moduli (GPa) = 67.46390 73.15324 38.22510
#
# Poissons Ratio (x) = 0.41212 0.25235
# Poissons Ratio (y) = 0.38007 0.22004
# Poissons Ratio (z) = 0.44537 0.42110
#
# Static dielectric constant tensor:
#      x y z
#    x 3.043270 0.000000 0.000000 
#    y 0.000000 3.744360 0.000000 
#    z 0.000000 0.000000 3.167890 
# 
# 
# High freq. dielectric constant tensor:
#      x y z
#    x 1.647030 0.000000 0.000000 
#    y 0.000000 1.686450 0.000000 
#    z 0.000000 0.000000 1.668010 
# 
# From -- ./inp_files/8334.got.cif
#   From: 2010.06.25/outbox.cif.g09.slc.cpg/sg58_5_cif.got.tgz:8334.got - 2010.06.26 21:38:00.
