data_PCOD8235555
_publ_section_title
;
Structure prediction by ZEFSAII (Michael W. Deem and Ramdas Pophale) SiO2 
 PCOD8235555
Probable space group: P N N M
;
_chemical_formula_sum "Si O2"
_cell_formula_units_Z 48
_cell_length_a 16.915334
_cell_length_b 19.609358
_cell_length_c 7.905790
_cell_angle_alpha 90.000000
_cell_angle_beta 90.000000
_cell_angle_gamma 90.000000
_cell_volume 2622.341373
_symmetry_space_group_name_H-M "P N N M"
_symmetry_group_IT_number 58
_symmetry_cell_setting 'orthorhombic'
loop_
_space_group_symop_operation_xyz
x,y,z
-x,-y,z
1/2+x,1/2-y,1/2-z
1/2-x,1/2+y,1/2-z
-x,-y,-z
x,y,-z
1/2-x,1/2+y,1/2+z
1/2+x,1/2-y,1/2+z
loop_
_atom_site_type_symbol
_atom_site_label
_atom_site_fract_x
_atom_site_fract_y
_atom_site_fract_z
Si Si1 0.512623 0.842621 0.196631
Si Si2 0.470910 0.608481 0.500000
Si Si3 0.151578 0.397422 0.691683
Si Si4 0.625492 0.517908 0.500000
Si Si5 0.182594 0.903964 0.310897
Si Si6 0.533526 0.687143 0.195020
Si Si7 0.412627 0.028548 0.311703
O O1 0.426160 0.861588 0.275031
O O2 0.537654 0.766443 0.243431
O O3 0.583394 0.892041 0.258749
O O4 0.503037 0.854643 0.000000
O O5 0.544371 0.558339 0.500000
O O6 0.391072 0.563285 0.500000
O O7 0.472566 0.652710 0.326972
O O8 0.164322 0.373776 0.500000
O O9 0.228821 0.373891 0.796060
O O10 0.143047 0.480311 0.697795
O O11 0.673149 0.536744 0.329413
O O12 0.169031 0.933967 0.500000
O O13 0.121090 0.842770 0.277827
O O14 0.504637 0.676332 0.000000
O O15 0.378575 0.023589 0.500000
O O16 0.500000 0.000000 0.295300
#
# Coordination Sequence:
#
# PCOD8235555 Si02
#       7
#     8   4   8   4   8   8   8
#     4   9  18  32  51  74 103 139 174 215 259 308
#     4   9  18  32  56  78 101 130 172 217 250 307
#     4  10  18  31  52  74 102 136 175 218 261 311
#     4   9  18  34  52  80 101 128 174 213 258 300
#     4  10  19  33  54  76 103 138 172 214 263 314
#     4   9  19  34  53  78 106 138 175 211 259 312
#     4   9  17  28  45  73 100 126 169 215 254 300
#
# _framework density 18.304254
#
# number of rings (size 3 to 8) (size 9 to 14) (size 15 to 20)
#    0.000    2.667    0.833    1.000    1.167    3.333 
#    0.000    3.333    3.667    0.000    0.000    0.000 
#    0.000    0.000    0.000    0.000    0.000    0.000 
#
# Total GULP energy -594862.660240 kJ/mol
# GULP energy per Si atom -12392.972088 kJ/mol
# Density = 1.826259 g / cm^3
# Si number density = 18.304254 Si / 1000 Ang^3
#
#
#
# Elastic Constant Matrix: (Units=GPa)
#
#
# Indices 1 2 3 4 5 6 
#
# 1 68.3515 35.5906 26.4057 0.0000 0.0000 0.0000
# 2 35.5906 107.3029 42.8110 0.0000 0.0000 0.0000
# 3 26.4057 42.8110 93.1167 0.0000 0.0000 0.0000
# 4 0.0000 0.0000 0.0000 24.8214 0.0000 0.0000
# 5 0.0000 0.0000 0.0000 0.0000 19.1939 0.0000
# 6 0.0000 0.0000 0.0000 0.0000 0.0000 17.5637
#
#
#
# Elastic Compliance Matrix: (Units=1/GPa)
#
#
# Indices 1 2 3 4 5 6 
#
# 1 0.018319 -0.004903 -0.002941 0.000000 0.000000 0.000000
# 2 -0.004903 0.012725 -0.004460 0.000000 0.000000 0.000000
# 3 -0.002941 -0.004460 0.013624 0.000000 0.000000 0.000000
# 4 0.000000 0.000000 0.000000 0.040288 0.000000 0.000000
# 5 0.000000 0.000000 0.000000 0.000000 0.052100 0.000000
# 6 0.000000 0.000000 0.000000 0.000000 0.000000 0.056936
#
#
# Mechanical properties :
#
#
# Convention : Reuss Voigt Hill
#
# Bulk Modulus (GPa) = 49.84912 53.15393 51.50153
# Shear Modulus (GPa) = 22.19404 23.24672 22.72038
#
# Velocity S-wave (km/s) = 3.48588 3.56760 3.52698
# Velocity P-wave (km/s) = 6.59504 6.78767 6.69205
#
# Compressibility (1/GPa) = 0.02006053
#
# Stress axis : x y z
#
# Youngs Moduli (GPa) = 54.58724 78.58495 73.40147
#
# Poissons Ratio (x) = 0.38529 0.21586
# Poissons Ratio (y) = 0.26764 0.32738
# Poissons Ratio (z) = 0.16053 0.35050
#
# Static dielectric constant tensor:
#      x y z
#    x 3.252780 0.000000 0.000000 
#    y 0.000000 3.394110 0.000000 
#    z 0.000000 0.000000 3.489620 
# 
# 
# High freq. dielectric constant tensor:
#      x y z
#    x 1.682030 0.000000 0.000000 
#    y 0.000000 1.688720 0.000000 
#    z 0.000000 0.000000 1.720230 
# 
# From -- ./inp_files/7901.got.cif
#   From: 2010.06.25/outbox.cif.g09.slc.cpg/sg58_4_cif.got.tgz:7901.got - 2010.06.26 21:38:00.
