data_PCOD8235371
_publ_section_title
;
Structure prediction by ZEFSAII (Michael W. Deem and Ramdas Pophale) SiO2 
 PCOD8235371
Probable space group: P N N M
;
_chemical_formula_sum "Si O2"
_cell_formula_units_Z 64
_cell_length_a 14.951594
_cell_length_b 18.622156
_cell_length_c 13.830673
_cell_angle_alpha 90.000000
_cell_angle_beta 90.000000
_cell_angle_gamma 90.000000
_cell_volume 3850.886951
_symmetry_space_group_name_H-M "P N N M"
_symmetry_group_IT_number 58
_symmetry_cell_setting 'orthorhombic'
loop_
_space_group_symop_operation_xyz
x,y,z
-x,-y,z
1/2+x,1/2-y,1/2-z
1/2-x,1/2+y,1/2-z
-x,-y,-z
x,y,-z
1/2-x,1/2+y,1/2+z
1/2+x,1/2-y,1/2+z
loop_
_atom_site_type_symbol
_atom_site_label
_atom_site_fract_x
_atom_site_fract_y
_atom_site_fract_z
Si Si1 0.560585 0.179679 0.391270
Si Si2 0.010423 0.080594 0.884535
Si Si3 0.476595 0.921182 0.222734
Si Si4 0.647730 0.809720 0.392082
Si Si5 0.811923 0.539600 0.613131
Si Si6 0.832090 0.820763 0.113345
Si Si7 0.828004 0.390139 0.291462
Si Si8 0.833422 0.153052 0.114612
O O1 0.586087 0.152994 0.500000
O O2 0.572573 0.117390 0.312274
O O3 0.458240 0.205193 0.391497
O O4 0.625312 0.244375 0.358784
O O5 0.102831 0.115901 0.847285
O O6 0.928141 0.126963 0.842590
O O7 0.009174 0.080591 0.000000
O O8 0.000000 0.000000 0.844252
O O9 0.410329 0.928125 0.131587
O O10 0.566158 0.881277 0.183114
O O11 0.500000 0.000000 0.263178
O O12 0.680825 0.829011 0.500000
O O13 0.678521 0.875709 0.324133
O O14 0.689787 0.734546 0.353411
O O15 0.800853 0.520429 0.500000
O O16 0.794303 0.468750 0.677430
O O17 0.742501 0.598728 0.650455
O O18 0.732978 0.829993 0.157420
O O19 0.821961 0.827560 0.000000
O O20 0.838941 0.151462 0.000000
#
# Coordination Sequence:
#
# PCOD8235371 Si02
#       8
#     8   8   8   8   8   8   8   8
#     4   9  17  31  49  69  96 124 155 199 247 289
#     4   9  15  24  41  67  97 122 145 180 230 290
#     4   9  20  34  47  68  95 126 169 201 234 281
#     4   9  17  32  50  69  93 125 161 198 245 284
#     4  10  20  33  49  70  99 132 165 199 238 287
#     4  10  18  28  45  71 101 128 150 185 240 294
#     4  10  20  31  47  72  95 127 160 200 239 286
#     4   9  16  28  46  68  94 125 158 193 235 285
#
# _framework density 16.619548000000002
#
# number of rings (size 3 to 8) (size 9 to 14) (size 15 to 20)
#    0.000    2.625    1.250    1.125    1.750    5.000 
#    0.000    1.875    0.000    0.000    0.000    0.000 
#    0.000    4.500    0.000    0.000    0.000    1.000 
#
# Total GULP energy -793113.102507 kJ/mol
# GULP energy per Si atom -12392.392227 kJ/mol
# Density = 1.658172 g / cm^3
# Si number density = 16.619548 Si / 1000 Ang^3
#
#
#
# Elastic Constant Matrix: (Units=GPa)
#
#
# Indices 1 2 3 4 5 6 
#
# 1 80.1227 41.7260 33.1509 0.0000 0.0000 0.0000
# 2 41.7260 84.3970 48.5645 0.0000 0.0000 0.0000
# 3 33.1509 48.5645 55.8302 0.0000 0.0000 0.0000
# 4 0.0000 0.0000 0.0000 26.5014 0.0000 0.0000
# 5 0.0000 0.0000 0.0000 0.0000 16.8636 0.0000
# 6 0.0000 0.0000 0.0000 0.0000 0.0000 25.7463
#
#
#
# Elastic Compliance Matrix: (Units=1/GPa)
#
#
# Indices 1 2 3 4 5 6 
#
# 1 0.017700 -0.005412 -0.005802 0.000000 0.000000 0.000000
# 2 -0.005412 0.025378 -0.018862 0.000000 0.000000 0.000000
# 3 -0.005802 -0.018862 0.037764 0.000000 0.000000 0.000000
# 4 0.000000 0.000000 0.000000 0.037734 0.000000 0.000000
# 5 0.000000 0.000000 0.000000 0.000000 0.059299 0.000000
# 6 0.000000 0.000000 0.000000 0.000000 0.000000 0.038840
#
#
# Mechanical properties :
#
#
# Convention : Reuss Voigt Hill
#
# Bulk Modulus (GPa) = 48.33304 51.91475 50.12390
# Shear Modulus (GPa) = 17.62026 20.28284 18.95155
#
# Velocity S-wave (km/s) = 3.25962 3.49724 3.38052
# Velocity P-wave (km/s) = 6.58119 6.90019 6.74257
#
# Compressibility (1/GPa) = 0.02068978
#
# Stress axis : x y z
#
# Youngs Moduli (GPa) = 56.49704 39.40391 26.48048
#
# Poissons Ratio (x) = 0.21327 0.15364
# Poissons Ratio (y) = 0.30578 0.49947
# Poissons Ratio (z) = 0.32780 0.74323
#
# Static dielectric constant tensor:
#      x y z
#    x 3.243200 0.000000 0.000000 
#    y 0.000000 3.233130 0.000000 
#    z 0.000000 0.000000 2.872040 
# 
# 
# High freq. dielectric constant tensor:
#      x y z
#    x 1.638170 0.000000 0.000000 
#    y 0.000000 1.641700 0.000000 
#    z 0.000000 0.000000 1.599950 
# 
# From -- ./inp_files/22434.got.cif
#   From: 2010.06.25/outbox.cif.g09.slc.cpg/sg58_12_cif.got.tgz:22434.got - 2010.06.26 21:38:00.
