data_PCOD8235462
_publ_section_title
;
Structure prediction by ZEFSAII (Michael W. Deem and Ramdas Pophale) SiO2 
 PCOD8235462
Probable space group: P N N M
;
_chemical_formula_sum "Si O2"
_cell_formula_units_Z 64
_cell_length_a 30.454876
_cell_length_b 14.331403
_cell_length_c 8.832043
_cell_angle_alpha 90.000000
_cell_angle_beta 90.000000
_cell_angle_gamma 90.000000
_cell_volume 3854.843214
_symmetry_space_group_name_H-M "P N N M"
_symmetry_group_IT_number 58
_symmetry_cell_setting 'orthorhombic'
loop_
_space_group_symop_operation_xyz
x,y,z
-x,-y,z
1/2+x,1/2-y,1/2-z
1/2-x,1/2+y,1/2-z
-x,-y,-z
x,y,-z
1/2-x,1/2+y,1/2+z
1/2+x,1/2-y,1/2+z
loop_
_atom_site_type_symbol
_atom_site_label
_atom_site_fract_x
_atom_site_fract_y
_atom_site_fract_z
Si Si1 0.954713 0.898523 0.818368
Si Si2 0.198308 0.678175 0.174646
Si Si3 0.782732 0.726796 0.177637
Si Si4 0.132589 0.802389 0.675686
Si Si5 0.766242 0.517231 0.173243
Si Si6 0.321689 0.467655 0.330210
Si Si7 0.544142 0.601652 0.179800
Si Si8 0.864169 0.836854 0.829336
O O1 0.914053 0.831671 0.764555
O O2 0.998771 0.855797 0.744635
O O3 0.946824 0.002875 0.758000
O O4 0.958294 0.902223 0.000000
O O5 0.238549 0.732977 0.250895
O O6 0.151251 0.711988 0.238092
O O7 0.199654 0.566809 0.202781
O O8 0.201073 0.703346 0.000000
O O9 0.788080 0.616820 0.210728
O O10 0.826253 0.775581 0.252742
O O11 0.779952 0.749370 0.000000
O O12 0.135658 0.780978 0.500000
O O13 0.082731 0.826070 0.724429
O O14 0.163783 0.889469 0.712490
O O15 0.726235 0.496822 0.284975
O O16 0.749496 0.515343 0.000000
O O17 0.320960 0.426066 0.500000
O O18 0.354114 0.553987 0.321115
O O19 0.541391 0.587061 0.000000
O O20 0.865251 0.799848 0.000000
#
# Coordination Sequence:
#
# PCOD8235462 Si02
#       8
#     8   8   8   8   8   8   8   8
#     4  10  18  30  48  71  98 126 158 195 239 287
#     4  11  22  33  47  72  98 125 166 207 239 281
#     4  10  19  34  51  68  95 132 164 195 241 290
#     4  11  22  34  48  68  96 134 168 199 243 291
#     4  10  21  34  48  69  99 130 164 203 243 283
#     4  11  19  29  48  72  99 129 165 203 236 281
#     4  10  20  32  46  68  96 126 161 196 239 292
#     4   9  18  30  47  72  97 129 165 193 234 288
#
# _framework density 16.602491000000001
#
# number of rings (size 3 to 8) (size 9 to 14) (size 15 to 20)
#    0.000    1.750    3.750    2.625    0.000    2.000 
#    0.000    1.250    0.000    0.000    0.000    0.875 
#    0.000    7.000    0.000    0.000    0.000    0.000 
#
# Total GULP energy -793275.861603 kJ/mol
# GULP energy per Si atom -12394.935338 kJ/mol
# Density = 1.656470 g / cm^3
# Si number density = 16.602491 Si / 1000 Ang^3
#
#
#
# Elastic Constant Matrix: (Units=GPa)
#
#
# Indices 1 2 3 4 5 6 
#
# 1 118.3156 32.2363 34.0618 0.0000 0.0000 0.0000
# 2 32.2363 66.0253 22.6203 0.0000 0.0000 0.0000
# 3 34.0618 22.6203 53.1357 0.0000 0.0000 0.0000
# 4 0.0000 0.0000 0.0000 15.6434 0.0000 0.0000
# 5 0.0000 0.0000 0.0000 0.0000 22.3445 0.0000
# 6 0.0000 0.0000 0.0000 0.0000 0.0000 25.3508
#
#
#
# Elastic Compliance Matrix: (Units=1/GPa)
#
#
# Indices 1 2 3 4 5 6 
#
# 1 0.011001 -0.003460 -0.005579 0.000000 0.000000 0.000000
# 2 -0.003460 0.018820 -0.005794 0.000000 0.000000 0.000000
# 3 -0.005579 -0.005794 0.024863 0.000000 0.000000 0.000000
# 4 0.000000 0.000000 0.000000 0.063925 0.000000 0.000000
# 5 0.000000 0.000000 0.000000 0.000000 0.044754 0.000000
# 6 0.000000 0.000000 0.000000 0.000000 0.000000 0.039447
#
#
# Mechanical properties :
#
#
# Convention : Reuss Voigt Hill
#
# Bulk Modulus (GPa) = 39.97148 46.14594 43.05871
# Shear Modulus (GPa) = 20.76299 22.57161 21.66730
#
# Velocity S-wave (km/s) = 3.54021 3.69118 3.61649
# Velocity P-wave (km/s) = 6.39051 6.78391 6.59015
#
# Compressibility (1/GPa) = 0.02501784
#
# Stress axis : x y z
#
# Youngs Moduli (GPa) = 90.90299 53.13530 40.22089
#
# Poissons Ratio (x) = 0.18383 0.22440
# Poissons Ratio (y) = 0.31449 0.23304
# Poissons Ratio (z) = 0.50715 0.30787
#
# Static dielectric constant tensor:
#      x y z
#    x 3.408910 0.000000 0.000000 
#    y 0.000000 3.042230 0.000000 
#    z 0.000000 0.000000 3.129320 
# 
# 
# High freq. dielectric constant tensor:
#      x y z
#    x 1.637690 0.000000 0.000000 
#    y 0.000000 1.609580 0.000000 
#    z 0.000000 0.000000 1.639790 
# 
# From -- ./inp_files/7186.got.cif
#   From: 2010.06.25/outbox.cif.g09.slc.cpg/sg58_4_cif.got.tgz:7186.got - 2010.06.26 21:38:00.
