data_PCOD8235874
_publ_section_title
;
Structure prediction by ZEFSAII (Michael W. Deem and Ramdas Pophale) SiO2 
 PCOD8235874
Probable space group: P N N M
;
_chemical_formula_sum "Si O2"
_cell_formula_units_Z 64
_cell_length_a 17.382719
_cell_length_b 22.491535
_cell_length_c 8.955854
_cell_angle_alpha 90.000000
_cell_angle_beta 90.000000
_cell_angle_gamma 90.000000
_cell_volume 3501.416797
_symmetry_space_group_name_H-M "P N N M"
_symmetry_group_IT_number 58
_symmetry_cell_setting 'orthorhombic'
loop_
_space_group_symop_operation_xyz
x,y,z
-x,-y,z
1/2+x,1/2-y,1/2-z
1/2-x,1/2+y,1/2-z
-x,-y,-z
x,y,-z
1/2-x,1/2+y,1/2+z
1/2+x,1/2-y,1/2+z
loop_
_atom_site_type_symbol
_atom_site_label
_atom_site_fract_x
_atom_site_fract_y
_atom_site_fract_z
Si Si1 0.588785 0.216885 0.176883
Si Si2 0.791090 0.393652 0.174316
Si Si3 0.565839 0.845615 0.171268
Si Si4 0.071938 0.037242 0.825103
Si Si5 0.377128 0.650885 0.173344
Si Si6 0.318923 0.885894 0.671230
Si Si7 0.761436 0.010678 0.823887
Si Si8 0.979293 0.566320 0.159509
O O1 0.500398 0.201120 0.224169
O O2 0.602290 0.283693 0.232718
O O3 0.654470 0.176113 0.253515
O O4 0.598869 0.209272 0.000000
O O5 0.855638 0.347109 0.233716
O O6 0.711829 0.360534 0.208883
O O7 0.792035 0.458235 0.254502
O O8 0.804325 0.405235 0.000000
O O9 0.525665 0.908971 0.199319
O O10 0.588073 0.836210 0.000000
O O11 0.069580 0.102813 0.754657
O O12 0.150234 0.003246 0.782831
O O13 0.063737 0.046043 0.000000
O O14 0.000000 0.000000 0.760868
O O15 0.395450 0.645677 0.000000
O O16 0.293652 0.873625 0.500000
O O17 0.389142 0.931012 0.685887
O O18 0.252850 0.923004 0.757385
O O19 0.746442 0.011790 0.000000
O O20 0.000000 0.500000 0.140185
O O21 0.999470 0.599169 0.000000
#
# Coordination Sequence:
#
# PCOD8235874 Si02
#       8
#     8   8   8   8   8   8   8   8
#     4   9  19  36  53  71 101 139 176 212 253 303
#     4  10  19  32  51  74 100 129 167 213 258 307
#     4  10  19  30  47  70  97 129 165 206 249 297
#     4   9  19  36  57  81 106 131 164 211 265 314
#     4   9  19  36  57  77  99 134 174 212 257 306
#     4  10  19  30  47  73 103 134 168 204 244 293
#     4  10  19  32  52  76 104 136 168 207 256 307
#     4   9  17  28  42  62  92 128 161 197 239 281
#
# _framework density 18.278314999999999
#
# number of rings (size 3 to 8) (size 9 to 14) (size 15 to 20)
#    0.000    2.500    0.000    2.250    0.000    4.000 
#    0.000    1.250    0.000    4.500    0.000    0.000 
#    0.000    0.000    0.000    0.000    0.000    0.000 
#
# Total GULP energy -793072.115666 kJ/mol
# GULP energy per Si atom -12391.751807 kJ/mol
# Density = 1.823671 g / cm^3
# Si number density = 18.278315 Si / 1000 Ang^3
#
#
#
# Elastic Constant Matrix: (Units=GPa)
#
#
# Indices 1 2 3 4 5 6 
#
# 1 85.0804 63.0170 36.4391 0.0000 0.0000 0.0000
# 2 63.0170 139.6287 50.7672 0.0000 0.0000 0.0000
# 3 36.4391 50.7672 70.5711 0.0000 0.0000 0.0000
# 4 0.0000 0.0000 0.0000 27.7228 0.0000 0.0000
# 5 0.0000 0.0000 0.0000 0.0000 25.5431 0.0000
# 6 0.0000 0.0000 0.0000 0.0000 0.0000 22.9420
#
#
#
# Elastic Compliance Matrix: (Units=1/GPa)
#
#
# Indices 1 2 3 4 5 6 
#
# 1 0.018822 -0.006718 -0.004886 0.000000 0.000000 0.000000
# 2 -0.006718 0.012097 -0.005233 0.000000 0.000000 0.000000
# 3 -0.004886 -0.005233 0.020457 0.000000 0.000000 0.000000
# 4 0.000000 0.000000 0.000000 0.036071 0.000000 0.000000
# 5 0.000000 0.000000 0.000000 0.000000 0.039150 0.000000
# 6 0.000000 0.000000 0.000000 0.000000 0.000000 0.043588
#
#
# Mechanical properties :
#
#
# Convention : Reuss Voigt Hill
#
# Bulk Modulus (GPa) = 56.49105 66.19188 61.34147
# Shear Modulus (GPa) = 23.83670 24.91202 24.37436
#
# Velocity S-wave (km/s) = 3.61515 3.69579 3.65569
# Velocity P-wave (km/s) = 6.95693 7.38267 7.17296
#
# Compressibility (1/GPa) = 0.01770192
#
# Stress axis : x y z
#
# Youngs Moduli (GPa) = 53.12849 82.66731 48.88223
#
# Poissons Ratio (x) = 0.55540 0.23882
# Poissons Ratio (y) = 0.35694 0.25580
# Poissons Ratio (z) = 0.25957 0.43260
#
# Static dielectric constant tensor:
#      x y z
#    x 3.423030 0.000000 0.000000 
#    y 0.000000 3.282850 0.000000 
#    z 0.000000 0.000000 3.595270 
# 
# 
# High freq. dielectric constant tensor:
#      x y z
#    x 1.701900 0.000000 0.000000 
#    y 0.000000 1.691950 0.000000 
#    z 0.000000 0.000000 1.712690 
# 
# From -- ./inp_files/8509.got.cif
#   From: 2010.06.25/outbox.cif.g09.slc.cpg/sg58_5_cif.got.tgz:8509.got - 2010.06.26 21:38:00.
