data_PCOD8235953
_publ_section_title
;
Structure prediction by ZEFSAII (Michael W. Deem and Ramdas Pophale) SiO2 
 PCOD8235953
Probable space group: P N N M
;
_chemical_formula_sum "Si O2"
_cell_formula_units_Z 56
_cell_length_a 19.159681
_cell_length_b 18.024411
_cell_length_c 8.694948
_cell_angle_alpha 90.000000
_cell_angle_beta 90.000000
_cell_angle_gamma 90.000000
_cell_volume 3002.730428
_symmetry_space_group_name_H-M "P N N M"
_symmetry_group_IT_number 58
_symmetry_cell_setting 'orthorhombic'
loop_
_space_group_symop_operation_xyz
x,y,z
-x,-y,z
1/2+x,1/2-y,1/2-z
1/2-x,1/2+y,1/2-z
-x,-y,-z
x,y,-z
1/2-x,1/2+y,1/2+z
1/2+x,1/2-y,1/2+z
loop_
_atom_site_type_symbol
_atom_site_label
_atom_site_fract_x
_atom_site_fract_y
_atom_site_fract_z
Si Si1 0.714457 0.071188 0.817980
Si Si2 0.808307 0.184386 0.322030
Si Si3 0.923078 0.487320 0.678004
Si Si4 0.329893 0.146718 0.822958
Si Si5 0.073055 0.076309 0.179416
Si Si6 0.289070 0.562808 0.822664
Si Si7 0.063726 0.916422 0.680140
O O1 0.738365 0.154309 0.765883
O O2 0.637633 0.043712 0.756739
O O3 0.774245 0.017932 0.749091
O O4 0.715647 0.064901 0.000000
O O5 0.790203 0.176876 0.500000
O O6 0.833440 0.267196 0.280830
O O7 0.875848 0.138999 0.272027
O O8 0.930228 0.506766 0.500000
O O9 0.901320 0.400576 0.702297
O O10 0.000000 0.500000 0.755760
O O11 0.276437 0.115004 0.700199
O O12 0.305242 0.134491 0.000000
O O13 0.147497 0.105487 0.238547
O O14 0.011058 0.118648 0.270960
O O15 0.072445 0.989404 0.218503
O O16 0.064282 0.090910 0.000000
O O17 0.307247 0.550999 0.000000
O O18 0.064738 0.935785 0.500000
#
# Coordination Sequence:
#
# PCOD8235953 Si02
#       7
#     8   8   8   8   8   8   8
#     4  10  19  31  53  80 104 134 174 219 265 323
#     4  10  20  34  52  75 108 144 174 215 271 325
#     4   8  15  31  55  80 103 132 176 225 266 312
#     4   9  19  35  54  77 105 140 178 219 271 326
#     4  11  20  31  49  74 102 136 174 219 262 307
#     4  11  20  33  52  75 102 135 175 222 265 315
#     4  10  19  31  48  73 104 140 175 211 254 314
#
# _framework density 18.649691000000001
#
# number of rings (size 3 to 8) (size 9 to 14) (size 15 to 20)
#    0.000    2.143    1.429    5.143    0.000    1.143 
#    0.000    1.429    0.000   14.143    0.000    0.000 
#    0.000    0.000    0.000    0.000    0.000    0.000 
#
# Total GULP energy -693830.957974 kJ/mol
# GULP energy per Si atom -12389.838535 kJ/mol
# Density = 1.860724 g / cm^3
# Si number density = 18.649691 Si / 1000 Ang^3
#
#
#
# Elastic Constant Matrix: (Units=GPa)
#
#
# Indices 1 2 3 4 5 6 
#
# 1 128.6383 49.7372 25.9324 0.0000 0.0000 0.0000
# 2 49.7372 97.7739 20.1249 0.0000 0.0000 0.0000
# 3 25.9324 20.1249 65.4070 0.0000 0.0000 0.0000
# 4 0.0000 0.0000 0.0000 21.3497 0.0000 0.0000
# 5 0.0000 0.0000 0.0000 0.0000 19.8040 0.0000
# 6 0.0000 0.0000 0.0000 0.0000 0.0000 19.0870
#
#
#
# Elastic Compliance Matrix: (Units=1/GPa)
#
#
# Indices 1 2 3 4 5 6 
#
# 1 0.010069 -0.004591 -0.002579 0.000000 0.000000 0.000000
# 2 -0.004591 0.013013 -0.002184 0.000000 0.000000 0.000000
# 3 -0.002579 -0.002184 0.016983 0.000000 0.000000 0.000000
# 4 0.000000 0.000000 0.000000 0.046839 0.000000 0.000000
# 5 0.000000 0.000000 0.000000 0.000000 0.050495 0.000000
# 6 0.000000 0.000000 0.000000 0.000000 0.000000 0.052392
#
#
# Mechanical properties :
#
#
# Convention : Reuss Voigt Hill
#
# Bulk Modulus (GPa) = 46.82367 53.71202 50.26785
# Shear Modulus (GPa) = 23.18922 25.11646 24.15284
#
# Velocity S-wave (km/s) = 3.53003 3.67379 3.60263
# Velocity P-wave (km/s) = 6.46345 6.84534 6.65714
#
# Compressibility (1/GPa) = 0.02135672
#
# Stress axis : x y z
#
# Youngs Moduli (GPa) = 99.31643 76.84878 58.88087
#
# Poissons Ratio (x) = 0.35282 0.15188
# Poissons Ratio (y) = 0.45597 0.12857
# Poissons Ratio (z) = 0.25618 0.16780
#
# Static dielectric constant tensor:
#      x y z
#    x 4.141560 0.000000 0.000000 
#    y 0.000000 3.329570 0.000000 
#    z 0.000000 0.000000 3.242370 
# 
# 
# High freq. dielectric constant tensor:
#      x y z
#    x 1.734390 0.000000 0.000000 
#    y 0.000000 1.690030 0.000000 
#    z 0.000000 0.000000 1.711850 
# 
# From -- ./inp_files/9170.got.cif
#   From: 2010.06.25/outbox.cif.g09.slc.cpg/sg58_5_cif.got.tgz:9170.got - 2010.06.26 21:38:00.
