data_PCOD8235360
_publ_section_title
;
Structure prediction by ZEFSAII (Michael W. Deem and Ramdas Pophale) SiO2 
 PCOD8235360
Probable space group: P N N M
;
_chemical_formula_sum "Si O2"
_cell_formula_units_Z 64
_cell_length_a 23.595494
_cell_length_b 19.265191
_cell_length_c 8.844856
_cell_angle_alpha 90.000000
_cell_angle_beta 90.000000
_cell_angle_gamma 90.000000
_cell_volume 4020.621216
_symmetry_space_group_name_H-M "P N N M"
_symmetry_group_IT_number 58
_symmetry_cell_setting 'orthorhombic'
loop_
_space_group_symop_operation_xyz
x,y,z
-x,-y,z
1/2+x,1/2-y,1/2-z
1/2-x,1/2+y,1/2-z
-x,-y,-z
x,y,-z
1/2-x,1/2+y,1/2+z
1/2+x,1/2-y,1/2+z
loop_
_atom_site_type_symbol
_atom_site_label
_atom_site_fract_x
_atom_site_fract_y
_atom_site_fract_z
Si Si1 0.166375 0.732281 0.175253
Si Si2 0.565245 0.860758 0.320406
Si Si3 0.734731 0.653721 0.822865
Si Si4 0.160114 0.273164 0.319815
Si Si5 0.883309 0.503277 0.819871
Si Si6 0.224005 0.143055 0.324922
Si Si7 0.562404 0.146154 0.679333
Si Si8 0.255977 0.998007 0.678323
O O1 0.107044 0.700745 0.234685
O O2 0.180878 0.801768 0.268471
O O3 0.213709 0.674065 0.203279
O O4 0.163468 0.753185 0.000000
O O5 0.567842 0.865357 0.500000
O O6 0.585087 0.935171 0.254937
O O7 0.502017 0.843648 0.264797
O O8 0.792251 0.673795 0.737698
O O9 0.722307 0.572800 0.784543
O O10 0.744995 0.664668 0.000000
O O11 0.159660 0.275963 0.500000
O O12 0.176714 0.195784 0.258221
O O13 0.099079 0.292814 0.254480
O O14 0.916324 0.571382 0.762351
O O15 0.819547 0.505593 0.754951
O O16 0.883419 0.502365 0.000000
O O17 0.210726 0.136765 0.500000
O O18 0.222928 0.065371 0.252411
O O19 0.567909 0.152401 0.500000
O O20 0.261715 0.009262 0.500000
#
# Coordination Sequence:
#
# PCOD8235360 Si02
#       8
#     8   8   8   8   8   8   8   8
#     4   9  16  28  44  63  87 116 145 175 211 258
#     4   9  16  26  44  66  88 118 156 184 207 247
#     4  10  18  28  45  67  88 110 140 182 226 258
#     4  10  19  30  44  62  86 119 148 176 215 262
#     4   9  14  23  40  65  91 114 148 186 211 239
#     4   8  14  25  42  61  82 109 144 178 211 253
#     4  10  18  28  44  67  90 115 149 189 218 244
#     4   9  14  23  42  66  87 109 139 180 219 250
#
# _framework density 15.917937999999999
#
# number of rings (size 3 to 8) (size 9 to 14) (size 15 to 20)
#    0.000    2.750    2.500    1.875    0.000    1.500 
#    0.000    0.625    0.000   12.750    0.000    0.875 
#    0.000    7.000    0.000    0.000    0.000    0.000 
#
# Total GULP energy -793152.347566 kJ/mol
# GULP energy per Si atom -12393.005431 kJ/mol
# Density = 1.588171 g / cm^3
# Si number density = 15.917938 Si / 1000 Ang^3
#
#
#
# Elastic Constant Matrix: (Units=GPa)
#
#
# Indices 1 2 3 4 5 6 
#
# 1 102.3248 65.1932 18.8782 0.0000 0.0000 0.0000
# 2 65.1932 123.2309 25.7429 0.0000 0.0000 0.0000
# 3 18.8782 25.7429 26.1085 0.0000 0.0000 0.0000
# 4 0.0000 0.0000 0.0000 17.8047 0.0000 0.0000
# 5 0.0000 0.0000 0.0000 0.0000 8.2797 0.0000
# 6 0.0000 0.0000 0.0000 0.0000 0.0000 27.7468
#
#
#
# Elastic Compliance Matrix: (Units=1/GPa)
#
#
# Indices 1 2 3 4 5 6 
#
# 1 0.015037 -0.007158 -0.003815 0.000000 0.000000 0.000000
# 2 -0.007158 0.013627 -0.008261 0.000000 0.000000 0.000000
# 3 -0.003815 -0.008261 0.049205 0.000000 0.000000 0.000000
# 4 0.000000 0.000000 0.000000 0.056165 0.000000 0.000000
# 5 0.000000 0.000000 0.000000 0.000000 0.120778 0.000000
# 6 0.000000 0.000000 0.000000 0.000000 0.000000 0.036040
#
#
# Mechanical properties :
#
#
# Convention : Reuss Voigt Hill
#
# Bulk Modulus (GPa) = 25.37939 52.36587 38.87263
# Shear Modulus (GPa) = 14.60045 20.22288 17.41167
#
# Velocity S-wave (km/s) = 3.03187 3.56820 3.31091
# Velocity P-wave (km/s) = 5.31365 7.06717 6.25219
#
# Compressibility (1/GPa) = 0.03940205
#
# Stress axis : x y z
#
# Youngs Moduli (GPa) = 66.50115 73.38116 20.32309
#
# Poissons Ratio (x) = 0.52528 0.07753
# Poissons Ratio (y) = 0.47604 0.16788
# Poissons Ratio (z) = 0.25370 0.60618
#
# Static dielectric constant tensor:
#      x y z
#    x 3.009650 0.000000 0.000000 
#    y 0.000000 3.319000 0.000000 
#    z 0.000000 0.000000 2.643440 
# 
# 
# High freq. dielectric constant tensor:
#      x y z
#    x 1.587670 0.000000 0.000000 
#    y 0.000000 1.614440 0.000000 
#    z 0.000000 0.000000 1.570350 
# 
# From -- ./inp_files/9466.got.cif
#   From: 2010.06.25/outbox.cif.g09.slc.cpg/sg58_5_cif.got.tgz:9466.got - 2010.06.26 21:38:00.
