data_PCOD8235498
_publ_section_title
;
Structure prediction by ZEFSAII (Michael W. Deem and Ramdas Pophale) SiO2 
 PCOD8235498
Probable space group: P N N M
;
_chemical_formula_sum "Si O2"
_cell_formula_units_Z 64
_cell_length_a 19.590042
_cell_length_b 20.125801
_cell_length_c 9.148130
_cell_angle_alpha 90.000000
_cell_angle_beta 90.000000
_cell_angle_gamma 90.000000
_cell_volume 3606.790099
_symmetry_space_group_name_H-M "P N N M"
_symmetry_group_IT_number 58
_symmetry_cell_setting 'orthorhombic'
loop_
_space_group_symop_operation_xyz
x,y,z
-x,-y,z
1/2+x,1/2-y,1/2-z
1/2-x,1/2+y,1/2-z
-x,-y,-z
x,y,-z
1/2-x,1/2+y,1/2+z
1/2+x,1/2-y,1/2+z
loop_
_atom_site_type_symbol
_atom_site_label
_atom_site_fract_x
_atom_site_fract_y
_atom_site_fract_z
Si Si1 0.570447 0.669449 0.829730
Si Si2 0.245083 0.716012 0.326796
Si Si3 0.726770 0.638804 0.170774
Si Si4 0.972240 0.929894 0.173564
Si Si5 0.565140 0.959952 0.174065
Si Si6 0.902176 0.315861 0.327042
Si Si7 0.788682 0.513900 0.673778
Si Si8 0.678450 0.408685 0.326476
O O1 0.646236 0.642823 0.792689
O O2 0.516521 0.629586 0.735690
O O3 0.559862 0.747088 0.785261
O O4 0.555181 0.659218 0.000000
O O5 0.236604 0.716185 0.500000
O O6 0.260558 0.791320 0.278095
O O7 0.174055 0.688482 0.260868
O O8 0.304524 0.666379 0.274701
O O9 0.766246 0.584241 0.262954
O O10 0.738044 0.624657 0.000000
O O11 0.895667 0.925697 0.236635
O O12 0.974283 0.924531 0.000000
O O13 0.000000 0.000000 0.229874
O O14 0.561734 0.883275 0.232346
O O15 0.635331 0.994605 0.227857
O O16 0.500000 0.000000 0.238330
O O17 0.562817 0.960957 0.000000
O O18 0.897276 0.321744 0.500000
O O19 0.786309 0.518061 0.500000
O O20 0.735124 0.459449 0.734265
O O21 0.678044 0.413386 0.500000
#
# Coordination Sequence:
#
# PCOD8235498 Si02
#       8
#     8   8   8   8   8   8   8   8
#     4   9  18  32  50  71  95 129 165 196 236 284
#     4   8  13  26  47  66  84 117 165 197 216 266
#     4   9  18  31  49  71  95 124 159 197 234 279
#     4  10  20  32  46  69  99 127 159 201 243 282
#     4   9  16  27  46  73 100 124 153 194 242 288
#     4   8  13  26  47  68  90 120 161 197 224 273
#     4  10  18  30  51  76  98 122 156 198 243 283
#     4   9  16  28  48  69  91 125 165 198 228 274
#
# _framework density 17.744309999999999
#
# number of rings (size 3 to 8) (size 9 to 14) (size 15 to 20)
#    0.000    3.000    1.250    2.250    0.000    1.750 
#    2.250    0.625    0.000    1.875    0.000    0.000 
#    0.000    0.000    0.000    0.000    0.000    0.000 
#
# Total GULP energy -793104.753341 kJ/mol
# GULP energy per Si atom -12392.261771 kJ/mol
# Density = 1.770392 g / cm^3
# Si number density = 17.744310 Si / 1000 Ang^3
#
#
#
# Elastic Constant Matrix: (Units=GPa)
#
#
# Indices 1 2 3 4 5 6 
#
# 1 133.8385 88.6084 19.8309 0.0000 0.0000 0.0000
# 2 88.6084 169.9960 21.4849 0.0000 0.0000 0.0000
# 3 19.8309 21.4849 12.4649 0.0000 0.0000 0.0000
# 4 0.0000 0.0000 0.0000 20.9112 0.0000 0.0000
# 5 0.0000 0.0000 0.0000 0.0000 15.8163 0.0000
# 6 0.0000 0.0000 0.0000 0.0000 0.0000 32.9419
#
#
#
# Elastic Compliance Matrix: (Units=1/GPa)
#
#
# Indices 1 2 3 4 5 6 
#
# 1 0.012499 -0.005116 -0.011066 0.000000 0.000000 0.000000
# 2 -0.005116 0.009615 -0.008433 0.000000 0.000000 0.000000
# 3 -0.011066 -0.008433 0.112367 0.000000 0.000000 0.000000
# 4 0.000000 0.000000 0.000000 0.047821 0.000000 0.000000
# 5 0.000000 0.000000 0.000000 0.000000 0.063226 0.000000
# 6 0.000000 0.000000 0.000000 0.000000 0.000000 0.030356
#
#
# Mechanical properties :
#
#
# Convention : Reuss Voigt Hill
#
# Bulk Modulus (GPa) = 11.73030 64.01642 37.87336
# Shear Modulus (GPa) = 14.14300 26.35889 20.25095
#
# Velocity S-wave (km/s) = 2.82626 3.85838 3.38193
# Velocity P-wave (km/s) = 4.15637 7.48364 6.05311
#
# Compressibility (1/GPa) = 0.08524932
#
# Stress axis : x y z
#
# Youngs Moduli (GPa) = 80.00954 104.00349 8.89942
#
# Poissons Ratio (x) = 0.53209 0.09848
# Poissons Ratio (y) = 0.40934 0.07505
# Poissons Ratio (z) = 0.88539 0.87710
#
# Static dielectric constant tensor:
#      x y z
#    x 3.411180 0.000000 0.000000 
#    y 0.000000 3.665240 0.000000 
#    z 0.000000 0.000000 2.696630 
# 
# 
# High freq. dielectric constant tensor:
#      x y z
#    x 1.679730 0.000000 0.000000 
#    y 0.000000 1.706120 0.000000 
#    z 0.000000 0.000000 1.625120 
# 
# From -- ./inp_files/17209.got.cif
#   From: 2010.06.25/outbox.cif.g09.slc.cpg/sg58_9_cif.got.tgz:17209.got - 2010.06.26 21:38:00.
