data_PCOD8235779
_publ_section_title
;
Structure prediction by ZEFSAII (Michael W. Deem and Ramdas Pophale) SiO2 
 PCOD8235779
Probable space group: P N N M
;
_chemical_formula_sum "Si O2"
_cell_formula_units_Z 64
_cell_length_a 19.210564
_cell_length_b 18.508510
_cell_length_c 9.179649
_cell_angle_alpha 90.000000
_cell_angle_beta 90.000000
_cell_angle_gamma 90.000000
_cell_volume 3263.906047
_symmetry_space_group_name_H-M "P N N M"
_symmetry_group_IT_number 58
_symmetry_cell_setting 'orthorhombic'
loop_
_space_group_symop_operation_xyz
x,y,z
-x,-y,z
1/2+x,1/2-y,1/2-z
1/2-x,1/2+y,1/2-z
-x,-y,-z
x,y,-z
1/2-x,1/2+y,1/2+z
1/2+x,1/2-y,1/2+z
loop_
_atom_site_type_symbol
_atom_site_label
_atom_site_fract_x
_atom_site_fract_y
_atom_site_fract_z
Si Si1 0.312823 0.975267 0.329943
Si Si2 0.606773 0.144727 0.826731
Si Si3 0.823082 0.360079 0.172883
Si Si4 0.454937 0.363795 0.332278
Si Si5 0.184953 0.213440 0.672886
Si Si6 0.343017 0.439573 0.167267
Si Si7 0.028493 0.696386 0.169173
Si Si8 0.084049 0.088455 0.329542
O O1 0.332619 0.971625 0.500000
O O2 0.369287 0.931644 0.237388
O O3 0.238511 0.939209 0.299487
O O4 0.312266 0.057772 0.274327
O O5 0.660971 0.207135 0.774662
O O6 0.530234 0.159394 0.765773
O O7 0.602746 0.140556 0.000000
O O8 0.761055 0.308801 0.235730
O O9 0.897194 0.331388 0.228458
O O10 0.819652 0.356727 0.000000
O O11 0.453172 0.384872 0.500000
O O12 0.378621 0.378425 0.266076
O O13 0.475430 0.281468 0.306853
O O14 0.510436 0.414729 0.251842
O O15 0.186983 0.209515 0.500000
O O16 0.128278 0.156126 0.729969
O O17 0.372891 0.517552 0.209038
O O18 0.358356 0.421307 0.000000
O O19 0.017764 0.675692 0.000000
O O20 0.068494 0.095112 0.500000
#
# Coordination Sequence:
#
# PCOD8235779 Si02
#       8
#     8   8   8   8   8   8   8   8
#     4  10  21  39  62  86 112 144 191 244 286 332
#     4  11  23  38  61  87 118 153 186 233 289 344
#     4   9  18  37  63  85 107 145 197 241 277 328
#     4  11  23  35  52  84 123 154 185 236 293 345
#     4   9  17  33  60  86 108 142 191 236 277 329
#     4  10  21  36  57  84 114 151 193 238 281 339
#     4  10  22  39  60  84 112 149 195 241 280 332
#     4  10  18  35  60  83 110 151 198 236 275 340
#
# _framework density 19.608407
#
# number of rings (size 3 to 8) (size 9 to 14) (size 15 to 20)
#    0.000    2.000    2.500    1.125    1.750    3.500 
#    0.000    3.125    0.000    2.250    0.000    0.000 
#    0.000    0.000    0.000    0.000    0.000    0.000 
#
# Total GULP energy -793727.780880 kJ/mol
# GULP energy per Si atom -12401.996576 kJ/mol
# Density = 1.956378 g / cm^3
# Si number density = 19.608407 Si / 1000 Ang^3
#
#
#
# Elastic Constant Matrix: (Units=GPa)
#
#
# Indices 1 2 3 4 5 6 
#
# 1 117.7873 31.8383 36.8791 0.0000 0.0000 0.0000
# 2 31.8383 40.4333 19.3018 0.0000 0.0000 0.0000
# 3 36.8791 19.3018 49.7232 0.0000 0.0000 0.0000
# 4 0.0000 0.0000 0.0000 24.8830 0.0000 0.0000
# 5 0.0000 0.0000 0.0000 0.0000 26.3947 0.0000
# 6 0.0000 0.0000 0.0000 0.0000 0.0000 39.0204
#
#
#
# Elastic Compliance Matrix: (Units=1/GPa)
#
#
# Indices 1 2 3 4 5 6 
#
# 1 0.012328 -0.006558 -0.006598 0.000000 0.000000 0.000000
# 2 -0.006558 0.033846 -0.008275 0.000000 0.000000 0.000000
# 3 -0.006598 -0.008275 0.028217 0.000000 0.000000 0.000000
# 4 0.000000 0.000000 0.000000 0.040188 0.000000 0.000000
# 5 0.000000 0.000000 0.000000 0.000000 0.037886 0.000000
# 6 0.000000 0.000000 0.000000 0.000000 0.000000 0.025628
#
#
# Mechanical properties :
#
#
# Convention : Reuss Voigt Hill
#
# Bulk Modulus (GPa) = 31.71556 42.66470 37.19013
# Shear Modulus (GPa) = 21.60154 26.05460 23.82807
#
# Velocity S-wave (km/s) = 3.32271 3.64915 3.48975
# Velocity P-wave (km/s) = 5.56148 6.28973 5.93678
#
# Compressibility (1/GPa) = 0.03153027
#
# Stress axis : x y z
#
# Youngs Moduli (GPa) = 81.11379 29.54556 35.43948
#
# Poissons Ratio (x) = 0.19376 0.23383
# Poissons Ratio (y) = 0.53194 0.29325
# Poissons Ratio (z) = 0.53520 0.24448
#
# Static dielectric constant tensor:
#      x y z
#    x 3.757760 0.000000 0.000000 
#    y 0.000000 3.597310 0.000000 
#    z 0.000000 0.000000 3.230080 
# 
# 
# High freq. dielectric constant tensor:
#      x y z
#    x 1.775970 0.000000 0.000000 
#    y 0.000000 1.767120 0.000000 
#    z 0.000000 0.000000 1.729650 
# 
# From -- ./inp_files/8356.got.cif
#   From: 2010.06.25/outbox.cif.g09.slc.cpg/sg58_5_cif.got.tgz:8356.got - 2010.06.26 21:38:00.
