data_PCOD8235601
_publ_section_title
;
Structure prediction by ZEFSAII (Michael W. Deem and Ramdas Pophale) SiO2 
 PCOD8235601
Probable space group: P N N M
;
_chemical_formula_sum "Si O2"
_cell_formula_units_Z 64
_cell_length_a 29.468942
_cell_length_b 11.983917
_cell_length_c 9.110727
_cell_angle_alpha 90.000000
_cell_angle_beta 90.000000
_cell_angle_gamma 90.000000
_cell_volume 3217.483807
_symmetry_space_group_name_H-M "P N N M"
_symmetry_group_IT_number 58
_symmetry_cell_setting 'orthorhombic'
loop_
_space_group_symop_operation_xyz
x,y,z
-x,-y,z
1/2+x,1/2-y,1/2-z
1/2-x,1/2+y,1/2-z
-x,-y,-z
x,y,-z
1/2-x,1/2+y,1/2+z
1/2+x,1/2-y,1/2+z
loop_
_atom_site_type_symbol
_atom_site_label
_atom_site_fract_x
_atom_site_fract_y
_atom_site_fract_z
Si Si1 0.077649 0.027841 0.333570
Si Si2 0.314990 0.001083 0.670030
Si Si3 0.931734 0.226834 0.666921
Si Si4 0.774415 0.055137 0.830726
Si Si5 0.622646 0.158458 0.825533
Si Si6 0.839132 0.251067 0.830996
Si Si7 0.655684 0.371565 0.331659
Si Si8 0.971188 0.754788 0.672677
O O1 0.093635 0.057112 0.500000
O O2 0.120033 0.036215 0.224000
O O3 0.040315 0.117925 0.281818
O O4 0.057913 0.904769 0.325361
O O5 0.318411 0.969124 0.500000
O O6 0.312385 0.133608 0.693965
O O7 0.270945 0.941250 0.735871
O O8 0.359555 0.954989 0.752909
O O9 0.923051 0.265245 0.500000
O O10 0.887938 0.262040 0.756260
O O11 0.978704 0.280063 0.733842
O O12 0.808282 0.150736 0.767320
O O13 0.795727 0.931638 0.815989
O O14 0.762452 0.081751 0.000000
O O15 0.653365 0.261171 0.767693
O O16 0.570027 0.174607 0.775219
O O17 0.627207 0.152245 0.000000
O O18 0.849017 0.227095 0.000000
O O19 0.645592 0.339611 0.500000
O O20 0.976099 0.747210 0.500000
#
# Coordination Sequence:
#
# PCOD8235601 Si02
#       8
#     8   8   8   8   8   8   8   8
#     4   9  16  28  49  80 118 155 188 233 288 339
#     4  11  25  42  62  85 113 150 196 244 291 348
#     4  10  18  31  56  86 115 152 200 245 285 339
#     4  10  22  40  61  85 115 150 187 233 291 351
#     4  10  21  39  61  83 117 156 194 240 292 342
#     4  10  23  43  60  83 120 155 187 235 297 351
#     4  10  19  33  56  85 117 150 188 234 281 340
#     4   8  16  31  53  83 116 153 196 241 288 339
#
# _framework density 19.891318999999999
#
# number of rings (size 3 to 8) (size 9 to 14) (size 15 to 20)
#    0.000    2.250    1.250    2.250    1.750    4.000 
#    0.000    3.750    0.000    7.500    0.000    0.000 
#    0.000    0.000    0.000    0.000    0.000    0.000 
#
# Total GULP energy -793329.941974 kJ/mol
# GULP energy per Si atom -12395.780343 kJ/mol
# Density = 1.984605 g / cm^3
# Si number density = 19.891319 Si / 1000 Ang^3
#
#
#
# Elastic Constant Matrix: (Units=GPa)
#
#
# Indices 1 2 3 4 5 6 
#
# 1 129.9382 30.9823 45.6138 0.0000 0.0000 0.0000
# 2 30.9823 56.1665 27.7439 0.0000 0.0000 0.0000
# 3 45.6138 27.7439 75.6692 0.0000 0.0000 0.0000
# 4 0.0000 0.0000 0.0000 27.0842 0.0000 0.0000
# 5 0.0000 0.0000 0.0000 0.0000 26.6890 0.0000
# 6 0.0000 0.0000 0.0000 0.0000 0.0000 21.3822
#
#
#
# Elastic Compliance Matrix: (Units=1/GPa)
#
#
# Indices 1 2 3 4 5 6 
#
# 1 0.010202 -0.003163 -0.004990 0.000000 0.000000 0.000000
# 2 -0.003163 0.022722 -0.006425 0.000000 0.000000 0.000000
# 3 -0.004990 -0.006425 0.018579 0.000000 0.000000 0.000000
# 4 0.000000 0.000000 0.000000 0.036922 0.000000 0.000000
# 5 0.000000 0.000000 0.000000 0.000000 0.037469 0.000000
# 6 0.000000 0.000000 0.000000 0.000000 0.000000 0.046768
#
#
# Mechanical properties :
#
#
# Convention : Reuss Voigt Hill
#
# Bulk Modulus (GPa) = 44.74590 52.27266 48.50928
# Shear Modulus (GPa) = 23.89309 25.52668 24.70989
#
# Velocity S-wave (km/s) = 3.46957 3.58621 3.52837
# Velocity P-wave (km/s) = 6.21245 6.59425 6.40619
#
# Compressibility (1/GPa) = 0.02234842
#
# Stress axis : x y z
#
# Youngs Moduli (GPa) = 98.02194 44.00985 53.82398
#
# Poissons Ratio (x) = 0.13918 0.26859
# Poissons Ratio (y) = 0.31000 0.34580
# Poissons Ratio (z) = 0.48915 0.28275
#
# Static dielectric constant tensor:
#      x y z
#    x 3.737930 0.000000 0.000000 
#    y 0.000000 3.495200 0.000000 
#    z 0.000000 0.000000 3.497150 
# 
# 
# High freq. dielectric constant tensor:
#      x y z
#    x 1.779240 0.000000 0.000000 
#    y 0.000000 1.762250 0.000000 
#    z 0.000000 0.000000 1.757700 
# 
# From -- ./inp_files/4746.got.cif
#   From: 2010.06.25/outbox.cif.g09.slc.cpg/sg58_3_cif.got.tgz:4746.got - 2010.06.26 21:38:00.
