data_PCOD8235044
_publ_section_title
;
Structure prediction by ZEFSAII (Michael W. Deem and Ramdas Pophale) SiO2 
 PCOD8235044
Probable space group: P B C M
;
_chemical_formula_sum "Si O2"
_cell_formula_units_Z 48
_cell_length_a 19.402763
_cell_length_b 8.955397
_cell_length_c 14.023544
_cell_angle_alpha 90.000000
_cell_angle_beta 90.000000
_cell_angle_gamma 90.000000
_cell_volume 2436.723230
_symmetry_space_group_name_H-M "P B C M"
_symmetry_group_IT_number 57
_symmetry_cell_setting 'orthorhombic'
loop_
_space_group_symop_operation_xyz
x,y,z
-x,-y,1/2+z
x,1/2-y,-z
-x,1/2+y,1/2-z
-x,-y,-z
x,y,1/2-z
-x,1/2+y,z
x,1/2-y,1/2+z
loop_
_atom_site_type_symbol
_atom_site_label
_atom_site_fract_x
_atom_site_fract_y
_atom_site_fract_z
Si Si1 0.672586 0.421873 0.522530
Si Si2 0.934398 0.914149 0.539355
Si Si3 0.903154 0.339299 0.750000
Si Si4 0.548447 0.344401 0.640515
Si Si5 0.586745 0.006155 0.859918
Si Si6 0.821799 0.100381 0.059700
Si Si7 0.958966 0.001881 0.750000
O O1 0.682286 0.250000 0.500000
O O2 0.607538 0.444595 0.591924
O O3 0.655038 0.514227 0.425197
O O4 0.745040 0.472317 0.569529
O O5 0.944603 0.750000 0.500000
O O6 0.928857 0.923470 0.654621
O O7 0.865000 0.977574 0.495685
O O8 0.000000 0.000000 0.500000
O O9 0.853514 0.357314 0.839332
O O10 0.958712 0.473403 0.750000
O O11 0.942204 0.178977 0.750000
O O12 0.556200 0.384325 0.750000
O O13 0.471990 0.390777 0.607148
O O14 0.556600 0.170415 0.618335
O O15 0.608681 0.986327 0.750000
O O16 0.820465 0.250000 0.000000
#
# Coordination Sequence:
#
# PCOD8235044 Si02
#       7
#     8   8   4   8   8   8   4
#     4   9  19  34  53  78 112 148 191 230 292 349
#     4  12  24  42  64  90 125 154 203 250 300 369
#     4  12  24  38  68  94 120 153 207 248 314 365
#     4   9  17  30  52  79 105 142 187 235 284 332
#     4   9  17  32  52  81 109 143 190 240 287 342
#     4  11  23  41  58  90 122 160 199 252 301 368
#     4  12  24  40  66  96 118 159 197 254 314 355
#
# _framework density 19.698584
#
# number of rings (size 3 to 8) (size 9 to 14) (size 15 to 20)
#    0.000    1.667    3.333    2.000    1.167    0.000 
#    6.000    1.667    0.000    0.000    0.000    0.000 
#    0.000    0.000    0.000    0.000    0.000    0.000 
#
# Total GULP energy -594988.166491 kJ/mol
# GULP energy per Si atom -12395.586802 kJ/mol
# Density = 1.965375 g / cm^3
# Si number density = 19.698584 Si / 1000 Ang^3
#
#
#
# Elastic Constant Matrix: (Units=GPa)
#
#
# Indices 1 2 3 4 5 6 
#
# 1 132.1169 39.6588 59.4372 0.0000 0.0000 0.0000
# 2 39.6588 67.1197 37.1910 0.0000 0.0000 0.0000
# 3 59.4372 37.1910 128.0322 0.0000 0.0000 0.0000
# 4 0.0000 0.0000 0.0000 23.3802 0.0000 0.0000
# 5 0.0000 0.0000 0.0000 0.0000 24.7197 0.0000
# 6 0.0000 0.0000 0.0000 0.0000 0.0000 19.9007
#
#
#
# Elastic Compliance Matrix: (Units=1/GPa)
#
#
# Indices 1 2 3 4 5 6 
#
# 1 0.010458 -0.004159 -0.003647 0.000000 0.000000 0.000000
# 2 -0.004159 0.019410 -0.003708 0.000000 0.000000 0.000000
# 3 -0.003647 -0.003708 0.010581 0.000000 0.000000 0.000000
# 4 0.000000 0.000000 0.000000 0.042771 0.000000 0.000000
# 5 0.000000 0.000000 0.000000 0.000000 0.040454 0.000000
# 6 0.000000 0.000000 0.000000 0.000000 0.000000 0.050249
#
#
# Mechanical properties :
#
#
# Convention : Reuss Voigt Hill
#
# Bulk Modulus (GPa) = 57.39742 66.64919 62.02330
# Shear Modulus (GPa) = 24.66000 26.33226 25.49613
#
# Velocity S-wave (km/s) = 3.54201 3.66014 3.60156
# Velocity P-wave (km/s) = 6.77709 7.19514 6.98924
#
# Compressibility (1/GPa) = 0.01742239
#
# Stress axis : x y z
#
# Youngs Moduli (GPa) = 95.61965 51.51880 94.51186
#
# Poissons Ratio (x) = 0.21424 0.34469
# Poissons Ratio (y) = 0.39764 0.35043
# Poissons Ratio (z) = 0.34873 0.19102
#
# Static dielectric constant tensor:
#      x y z
#    x 4.135630 0.000000 0.000000 
#    y 0.000000 4.052900 0.000000 
#    z 0.000000 0.000000 3.924880 
# 
# 
# High freq. dielectric constant tensor:
#      x y z
#    x 1.767180 0.000000 0.000000 
#    y 0.000000 1.742660 0.000000 
#    z 0.000000 0.000000 1.785020 
# 
# From -- ./inp_files/19020.got.cif
#   From: 2010.03.12/outbox.cif.g09.slc.cpg/sg57_10_cif.got.tgz:19020.got - 2010.04.16 15:48:40.
