data_PCOD8235477
_publ_section_title
;
Structure prediction by ZEFSAII (Michael W. Deem and Ramdas Pophale) SiO2 
 PCOD8235477
Probable space group: P N N M
;
_chemical_formula_sum "Si O2"
_cell_formula_units_Z 56
_cell_length_a 19.365599
_cell_length_b 19.288332
_cell_length_c 8.862338
_cell_angle_alpha 90.000000
_cell_angle_beta 90.000000
_cell_angle_gamma 90.000000
_cell_volume 3310.350025
_symmetry_space_group_name_H-M "P N N M"
_symmetry_group_IT_number 58
_symmetry_cell_setting 'orthorhombic'
loop_
_space_group_symop_operation_xyz
x,y,z
-x,-y,z
1/2+x,1/2-y,1/2-z
1/2-x,1/2+y,1/2-z
-x,-y,-z
x,y,-z
1/2-x,1/2+y,1/2+z
1/2+x,1/2-y,1/2+z
loop_
_atom_site_type_symbol
_atom_site_label
_atom_site_fract_x
_atom_site_fract_y
_atom_site_fract_z
Si Si1 0.263270 0.377458 0.179660
Si Si2 0.863190 0.229450 0.177570
Si Si3 0.517416 0.292445 0.679776
Si Si4 0.207221 0.020580 0.177321
Si Si5 0.554355 0.443952 0.320309
Si Si6 0.347838 0.773584 0.673606
Si Si7 0.268402 0.165136 0.172350
O O1 0.329756 0.337008 0.242144
O O2 0.260992 0.455636 0.235884
O O3 0.194321 0.338522 0.243732
O O4 0.266374 0.374274 0.000000
O O5 0.826939 0.301580 0.222140
O O6 0.942591 0.234111 0.231187
O O7 0.857560 0.217547 0.000000
O O8 0.523423 0.295056 0.500000
O O9 0.531660 0.369339 0.744153
O O10 0.576331 0.239982 0.745769
O O11 0.130442 0.035989 0.238580
O O12 0.257444 0.084971 0.214507
O O13 0.205433 0.004796 0.000000
O O14 0.500000 0.500000 0.257794
O O15 0.554441 0.442827 0.500000
O O16 0.358412 0.790931 0.500000
O O17 0.304481 0.703204 0.696037
O O18 0.292889 0.173917 0.000000
#
# Coordination Sequence:
#
# PCOD8235477 Si02
#       7
#     8   8   8   8   8   8   8
#     4  10  20  32  48  69  98 130 159 197 241 287
#     4  10  19  30  49  74  97 122 157 202 241 281
#     4   9  15  26  46  71  94 118 158 204 236 272
#     4  10  18  30  50  73  95 125 163 198 238 285
#     4   9  15  23  41  71  99 120 149 192 235 276
#     4   8  14  28  47  67  89 120 162 199 234 274
#     4   9  17  31  50  70  95 127 160 196 238 290
#
# _framework density 16.916639
#
# number of rings (size 3 to 8) (size 9 to 14) (size 15 to 20)
#    0.000    2.714    1.429    2.571    0.000    2.857 
#    0.000    0.000    0.000   14.143    0.000    6.000 
#    0.000    0.000    0.000    0.000    0.000    0.000 
#
# Total GULP energy -694138.276011 kJ/mol
# GULP energy per Si atom -12395.326357 kJ/mol
# Density = 1.687814 g / cm^3
# Si number density = 16.916639 Si / 1000 Ang^3
#
#
#
# Elastic Constant Matrix: (Units=GPa)
#
#
# Indices 1 2 3 4 5 6 
#
# 1 106.1829 62.9222 22.6006 0.0000 0.0000 0.0000
# 2 62.9222 115.8670 30.6720 0.0000 0.0000 0.0000
# 3 22.6006 30.6720 35.5614 0.0000 0.0000 0.0000
# 4 0.0000 0.0000 0.0000 18.1574 0.0000 0.0000
# 5 0.0000 0.0000 0.0000 0.0000 17.3482 0.0000
# 6 0.0000 0.0000 0.0000 0.0000 0.0000 23.8528
#
#
#
# Elastic Compliance Matrix: (Units=1/GPa)
#
#
# Indices 1 2 3 4 5 6 
#
# 1 0.014139 -0.006868 -0.003063 0.000000 0.000000 0.000000
# 2 -0.006868 0.014520 -0.008159 0.000000 0.000000 0.000000
# 3 -0.003063 -0.008159 0.037104 0.000000 0.000000 0.000000
# 4 0.000000 0.000000 0.000000 0.055074 0.000000 0.000000
# 5 0.000000 0.000000 0.000000 0.000000 0.057643 0.000000
# 6 0.000000 0.000000 0.000000 0.000000 0.000000 0.041924
#
#
# Mechanical properties :
#
#
# Convention : Reuss Voigt Hill
#
# Bulk Modulus (GPa) = 33.80124 54.44453 44.12288
# Shear Modulus (GPa) = 18.76572 21.29946 20.03259
#
# Velocity S-wave (km/s) = 3.33424 3.55221 3.44495
# Velocity P-wave (km/s) = 5.90316 7.00558 6.47786
#
# Compressibility (1/GPa) = 0.02958471
#
# Stress axis : x y z
#
# Youngs Moduli (GPa) = 70.72518 68.87099 26.95141
#
# Poissons Ratio (x) = 0.47298 0.08254
# Poissons Ratio (y) = 0.48572 0.21989
# Poissons Ratio (z) = 0.21660 0.56191
#
# Static dielectric constant tensor:
#      x y z
#    x 3.355120 0.000000 0.000000 
#    y 0.000000 3.225040 0.000000 
#    z 0.000000 0.000000 2.789290 
# 
# 
# High freq. dielectric constant tensor:
#      x y z
#    x 1.649340 0.000000 0.000000 
#    y 0.000000 1.648230 0.000000 
#    z 0.000000 0.000000 1.613420 
# 
# From -- ./inp_files/8174.got.cif
#   From: 2010.06.25/outbox.cif.g09.slc.cpg/sg58_5_cif.got.tgz:8174.got - 2010.06.26 21:38:00.
