data_PCOD8235280
_publ_section_title
;
Structure prediction by ZEFSAII (Michael W. Deem and Ramdas Pophale) SiO2 
 PCOD8235280
Probable space group: P N N M
;
_chemical_formula_sum "Si O2"
_cell_formula_units_Z 56
_cell_length_a 23.756515
_cell_length_b 12.236848
_cell_length_c 12.364447
_cell_angle_alpha 90.000000
_cell_angle_beta 90.000000
_cell_angle_gamma 90.000000
_cell_volume 3594.404872
_symmetry_space_group_name_H-M "P N N M"
_symmetry_group_IT_number 58
_symmetry_cell_setting 'orthorhombic'
loop_
_space_group_symop_operation_xyz
x,y,z
-x,-y,z
1/2+x,1/2-y,1/2-z
1/2-x,1/2+y,1/2-z
-x,-y,-z
x,y,-z
1/2-x,1/2+y,1/2+z
1/2+x,1/2-y,1/2+z
loop_
_atom_site_type_symbol
_atom_site_label
_atom_site_fract_x
_atom_site_fract_y
_atom_site_fract_z
Si Si1 0.636131 0.485093 0.873357
Si Si2 0.839068 0.193240 0.756445
Si Si3 0.718059 0.868195 0.875630
Si Si4 0.945593 0.131809 0.122059
Si Si5 0.228131 0.378243 0.626549
Si Si6 0.674712 0.299870 0.261218
Si Si7 0.564161 0.400446 0.701678
O O1 0.656003 0.605207 0.839480
O O2 0.681622 0.398261 0.826490
O O3 0.575006 0.454078 0.820910
O O4 0.631385 0.475996 0.000000
O O5 0.827811 0.310112 0.701064
O O6 0.896729 0.203005 0.823350
O O7 0.790363 0.159889 0.840149
O O8 0.778550 0.812782 0.853720
O O9 0.719422 0.995258 0.846715
O O10 0.702141 0.848862 0.000000
O O11 0.002898 0.153224 0.190347
O O12 0.929964 0.002683 0.118932
O O13 0.954498 0.172709 0.000000
O O14 0.219551 0.353927 0.500000
O O15 0.181518 0.313759 0.696996
O O16 0.613043 0.309439 0.318922
#
# Coordination Sequence:
#
# PCOD8235280 Si02
#       7
#     8   8   8   8   8   8   8
#     4   9  16  29  44  65  97 126 148 187 239 280
#     4  10  19  30  45  72  98 124 156 193 236 289
#     4  10  19  31  47  68  97 127 157 194 234 275
#     4  10  17  30  50  71  98 125 154 194 239 284
#     4  10  18  31  50  69  92 128 164 196 229 272
#     4   9  18  30  47  72  96 122 157 195 231 282
#     4   8  17  28  44  74  96 120 154 195 232 284
#
# _framework density 15.579769000000001
#
# number of rings (size 3 to 8) (size 9 to 14) (size 15 to 20)
#    0.857    1.714    1.429    2.143    0.000    2.286 
#    0.000    6.429    0.000    0.857    0.000    3.000 
#    0.000    0.000    0.000    0.000    0.000    0.000 
#
# Total GULP energy -693926.660489 kJ/mol
# GULP energy per Si atom -12391.547509 kJ/mol
# Density = 1.554431 g / cm^3
# Si number density = 15.579769 Si / 1000 Ang^3
#
#
#
# Elastic Constant Matrix: (Units=GPa)
#
#
# Indices 1 2 3 4 5 6 
#
# 1 104.8265 32.4789 24.5703 0.0000 0.0000 0.0000
# 2 32.4789 70.7452 24.2777 0.0000 0.0000 0.0000
# 3 24.5703 24.2777 64.1686 0.0000 0.0000 0.0000
# 4 0.0000 0.0000 0.0000 22.8242 0.0000 0.0000
# 5 0.0000 0.0000 0.0000 0.0000 16.2857 0.0000
# 6 0.0000 0.0000 0.0000 0.0000 0.0000 25.2486
#
#
#
# Elastic Compliance Matrix: (Units=1/GPa)
#
#
# Indices 1 2 3 4 5 6 
#
# 1 0.011536 -0.004344 -0.002773 0.000000 0.000000 0.000000
# 2 -0.004344 0.017880 -0.005101 0.000000 0.000000 0.000000
# 3 -0.002773 -0.005101 0.018576 0.000000 0.000000 0.000000
# 4 0.000000 0.000000 0.000000 0.043813 0.000000 0.000000
# 5 0.000000 0.000000 0.000000 0.000000 0.061403 0.000000
# 6 0.000000 0.000000 0.000000 0.000000 0.000000 0.039606
#
#
# Mechanical properties :
#
#
# Convention : Reuss Voigt Hill
#
# Bulk Modulus (GPa) = 42.45613 44.71048 43.58330
# Shear Modulus (GPa) = 22.21193 23.43259 22.82226
#
# Velocity S-wave (km/s) = 3.77993 3.88240 3.83151
# Velocity P-wave (km/s) = 6.80885 6.98981 6.89992
#
# Compressibility (1/GPa) = 0.02355373
#
# Stress axis : x y z
#
# Youngs Moduli (GPa) = 86.68797 55.92739 53.83283
#
# Poissons Ratio (x) = 0.24296 0.14930
# Poissons Ratio (y) = 0.37659 0.27463
# Poissons Ratio (z) = 0.24042 0.28531
#
# Static dielectric constant tensor:
#      x y z
#    x 2.917970 0.000000 0.000000 
#    y 0.000000 2.820950 0.000000 
#    z 0.000000 0.000000 2.876270 
# 
# 
# High freq. dielectric constant tensor:
#      x y z
#    x 1.585360 0.000000 0.000000 
#    y 0.000000 1.572670 0.000000 
#    z 0.000000 0.000000 1.597890 
# 
# From -- ./inp_files/17804.got.cif
#   From: 2010.06.25/outbox.cif.g09.slc.cpg/sg58_9_cif.got.tgz:17804.got - 2010.06.26 21:38:00.
