data_PCOD8235959
_publ_section_title
;
Structure prediction by ZEFSAII (Michael W. Deem and Ramdas Pophale) SiO2 
 PCOD8235959
Probable space group: P N N M
;
_chemical_formula_sum "Si O2"
_cell_formula_units_Z 40
_cell_length_a 20.898654
_cell_length_b 12.416012
_cell_length_c 9.608984
_cell_angle_alpha 90.000000
_cell_angle_beta 90.000000
_cell_angle_gamma 90.000000
_cell_volume 2493.319363
_symmetry_space_group_name_H-M "P N N M"
_symmetry_group_IT_number 58
_symmetry_cell_setting 'orthorhombic'
loop_
_space_group_symop_operation_xyz
x,y,z
-x,-y,z
1/2+x,1/2-y,1/2-z
1/2-x,1/2+y,1/2-z
-x,-y,-z
x,y,-z
1/2-x,1/2+y,1/2+z
1/2+x,1/2-y,1/2+z
loop_
_atom_site_type_symbol
_atom_site_label
_atom_site_fract_x
_atom_site_fract_y
_atom_site_fract_z
Si Si1 0.073275 0.998605 0.836069
Si Si2 0.305349 0.916312 0.661546
Si Si3 0.300063 0.114014 0.161037
Si Si4 0.663837 0.313747 0.664002
Si Si5 0.839532 0.149835 0.341847
O O1 0.103509 0.113756 0.791610
O O2 0.108865 0.901434 0.760534
O O3 0.080506 0.979241 0.000000
O O4 0.000000 0.000000 0.788520
O O5 0.318146 0.940812 0.500000
O O6 0.344357 0.810049 0.713778
O O7 0.230665 0.895295 0.691161
O O8 0.330912 0.016903 0.750786
O O9 0.228855 0.133656 0.223126
O O10 0.341818 0.221596 0.181432
O O11 0.298131 0.079425 0.000000
O O12 0.673983 0.308415 0.500000
O O13 0.858408 0.121644 0.500000
#
# Coordination Sequence:
#
# PCOD8235959 Si02
#       5
#     8   8   8   8   8
#     4  10  19  31  49  69  90 121 158 189 221 268
#     4   9  16  27  45  67  91 118 146 180 226 275
#     4   9  16  28  46  66  92 121 145 182 233 271
#     4   8  15  28  43  63  93 119 141 181 231 264
#     4   9  18  30  44  66  94 122 150 181 229 277
#
# _framework density 16.042870000000001
#
# number of rings (size 3 to 8) (size 9 to 14) (size 15 to 20)
#    0.000    3.000    2.000    2.400    0.000    1.200 
#    0.000    4.000    0.000    1.200    0.000    8.400 
#    0.000    0.000    0.000    0.000    0.000    0.000 
#
# Total GULP energy -495815.380442 kJ/mol
# GULP energy per Si atom -12395.384511 kJ/mol
# Density = 1.600636 g / cm^3
# Si number density = 16.042870 Si / 1000 Ang^3
#
#
#
# Elastic Constant Matrix: (Units=GPa)
#
#
# Indices 1 2 3 4 5 6 
#
# 1 73.8961 41.0638 31.2547 0.0000 0.0000 0.0000
# 2 41.0638 131.2322 55.3436 0.0000 0.0000 0.0000
# 3 31.2547 55.3436 52.7137 0.0000 0.0000 0.0000
# 4 0.0000 0.0000 0.0000 31.8379 0.0000 0.0000
# 5 0.0000 0.0000 0.0000 0.0000 13.1608 0.0000
# 6 0.0000 0.0000 0.0000 0.0000 0.0000 20.4706
#
#
#
# Elastic Compliance Matrix: (Units=1/GPa)
#
#
# Indices 1 2 3 4 5 6 
#
# 1 0.018371 -0.002072 -0.008716 0.000000 0.000000 0.000000
# 2 -0.002072 0.013909 -0.013374 0.000000 0.000000 0.000000
# 3 -0.008716 -0.013374 0.038179 0.000000 0.000000 0.000000
# 4 0.000000 0.000000 0.000000 0.031409 0.000000 0.000000
# 5 0.000000 0.000000 0.000000 0.000000 0.075983 0.000000
# 6 0.000000 0.000000 0.000000 0.000000 0.000000 0.048851
#
#
# Mechanical properties :
#
#
# Convention : Reuss Voigt Hill
#
# Bulk Modulus (GPa) = 45.18018 57.01847 51.09932
# Shear Modulus (GPa) = 17.70508 21.77251 19.73879
#
# Velocity S-wave (km/s) = 3.32567 3.68794 3.51148
# Velocity P-wave (km/s) = 6.55515 7.33165 6.95425
#
# Compressibility (1/GPa) = 0.02213360
#
# Stress axis : x y z
#
# Youngs Moduli (GPa) = 54.43408 71.89820 26.19215
#
# Poissons Ratio (x) = 0.14901 0.22830
# Poissons Ratio (y) = 0.11281 0.35028
# Poissons Ratio (z) = 0.47447 0.96154
#
# Static dielectric constant tensor:
#      x y z
#    x 2.748170 0.000000 0.000000 
#    y 0.000000 3.203620 0.000000 
#    z 0.000000 0.000000 2.826730 
# 
# 
# High freq. dielectric constant tensor:
#      x y z
#    x 1.573340 0.000000 0.000000 
#    y 0.000000 1.629230 0.000000 
#    z 0.000000 0.000000 1.599300 
# 
# From -- ./inp_files/3797.got.cif
#   From: 2010.06.25/outbox.cif.g09.slc.cpg/sg58_2_cif.got.tgz:3797.got - 2010.06.26 21:38:00.
