data_PCOD8235604
_publ_section_title
;
Structure prediction by ZEFSAII (Michael W. Deem and Ramdas Pophale) SiO2 
 PCOD8235604
Probable space group: P N N M
;
_chemical_formula_sum "Si O2"
_cell_formula_units_Z 48
_cell_length_a 10.125336
_cell_length_b 26.187035
_cell_length_c 10.311077
_cell_angle_alpha 90.000000
_cell_angle_beta 90.000000
_cell_angle_gamma 90.000000
_cell_volume 2734.008135
_symmetry_space_group_name_H-M "P N N M"
_symmetry_group_IT_number 58
_symmetry_cell_setting 'orthorhombic'
loop_
_space_group_symop_operation_xyz
x,y,z
-x,-y,z
1/2+x,1/2-y,1/2-z
1/2-x,1/2+y,1/2-z
-x,-y,-z
x,y,-z
1/2-x,1/2+y,1/2+z
1/2+x,1/2-y,1/2+z
loop_
_atom_site_type_symbol
_atom_site_label
_atom_site_fract_x
_atom_site_fract_y
_atom_site_fract_z
Si Si1 0.117004 0.536425 0.652695
Si Si2 0.795409 0.206082 0.000000
Si Si3 0.488568 0.198678 0.500000
Si Si4 0.013936 0.712293 0.500000
Si Si5 0.132920 0.971771 0.848406
Si Si6 0.216231 0.865618 0.762816
Si Si7 0.208021 0.806831 0.500000
Si Si8 0.519734 0.859718 0.236771
O O1 0.106313 0.546750 0.500000
O O2 0.251903 0.509820 0.694556
O O3 0.000000 0.500000 0.700765
O O4 0.111840 0.590743 0.724698
O O5 0.893954 0.253194 0.000000
O O6 0.642833 0.224816 0.000000
O O7 0.830072 0.173479 0.873186
O O8 0.642716 0.216051 0.500000
O O9 0.455447 0.164755 0.375786
O O10 0.056161 0.681290 0.372771
O O11 0.098002 0.763579 0.500000
O O12 0.137604 0.918562 0.772008
O O13 0.143554 0.958951 0.000000
O O14 0.000000 0.000000 0.810053
O O15 0.184891 0.841795 0.624409
O O16 0.369941 0.878160 0.782847
#
# Coordination Sequence:
#
# PCOD8235604 Si02
#       8
#     8   4   4   4   8   8   4   8
#     4  10  18  31  58  82 103 134 180 220 254 309
#     4  10  20  36  60  78 102 145 180 221 263 310
#     4  10  22  38  52  77 116 139 172 222 271 316
#     4  10  20  36  58  79 104 137 190 220 253 316
#     4  10  20  35  54  83 112 135 176 223 265 317
#     4  10  19  36  58  78 108 145 175 211 273 320
#     4  10  22  38  54  78 110 143 176 221 263 318
#     4  10  19  35  57  82 105 140 179 220 263 313
#
# _framework density 17.556640999999999
#
# number of rings (size 3 to 8) (size 9 to 14) (size 15 to 20)
#    0.000    2.000    3.333    1.000    0.000    0.000 
#    6.000    1.667    0.000    0.000    0.000    0.000 
#    0.000    0.000    0.000    0.000    0.000    0.000 
#
# Total GULP energy -595352.886925 kJ/mol
# GULP energy per Si atom -12403.185144 kJ/mol
# Density = 1.751668 g / cm^3
# Si number density = 17.556641 Si / 1000 Ang^3
#
#
#
# Elastic Constant Matrix: (Units=GPa)
#
#
# Indices 1 2 3 4 5 6 
#
# 1 109.1695 85.2390 41.2730 0.0000 0.0000 0.0000
# 2 85.2390 158.8339 65.4789 0.0000 0.0000 0.0000
# 3 41.2730 65.4789 118.6311 0.0000 0.0000 0.0000
# 4 0.0000 0.0000 0.0000 14.1872 0.0000 0.0000
# 5 0.0000 0.0000 0.0000 0.0000 -3.0277 0.0000
# 6 0.0000 0.0000 0.0000 0.0000 0.0000 31.5249
#
#
#
# Elastic Compliance Matrix: (Units=1/GPa)
#
#
# Indices 1 2 3 4 5 6 
#
# 1 0.015869 -0.008078 -0.001062 0.000000 0.000000 0.000000
# 2 -0.008078 0.012263 -0.003958 0.000000 0.000000 0.000000
# 3 -0.001062 -0.003958 0.010984 0.000000 0.000000 0.000000
# 4 0.000000 0.000000 0.000000 0.070486 0.000000 0.000000
# 5 0.000000 0.000000 0.000000 0.000000 -0.330285 0.000000
# 6 0.000000 0.000000 0.000000 0.000000 0.000000 0.031721
#
#
# Mechanical properties :
#
#
# Convention : Reuss Voigt Hill
#
# Bulk Modulus (GPa) = 77.40749 85.62401 81.51575
# Shear Modulus (GPa) = -31.55389 21.51313 -5.02038
#
# Velocity S-wave (km/s) = -4.24401 3.50431 -1.69285
# Velocity P-wave (km/s) = 4.49114 8.07772 6.53529
#
# Compressibility (1/GPa) = 0.01291865
#
# Stress axis : x y z
#
# Youngs Moduli (GPa) = 63.01511 81.54698 91.04450
#
# Poissons Ratio (x) = 0.65877 0.09670
# Poissons Ratio (y) = 0.50906 0.36035
# Poissons Ratio (z) = 0.06693 0.32276
#
# Static dielectric constant tensor:
#      x y z
#    x 3.220010 0.000000 0.000000 
#    y 0.000000 3.188550 0.000000 
#    z 0.000000 0.000000 -25.920180 
# 
# 
# High freq. dielectric constant tensor:
#      x y z
#    x 1.668320 0.000000 0.000000 
#    y 0.000000 1.686630 0.000000 
#    z 0.000000 0.000000 1.672370 
# 
# From -- ./inp_files/14544.got.cif
#   From: 2010.06.25/outbox.cif.g09.slc.cpg/sg58_8_cif.got.tgz:14544.got - 2010.06.26 21:38:00.
