data_PCOD8235285
_publ_section_title
;
Structure prediction by ZEFSAII (Michael W. Deem and Ramdas Pophale) SiO2 
 PCOD8235285
Probable space group: P N N M
;
_chemical_formula_sum "Si O2"
_cell_formula_units_Z 56
_cell_length_a 21.655642
_cell_length_b 9.295474
_cell_length_c 13.522461
_cell_angle_alpha 90.000000
_cell_angle_beta 90.000000
_cell_angle_gamma 90.000000
_cell_volume 2722.064059
_symmetry_space_group_name_H-M "P N N M"
_symmetry_group_IT_number 58
_symmetry_cell_setting 'orthorhombic'
loop_
_space_group_symop_operation_xyz
x,y,z
-x,-y,z
1/2+x,1/2-y,1/2-z
1/2-x,1/2+y,1/2-z
-x,-y,-z
x,y,-z
1/2-x,1/2+y,1/2+z
1/2+x,1/2-y,1/2+z
loop_
_atom_site_type_symbol
_atom_site_label
_atom_site_fract_x
_atom_site_fract_y
_atom_site_fract_z
Si Si1 0.122743 0.380003 0.754767
Si Si2 0.064335 0.919308 0.199245
Si Si3 0.059676 0.601306 0.886033
Si Si4 0.160816 0.119642 0.112549
Si Si5 0.111117 0.813442 0.388623
Si Si6 0.981377 0.663155 0.607174
Si Si7 0.797835 0.447783 0.386450
O O1 0.110572 0.522928 0.819334
O O2 0.147833 0.260183 0.825806
O O3 0.064740 0.309759 0.697428
O O4 0.173553 0.421772 0.674529
O O5 0.048956 0.759768 0.158666
O O6 0.107396 0.928370 0.299432
O O7 0.106672 0.001628 0.119909
O O8 0.000000 0.000000 0.216980
O O9 0.000000 0.500000 0.877858
O O10 0.081051 0.614413 0.000000
O O11 0.227052 0.060818 0.147318
O O12 0.165008 0.170632 0.000000
O O13 0.117829 0.879498 0.500000
O O14 0.165958 0.701613 0.368366
O O15 0.044164 0.745056 0.373697
O O16 0.952584 0.707052 0.500000
O O17 0.000000 0.500000 0.604637
O O18 0.804292 0.492481 0.500000
#
# Coordination Sequence:
#
# PCOD8235285 Si02
#       7
#     8   8   8   8   8   8   8
#     4  12  21  38  67  93 121 161 219 266 312 380
#     4  12  24  42  65  92 131 173 209 261 331 388
#     4  11  23  38  61  92 126 167 222 270 311 371
#     4  11  27  44  62  91 131 173 215 264 323 379
#     4  10  20  37  62  91 126 161 202 258 322 379
#     4  10  17  30  57  94 124 150 191 253 320 376
#     4  10  22  41  65  92 124 165 211 262 322 389
#
# _framework density 20.572621999999999
#
# number of rings (size 3 to 8) (size 9 to 14) (size 15 to 20)
#    0.000    1.143    2.857    4.286    2.000    2.571 
#    0.000    1.429    0.000    2.571    0.000    0.000 
#    0.000    0.000    0.000    0.000    0.000    0.000 
#
# Total GULP energy -694179.839355 kJ/mol
# GULP energy per Si atom -12396.068560 kJ/mol
# Density = 2.052580 g / cm^3
# Si number density = 20.572622 Si / 1000 Ang^3
#
#
#
# Elastic Constant Matrix: (Units=GPa)
#
#
# Indices 1 2 3 4 5 6 
#
# 1 103.8626 31.9857 35.0707 0.0000 0.0000 0.0000
# 2 31.9857 90.5358 29.7362 0.0000 0.0000 0.0000
# 3 35.0707 29.7362 97.9457 0.0000 0.0000 0.0000
# 4 0.0000 0.0000 0.0000 34.4729 0.0000 0.0000
# 5 0.0000 0.0000 0.0000 0.0000 41.2653 0.0000
# 6 0.0000 0.0000 0.0000 0.0000 0.0000 21.1446
#
#
#
# Elastic Compliance Matrix: (Units=1/GPa)
#
#
# Indices 1 2 3 4 5 6 
#
# 1 0.011666 -0.003054 -0.003250 0.000000 0.000000 0.000000
# 2 -0.003054 0.013068 -0.002874 0.000000 0.000000 0.000000
# 3 -0.003250 -0.002874 0.012246 0.000000 0.000000 0.000000
# 4 0.000000 0.000000 0.000000 0.029008 0.000000 0.000000
# 5 0.000000 0.000000 0.000000 0.000000 0.024233 0.000000
# 6 0.000000 0.000000 0.000000 0.000000 0.000000 0.047293
#
#
# Mechanical properties :
#
#
# Convention : Reuss Voigt Hill
#
# Bulk Modulus (GPa) = 53.69339 53.99215 53.84277
# Shear Modulus (GPa) = 30.84906 32.41333 31.63119
#
# Velocity S-wave (km/s) = 3.87656 3.97363 3.92540
# Velocity P-wave (km/s) = 6.79655 6.88147 6.83914
#
# Compressibility (1/GPa) = 0.01862427
#
# Stress axis : x y z
#
# Youngs Moduli (GPa) = 85.71881 76.52108 81.65962
#
# Poissons Ratio (x) = 0.23370 0.26539
# Poissons Ratio (y) = 0.26179 0.23469
# Poissons Ratio (z) = 0.27858 0.21992
#
# Static dielectric constant tensor:
#      x y z
#    x 3.776500 0.000000 0.000000 
#    y 0.000000 3.526200 0.000000 
#    z 0.000000 0.000000 4.433680 
# 
# 
# High freq. dielectric constant tensor:
#      x y z
#    x 1.795660 0.000000 0.000000 
#    y 0.000000 1.786650 0.000000 
#    z 0.000000 0.000000 1.831730 
# 
# From -- ./inp_files/23238.got.cif
#   From: 2010.06.25/outbox.cif.g09.slc.cpg/sg58_12_cif.got.tgz:23238.got - 2010.06.26 21:38:00.
