data_PCOD8235062
_publ_section_title
;
Structure prediction by ZEFSAII (Michael W. Deem and Ramdas Pophale) SiO2 
 PCOD8235062
Probable space group: P B C M
;
_chemical_formula_sum "Si O2"
_cell_formula_units_Z 52
_cell_length_a 7.784040
_cell_length_b 21.630403
_cell_length_c 14.439872
_cell_angle_alpha 90.000000
_cell_angle_beta 90.000000
_cell_angle_gamma 90.000000
_cell_volume 2431.269005
_symmetry_space_group_name_H-M "P B C M"
_symmetry_group_IT_number 57
_symmetry_cell_setting 'orthorhombic'
loop_
_space_group_symop_operation_xyz
x,y,z
-x,-y,1/2+z
x,1/2-y,-z
-x,1/2+y,1/2-z
-x,-y,-z
x,y,1/2-z
-x,1/2+y,z
x,1/2-y,1/2+z
loop_
_atom_site_type_symbol
_atom_site_label
_atom_site_fract_x
_atom_site_fract_y
_atom_site_fract_z
Si Si1 0.015691 0.038861 0.750000
Si Si2 0.769658 0.636706 0.066772
Si Si3 0.269406 0.439066 0.750000
Si Si4 0.326874 0.838295 0.142699
Si Si5 0.619004 0.991828 0.250000
Si Si6 0.658098 0.763286 0.354569
Si Si7 0.480222 0.438653 0.058913
Si Si8 0.037510 0.354442 0.103744
O O1 0.177128 0.989839 0.750000
O O2 0.021440 0.081062 0.841674
O O3 0.835011 0.002762 0.750000
O O4 0.787436 0.599796 0.161391
O O5 0.711297 0.707108 0.079915
O O6 0.632856 0.607065 0.999556
O O7 0.946744 0.634676 0.007617
O O8 0.476299 0.452878 0.750000
O O9 0.348056 0.855947 0.250000
O O10 0.470276 0.787917 0.114868
O O11 0.344942 0.901441 0.081466
O O12 0.134655 0.813724 0.122054
O O13 0.603468 0.951060 0.341780
O O14 0.648510 0.738011 0.250000
O O15 0.797405 0.817563 0.359840
O O16 0.500000 0.500000 0.000000
#
# Coordination Sequence:
#
# PCOD8235062 Si02
#       8
#     4   8   4   8   4   8   8   8
#     4  12  24  41  72 105 136 178 244 299 355 419
#     4  12  26  47  69 101 150 191 229 304 366 424
#     4  12  28  47  68 100 148 197 236 295 371 423
#     4  11  23  43  74 106 136 182 235 295 351 426
#     4  12  22  44  66  97 138 181 244 292 332 426
#     4  11  23  47  74  99 142 188 239 294 363 423
#     4  12  24  40  71 101 135 184 234 287 356 425
#     4  12  24  43  73 107 136 182 244 296 348 430
#
# _framework density 21.388009
#
# number of rings (size 3 to 8) (size 9 to 14) (size 15 to 20)
#    0.000    0.308    7.692    1.385    0.000    1.846 
#    5.538    0.000    0.000    0.000    0.000    0.000 
#    0.000    0.000    0.000    0.000    0.000    0.000 
#
# Total GULP energy -644494.247042 kJ/mol
# GULP energy per Si atom -12394.120135 kJ/mol
# Density = 2.133933 g / cm^3
# Si number density = 21.388009 Si / 1000 Ang^3
#
#
#
# Elastic Constant Matrix: (Units=GPa)
#
#
# Indices 1 2 3 4 5 6 
#
# 1 129.9987 43.0352 37.4778 0.0000 0.0000 0.0000
# 2 43.0352 110.2850 56.6875 0.0000 0.0000 0.0000
# 3 37.4778 56.6875 154.7171 0.0000 0.0000 0.0000
# 4 0.0000 0.0000 0.0000 45.6857 0.0000 0.0000
# 5 0.0000 0.0000 0.0000 0.0000 -93.6690 0.0000
# 6 0.0000 0.0000 0.0000 0.0000 0.0000 24.8435
#
#
#
# Elastic Compliance Matrix: (Units=1/GPa)
#
#
# Indices 1 2 3 4 5 6 
#
# 1 0.008983 -0.002940 -0.001098 0.000000 0.000000 0.000000
# 2 -0.002940 0.012134 -0.003734 0.000000 0.000000 0.000000
# 3 -0.001098 -0.003734 0.008097 0.000000 0.000000 0.000000
# 4 0.000000 0.000000 0.000000 0.021889 0.000000 0.000000
# 5 0.000000 0.000000 0.000000 0.000000 -0.010676 0.000000
# 6 0.000000 0.000000 0.000000 0.000000 0.000000 0.040252
#
#
# Mechanical properties :
#
#
# Convention : Reuss Voigt Hill
#
# Bulk Modulus (GPa) = 73.15901 74.37798 73.76850
# Shear Modulus (GPa) = 49.61310 12.55874 31.08592
#
# Velocity S-wave (km/s) = 4.82152 2.42582 3.81652
# Velocity P-wave (km/s) = 8.07935 6.53431 7.34756
#
# Compressibility (1/GPa) = 0.01366886
#
# Stress axis : x y z
#
# Youngs Moduli (GPa) = 111.32753 82.41372 123.49583
#
# Poissons Ratio (x) = 0.24234 0.13566
# Poissons Ratio (y) = 0.32736 0.46107
# Poissons Ratio (z) = 0.12229 0.30769
#
# Static dielectric constant tensor:
#      x y z
#    x 3.925070 0.000000 0.000000 
#    y 0.000000 2.825080 0.000000 
#    z 0.000000 0.000000 5.854690 
# 
# 
# High freq. dielectric constant tensor:
#      x y z
#    x 1.839840 0.000000 0.000000 
#    y 0.000000 1.822180 0.000000 
#    z 0.000000 0.000000 1.860590 
# 
# From -- ./inp_files/16679.got.cif
#   From: 2010.03.12/outbox.cif.g09.slc.cpg/sg57_9_cif.got.tgz:16679.got - 2010.04.16 15:48:40.
