data_PCOD8235345
_publ_section_title
;
Structure prediction by ZEFSAII (Michael W. Deem and Ramdas Pophale) SiO2 
 PCOD8235345
Probable space group: P N N M
;
_chemical_formula_sum "Si O2"
_cell_formula_units_Z 56
_cell_length_a 13.530553
_cell_length_b 28.839108
_cell_length_c 9.264526
_cell_angle_alpha 90.000000
_cell_angle_beta 90.000000
_cell_angle_gamma 90.000000
_cell_volume 3615.102160
_symmetry_space_group_name_H-M "P N N M"
_symmetry_group_IT_number 58
_symmetry_cell_setting 'orthorhombic'
loop_
_space_group_symop_operation_xyz
x,y,z
-x,-y,z
1/2+x,1/2-y,1/2-z
1/2-x,1/2+y,1/2-z
-x,-y,-z
x,y,-z
1/2-x,1/2+y,1/2+z
1/2+x,1/2-y,1/2+z
loop_
_atom_site_type_symbol
_atom_site_label
_atom_site_fract_x
_atom_site_fract_y
_atom_site_fract_z
Si Si1 0.078191 0.775265 0.831731
Si Si2 0.883234 0.769692 0.666145
Si Si3 0.181898 0.679687 0.164488
Si Si4 0.617301 0.996692 0.336782
Si Si5 0.394366 0.093210 0.168054
Si Si6 0.275545 0.820244 0.171614
Si Si7 0.875023 0.586271 0.668087
O O1 0.111847 0.722947 0.797568
O O2 0.163549 0.810560 0.776464
O O3 0.978068 0.788057 0.750708
O O4 0.059438 0.782133 0.000000
O O5 0.913184 0.764422 0.500000
O O6 0.795977 0.806787 0.685294
O O7 0.848376 0.719983 0.730598
O O8 0.158355 0.638910 0.274534
O O9 0.162651 0.663459 0.000000
O O10 0.657979 0.994552 0.500000
O O11 0.651055 0.950945 0.251249
O O12 0.500000 0.000000 0.334369
O O13 0.661599 0.041756 0.257394
O O14 0.510815 0.097645 0.196781
O O15 0.370897 0.087121 0.000000
O O16 0.311568 0.870250 0.226116
O O17 0.279060 0.816703 0.000000
O O18 0.855771 0.576353 0.500000
#
# Coordination Sequence:
#
# PCOD8235345 Si02
#       7
#     8   8   8   8   8   8   8
#     4   9  17  29  44  62  85 113 144 176 209 246
#     4   9  17  30  45  61  85 116 146 175 209 248
#     4   9  18  30  43  61  87 117 144 172 212 255
#     4   9  17  28  41  59  86 115 139 169 212 256
#     4  10  18  27  43  65  86 111 145 179 207 245
#     4   8  15  28  44  61  84 115 144 170 208 252
#     4   9  16  27  43  62  85 113 144 175 206 246
#
# _framework density 15.490572
#
# number of rings (size 3 to 8) (size 9 to 14) (size 15 to 20)
#    0.000    3.000    0.000    3.429    0.000    4.571 
#    0.000    3.571    0.000    0.000    0.000    1.000 
#    0.000    8.000    0.000    0.000    0.000    0.000 
#
# Total GULP energy -694302.618418 kJ/mol
# GULP energy per Si atom -12398.261043 kJ/mol
# Density = 1.545532 g / cm^3
# Si number density = 15.490572 Si / 1000 Ang^3
#
#
#
# Elastic Constant Matrix: (Units=GPa)
#
#
# Indices 1 2 3 4 5 6 
#
# 1 67.6693 30.6545 34.7427 0.0000 0.0000 0.0000
# 2 30.6545 102.1210 53.7978 0.0000 0.0000 0.0000
# 3 34.7427 53.7978 75.0304 0.0000 0.0000 0.0000
# 4 0.0000 0.0000 0.0000 28.4152 0.0000 0.0000
# 5 0.0000 0.0000 0.0000 0.0000 22.7867 0.0000
# 6 0.0000 0.0000 0.0000 0.0000 0.0000 19.9897
#
#
#
# Elastic Compliance Matrix: (Units=1/GPa)
#
#
# Indices 1 2 3 4 5 6 
#
# 1 0.019584 -0.001770 -0.007799 0.000000 0.000000 0.000000
# 2 -0.001770 0.015896 -0.010578 0.000000 0.000000 0.000000
# 3 -0.007799 -0.010578 0.024524 0.000000 0.000000 0.000000
# 4 0.000000 0.000000 0.000000 0.035192 0.000000 0.000000
# 5 0.000000 0.000000 0.000000 0.000000 0.043885 0.000000
# 6 0.000000 0.000000 0.000000 0.000000 0.000000 0.050026
#
#
# Mechanical properties :
#
#
# Convention : Reuss Voigt Hill
#
# Bulk Modulus (GPa) = 50.73732 53.69009 52.21370
# Shear Modulus (GPa) = 21.18895 22.61338 21.90117
#
# Velocity S-wave (km/s) = 3.70247 3.82490 3.76418
# Velocity P-wave (km/s) = 7.14860 7.36489 7.25755
#
# Compressibility (1/GPa) = 0.01970936
#
# Stress axis : x y z
#
# Youngs Moduli (GPa) = 51.06270 62.90775 40.77631
#
# Poissons Ratio (x) = 0.11135 0.31802
# Poissons Ratio (y) = 0.09038 0.43134
# Poissons Ratio (z) = 0.39824 0.66545
#
# Static dielectric constant tensor:
#      x y z
#    x 2.751870 0.000000 0.000000 
#    y 0.000000 3.020100 0.000000 
#    z 0.000000 0.000000 2.877350 
# 
# 
# High freq. dielectric constant tensor:
#      x y z
#    x 1.563600 0.000000 0.000000 
#    y 0.000000 1.591110 0.000000 
#    z 0.000000 0.000000 1.588090 
# 
# From -- ./inp_files/7096.got.cif
#   From: 2010.06.25/outbox.cif.g09.slc.cpg/sg58_4_cif.got.tgz:7096.got - 2010.06.26 21:38:00.
