data_PCOD8235274
_publ_section_title
;
Structure prediction by ZEFSAII (Michael W. Deem and Ramdas Pophale) SiO2 
 PCOD8235274
Probable space group: P N N M
;
_chemical_formula_sum "Si O2"
_cell_formula_units_Z 64
_cell_length_a 18.770391
_cell_length_b 21.490006
_cell_length_c 8.879186
_cell_angle_alpha 90.000000
_cell_angle_beta 90.000000
_cell_angle_gamma 90.000000
_cell_volume 3581.648891
_symmetry_space_group_name_H-M "P N N M"
_symmetry_group_IT_number 58
_symmetry_cell_setting 'orthorhombic'
loop_
_space_group_symop_operation_xyz
x,y,z
-x,-y,z
1/2+x,1/2-y,1/2-z
1/2-x,1/2+y,1/2-z
-x,-y,-z
x,y,-z
1/2-x,1/2+y,1/2+z
1/2+x,1/2-y,1/2+z
loop_
_atom_site_type_symbol
_atom_site_label
_atom_site_fract_x
_atom_site_fract_y
_atom_site_fract_z
Si Si1 0.031537 0.318480 0.333549
Si Si2 0.318922 0.593428 0.320502
Si Si3 0.421171 0.688012 0.820163
Si Si4 0.373720 0.235026 0.831177
Si Si5 0.825136 0.382683 0.821916
Si Si6 0.077084 0.987816 0.825177
Si Si7 0.067942 0.848107 0.824487
Si Si8 0.477821 0.067011 0.322755
O O1 0.054949 0.339523 0.500000
O O2 0.081628 0.261772 0.275710
O O3 0.953159 0.290261 0.336025
O O4 0.033563 0.379932 0.230605
O O5 0.317670 0.598952 0.500000
O O6 0.351239 0.656369 0.249228
O O7 0.239613 0.582300 0.258769
O O8 0.363921 0.534486 0.258591
O O9 0.490355 0.654928 0.750555
O O10 0.423832 0.680643 0.000000
O O11 0.325020 0.188646 0.734328
O O12 0.374884 0.302022 0.750858
O O13 0.342553 0.241301 0.000000
O O14 0.897578 0.417317 0.770456
O O15 0.815340 0.383951 0.000000
O O16 0.100330 0.916698 0.799169
O O17 0.070274 0.004228 0.000000
O O18 0.000000 0.000000 0.748572
O O19 0.059150 0.831845 0.000000
O O20 0.483053 0.065563 0.500000
O O21 0.500000 0.000000 0.254581
#
# Coordination Sequence:
#
# PCOD8235274 Si02
#       8
#     8   8   8   8   8   8   8   8
#     4   8  16  29  47  73 102 127 157 203 251 299
#     4  11  21  34  53  74 102 141 180 217 264 319
#     4  10  19  31  47  73 105 134 170 216 262 303
#     4   9  17  31  50  74 101 127 164 211 257 304
#     4  10  20  35  54  77 104 133 171 216 268 323
#     4   9  17  31  49  74 105 140 182 220 253 307
#     4  10  17  29  51  75 101 134 175 217 260 302
#     4   9  18  33  55  80 103 131 169 214 262 313
#
# _framework density 17.868863999999999
#
# number of rings (size 3 to 8) (size 9 to 14) (size 15 to 20)
#    0.000    2.500    1.250    2.625    0.000    4.250 
#    0.000    3.125    2.750    0.000    0.000    0.000 
#    0.000    0.000    0.000    0.000    0.000    0.000 
#
# Total GULP energy -793386.649346 kJ/mol
# GULP energy per Si atom -12396.666396 kJ/mol
# Density = 1.782819 g / cm^3
# Si number density = 17.868864 Si / 1000 Ang^3
#
#
#
# Elastic Constant Matrix: (Units=GPa)
#
#
# Indices 1 2 3 4 5 6 
#
# 1 70.4221 51.6069 30.6740 0.0000 0.0000 0.0000
# 2 51.6069 133.1473 45.4685 0.0000 0.0000 0.0000
# 3 30.6740 45.4685 73.0634 0.0000 0.0000 0.0000
# 4 0.0000 0.0000 0.0000 23.4533 0.0000 0.0000
# 5 0.0000 0.0000 0.0000 0.0000 24.3391 0.0000
# 6 0.0000 0.0000 0.0000 0.0000 0.0000 24.5711
#
#
#
# Elastic Compliance Matrix: (Units=1/GPa)
#
#
# Indices 1 2 3 4 5 6 
#
# 1 0.021071 -0.006535 -0.004779 0.000000 0.000000 0.000000
# 2 -0.006535 0.011564 -0.004453 0.000000 0.000000 0.000000
# 3 -0.004779 -0.004453 0.018464 0.000000 0.000000 0.000000
# 4 0.000000 0.000000 0.000000 0.042638 0.000000 0.000000
# 5 0.000000 0.000000 0.000000 0.000000 0.041086 0.000000
# 6 0.000000 0.000000 0.000000 0.000000 0.000000 0.040698
#
#
# Mechanical properties :
#
#
# Convention : Reuss Voigt Hill
#
# Bulk Modulus (GPa) = 51.11197 59.12572 55.11885
# Shear Modulus (GPa) = 23.41075 24.39825 23.90450
#
# Velocity S-wave (km/s) = 3.62351 3.69915 3.66153
# Velocity P-wave (km/s) = 6.79504 7.16976 6.98491
#
# Compressibility (1/GPa) = 0.01956489
#
# Stress axis : x y z
#
# Youngs Moduli (GPa) = 47.45934 86.47568 54.15825
#
# Poissons Ratio (x) = 0.56510 0.25884
# Poissons Ratio (y) = 0.31013 0.24117
# Poissons Ratio (z) = 0.22683 0.38507
#
# Static dielectric constant tensor:
#      x y z
#    x 3.104470 0.000000 0.000000 
#    y 0.000000 3.564400 0.000000 
#    z 0.000000 0.000000 3.286710 
# 
# 
# High freq. dielectric constant tensor:
#      x y z
#    x 1.654480 0.000000 0.000000 
#    y 0.000000 1.696540 0.000000 
#    z 0.000000 0.000000 1.689420 
# 
# From -- ./inp_files/8309.got.cif
#   From: 2010.06.25/outbox.cif.g09.slc.cpg/sg58_5_cif.got.tgz:8309.got - 2010.06.26 21:38:00.
