data_PCOD8235476
_publ_section_title
;
Structure prediction by ZEFSAII (Michael W. Deem and Ramdas Pophale) SiO2 
 PCOD8235476
Probable space group: P N N M
;
_chemical_formula_sum "Si O2"
_cell_formula_units_Z 48
_cell_length_a 17.941783
_cell_length_b 17.948925
_cell_length_c 8.459046
_cell_angle_alpha 90.000000
_cell_angle_beta 90.000000
_cell_angle_gamma 90.000000
_cell_volume 2724.114947
_symmetry_space_group_name_H-M "P N N M"
_symmetry_group_IT_number 58
_symmetry_cell_setting 'orthorhombic'
loop_
_space_group_symop_operation_xyz
x,y,z
-x,-y,z
1/2+x,1/2-y,1/2-z
1/2-x,1/2+y,1/2-z
-x,-y,-z
x,y,-z
1/2-x,1/2+y,1/2+z
1/2+x,1/2-y,1/2+z
loop_
_atom_site_type_symbol
_atom_site_label
_atom_site_fract_x
_atom_site_fract_y
_atom_site_fract_z
Si Si1 0.585652 0.803114 0.185702
Si Si2 0.795977 0.416503 0.185083
Si Si3 0.802876 0.585605 0.814286
Si Si4 0.689383 0.689493 0.316650
Si Si5 0.416482 0.796227 0.185078
Si Si6 0.803287 0.803182 0.816788
O O1 0.632043 0.867459 0.272636
O O2 0.614208 0.720490 0.234837
O O3 0.500576 0.811108 0.241143
O O4 0.595689 0.814267 0.000000
O O5 0.810732 0.500567 0.241278
O O6 0.720524 0.387462 0.273364
O O7 0.780783 0.413734 0.000000
O O8 0.720269 0.614300 0.765179
O O9 0.867330 0.631895 0.727430
O O10 0.814051 0.595557 0.000000
O O11 0.674249 0.674380 0.500000
O O12 0.752155 0.752139 0.294690
O O13 0.387565 0.720760 0.273398
O O14 0.413672 0.781030 0.000000
O O15 0.787087 0.787030 0.000000
#
# Coordination Sequence:
#
# PCOD8235476 Si02
#       6
#     8   8   8   8   8   8
#     4  10  20  33  50  72  99 130 162 198 240 286
#     4  10  20  33  50  72  99 130 162 198 240 286
#     4  10  20  33  50  72  99 130 162 198 240 286
#     4  10  18  30  50  71  94 125 162 202 238 280
#     4  10  20  33  50  72  99 130 162 198 240 286
#     4  10  18  30  50  71  94 125 162 202 238 280
#
# _framework density 17.620403
#
# number of rings (size 3 to 8) (size 9 to 14) (size 15 to 20)
#    0.000    2.000    0.000    9.000    0.000    6.000 
#    0.000    3.333    0.000    1.000    0.000    7.000 
#    0.000    0.000    0.000    0.000    0.000    0.000 
#
# Total GULP energy -595020.260890 kJ/mol
# GULP energy per Si atom -12396.255435 kJ/mol
# Density = 1.758030 g / cm^3
# Si number density = 17.620403 Si / 1000 Ang^3
#
#
#
# Elastic Constant Matrix: (Units=GPa)
#
#
# Indices 1 2 3 4 5 6 
#
# 1 87.8776 79.4450 22.0241 0.0000 0.0000 0.0000
# 2 79.4450 88.8264 22.0770 0.0000 0.0000 0.0000
# 3 22.0241 22.0770 43.9318 0.0000 0.0000 0.0000
# 4 0.0000 0.0000 0.0000 26.1671 0.0000 0.0000
# 5 0.0000 0.0000 0.0000 0.0000 26.1472 0.0000
# 6 0.0000 0.0000 0.0000 0.0000 0.0000 19.7613
#
#
#
# Elastic Compliance Matrix: (Units=1/GPa)
#
#
# Indices 1 2 3 4 5 6 
#
# 1 0.059922 -0.052711 -0.003552 0.000000 0.000000 0.000000
# 2 -0.052711 0.059232 -0.003341 0.000000 0.000000 0.000000
# 3 -0.003552 -0.003341 0.026222 0.000000 0.000000 0.000000
# 4 0.000000 0.000000 0.000000 0.038216 0.000000 0.000000
# 5 0.000000 0.000000 0.000000 0.000000 0.038245 0.000000
# 6 0.000000 0.000000 0.000000 0.000000 0.000000 0.050604
#
#
# Mechanical properties :
#
#
# Convention : Reuss Voigt Hill
#
# Bulk Modulus (GPa) = 38.21202 51.96977 45.09089
# Shear Modulus (GPa) = 12.48842 20.88778 16.68810
#
# Velocity S-wave (km/s) = 2.66512 3.44674 3.08082
# Velocity P-wave (km/s) = 5.58604 6.73782 6.18878
#
# Compressibility (1/GPa) = 0.02616978
#
# Stress axis : x y z
#
# Youngs Moduli (GPa) = 16.68823 16.88276 38.13613
#
# Poissons Ratio (x) = 0.88991 0.13545
# Poissons Ratio (y) = 0.87965 0.12740
# Poissons Ratio (z) = 0.05927 0.05640
#
# Static dielectric constant tensor:
#      x y z
#    x 3.480490 0.000000 0.000000 
#    y 0.000000 3.482520 0.000000 
#    z 0.000000 0.000000 3.288650 
# 
# 
# High freq. dielectric constant tensor:
#      x y z
#    x 1.664440 0.000000 0.000000 
#    y 0.000000 1.664560 0.000000 
#    z 0.000000 0.000000 1.698500 
# 
# From -- ./inp_files/7856.got.cif
#   From: 2010.06.25/outbox.cif.g09.slc.cpg/sg58_4_cif.got.tgz:7856.got - 2010.06.26 21:38:00.
