data_PCOD8235256
_publ_section_title
;
Structure prediction by ZEFSAII (Michael W. Deem and Ramdas Pophale) SiO2 
 PCOD8235256
Probable space group: P N N M
;
_chemical_formula_sum "Si O2"
_cell_formula_units_Z 48
_cell_length_a 20.411569
_cell_length_b 9.075829
_cell_length_c 14.584828
_cell_angle_alpha 90.000000
_cell_angle_beta 90.000000
_cell_angle_gamma 90.000000
_cell_volume 2701.867242
_symmetry_space_group_name_H-M "P N N M"
_symmetry_group_IT_number 58
_symmetry_cell_setting 'orthorhombic'
loop_
_space_group_symop_operation_xyz
x,y,z
-x,-y,z
1/2+x,1/2-y,1/2-z
1/2-x,1/2+y,1/2-z
-x,-y,-z
x,y,-z
1/2-x,1/2+y,1/2+z
1/2+x,1/2-y,1/2+z
loop_
_atom_site_type_symbol
_atom_site_label
_atom_site_fract_x
_atom_site_fract_y
_atom_site_fract_z
Si Si1 0.083964 0.354626 0.810475
Si Si2 0.205284 0.392720 0.301752
Si Si3 0.357482 0.887425 0.500000
Si Si4 0.680158 0.767176 0.197644
Si Si5 0.249955 0.905282 0.000000
Si Si6 0.383703 0.231323 0.500000
Si Si7 0.776202 0.260172 0.500000
Si Si8 0.941564 0.300276 0.189786
O O1 0.139695 0.313474 0.736246
O O2 0.109156 0.312463 0.911749
O O3 0.068360 0.526048 0.809911
O O4 0.017555 0.264144 0.786806
O O5 0.268812 0.338028 0.248163
O O6 0.200992 0.565934 0.280989
O O7 0.210056 0.355479 0.409659
O O8 0.280218 0.860671 0.500000
O O9 0.362281 0.062443 0.500000
O O10 0.678411 0.737767 0.088983
O O11 0.607480 0.730205 0.235317
O O12 0.178910 0.835227 0.000000
O O13 0.241322 0.080904 0.000000
O O14 0.426370 0.266403 0.410264
#
# Coordination Sequence:
#
# PCOD8235256 Si02
#       8
#     8   8   4   8   4   4   4   8
#     4   9  17  29  47  72  98 124 159 201 240 280
#     4  10  19  32  50  71  97 128 161 197 238 284
#     4  10  17  28  50  75  95 122 160 200 239 284
#     4  10  19  32  50  71  97 128 161 197 238 284
#     4  10  20  31  46  73 104 125 152 200 246 282
#     4  10  17  28  50  75  95 122 160 200 239 284
#     4  10  20  31  46  73 104 125 152 200 246 282
#     4   9  17  29  47  72  98 124 159 201 240 280
#
# _framework density 17.765492999999999
#
# number of rings (size 3 to 8) (size 9 to 14) (size 15 to 20)
#    0.000    2.333    3.333    0.500    0.000    2.000 
#    0.000    0.833    0.000   10.000    0.000    0.000 
#    0.000    4.000    0.000    0.000    0.000    0.000 
#
# Total GULP energy -595072.062724 kJ/mol
# GULP energy per Si atom -12397.334640 kJ/mol
# Density = 1.772506 g / cm^3
# Si number density = 17.765493 Si / 1000 Ang^3
#
#
#
# Elastic Constant Matrix: (Units=GPa)
#
#
# Indices 1 2 3 4 5 6 
#
# 1 54.4937 -7.3480 27.0559 0.0000 0.0000 0.0000
# 2 -7.3480 10.1857 8.4214 0.0000 0.0000 0.0000
# 3 27.0559 8.4214 120.2902 0.0000 0.0000 0.0000
# 4 0.0000 0.0000 0.0000 14.9023 0.0000 0.0000
# 5 0.0000 0.0000 0.0000 0.0000 26.9370 0.0000
# 6 0.0000 0.0000 0.0000 0.0000 0.0000 20.3629
#
#
#
# Elastic Compliance Matrix: (Units=1/GPa)
#
#
# Indices 1 2 3 4 5 6 
#
# 1 0.025312 0.024378 -0.007400 0.000000 0.000000 0.000000
# 2 0.024378 0.127687 -0.014422 0.000000 0.000000 0.000000
# 3 -0.007400 -0.014422 0.010987 0.000000 0.000000 0.000000
# 4 0.000000 0.000000 0.000000 0.067104 0.000000 0.000000
# 5 0.000000 0.000000 0.000000 0.000000 0.037124 0.000000
# 6 0.000000 0.000000 0.000000 0.000000 0.000000 0.049109
#
#
# Mechanical properties :
#
#
# Convention : Reuss Voigt Hill
#
# Bulk Modulus (GPa) = 5.91372 26.80312 16.35842
# Shear Modulus (GPa) = 13.56567 22.89645 18.23106
#
# Velocity S-wave (km/s) = 2.76632 3.59390 3.20692
# Velocity P-wave (km/s) = 3.67959 5.68695 4.78962
#
# Compressibility (1/GPa) = 0.16909820
#
# Stress axis : x y z
#
# Youngs Moduli (GPa) = 39.50706 7.83163 91.01398
#
# Poissons Ratio (x) = -0.19092 0.67349
# Poissons Ratio (y) = -0.96311 1.31264
# Poissons Ratio (z) = 0.29235 0.11295
#
# Static dielectric constant tensor:
#      x y z
#    x 3.540620 0.000000 0.000000 
#    y 0.000000 2.952540 0.000000 
#    z 0.000000 0.000000 3.596450 
# 
# 
# High freq. dielectric constant tensor:
#      x y z
#    x 1.684850 0.000000 0.000000 
#    y 0.000000 1.647740 0.000000 
#    z 0.000000 0.000000 1.694630 
# 
# From -- ./inp_files/14550.got.cif
#   From: 2010.06.25/outbox.cif.g09.slc.cpg/sg58_8_cif.got.tgz:14550.got - 2010.06.26 21:38:00.
