data_PCOD8235033
_publ_section_title
;
Structure prediction by ZEFSAII (Michael W. Deem and Ramdas Pophale) SiO2 
 PCOD8235033
Probable space group: P B C M
;
_chemical_formula_sum "Si O2"
_cell_formula_units_Z 40
_cell_length_a 9.809018
_cell_length_b 22.505174
_cell_length_c 8.787141
_cell_angle_alpha 90.000000
_cell_angle_beta 90.000000
_cell_angle_gamma 90.000000
_cell_volume 1939.793509
_symmetry_space_group_name_H-M "P B C M"
_symmetry_group_IT_number 57
_symmetry_cell_setting 'orthorhombic'
loop_
_space_group_symop_operation_xyz
x,y,z
-x,-y,1/2+z
x,1/2-y,-z
-x,1/2+y,1/2-z
-x,-y,-z
x,y,1/2-z
-x,1/2+y,z
x,1/2-y,1/2+z
loop_
_atom_site_type_symbol
_atom_site_label
_atom_site_fract_x
_atom_site_fract_y
_atom_site_fract_z
Si Si1 0.255172 0.119703 0.425645
Si Si2 0.850495 0.502306 0.929406
Si Si3 0.973902 0.690755 0.923934
Si Si4 0.529648 0.187543 0.426210
Si Si5 0.236194 0.614138 0.923925
O O1 0.222900 0.105993 0.250000
O O2 0.229949 0.061248 0.524335
O O3 0.159661 0.172728 0.482988
O O4 0.409892 0.140017 0.449751
O O5 0.866968 0.500402 0.750000
O O6 0.758292 0.447308 0.984280
O O7 0.000000 0.500000 0.000000
O O8 0.933789 0.703462 0.750000
O O9 0.083154 0.638430 0.935042
O O10 0.035049 0.750000 0.000000
O O11 0.488107 0.250000 0.500000
O O12 0.561013 0.198496 0.250000
O O13 0.663977 0.162322 0.504812
O O14 0.278256 0.602247 0.750000
#
# Coordination Sequence:
#
# PCOD8235033 Si02
#       5
#     8   8   8   8   8
#     4  11  24  42  66  94 128 170 217 267 322 383
#     4  12  24  41  67  97 132 169 213 268 324 383
#     4  11  23  38  61  92 125 164 214 267 321 382
#     4  11  25  44  66  95 131 173 217 266 323 384
#     4  11  24  42  66  95 128 170 217 266 322 383
#
# _framework density 20.620752
#
# number of rings (size 3 to 8) (size 9 to 14) (size 15 to 20)
#    0.000    0.800    2.000    5.400    0.000    9.600 
#    0.000    0.000    0.000    0.000    0.000    0.000 
#    0.000    0.000    0.000    0.000    0.000    0.000 
#
# Total GULP energy -496336.178138 kJ/mol
# GULP energy per Si atom -12408.404453 kJ/mol
# Density = 2.057382 g / cm^3
# Si number density = 20.620752 Si / 1000 Ang^3
#
#
#
# Elastic Constant Matrix: (Units=GPa)
#
#
# Indices 1 2 3 4 5 6 
#
# 1 64.6237 12.0019 43.7027 0.0000 0.0000 0.0000
# 2 12.0019 118.8074 53.9846 0.0000 0.0000 0.0000
# 3 43.7027 53.9846 171.1902 0.0000 0.0000 0.0000
# 4 0.0000 0.0000 0.0000 43.1387 0.0000 0.0000
# 5 0.0000 0.0000 0.0000 0.0000 29.8848 0.0000
# 6 0.0000 0.0000 0.0000 0.0000 0.0000 33.8390
#
#
#
# Elastic Compliance Matrix: (Units=1/GPa)
#
#
# Indices 1 2 3 4 5 6 
#
# 1 0.018714 0.000327 -0.004881 0.000000 0.000000 0.000000
# 2 0.000327 0.009830 -0.003184 0.000000 0.000000 0.000000
# 3 -0.004881 -0.003184 0.008091 0.000000 0.000000 0.000000
# 4 0.000000 0.000000 0.000000 0.023181 0.000000 0.000000
# 5 0.000000 0.000000 0.000000 0.000000 0.033462 0.000000
# 6 0.000000 0.000000 0.000000 0.000000 0.000000 0.029552
#
#
# Mechanical properties :
#
#
# Convention : Reuss Voigt Hill
#
# Bulk Modulus (GPa) = 47.25476 63.77773 55.51624
# Shear Modulus (GPa) = 34.39774 37.70131 36.04952
#
# Velocity S-wave (km/s) = 4.08868 4.28052 4.18570
# Velocity P-wave (km/s) = 6.72723 7.44490 7.09515
#
# Compressibility (1/GPa) = 0.02116189
#
# Stress axis : x y z
#
# Youngs Moduli (GPa) = 53.43589 101.72423 123.58868
#
# Poissons Ratio (x) = -0.03329 0.60319
# Poissons Ratio (y) = -0.01749 0.39345
# Poissons Ratio (z) = 0.26080 0.32385
#
# Static dielectric constant tensor:
#      x y z
#    x 3.567880 0.000000 0.000000 
#    y 0.000000 3.806140 0.000000 
#    z 0.000000 0.000000 4.044550 
# 
# 
# High freq. dielectric constant tensor:
#      x y z
#    x 1.801040 0.000000 0.000000 
#    y 0.000000 1.821500 0.000000 
#    z 0.000000 0.000000 1.825940 
# 
# From -- ./inp_files/1510.got.cif
#   From: 2010.03.12/outbox.cif.g09.slc.cpg/sg57_1_cif.got.tgz:1510.got - 2010.04.16 15:48:40.
