data_PCOD8235896
_publ_section_title
;
Structure prediction by ZEFSAII (Michael W. Deem and Ramdas Pophale) SiO2 
 PCOD8235896
Probable space group: P N N M
;
_chemical_formula_sum "Si O2"
_cell_formula_units_Z 64
_cell_length_a 20.582535
_cell_length_b 18.630496
_cell_length_c 9.211820
_cell_angle_alpha 90.000000
_cell_angle_beta 90.000000
_cell_angle_gamma 90.000000
_cell_volume 3532.390622
_symmetry_space_group_name_H-M "P N N M"
_symmetry_group_IT_number 58
_symmetry_cell_setting 'orthorhombic'
loop_
_space_group_symop_operation_xyz
x,y,z
-x,-y,z
1/2+x,1/2-y,1/2-z
1/2-x,1/2+y,1/2-z
-x,-y,-z
x,y,-z
1/2-x,1/2+y,1/2+z
1/2+x,1/2-y,1/2+z
loop_
_atom_site_type_symbol
_atom_site_label
_atom_site_fract_x
_atom_site_fract_y
_atom_site_fract_z
Si Si1 0.936393 0.041453 0.827793
Si Si2 0.680128 0.955320 0.327679
Si Si3 0.936655 0.708840 0.827489
Si Si4 0.939040 0.203793 0.827197
Si Si5 0.939434 0.545945 0.172895
Si Si6 0.325855 0.542399 0.831642
Si Si7 0.174901 0.209510 0.331604
Si Si8 0.679298 0.796187 0.672376
O O1 0.941360 0.122643 0.769454
O O2 0.872812 0.005151 0.764400
O O3 0.931015 0.038685 0.000000
O O4 0.000000 0.000000 0.772016
O O5 0.676182 0.951777 0.500000
O O6 0.627339 0.011298 0.265862
O O7 0.752786 0.978590 0.282569
O O8 0.664683 0.875832 0.265782
O O9 0.944674 0.627407 0.771363
O O10 0.871174 0.741655 0.764577
O O11 0.998004 0.753973 0.769075
O O12 0.931964 0.711862 0.000000
O O13 0.874107 0.241402 0.764171
O O14 0.938383 0.205393 0.000000
O O15 0.000000 0.500000 0.233534
O O16 0.939749 0.544169 0.000000
O O17 0.339207 0.626011 0.801151
O O18 0.337162 0.524606 0.000000
O O19 0.163717 0.227427 0.500000
O O20 0.248430 0.228722 0.283111
O O21 0.674769 0.799201 0.500000
#
# Coordination Sequence:
#
# PCOD8235896 Si02
#       8
#     8   8   8   8   8   8   8   8
#     4  10  20  32  46  66  93 122 152 191 233 268
#     4   8  14  26  44  67  95 121 147 186 230 268
#     4  10  19  30  48  73  97 121 150 189 235 274
#     4   9  17  29  45  66  92 122 156 189 222 267
#     4   9  16  26  44  72 100 122 149 188 231 273
#     4   9  18  32  49  68  91 121 154 187 227 274
#     4   9  18  32  49  68  91 121 155 189 226 271
#     4   8  14  27  47  67  89 122 159 188 218 266
#
# _framework density 18.118041999999999
#
# number of rings (size 3 to 8) (size 9 to 14) (size 15 to 20)
#    0.000    3.000    0.000    3.000    0.000    5.750 
#    0.000    0.625    0.000    1.125    0.000    3.500 
#    0.000    0.000    0.000    0.000    0.000    0.000 
#
# Total GULP energy -793417.228306 kJ/mol
# GULP energy per Si atom -12397.144192 kJ/mol
# Density = 1.807680 g / cm^3
# Si number density = 18.118042 Si / 1000 Ang^3
#
#
#
# Elastic Constant Matrix: (Units=GPa)
#
#
# Indices 1 2 3 4 5 6 
#
# 1 165.6720 103.2508 22.4584 0.0000 0.0000 0.0000
# 2 103.2508 148.9647 22.7779 0.0000 0.0000 0.0000
# 3 22.4584 22.7779 13.2896 0.0000 0.0000 0.0000
# 4 0.0000 0.0000 0.0000 16.4281 0.0000 0.0000
# 5 0.0000 0.0000 0.0000 0.0000 19.3818 0.0000
# 6 0.0000 0.0000 0.0000 0.0000 0.0000 40.5664
#
#
#
# Elastic Compliance Matrix: (Units=1/GPa)
#
#
# Indices 1 2 3 4 5 6 
#
# 1 0.011165 -0.006577 -0.007594 0.000000 0.000000 0.000000
# 2 -0.006577 0.012972 -0.011118 0.000000 0.000000 0.000000
# 3 -0.007594 -0.011118 0.107137 0.000000 0.000000 0.000000
# 4 0.000000 0.000000 0.000000 0.060871 0.000000 0.000000
# 5 0.000000 0.000000 0.000000 0.000000 0.051595 0.000000
# 6 0.000000 0.000000 0.000000 0.000000 0.000000 0.024651
#
#
# Mechanical properties :
#
#
# Convention : Reuss Voigt Hill
#
# Bulk Modulus (GPa) = 12.39257 69.43342 40.91299
# Shear Modulus (GPa) = 14.45641 27.23787 20.84714
#
# Velocity S-wave (km/s) = 2.82778 3.88152 3.39577
# Velocity P-wave (km/s) = 4.18528 7.64815 6.16485
#
# Compressibility (1/GPa) = 0.08069353
#
# Stress axis : x y z
#
# Youngs Moduli (GPa) = 89.56922 77.08976 9.33388
#
# Poissons Ratio (x) = 0.50703 0.07088
# Poissons Ratio (y) = 0.58911 0.10378
# Poissons Ratio (z) = 0.68020 0.85711
#
# Static dielectric constant tensor:
#      x y z
#    x 3.589980 0.000000 0.000000 
#    y 0.000000 3.603400 0.000000 
#    z 0.000000 0.000000 2.733650 
# 
# 
# High freq. dielectric constant tensor:
#      x y z
#    x 1.719100 0.000000 0.000000 
#    y 0.000000 1.708670 0.000000 
#    z 0.000000 0.000000 1.637980 
# 
# From -- ./inp_files/9304.got.cif
#   From: 2010.06.25/outbox.cif.g09.slc.cpg/sg58_5_cif.got.tgz:9304.got - 2010.06.26 21:38:00.
