data_PCOD8235678
_publ_section_title
;
Structure prediction by ZEFSAII (Michael W. Deem and Ramdas Pophale) SiO2 
 PCOD8235678
Probable space group: P N N M
;
_chemical_formula_sum "Si O2"
_cell_formula_units_Z 44
_cell_length_a 12.860625
_cell_length_b 19.535860
_cell_length_c 8.910301
_cell_angle_alpha 90.000000
_cell_angle_beta 90.000000
_cell_angle_gamma 90.000000
_cell_volume 2238.654047
_symmetry_space_group_name_H-M "P N N M"
_symmetry_group_IT_number 58
_symmetry_cell_setting 'orthorhombic'
loop_
_space_group_symop_operation_xyz
x,y,z
-x,-y,z
1/2+x,1/2-y,1/2-z
1/2-x,1/2+y,1/2-z
-x,-y,-z
x,y,-z
1/2-x,1/2+y,1/2+z
1/2+x,1/2-y,1/2+z
loop_
_atom_site_type_symbol
_atom_site_label
_atom_site_fract_x
_atom_site_fract_y
_atom_site_fract_z
Si Si1 0.422100 0.857104 0.332682
Si Si2 0.792419 0.164290 0.176787
Si Si3 0.000000 0.500000 0.246102
Si Si4 0.389625 0.476236 0.678019
Si Si5 0.885851 0.297363 0.679269
Si Si6 0.705516 0.935411 0.166537
O O1 0.395205 0.830642 0.500000
O O2 0.321758 0.857929 0.227478
O O3 0.501905 0.803878 0.256833
O O4 0.469205 0.933502 0.350863
O O5 0.870618 0.102786 0.218766
O O6 0.829552 0.229027 0.270319
O O7 0.792229 0.180311 0.000000
O O8 0.099989 0.519997 0.344810
O O9 0.500000 0.500000 0.745946
O O10 0.387796 0.484746 0.500000
O O11 0.297896 0.523354 0.751164
O O12 0.900078 0.299580 0.500000
O O13 0.815976 0.361168 0.739505
O O14 0.745649 0.921831 0.000000
#
# Coordination Sequence:
#
# PCOD8235678 Si02
#       6
#     8   8   4   8   8   8
#     4  11  22  37  59  87 119 154 197 251 311 365
#     4  11  22  38  60  87 120 159 201 249 308 368
#     4  10  18  32  56  86 115 148 193 256 311 358
#     4   9  18  33  55  83 113 151 201 246 290 352
#     4  10  22  38  58  85 120 158 201 249 302 363
#     4   9  17  31  54  84 115 152 197 247 298 356
#
# _framework density 19.654667
#
# number of rings (size 3 to 8) (size 9 to 14) (size 15 to 20)
#    0.000    2.000    1.818    2.182    0.000    2.909 
#    0.000    3.636    0.000    2.182    0.000    0.000 
#    0.000    0.000    0.000    0.000    0.000    0.000 
#
# Total GULP energy -545345.340240 kJ/mol
# GULP energy per Si atom -12394.212278 kJ/mol
# Density = 1.960993 g / cm^3
# Si number density = 19.654667 Si / 1000 Ang^3
#
#
#
# Elastic Constant Matrix: (Units=GPa)
#
#
# Indices 1 2 3 4 5 6 
#
# 1 130.9028 64.0764 8.6909 0.0000 0.0000 0.0000
# 2 64.0764 123.9630 22.7689 0.0000 0.0000 0.0000
# 3 8.6909 22.7689 59.6192 0.0000 0.0000 0.0000
# 4 0.0000 0.0000 0.0000 19.6261 0.0000 0.0000
# 5 0.0000 0.0000 0.0000 0.0000 22.3132 0.0000
# 6 0.0000 0.0000 0.0000 0.0000 0.0000 31.2486
#
#
#
# Elastic Compliance Matrix: (Units=1/GPa)
#
#
# Indices 1 2 3 4 5 6 
#
# 1 0.010245 -0.005400 0.000569 0.000000 0.000000 0.000000
# 2 -0.005400 0.011522 -0.003613 0.000000 0.000000 0.000000
# 3 0.000569 -0.003613 0.018070 0.000000 0.000000 0.000000
# 4 0.000000 0.000000 0.000000 0.050953 0.000000 0.000000
# 5 0.000000 0.000000 0.000000 0.000000 0.044817 0.000000
# 6 0.000000 0.000000 0.000000 0.000000 0.000000 0.032001
#
#
# Mechanical properties :
#
#
# Convention : Reuss Voigt Hill
#
# Bulk Modulus (GPa) = 43.57634 56.17305 49.87469
# Shear Modulus (GPa) = 26.02201 29.23415 27.62808
#
# Velocity S-wave (km/s) = 3.64257 3.86085 3.75330
# Velocity P-wave (km/s) = 6.31746 6.96541 6.64933
#
# Compressibility (1/GPa) = 0.02294823
#
# Stress axis : x y z
#
# Youngs Moduli (GPa) = 97.61074 86.79186 55.34022
#
# Poissons Ratio (x) = 0.46868 -0.03148
# Poissons Ratio (y) = 0.52710 0.19995
# Poissons Ratio (z) = -0.05553 0.31358
#
# Static dielectric constant tensor:
#      x y z
#    x 3.820360 0.000000 0.000000 
#    y 0.000000 3.669590 0.000000 
#    z 0.000000 0.000000 3.185640 
# 
# 
# High freq. dielectric constant tensor:
#      x y z
#    x 1.769140 0.000000 0.000000 
#    y 0.000000 1.771700 0.000000 
#    z 0.000000 0.000000 1.734130 
# 
# From -- ./inp_files/5681.got.cif
#   From: 2010.06.25/outbox.cif.g09.slc.cpg/sg58_3_cif.got.tgz:5681.got - 2010.06.26 21:38:00.
