data_PCOD8235816
_publ_section_title
;
Structure prediction by ZEFSAII (Michael W. Deem and Ramdas Pophale) SiO2 
 PCOD8235816
Probable space group: P N N M
;
_chemical_formula_sum "Si O2"
_cell_formula_units_Z 64
_cell_length_a 17.632747
_cell_length_b 22.468664
_cell_length_c 9.169810
_cell_angle_alpha 90.000000
_cell_angle_beta 90.000000
_cell_angle_gamma 90.000000
_cell_volume 3632.934460
_symmetry_space_group_name_H-M "P N N M"
_symmetry_group_IT_number 58
_symmetry_cell_setting 'orthorhombic'
loop_
_space_group_symop_operation_xyz
x,y,z
-x,-y,z
1/2+x,1/2-y,1/2-z
1/2-x,1/2+y,1/2-z
-x,-y,-z
x,y,-z
1/2-x,1/2+y,1/2+z
1/2+x,1/2-y,1/2+z
loop_
_atom_site_type_symbol
_atom_site_label
_atom_site_fract_x
_atom_site_fract_y
_atom_site_fract_z
Si Si1 0.576606 0.220157 0.671421
Si Si2 0.786876 0.387908 0.330628
Si Si3 0.572702 0.848036 0.327931
Si Si4 0.071339 0.037521 0.671251
Si Si5 0.382503 0.651549 0.331001
Si Si6 0.344883 0.897627 0.668516
Si Si7 0.764022 0.001693 0.668397
Si Si8 0.979813 0.565496 0.342721
O O1 0.578515 0.227330 0.500000
O O2 0.491578 0.200260 0.720326
O O3 0.595569 0.284445 0.739260
O O4 0.642167 0.171687 0.716473
O O5 0.808535 0.395011 0.500000
O O6 0.846558 0.342536 0.253719
O O7 0.706642 0.356432 0.307816
O O8 0.784924 0.453906 0.260148
O O9 0.586294 0.847170 0.500000
O O10 0.540050 0.910681 0.274197
O O11 0.064955 0.048413 0.500000
O O12 0.069842 0.101617 0.747227
O O13 0.147700 0.001506 0.713442
O O14 0.000000 0.000000 0.729866
O O15 0.404702 0.646931 0.500000
O O16 0.369676 0.903198 0.500000
O O17 0.398014 0.936502 0.769998
O O18 0.262804 0.929172 0.693346
O O19 0.753340 0.983620 0.500000
O O20 0.979831 0.600453 0.500000
O O21 0.000000 0.500000 0.382600
#
# Coordination Sequence:
#
# PCOD8235816 Si02
#       8
#     8   8   8   8   8   8   8   8
#     4   8  16  32  50  67  90 124 165 202 234 278
#     4  10  19  30  47  72  98 123 156 201 249 291
#     4  10  19  31  48  67  91 125 162 198 233 280
#     4   9  18  33  52  76 103 126 156 204 254 292
#     4   9  18  34  54  72  94 128 165 200 242 294
#     4   9  17  29  46  66  89 123 163 195 228 278
#     4   9  17  30  49  71  96 128 162 196 239 293
#     4  10  19  28  40  62  93 124 152 189 234 273
#
# _framework density 17.616612
#
# number of rings (size 3 to 8) (size 9 to 14) (size 15 to 20)
#    0.000    2.750    0.000    2.625    0.000    4.250 
#    0.000    4.375    0.000    3.000    0.000    0.000 
#    0.000    0.000    0.000    0.000    0.000    0.000 
#
# Total GULP energy -792861.014361 kJ/mol
# GULP energy per Si atom -12388.453349 kJ/mol
# Density = 1.757652 g / cm^3
# Si number density = 17.616612 Si / 1000 Ang^3
#
#
#
# Elastic Constant Matrix: (Units=GPa)
#
#
# Indices 1 2 3 4 5 6 
#
# 1 97.7760 69.8530 36.2967 0.0000 0.0000 0.0000
# 2 69.8530 136.0850 39.3520 0.0000 0.0000 0.0000
# 3 36.2967 39.3520 60.7042 0.0000 0.0000 0.0000
# 4 0.0000 0.0000 0.0000 31.7246 0.0000 0.0000
# 5 0.0000 0.0000 0.0000 0.0000 95.5548 0.0000
# 6 0.0000 0.0000 0.0000 0.0000 0.0000 23.4008
#
#
#
# Elastic Compliance Matrix: (Units=1/GPa)
#
#
# Indices 1 2 3 4 5 6 
#
# 1 0.017647 -0.007393 -0.005759 0.000000 0.000000 0.000000
# 2 -0.007393 0.012141 -0.003450 0.000000 0.000000 0.000000
# 3 -0.005759 -0.003450 0.022153 0.000000 0.000000 0.000000
# 4 0.000000 0.000000 0.000000 0.031521 0.000000 0.000000
# 5 0.000000 0.000000 0.000000 0.000000 0.010465 0.000000
# 6 0.000000 0.000000 0.000000 0.000000 0.000000 0.042734
#
#
# Mechanical properties :
#
#
# Convention : Reuss Voigt Hill
#
# Bulk Modulus (GPa) = 53.36984 65.06317 59.21651
# Shear Modulus (GPa) = 28.39122 40.07362 34.23242
#
# Velocity S-wave (km/s) = 4.01885 4.77462 4.41294
# Velocity P-wave (km/s) = 7.20388 8.21030 7.72350
#
# Compressibility (1/GPa) = 0.01873717
#
# Stress axis : x y z
#
# Youngs Moduli (GPa) = 56.66688 82.36703 45.13994
#
# Poissons Ratio (x) = 0.60893 0.25997
# Poissons Ratio (y) = 0.41893 0.15573
# Poissons Ratio (z) = 0.32635 0.28416
#
# Static dielectric constant tensor:
#      x y z
#    x 3.385500 0.000000 0.000000 
#    y 0.000000 3.325720 0.000000 
#    z 0.000000 0.000000 3.263130 
# 
# 
# High freq. dielectric constant tensor:
#      x y z
#    x 1.673880 0.000000 0.000000 
#    y 0.000000 1.661640 0.000000 
#    z 0.000000 0.000000 1.678240 
# 
# From -- ./inp_files/8300.got.cif
#   From: 2010.06.25/outbox.cif.g09.slc.cpg/sg58_5_cif.got.tgz:8300.got - 2010.06.26 21:38:00.
