data_PCOD8235194
_publ_section_title
;
Structure prediction by ZEFSAII (Michael W. Deem and Ramdas Pophale) SiO2 
 PCOD8235194
Probable space group: P B C M
;
_chemical_formula_sum "Si O2"
_cell_formula_units_Z 48
_cell_length_a 15.000000
_cell_length_b 18.000000
_cell_length_c 9.000000
_cell_angle_alpha 90.000000
_cell_angle_beta 90.000000
_cell_angle_gamma 90.000000
_cell_volume 2430.000000
_symmetry_space_group_name_H-M "P B C M"
_symmetry_group_IT_number 57
_symmetry_cell_setting 'orthorhombic'
loop_
_space_group_symop_operation_xyz
x,y,z
-x,-y,1/2+z
x,1/2-y,-z
-x,1/2+y,1/2-z
-x,-y,-z
x,y,1/2-z
-x,1/2+y,z
x,1/2-y,1/2+z
loop_
_atom_site_type_symbol
_atom_site_label
_atom_site_fract_x
_atom_site_fract_y
_atom_site_fract_z
Si Si1 0.374434 0.944051 0.423972
Si Si2 0.981583 0.172678 0.927442
Si Si3 0.435901 0.410906 0.418685
Si Si4 0.269053 0.325110 0.078902
Si Si5 0.130334 0.421920 0.576621
Si Si6 0.183854 0.586918 0.577994
O O1 0.357416 0.951170 0.250000
O O2 0.460895 0.892818 0.462279
O O3 0.282964 0.911592 0.497384
O O4 0.394196 0.026448 0.478691
O O5 0.988773 0.177265 0.750000
O O6 0.881644 0.151166 0.983409
O O7 0.009842 0.250000 0.000000
O O8 0.047590 0.109724 0.985718
O O9 0.433404 0.441103 0.250000
O O10 0.375860 0.337201 0.434392
O O11 0.237876 0.322650 0.250000
O O12 0.240374 0.250000 0.000000
O O13 0.221531 0.391366 0.992587
O O14 0.123261 0.400735 0.750000
O O15 0.133108 0.509694 0.551442
O O16 0.197043 0.602209 0.750000
#
# Coordination Sequence:
#
# PCOD8235194 Si02
#       6
#     8   8   8   8   8   8
#     4   9  16  32  56  80 106 138 174 218 267 319
#     4  11  23  40  57  79 110 146 182 223 273 328
#     4   9  18  31  51  79 109 139 176 219 266 315
#     4  11  22  35  51  78 113 150 185 226 274 327
#     4  11  21  37  59  84 107 139 182 228 279 331
#     4   9  19  35  59  85 109 140 181 224 273 325
#
# _framework density 19.753086
#
# number of rings (size 3 to 8) (size 9 to 14) (size 15 to 20)
#    0.000    2.000    1.667    2.500    0.000    0.667 
#    0.000    5.000    0.000    0.000    0.000    0.000 
#    0.000    0.000    0.000    0.000    0.000    0.000 
#
# Total GULP energy -594853.803248 kJ/mol
# GULP energy per Si atom -12392.787568 kJ/mol
# Density = 1.970813 g / cm^3
# Si number density = 19.753086 Si / 1000 Ang^3
#
#
#
# Elastic Constant Matrix: (Units=GPa)
#
#
# Indices 1 2 3 4 5 6 
#
# 1 138.0491 18.3329 22.9545 0.0000 0.0000 0.0000
# 2 18.3329 24.2700 23.1176 0.0000 0.0000 0.0000
# 3 22.9545 23.1176 67.6287 0.0000 0.0000 0.0000
# 4 0.0000 0.0000 0.0000 15.8023 0.0000 0.0000
# 5 0.0000 0.0000 0.0000 0.0000 21.9036 0.0000
# 6 0.0000 0.0000 0.0000 0.0000 0.0000 14.4673
#
#
#
# Elastic Compliance Matrix: (Units=1/GPa)
#
#
# Indices 1 2 3 4 5 6 
#
# 1 0.008095 -0.005186 -0.000975 0.000000 0.000000 0.000000
# 2 -0.005186 0.064418 -0.020260 0.000000 0.000000 0.000000
# 3 -0.000975 -0.020260 0.022043 0.000000 0.000000 0.000000
# 4 0.000000 0.000000 0.000000 0.063282 0.000000 0.000000
# 5 0.000000 0.000000 0.000000 0.000000 0.045655 0.000000
# 6 0.000000 0.000000 0.000000 0.000000 0.000000 0.069121
#
#
# Mechanical properties :
#
#
# Convention : Reuss Voigt Hill
#
# Bulk Modulus (GPa) = 23.97247 39.86198 31.91723
# Shear Modulus (GPa) = 14.73362 21.47084 18.10223
#
# Velocity S-wave (km/s) = 2.73406 3.30049 3.03054
# Velocity P-wave (km/s) = 4.70417 5.89476 5.33280
#
# Compressibility (1/GPa) = 0.04171452
#
# Stress axis : x y z
#
# Youngs Moduli (GPa) = 123.53967 15.52353 45.36593
#
# Poissons Ratio (x) = 0.08050 0.04422
# Poissons Ratio (y) = 0.64067 0.91911
# Poissons Ratio (z) = 0.12042 0.31451
#
# Static dielectric constant tensor:
#      x y z
#    x 4.247280 0.000000 0.000000 
#    y 0.000000 2.952400 0.000000 
#    z 0.000000 0.000000 3.516260 
# 
# 
# High freq. dielectric constant tensor:
#      x y z
#    x 1.793150 0.000000 0.000000 
#    y 0.000000 1.734370 0.000000 
#    z 0.000000 0.000000 1.757740 
# 
# From -- ./inp_files/4568.got.cif
#   From: 2010.03.12/outbox.ucp.g09.slc.cvg/sg57_3_cif.got.tgz:4568.got - 2010.05.04 19:26:41.
