data_PCOD8235333
_publ_section_title
;
Structure prediction by ZEFSAII (Michael W. Deem and Ramdas Pophale) SiO2 
 PCOD8235333
Probable space group: P N N M
;
_chemical_formula_sum "Si O2"
_cell_formula_units_Z 64
_cell_length_a 26.229730
_cell_length_b 18.606574
_cell_length_c 8.790919
_cell_angle_alpha 90.000000
_cell_angle_beta 90.000000
_cell_angle_gamma 90.000000
_cell_volume 4290.367687
_symmetry_space_group_name_H-M "P N N M"
_symmetry_group_IT_number 58
_symmetry_cell_setting 'orthorhombic'
loop_
_space_group_symop_operation_xyz
x,y,z
-x,-y,z
1/2+x,1/2-y,1/2-z
1/2-x,1/2+y,1/2-z
-x,-y,-z
x,y,-z
1/2-x,1/2+y,1/2+z
1/2+x,1/2-y,1/2+z
loop_
_atom_site_type_symbol
_atom_site_label
_atom_site_fract_x
_atom_site_fract_y
_atom_site_fract_z
Si Si1 0.195192 0.200259 0.833889
Si Si2 0.301539 0.280509 0.833260
Si Si3 0.253653 0.070225 0.818944
Si Si4 0.254518 0.917614 0.679512
Si Si5 0.447716 0.074098 0.321950
Si Si6 0.143390 0.337396 0.182077
Si Si7 0.654975 0.848725 0.675500
Si Si8 0.553846 0.077654 0.180235
O O1 0.247697 0.242498 0.851876
O O2 0.155659 0.255995 0.755395
O O3 0.209348 0.124477 0.751704
O O4 0.172797 0.182389 0.000000
O O5 0.289469 0.360678 0.770694
O O6 0.337773 0.234703 0.722185
O O7 0.327666 0.284639 0.000000
O O8 0.241272 0.990949 0.763788
O O9 0.309117 0.096334 0.765879
O O10 0.253122 0.073746 0.000000
O O11 0.252951 0.929991 0.500000
O O12 0.310608 0.890628 0.728522
O O13 0.460138 0.067153 0.500000
O O14 0.403302 0.131113 0.290120
O O15 0.497532 0.101299 0.232846
O O16 0.430212 0.996630 0.260155
O O17 0.092565 0.360921 0.267296
O O18 0.136244 0.337285 0.000000
O O19 0.668609 0.858080 0.500000
O O20 0.555126 0.067889 0.000000
#
# Coordination Sequence:
#
# PCOD8235333 Si02
#       8
#     8   8   8   8   8   8   8   8
#     4   7  13  26  41  56  75 105 140 166 193 235
#     4   8  15  28  43  58  80 108 136 167 203 241
#     4  10  18  27  41  61  85 112 140 170 204 239
#     4   9  17  28  42  61  84 112 142 168 199 242
#     4  10  20  33  45  57  78 110 141 166 200 244
#     4   9  16  29  45  56  76 111 143 167 197 242
#     4  10  19  29  43  61  80 106 141 174 203 241
#     4  11  21  30  42  62  83 102 133 176 211 236
#
# _framework density 14.917135999999999
#
# number of rings (size 3 to 8) (size 9 to 14) (size 15 to 20)
#    0.000    2.750    0.000    6.000    0.000    6.000 
#    0.000    5.625    0.000    0.000    0.000    0.000 
#    0.000    1.000    0.000   11.250    0.000    5.625 
#
# Total GULP energy -793000.811225 kJ/mol
# GULP energy per Si atom -12390.637675 kJ/mol
# Density = 1.488318 g / cm^3
# Si number density = 14.917136 Si / 1000 Ang^3
#
#
#
# Elastic Constant Matrix: (Units=GPa)
#
#
# Indices 1 2 3 4 5 6 
#
# 1 67.4565 50.2311 26.1730 0.0000 0.0000 0.0000
# 2 50.2311 117.2051 33.4703 0.0000 0.0000 0.0000
# 3 26.1730 33.4703 49.4657 0.0000 0.0000 0.0000
# 4 0.0000 0.0000 0.0000 16.2645 0.0000 0.0000
# 5 0.0000 0.0000 0.0000 0.0000 17.6300 0.0000
# 6 0.0000 0.0000 0.0000 0.0000 0.0000 26.2801
#
#
#
# Elastic Compliance Matrix: (Units=1/GPa)
#
#
# Indices 1 2 3 4 5 6 
#
# 1 0.023572 -0.008107 -0.006987 0.000000 0.000000 0.000000
# 2 -0.008107 0.013364 -0.004753 0.000000 0.000000 0.000000
# 3 -0.006987 -0.004753 0.027129 0.000000 0.000000 0.000000
# 4 0.000000 0.000000 0.000000 0.061483 0.000000 0.000000
# 5 0.000000 0.000000 0.000000 0.000000 0.056722 0.000000
# 6 0.000000 0.000000 0.000000 0.000000 0.000000 0.038052
#
#
# Mechanical properties :
#
#
# Convention : Reuss Voigt Hill
#
# Bulk Modulus (GPa) = 41.03201 50.43069 45.73135
# Shear Modulus (GPa) = 18.64706 20.31846 19.48276
#
# Velocity S-wave (km/s) = 3.53943 3.69465 3.61787
# Velocity P-wave (km/s) = 6.65355 7.21673 6.94086
#
# Compressibility (1/GPa) = 0.02437121
#
# Stress axis : x y z
#
# Youngs Moduli (GPa) = 42.42279 74.82855 36.86130
#
# Poissons Ratio (x) = 0.60665 0.25754
# Poissons Ratio (y) = 0.34393 0.17519
# Poissons Ratio (z) = 0.29640 0.35565
#
# Static dielectric constant tensor:
#      x y z
#    x 2.722170 0.000000 0.000000 
#    y 0.000000 3.189050 0.000000 
#    z 0.000000 0.000000 2.825440 
# 
# 
# High freq. dielectric constant tensor:
#      x y z
#    x 1.536260 0.000000 0.000000 
#    y 0.000000 1.566110 0.000000 
#    z 0.000000 0.000000 1.568060 
# 
# From -- ./inp_files/10544.got.cif
#   From: 2010.06.25/outbox.cif.g09.slc.cpg/sg58_6_cif.got.tgz:10544.got - 2010.06.26 21:38:00.
