data_PCOD8235640
_publ_section_title
;
Structure prediction by ZEFSAII (Michael W. Deem and Ramdas Pophale) SiO2 
 PCOD8235640
Probable space group: P N N M
;
_chemical_formula_sum "Si O2"
_cell_formula_units_Z 40
_cell_length_a 18.554727
_cell_length_b 13.646489
_cell_length_c 8.800559
_cell_angle_alpha 90.000000
_cell_angle_beta 90.000000
_cell_angle_gamma 90.000000
_cell_volume 2228.362068
_symmetry_space_group_name_H-M "P N N M"
_symmetry_group_IT_number 58
_symmetry_cell_setting 'orthorhombic'
loop_
_space_group_symop_operation_xyz
x,y,z
-x,-y,z
1/2+x,1/2-y,1/2-z
1/2-x,1/2+y,1/2-z
-x,-y,-z
x,y,-z
1/2-x,1/2+y,1/2+z
1/2+x,1/2-y,1/2+z
loop_
_atom_site_type_symbol
_atom_site_label
_atom_site_fract_x
_atom_site_fract_y
_atom_site_fract_z
Si Si1 0.993497 0.386371 0.322035
Si Si2 0.858758 0.713845 0.679826
Si Si3 0.717921 0.608202 0.322540
Si Si4 0.148393 0.695045 0.177671
Si Si5 0.711429 0.392035 0.320085
O O1 0.978285 0.372249 0.500000
O O2 0.930050 0.338140 0.227027
O O3 0.000000 0.500000 0.279980
O O4 0.065926 0.332191 0.268828
O O5 0.853492 0.723089 0.500000
O O6 0.794515 0.645340 0.744806
O O7 0.849475 0.822305 0.748505
O O8 0.729663 0.594583 0.500000
O O9 0.656528 0.688739 0.286350
O O10 0.696046 0.502068 0.256926
O O11 0.207994 0.635525 0.270245
O O12 0.160592 0.674940 0.000000
O O13 0.705775 0.384798 0.500000
#
# Coordination Sequence:
#
# PCOD8235640 Si02
#       5
#     8   8   8   8   8
#     4  10  20  35  54  74 100 134 166 199 247 303
#     4   9  18  33  51  73 101 128 161 206 248 286
#     4   8  16  32  52  71  95 131 166 198 240 292
#     4  10  20  34  51  74 103 130 164 208 248 287
#     4  10  18  32  54  75  97 130 170 203 243 299
#
# _framework density 17.950403999999999
#
# number of rings (size 3 to 8) (size 9 to 14) (size 15 to 20)
#    0.000    2.600    0.000    3.600    0.000    4.400 
#    0.000   15.000    0.000    6.000    0.000    0.000 
#    0.000    0.000    0.000    0.000    0.000    0.000 
#
# Total GULP energy -495907.387338 kJ/mol
# GULP energy per Si atom -12397.684683 kJ/mol
# Density = 1.790955 g / cm^3
# Si number density = 17.950404 Si / 1000 Ang^3
#
#
#
# Elastic Constant Matrix: (Units=GPa)
#
#
# Indices 1 2 3 4 5 6 
#
# 1 100.1030 55.8480 21.5417 0.0000 0.0000 0.0000
# 2 55.8480 157.3481 26.0701 0.0000 0.0000 0.0000
# 3 21.5417 26.0701 31.3698 0.0000 0.0000 0.0000
# 4 0.0000 0.0000 0.0000 26.9012 0.0000 0.0000
# 5 0.0000 0.0000 0.0000 0.0000 2.3464 0.0000
# 6 0.0000 0.0000 0.0000 0.0000 0.0000 25.2383
#
#
#
# Elastic Compliance Matrix: (Units=1/GPa)
#
#
# Indices 1 2 3 4 5 6 
#
# 1 0.013387 -0.003744 -0.006082 0.000000 0.000000 0.000000
# 2 -0.003744 0.008417 -0.004424 0.000000 0.000000 0.000000
# 3 -0.006082 -0.004424 0.039731 0.000000 0.000000 0.000000
# 4 0.000000 0.000000 0.000000 0.037173 0.000000 0.000000
# 5 0.000000 0.000000 0.000000 0.000000 0.426179 0.000000
# 6 0.000000 0.000000 0.000000 0.000000 0.000000 0.039622
#
#
# Mechanical properties :
#
#
# Convention : Reuss Voigt Hill
#
# Bulk Modulus (GPa) = 30.27025 55.08227 42.67626
# Shear Modulus (GPa) = 8.27786 23.25459 15.76623
#
# Velocity S-wave (km/s) = 2.14977 3.60320 2.96686
# Velocity P-wave (km/s) = 4.80228 6.93276 5.96343
#
# Compressibility (1/GPa) = 0.03303574
#
# Stress axis : x y z
#
# Youngs Moduli (GPa) = 74.69817 118.80432 25.16939
#
# Poissons Ratio (x) = 0.44480 0.15307
# Poissons Ratio (y) = 0.27967 0.11135
# Poissons Ratio (z) = 0.45428 0.52561
#
# Static dielectric constant tensor:
#      x y z
#    x 3.242340 0.000000 0.000000 
#    y 0.000000 3.695660 0.000000 
#    z 0.000000 0.000000 3.121230 
# 
# 
# High freq. dielectric constant tensor:
#      x y z
#    x 1.681980 0.000000 0.000000 
#    y 0.000000 1.707950 0.000000 
#    z 0.000000 0.000000 1.679530 
# 
# From -- ./inp_files/5551.got.cif
#   From: 2010.06.25/outbox.cif.g09.slc.cpg/sg58_3_cif.got.tgz:5551.got - 2010.06.26 21:38:00.
