data_PCOD8235387
_publ_section_title
;
Structure prediction by ZEFSAII (Michael W. Deem and Ramdas Pophale) SiO2 
 PCOD8235387
Probable space group: P N N M
;
_chemical_formula_sum "Si O2"
_cell_formula_units_Z 64
_cell_length_a 21.615660
_cell_length_b 19.120534
_cell_length_c 8.830729
_cell_angle_alpha 90.000000
_cell_angle_beta 90.000000
_cell_angle_gamma 90.000000
_cell_volume 3649.766452
_symmetry_space_group_name_H-M "P N N M"
_symmetry_group_IT_number 58
_symmetry_cell_setting 'orthorhombic'
loop_
_space_group_symop_operation_xyz
x,y,z
-x,-y,z
1/2+x,1/2-y,1/2-z
1/2-x,1/2+y,1/2-z
-x,-y,-z
x,y,-z
1/2-x,1/2+y,1/2+z
1/2+x,1/2-y,1/2+z
loop_
_atom_site_type_symbol
_atom_site_label
_atom_site_fract_x
_atom_site_fract_y
_atom_site_fract_z
Si Si1 0.014123 0.423337 0.821555
Si Si2 0.904637 0.326267 0.818858
Si Si3 0.195798 0.578536 0.677979
Si Si4 0.813691 0.973151 0.323347
Si Si5 0.768343 0.106690 0.828803
Si Si6 0.889983 0.173593 0.827439
Si Si7 0.067808 0.976263 0.819960
Si Si8 0.861420 0.571542 0.671649
O O1 0.083036 0.400978 0.775226
O O2 0.000000 0.500000 0.752734
O O3 0.964149 0.368591 0.757491
O O4 0.009362 0.425232 0.000000
O O5 0.842245 0.359109 0.753616
O O6 0.911770 0.246860 0.754055
O O7 0.900007 0.327257 0.000000
O O8 0.199336 0.590494 0.500000
O O9 0.265564 0.580513 0.744887
O O10 0.161961 0.505530 0.719389
O O11 0.817638 0.956100 0.500000
O O12 0.788086 0.050742 0.295903
O O13 0.882575 0.969563 0.251213
O O14 0.814640 0.172137 0.813179
O O15 0.696049 0.125833 0.805121
O O16 0.775162 0.073832 0.000000
O O17 0.920078 0.103030 0.756680
O O18 0.911477 0.175060 0.000000
O O19 0.075705 0.978501 0.000000
O O20 0.000000 0.000000 0.767669
O O21 0.885332 0.571322 0.500000
#
# Coordination Sequence:
#
# PCOD8235387 Si02
#       8
#     8   8   8   8   8   8   8   8
#     4  10  19  29  42  66  99 130 163 200 236 283
#     4  10  19  31  48  69  95 132 169 203 248 299
#     4  10  19  31  47  69  96 126 162 205 246 292
#     4  10  18  28  47  75 101 123 152 199 250 294
#     4   8  15  30  49  70  92 119 157 200 241 292
#     4   8  15  30  52  73  94 124 164 204 245 300
#     4   9  17  32  55  78  99 130 168 205 247 300
#     4   9  17  28  46  68  90 119 158 200 239 278
#
# _framework density 17.535368999999999
#
# number of rings (size 3 to 8) (size 9 to 14) (size 15 to 20)
#    0.000    2.750    1.250    3.000    0.000    3.000 
#    0.000    2.500    2.750    0.000    0.000    0.000 
#    0.000    0.000    0.000    0.000    0.000    0.000 
#
# Total GULP energy -793040.030587 kJ/mol
# GULP energy per Si atom -12391.250478 kJ/mol
# Density = 1.749546 g / cm^3
# Si number density = 17.535369 Si / 1000 Ang^3
#
#
#
# Elastic Constant Matrix: (Units=GPa)
#
#
# Indices 1 2 3 4 5 6 
#
# 1 156.2492 58.3603 29.8066 0.0000 0.0000 0.0000
# 2 58.3603 87.6501 16.0253 0.0000 0.0000 0.0000
# 3 29.8066 16.0253 39.9051 0.0000 0.0000 0.0000
# 4 0.0000 0.0000 0.0000 11.9042 0.0000 0.0000
# 5 0.0000 0.0000 0.0000 0.0000 27.0359 0.0000
# 6 0.0000 0.0000 0.0000 0.0000 0.0000 22.8179
#
#
#
# Elastic Compliance Matrix: (Units=1/GPa)
#
#
# Indices 1 2 3 4 5 6 
#
# 1 0.009303 -0.005314 -0.004815 0.000000 0.000000 0.000000
# 2 -0.005314 0.015349 -0.002194 0.000000 0.000000 0.000000
# 3 -0.004815 -0.002194 0.029537 0.000000 0.000000 0.000000
# 4 0.000000 0.000000 0.000000 0.084004 0.000000 0.000000
# 5 0.000000 0.000000 0.000000 0.000000 0.036988 0.000000
# 6 0.000000 0.000000 0.000000 0.000000 0.000000 0.043825
#
#
# Mechanical properties :
#
#
# Convention : Reuss Voigt Hill
#
# Bulk Modulus (GPa) = 33.85005 54.68763 44.26884
# Shear Modulus (GPa) = 19.72379 24.32574 22.02477
#
# Velocity S-wave (km/s) = 3.35744 3.72861 3.54788
# Velocity P-wave (km/s) = 5.86308 7.05630 6.48718
#
# Compressibility (1/GPa) = 0.02954205
#
# Stress axis : x y z
#
# Youngs Moduli (GPa) = 107.48704 65.15263 33.85562
#
# Poissons Ratio (x) = 0.34623 0.16301
# Poissons Ratio (y) = 0.57121 0.07429
# Poissons Ratio (z) = 0.51755 0.14297
#
# Static dielectric constant tensor:
#      x y z
#    x 3.495050 0.000000 0.000000 
#    y 0.000000 3.135730 0.000000 
#    z 0.000000 0.000000 3.005170 
# 
# 
# High freq. dielectric constant tensor:
#      x y z
#    x 1.687650 0.000000 0.000000 
#    y 0.000000 1.635610 0.000000 
#    z 0.000000 0.000000 1.658000 
# 
# From -- ./inp_files/9444.got.cif
#   From: 2010.06.25/outbox.cif.g09.slc.cpg/sg58_5_cif.got.tgz:9444.got - 2010.06.26 21:38:00.
