data_PCOD8235607
_publ_section_title
;
Structure prediction by ZEFSAII (Michael W. Deem and Ramdas Pophale) SiO2 
 PCOD8235607
Probable space group: P N N M
;
_chemical_formula_sum "Si O2"
_cell_formula_units_Z 52
_cell_length_a 5.297330
_cell_length_b 19.379737
_cell_length_c 27.870416
_cell_angle_alpha 90.000000
_cell_angle_beta 90.000000
_cell_angle_gamma 90.000000
_cell_volume 2861.200936
_symmetry_space_group_name_H-M "P N N M"
_symmetry_group_IT_number 58
_symmetry_cell_setting 'orthorhombic'
loop_
_space_group_symop_operation_xyz
x,y,z
-x,-y,z
1/2+x,1/2-y,1/2-z
1/2-x,1/2+y,1/2-z
-x,-y,-z
x,y,-z
1/2-x,1/2+y,1/2+z
1/2+x,1/2-y,1/2+z
loop_
_atom_site_type_symbol
_atom_site_label
_atom_site_fract_x
_atom_site_fract_y
_atom_site_fract_z
Si Si1 0.861637 0.180751 0.790128
Si Si2 0.261118 0.121133 0.361770
Si Si3 0.865824 0.339424 0.239780
Si Si4 0.355518 0.899684 0.446838
Si Si5 0.000000 0.000000 0.404810
Si Si6 0.221372 0.749570 0.554367
Si Si7 0.758306 0.228667 0.890348
O O1 0.871230 0.259427 0.773605
O O2 0.622294 0.141305 0.767495
O O3 0.826716 0.175627 0.847759
O O4 0.121085 0.144198 0.772955
O O5 0.368470 0.113170 0.307945
O O6 0.452316 0.104546 0.403850
O O7 0.045913 0.064364 0.369171
O O8 0.167486 0.199351 0.366590
O O9 0.483453 0.898828 0.500000
O O10 0.170666 0.832478 0.443377
O O11 0.216029 0.973051 0.440749
O O12 0.229548 0.723022 0.500000
O O13 0.494834 0.734155 0.576869
O O14 0.992081 0.707446 0.579715
#
# Coordination Sequence:
#
# PCOD8235607 Si02
#       7
#     8   8   8   8   4   8   8
#     4   9  17  29  49  68  85 107 135 180 234 281
#     4  10  22  32  47  60  88 109 150 195 246 282
#     4   9  18  30  47  68  86 105 135 181 241 287
#     4  10  22  35  46  61  83 117 161 202 244 279
#     4  12  21  34  46  62  80 120 156 206 239 284
#     4  10  19  31  47  66  92 122 151 189 230 271
#     4  10  18  32  48  67  89 114 150 188 228 280
#
# _framework density 18.174187
#
# number of rings (size 3 to 8) (size 9 to 14) (size 15 to 20)
#    0.000    2.154    1.538    2.077    2.154    6.154 
#    0.000    0.000    0.000    0.000    0.000    0.000 
#    0.000    0.000    0.000    0.000    0.000    0.000 
#
# Total GULP energy -644294.124135 kJ/mol
# GULP energy per Si atom -12390.271618 kJ/mol
# Density = 1.813282 g / cm^3
# Si number density = 18.174187 Si / 1000 Ang^3
#
#
#
# Elastic Constant Matrix: (Units=GPa)
#
#
# Indices 1 2 3 4 5 6 
#
# 1 100.5968 11.9269 41.6871 0.0000 0.0000 0.0000
# 2 11.9269 14.9872 27.4003 0.0000 0.0000 0.0000
# 3 41.6871 27.4003 136.0529 0.0000 0.0000 0.0000
# 4 0.0000 0.0000 0.0000 -8.1689 0.0000 0.0000
# 5 0.0000 0.0000 0.0000 0.0000 34.8673 0.0000
# 6 0.0000 0.0000 0.0000 0.0000 0.0000 9.6488
#
#
#
# Elastic Compliance Matrix: (Units=1/GPa)
#
#
# Indices 1 2 3 4 5 6 
#
# 1 0.011560 -0.004311 -0.002674 0.000000 0.000000 0.000000
# 2 -0.004311 0.107217 -0.020272 0.000000 0.000000 0.000000
# 3 -0.002674 -0.020272 0.012252 0.000000 0.000000 0.000000
# 4 0.000000 0.000000 0.000000 -0.122415 0.000000 0.000000
# 5 0.000000 0.000000 0.000000 0.000000 0.028680 0.000000
# 6 0.000000 0.000000 0.000000 0.000000 0.000000 0.103640
#
#
# Mechanical properties :
#
#
# Convention : Reuss Voigt Hill
#
# Bulk Modulus (GPa) = 13.06934 45.96282 29.51608
# Shear Modulus (GPa) = 22.62937 18.64428 20.63683
#
# Velocity S-wave (km/s) = 3.53248 3.20639 3.37338
# Velocity P-wave (km/s) = 4.88310 6.24924 5.60792
#
# Compressibility (1/GPa) = 0.07651496
#
# Stress axis : x y z
#
# Youngs Moduli (GPa) = 86.50676 9.32690 81.61942
#
# Poissons Ratio (x) = 0.04021 0.21823
# Poissons Ratio (y) = 0.37294 1.65458
# Poissons Ratio (z) = 0.23130 0.18907
#
# Static dielectric constant tensor:
#      x y z
#    x 3.395820 0.000000 0.000000 
#    y 0.000000 2.908430 0.000000 
#    z 0.000000 0.000000 3.568920 
# 
# 
# High freq. dielectric constant tensor:
#      x y z
#    x 1.711220 0.000000 0.000000 
#    y 0.000000 1.616340 0.000000 
#    z 0.000000 0.000000 1.717410 
# 
# From -- ./inp_files/32910.got.cif
#   From: 2010.06.25/outbox.cif.g09.slc.cpg/sg58_17_cif.got.tgz:32910.got - 2010.06.26 21:38:00.
