data_PCOD8235497
_publ_section_title
;
Structure prediction by ZEFSAII (Michael W. Deem and Ramdas Pophale) SiO2 
 PCOD8235497
Probable space group: P N N M
;
_chemical_formula_sum "Si O2"
_cell_formula_units_Z 64
_cell_length_a 23.170098
_cell_length_b 18.992105
_cell_length_c 8.848286
_cell_angle_alpha 90.000000
_cell_angle_beta 90.000000
_cell_angle_gamma 90.000000
_cell_volume 3893.678823
_symmetry_space_group_name_H-M "P N N M"
_symmetry_group_IT_number 58
_symmetry_cell_setting 'orthorhombic'
loop_
_space_group_symop_operation_xyz
x,y,z
-x,-y,z
1/2+x,1/2-y,1/2-z
1/2-x,1/2+y,1/2-z
-x,-y,-z
x,y,-z
1/2-x,1/2+y,1/2+z
1/2+x,1/2-y,1/2+z
loop_
_atom_site_type_symbol
_atom_site_label
_atom_site_fract_x
_atom_site_fract_y
_atom_site_fract_z
Si Si1 0.064122 0.645706 0.677183
Si Si2 0.749609 0.989103 0.325405
Si Si3 0.658567 0.764824 0.321445
Si Si4 0.280679 0.357641 0.821964
Si Si5 0.737796 0.347586 0.675379
Si Si6 0.884005 0.488885 0.826911
Si Si7 0.057939 0.361777 0.176011
Si Si8 0.667358 0.217165 0.324552
O O1 0.070097 0.656842 0.500000
O O2 0.097370 0.708636 0.760811
O O3 0.090389 0.570298 0.719275
O O4 0.997913 0.650342 0.724208
O O5 0.757333 0.969448 0.500000
O O6 0.785323 0.059631 0.285024
O O7 0.776676 0.926567 0.226359
O O8 0.682696 0.001951 0.286695
O O9 0.657772 0.763810 0.500000
O O10 0.668646 0.685631 0.260103
O O11 0.707665 0.819058 0.267504
O O12 0.219818 0.328802 0.756760
O O13 0.284986 0.342694 0.000000
O O14 0.754738 0.345328 0.500000
O O15 0.680984 0.299596 0.705671
O O16 0.918931 0.559823 0.798008
O O17 0.890887 0.463681 0.000000
O O18 0.105641 0.306561 0.241512
O O19 0.043314 0.349026 0.000000
O O20 0.664124 0.198139 0.500000
#
# Coordination Sequence:
#
# PCOD8235497 Si02
#       8
#     8   8   8   8   8   8   8   8
#     4  12  24  35  47  68  99 134 169 212 252 289
#     4  10  18  30  51  76 103 135 167 197 239 298
#     4  11  21  34  50  70  95 129 169 208 248 297
#     4   9  17  32  52  74  99 128 161 202 248 293
#     4  10  19  31  50  74 101 130 162 205 249 292
#     4  10  19  32  50  71  98 135 174 203 232 287
#     4  10  19  34  53  70  93 133 175 207 239 291
#     4   8  15  30  50  70  93 125 164 201 242 287
#
# _framework density 16.436897999999999
#
# number of rings (size 3 to 8) (size 9 to 14) (size 15 to 20)
#    0.000    2.000    2.500    3.750    0.000    2.500 
#    0.000    3.125    0.000    0.000    0.000    0.875 
#    0.000    7.000    0.000    0.000    0.000    0.000 
#
# Total GULP energy -793567.596190 kJ/mol
# GULP energy per Si atom -12399.493690 kJ/mol
# Density = 1.639949 g / cm^3
# Si number density = 16.436898 Si / 1000 Ang^3
#
#
#
# Elastic Constant Matrix: (Units=GPa)
#
#
# Indices 1 2 3 4 5 6 
#
# 1 59.1249 34.9256 31.4476 0.0000 0.0000 0.0000
# 2 34.9256 93.6522 45.2365 0.0000 0.0000 0.0000
# 3 31.4476 45.2365 84.9113 0.0000 0.0000 0.0000
# 4 0.0000 0.0000 0.0000 21.3539 0.0000 0.0000
# 5 0.0000 0.0000 0.0000 0.0000 15.6116 0.0000
# 6 0.0000 0.0000 0.0000 0.0000 0.0000 19.7439
#
#
#
# Elastic Compliance Matrix: (Units=1/GPa)
#
#
# Indices 1 2 3 4 5 6 
#
# 1 0.023403 -0.006114 -0.005410 0.000000 0.000000 0.000000
# 2 -0.006114 0.015975 -0.006246 0.000000 0.000000 0.000000
# 3 -0.005410 -0.006246 0.017108 0.000000 0.000000 0.000000
# 4 0.000000 0.000000 0.000000 0.046830 0.000000 0.000000
# 5 0.000000 0.000000 0.000000 0.000000 0.064055 0.000000
# 6 0.000000 0.000000 0.000000 0.000000 0.000000 0.050649
#
#
# Mechanical properties :
#
#
# Convention : Reuss Voigt Hill
#
# Bulk Modulus (GPa) = 47.74415 51.21196 49.47805
# Shear Modulus (GPa) = 19.19074 19.74711 19.46893
#
# Velocity S-wave (km/s) = 3.42064 3.46987 3.44534
# Velocity P-wave (km/s) = 6.68663 6.87587 6.78191
#
# Compressibility (1/GPa) = 0.02094498
#
# Stress axis : x y z
#
# Youngs Moduli (GPa) = 42.73023 62.59727 58.45124
#
# Poissons Ratio (x) = 0.38274 0.31622
# Poissons Ratio (y) = 0.26127 0.36510
# Poissons Ratio (z) = 0.23117 0.39100
#
# Static dielectric constant tensor:
#      x y z
#    x 3.035700 0.000000 0.000000 
#    y 0.000000 3.222640 0.000000 
#    z 0.000000 0.000000 2.979930 
# 
# 
# High freq. dielectric constant tensor:
#      x y z
#    x 1.607300 0.000000 0.000000 
#    y 0.000000 1.631070 0.000000 
#    z 0.000000 0.000000 1.624370 
# 
# From -- ./inp_files/9415.got.cif
#   From: 2010.06.25/outbox.cif.g09.slc.cpg/sg58_5_cif.got.tgz:9415.got - 2010.06.26 21:38:00.
