data_PCOD8235022
_publ_section_title
;
Structure prediction by ZEFSAII (Michael W. Deem and Ramdas Pophale) SiO2 
 PCOD8235022
Probable space group: P B C M
;
_chemical_formula_sum "Si O2"
_cell_formula_units_Z 48
_cell_length_a 11.001924
_cell_length_b 21.554522
_cell_length_c 9.693704
_cell_angle_alpha 90.000000
_cell_angle_beta 90.000000
_cell_angle_gamma 90.000000
_cell_volume 2298.776724
_symmetry_space_group_name_H-M "P B C M"
_symmetry_group_IT_number 57
_symmetry_cell_setting 'orthorhombic'
loop_
_space_group_symop_operation_xyz
x,y,z
-x,-y,1/2+z
x,1/2-y,-z
-x,1/2+y,1/2-z
-x,-y,-z
x,y,1/2-z
-x,1/2+y,z
x,1/2-y,1/2+z
loop_
_atom_site_type_symbol
_atom_site_label
_atom_site_fract_x
_atom_site_fract_y
_atom_site_fract_z
Si Si1 0.878395 0.490556 0.410990
Si Si2 0.318918 0.307214 0.750000
Si Si3 0.589736 0.163140 0.250000
Si Si4 0.347109 0.339066 0.250000
Si Si5 0.250323 0.866949 0.508649
Si Si6 0.623961 0.190191 0.750000
Si Si7 0.007421 0.810188 0.911323
Si Si8 0.206946 0.381629 0.987338
O O1 0.914425 0.483443 0.250000
O O2 0.800125 0.433057 0.463251
O O3 0.786277 0.548443 0.430908
O O4 0.000000 0.500000 0.500000
O O5 0.446106 0.342924 0.750000
O O6 0.318468 0.233316 0.750000
O O7 0.251895 0.328253 0.886079
O O8 0.639705 0.126983 0.116570
O O9 0.616434 0.236182 0.250000
O O10 0.493399 0.344937 0.250000
O O11 0.286324 0.375170 0.376344
O O12 0.298484 0.828861 0.380444
O O13 0.148607 0.826672 0.585520
O O14 0.967773 0.802566 0.750000
O O15 0.937011 0.865277 0.994238
O O16 0.978178 0.750000 0.000000
#
# Coordination Sequence:
#
# PCOD8235022 Si02
#       8
#     8   4   4   4   8   4   8   8
#     4  12  27  48  70  96 139 188 229 284 347 416
#     4  11  22  46  71 100 142 184 224 283 344 409
#     4  11  24  42  73 102 138 186 226 279 352 409
#     4  11  26  44  73 106 138 184 228 281 348 413
#     4  12  25  43  69 101 138 181 233 282 342 410
#     4  11  24  48  69 104 144 180 230 283 342 413
#     4  12  25  40  66 103 140 172 222 290 354 415
#     4  12  25  44  69 101 139 179 234 281 343 410
#
# _framework density 20.880671
#
# number of rings (size 3 to 8) (size 9 to 14) (size 15 to 20)
#    0.000    0.333    5.000    4.000    4.667    2.667 
#    0.000    5.000    0.000    0.000    0.000    0.000 
#    0.000    0.000    0.000    0.000    0.000    0.000 
#
# Total GULP energy -595172.865539 kJ/mol
# GULP energy per Si atom -12399.434699 kJ/mol
# Density = 2.083315 g / cm^3
# Si number density = 20.880671 Si / 1000 Ang^3
#
#
#
# Elastic Constant Matrix: (Units=GPa)
#
#
# Indices 1 2 3 4 5 6 
#
# 1 76.4890 15.8006 19.0791 0.0000 0.0000 0.0000
# 2 15.8006 87.7738 31.1055 0.0000 0.0000 0.0000
# 3 19.0791 31.1055 127.7288 0.0000 0.0000 0.0000
# 4 0.0000 0.0000 0.0000 34.7055 0.0000 0.0000
# 5 0.0000 0.0000 0.0000 0.0000 59.3781 0.0000
# 6 0.0000 0.0000 0.0000 0.0000 0.0000 22.2619
#
#
#
# Elastic Compliance Matrix: (Units=1/GPa)
#
#
# Indices 1 2 3 4 5 6 
#
# 1 0.013872 -0.001929 -0.001602 0.000000 0.000000 0.000000
# 2 -0.001929 0.012737 -0.002814 0.000000 0.000000 0.000000
# 3 -0.001602 -0.002814 0.008754 0.000000 0.000000 0.000000
# 4 0.000000 0.000000 0.000000 0.028814 0.000000 0.000000
# 5 0.000000 0.000000 0.000000 0.000000 0.016841 0.000000
# 6 0.000000 0.000000 0.000000 0.000000 0.000000 0.044920
#
#
# Mechanical properties :
#
#
# Convention : Reuss Voigt Hill
#
# Bulk Modulus (GPa) = 44.10655 47.10690 45.60673
# Shear Modulus (GPa) = 34.20303 38.33620 36.26962
#
# Velocity S-wave (km/s) = 4.05164 4.28947 4.17225
# Velocity P-wave (km/s) = 6.56176 6.86598 6.71560
#
# Compressibility (1/GPa) = 0.02267237
#
# Stress axis : x y z
#
# Youngs Moduli (GPa) = 72.08770 78.50914 114.23822
#
# Poissons Ratio (x) = 0.15147 0.18304
# Poissons Ratio (y) = 0.13908 0.32143
# Poissons Ratio (z) = 0.11550 0.22090
#
# Static dielectric constant tensor:
#      x y z
#    x 4.080160 0.000000 0.000000 
#    y 0.000000 3.801380 0.000000 
#    z 0.000000 0.000000 3.574010 
# 
# 
# High freq. dielectric constant tensor:
#      x y z
#    x 1.830690 0.000000 0.000000 
#    y 0.000000 1.816640 0.000000 
#    z 0.000000 0.000000 1.830440 
# 
# From -- ./inp_files/3238.got.cif
#   From: 2010.03.12/outbox.cif.g09.slc.cpg/sg57_2_cif.got.tgz:3238.got - 2010.04.16 15:48:40.
