data_PCOD8235374
_publ_section_title
;
Structure prediction by ZEFSAII (Michael W. Deem and Ramdas Pophale) SiO2 
 PCOD8235374
Probable space group: P N N M
;
_chemical_formula_sum "Si O2"
_cell_formula_units_Z 64
_cell_length_a 21.271942
_cell_length_b 9.461405
_cell_length_c 16.783399
_cell_angle_alpha 90.000000
_cell_angle_beta 90.000000
_cell_angle_gamma 90.000000
_cell_volume 3377.868143
_symmetry_space_group_name_H-M "P N N M"
_symmetry_group_IT_number 58
_symmetry_cell_setting 'orthorhombic'
loop_
_space_group_symop_operation_xyz
x,y,z
-x,-y,z
1/2+x,1/2-y,1/2-z
1/2-x,1/2+y,1/2-z
-x,-y,-z
x,y,-z
1/2-x,1/2+y,1/2+z
1/2+x,1/2-y,1/2+z
loop_
_atom_site_type_symbol
_atom_site_label
_atom_site_fract_x
_atom_site_fract_y
_atom_site_fract_z
Si Si1 0.123538 0.042856 0.906428
Si Si2 0.088178 0.732245 0.094837
Si Si3 0.345085 0.966919 0.588830
Si Si4 0.440300 0.901627 0.175919
Si Si5 0.949159 0.708765 0.150673
Si Si6 0.623854 0.852429 0.094676
Si Si7 0.739126 0.272972 0.594280
Si Si8 0.993361 0.160510 0.406223
O O1 0.070764 0.127571 0.856734
O O2 0.193579 0.095626 0.883889
O O3 0.116318 0.881639 0.879663
O O4 0.109415 0.060788 0.000000
O O5 0.139419 0.618958 0.127915
O O6 0.023518 0.696696 0.139757
O O7 0.077065 0.720198 0.000000
O O8 0.322290 0.998251 0.500000
O O9 0.410016 0.876836 0.584369
O O10 0.290758 0.872435 0.631603
O O11 0.426965 0.860702 0.266550
O O12 0.450010 0.755095 0.128309
O O13 0.500000 0.000000 0.165773
O O14 0.384726 0.995695 0.137713
O O15 0.690996 0.796677 0.126554
O O16 0.573043 0.732265 0.118937
O O17 0.622752 0.878756 0.000000
O O18 0.740698 0.255490 0.500000
O O19 0.000996 0.158421 0.500000
O O20 0.000000 0.000000 0.372626
#
# Coordination Sequence:
#
# PCOD8235374 Si02
#       8
#     8   8   8   8   8   8   8   8
#     4   9  18  31  48  73 104 136 172 212 246 284
#     4  10  18  28  45  72 104 137 171 206 247 290
#     4   9  17  29  47  71  99 129 164 205 240 279
#     4  10  20  32  49  73  98 125 161 203 246 302
#     4  11  19  29  46  69 100 137 171 203 243 293
#     4   9  17  33  57  76  94 126 163 202 257 317
#     4   8  15  30  51  72  93 124 163 199 241 293
#     4   9  18  33  52  75  99 118 146 199 259 308
#
# _framework density 18.946863
#
# number of rings (size 3 to 8) (size 9 to 14) (size 15 to 20)
#    0.000    2.625    0.000    3.750    0.000    4.500 
#    0.000    1.250    0.000   21.000    0.000    0.000 
#    0.000    0.000    0.000    0.000    0.000    0.000 
#
# Total GULP energy -793072.314655 kJ/mol
# GULP energy per Si atom -12391.754916 kJ/mol
# Density = 1.890374 g / cm^3
# Si number density = 18.946863 Si / 1000 Ang^3
#
#
#
# Elastic Constant Matrix: (Units=GPa)
#
#
# Indices 1 2 3 4 5 6 
#
# 1 106.7432 61.8145 22.5143 0.0000 0.0000 0.0000
# 2 61.8145 169.0935 31.8917 0.0000 0.0000 0.0000
# 3 22.5143 31.8917 35.1464 0.0000 0.0000 0.0000
# 4 0.0000 0.0000 0.0000 18.2214 0.0000 0.0000
# 5 0.0000 0.0000 0.0000 0.0000 9.2738 0.0000
# 6 0.0000 0.0000 0.0000 0.0000 0.0000 24.0132
#
#
#
# Elastic Compliance Matrix: (Units=1/GPa)
#
#
# Indices 1 2 3 4 5 6 
#
# 1 0.012484 -0.003686 -0.004652 0.000000 0.000000 0.000000
# 2 -0.003686 0.008223 -0.005101 0.000000 0.000000 0.000000
# 3 -0.004652 -0.005101 0.036061 0.000000 0.000000 0.000000
# 4 0.000000 0.000000 0.000000 0.054881 0.000000 0.000000
# 5 0.000000 0.000000 0.000000 0.000000 0.107831 0.000000
# 6 0.000000 0.000000 0.000000 0.000000 0.000000 0.041644
#
#
# Mechanical properties :
#
#
# Convention : Reuss Voigt Hill
#
# Bulk Modulus (GPa) = 33.45571 60.38045 46.91808
# Shear Modulus (GPa) = 16.78045 23.28583 20.03314
#
# Velocity S-wave (km/s) = 2.97923 3.50952 3.25519
# Velocity P-wave (km/s) = 5.43419 6.95412 6.24060
#
# Compressibility (1/GPa) = 0.02989027
#
# Stress axis : x y z
#
# Youngs Moduli (GPa) = 80.10067 121.60317 27.73094
#
# Poissons Ratio (x) = 0.44827 0.12901
# Poissons Ratio (y) = 0.29528 0.14144
# Poissons Ratio (z) = 0.37265 0.62024
#
# Static dielectric constant tensor:
#      x y z
#    x 3.494450 0.000000 0.000000 
#    y 0.000000 3.871520 0.000000 
#    z 0.000000 0.000000 3.112490 
# 
# 
# High freq. dielectric constant tensor:
#      x y z
#    x 1.714630 0.000000 0.000000 
#    y 0.000000 1.750940 0.000000 
#    z 0.000000 0.000000 1.701370 
# 
# From -- ./inp_files/27550.got.cif
#   From: 2010.06.25/outbox.cif.g09.slc.cpg/sg58_14_cif.got.tgz:27550.got - 2010.06.26 21:38:00.
