data_PCOD8235825
_publ_section_title
;
Structure prediction by ZEFSAII (Michael W. Deem and Ramdas Pophale) SiO2 
 PCOD8235825
Probable space group: P N N M
;
_chemical_formula_sum "Si O2"
_cell_formula_units_Z 64
_cell_length_a 9.543882
_cell_length_b 32.339479
_cell_length_c 13.417656
_cell_angle_alpha 90.000000
_cell_angle_beta 90.000000
_cell_angle_gamma 90.000000
_cell_volume 4141.281320
_symmetry_space_group_name_H-M "P N N M"
_symmetry_group_IT_number 58
_symmetry_cell_setting 'orthorhombic'
loop_
_space_group_symop_operation_xyz
x,y,z
-x,-y,z
1/2+x,1/2-y,1/2-z
1/2-x,1/2+y,1/2-z
-x,-y,-z
x,y,-z
1/2-x,1/2+y,1/2+z
1/2+x,1/2-y,1/2+z
loop_
_atom_site_type_symbol
_atom_site_label
_atom_site_fract_x
_atom_site_fract_y
_atom_site_fract_z
Si Si1 0.992155 0.878823 0.882288
Si Si2 0.201095 0.243010 0.611823
Si Si3 0.483883 0.814592 0.196242
Si Si4 0.186972 0.388085 0.617321
Si Si5 0.114423 0.034897 0.110829
Si Si6 0.516825 0.234442 0.388897
Si Si7 0.355248 0.981234 0.118772
Si Si8 0.309302 0.694134 0.304375
O O1 0.944017 0.923462 0.838768
O O2 0.900859 0.846191 0.822398
O O3 0.156115 0.872817 0.859122
O O4 0.965905 0.874218 0.000000
O O5 0.174669 0.226403 0.500000
O O6 0.102209 0.282351 0.628932
O O7 0.364330 0.256033 0.625721
O O8 0.167411 0.206173 0.688638
O O9 0.423639 0.860062 0.176779
O O10 0.463939 0.803436 0.312543
O O11 0.647674 0.813790 0.167297
O O12 0.154261 0.385320 0.500000
O O13 0.166512 0.434703 0.657961
O O14 0.244744 0.013534 0.167217
O O15 0.161253 0.048084 0.000000
O O16 0.000000 0.000000 0.104985
O O17 0.532217 0.216166 0.500000
O O18 0.635853 0.268690 0.373186
O O19 0.500000 0.000000 0.154547
O O20 0.336524 0.980306 0.000000
#
# Coordination Sequence:
#
# PCOD8235825 Si02
#       8
#     8   8   8   8   8   8   8   8
#     4  10  19  29  43  61  88 123 151 176 209 255
#     4   9  18  34  50  61  84 119 145 174 220 264
#     4  10  20  30  44  68  90 109 143 186 218 250
#     4  10  19  30  42  60  90 124 149 173 214 260
#     4   9  15  27  42  57  80 115 153 176 200 250
#     4   9  18  34  50  61  83 118 148 174 215 264
#     4   9  17  27  40  59  84 115 147 178 213 250
#     4  10  20  30  44  69  89 108 147 186 212 251
#
# _framework density 15.454155
#
# number of rings (size 3 to 8) (size 9 to 14) (size 15 to 20)
#    0.000    2.500    1.250    1.500    1.750    5.000 
#    0.000    0.000    0.000    0.000    0.000    0.000 
#    0.000    2.000    0.000    0.125    0.000    0.000 
#
# Total GULP energy -793284.360232 kJ/mol
# GULP energy per Si atom -12395.068129 kJ/mol
# Density = 1.541898 g / cm^3
# Si number density = 15.454155 Si / 1000 Ang^3
#
#
#
# Elastic Constant Matrix: (Units=GPa)
#
#
# Indices 1 2 3 4 5 6 
#
# 1 106.2848 46.5477 31.8431 0.0000 0.0000 0.0000
# 2 46.5477 83.8526 28.9752 0.0000 0.0000 0.0000
# 3 31.8431 28.9752 64.3387 0.0000 0.0000 0.0000
# 4 0.0000 0.0000 0.0000 19.4093 0.0000 0.0000
# 5 0.0000 0.0000 0.0000 0.0000 18.7094 0.0000
# 6 0.0000 0.0000 0.0000 0.0000 0.0000 33.0017
#
#
#
# Elastic Compliance Matrix: (Units=1/GPa)
#
#
# Indices 1 2 3 4 5 6 
#
# 1 0.013180 -0.005995 -0.003823 0.000000 0.000000 0.000000
# 2 -0.005995 0.016851 -0.004622 0.000000 0.000000 0.000000
# 3 -0.003823 -0.004622 0.019516 0.000000 0.000000 0.000000
# 4 0.000000 0.000000 0.000000 0.051522 0.000000 0.000000
# 5 0.000000 0.000000 0.000000 0.000000 0.053449 0.000000
# 6 0.000000 0.000000 0.000000 0.000000 0.000000 0.030301
#
#
# Mechanical properties :
#
#
# Convention : Reuss Voigt Hill
#
# Bulk Modulus (GPa) = 48.38639 52.13423 50.26031
# Shear Modulus (GPa) = 22.66677 24.03144 23.34911
#
# Velocity S-wave (km/s) = 3.83392 3.94765 3.89120
# Velocity P-wave (km/s) = 7.13976 7.38827 7.26508
#
# Compressibility (1/GPa) = 0.02066697
#
# Stress axis : x y z
#
# Youngs Moduli (GPa) = 75.87437 59.34480 51.23943
#
# Poissons Ratio (x) = 0.35578 0.19589
# Poissons Ratio (y) = 0.45488 0.23681
# Poissons Ratio (z) = 0.29007 0.27427
#
# Static dielectric constant tensor:
#      x y z
#    x 3.074970 0.000000 0.000000 
#    y 0.000000 2.950900 0.000000 
#    z 0.000000 0.000000 2.672020 
# 
# 
# High freq. dielectric constant tensor:
#      x y z
#    x 1.611910 0.000000 0.000000 
#    y 0.000000 1.589650 0.000000 
#    z 0.000000 0.000000 1.541070 
# 
# From -- ./inp_files/20393.got.cif
#   From: 2010.06.25/outbox.cif.g09.slc.cpg/sg58_11_cif.got.tgz:20393.got - 2010.06.26 21:38:00.
