data_PCOD8235695
_publ_section_title
;
Structure prediction by ZEFSAII (Michael W. Deem and Ramdas Pophale) SiO2 
 PCOD8235695
Probable space group: P N N M
;
_chemical_formula_sum "Si O2"
_cell_formula_units_Z 64
_cell_length_a 18.333355
_cell_length_b 11.597787
_cell_length_c 17.237012
_cell_angle_alpha 90.000000
_cell_angle_beta 90.000000
_cell_angle_gamma 90.000000
_cell_volume 3665.042882
_symmetry_space_group_name_H-M "P N N M"
_symmetry_group_IT_number 58
_symmetry_cell_setting 'orthorhombic'
loop_
_space_group_symop_operation_xyz
x,y,z
-x,-y,z
1/2+x,1/2-y,1/2-z
1/2-x,1/2+y,1/2-z
-x,-y,-z
x,y,-z
1/2-x,1/2+y,1/2+z
1/2+x,1/2-y,1/2+z
loop_
_atom_site_type_symbol
_atom_site_label
_atom_site_fract_x
_atom_site_fract_y
_atom_site_fract_z
Si Si1 0.084500 0.520908 0.412157
Si Si2 0.670069 0.145376 0.821836
Si Si3 0.035436 0.881563 0.910880
Si Si4 0.415849 0.988825 0.689898
Si Si5 0.152871 0.667596 0.720469
Si Si6 0.337516 0.394120 0.702412
Si Si7 0.598348 0.219195 0.410853
Si Si8 0.179572 0.147822 0.778234
O O1 0.098595 0.561528 0.500000
O O2 0.129434 0.400235 0.399156
O O3 0.109604 0.623618 0.354999
O O4 0.000000 0.500000 0.396384
O O5 0.628239 0.079798 0.754327
O O6 0.754970 0.114357 0.827561
O O7 0.661379 0.280963 0.800702
O O8 0.110248 0.856674 0.867238
O O9 0.981388 0.773880 0.897952
O O10 0.056406 0.897133 0.000000
O O11 0.000000 0.000000 0.879390
O O12 0.405668 0.918081 0.609523
O O13 0.500000 0.000000 0.711799
O O14 0.380197 0.116243 0.697685
O O15 0.149252 0.806514 0.725820
O O16 0.235214 0.625937 0.712033
O O17 0.357676 0.522980 0.730403
O O18 0.623891 0.231934 0.500000
O O19 0.654597 0.286394 0.356173
#
# Coordination Sequence:
#
# PCOD8235695 Si02
#       8
#     8   8   8   8   8   8   8   8
#     4  10  20  36  57  79 102 130 171 223 268 302
#     4   9  19  33  52  78 101 130 170 214 256 306
#     4  10  20  32  46  73 110 140 174 211 244 300
#     4  10  18  33  54  75 102 134 172 217 257 299
#     4  10  20  34  54  80 103 130 174 219 253 312
#     4  11  19  33  53  76 105 141 169 209 259 303
#     4  10  21  35  51  74 106 143 177 210 252 303
#     4  10  19  33  53  77 104 138 169 208 257 306
#
# _framework density 17.462278000000001
#
# number of rings (size 3 to 8) (size 9 to 14) (size 15 to 20)
#    0.000    2.000    3.750    2.250    0.000    2.250 
#    0.000    0.625    0.000    1.500    0.000    1.750 
#    0.000    0.000    0.000    0.000    0.000    0.000 
#
# Total GULP energy -792958.525418 kJ/mol
# GULP energy per Si atom -12389.976960 kJ/mol
# Density = 1.742253 g / cm^3
# Si number density = 17.462278 Si / 1000 Ang^3
#
#
#
# Elastic Constant Matrix: (Units=GPa)
#
#
# Indices 1 2 3 4 5 6 
#
# 1 114.2784 33.0244 46.2900 0.0000 0.0000 0.0000
# 2 33.0244 88.3030 45.6780 0.0000 0.0000 0.0000
# 3 46.2900 45.6780 78.9857 0.0000 0.0000 0.0000
# 4 0.0000 0.0000 0.0000 14.7443 0.0000 0.0000
# 5 0.0000 0.0000 0.0000 0.0000 4.3315 0.0000
# 6 0.0000 0.0000 0.0000 0.0000 0.0000 3.9561
#
#
#
# Elastic Compliance Matrix: (Units=1/GPa)
#
#
# Indices 1 2 3 4 5 6 
#
# 1 0.011558 -0.001168 -0.006098 0.000000 0.000000 0.000000
# 2 -0.001168 0.016277 -0.008728 0.000000 0.000000 0.000000
# 3 -0.006098 -0.008728 0.021282 0.000000 0.000000 0.000000
# 4 0.000000 0.000000 0.000000 0.067823 0.000000 0.000000
# 5 0.000000 0.000000 0.000000 0.000000 0.230868 0.000000
# 6 0.000000 0.000000 0.000000 0.000000 0.000000 0.252776
#
#
# Mechanical properties :
#
#
# Convention : Reuss Voigt Hill
#
# Bulk Modulus (GPa) = 58.38532 59.06132 58.72332
# Shear Modulus (GPa) = 7.83352 15.04468 11.43910
#
# Velocity S-wave (km/s) = 2.12031 2.93841 2.56222
# Velocity P-wave (km/s) = 6.28506 6.73854 6.51575
#
# Compressibility (1/GPa) = 0.01712759
#
# Stress axis : x y z
#
# Youngs Moduli (GPa) = 86.51784 61.43813 46.98795
#
# Poissons Ratio (x) = 0.07177 0.28654
# Poissons Ratio (y) = 0.10106 0.41012
# Poissons Ratio (z) = 0.52761 0.53625
#
# Static dielectric constant tensor:
#      x y z
#    x 3.373240 0.000000 0.000000 
#    y 0.000000 3.819890 0.000000 
#    z 0.000000 0.000000 3.211510 
# 
# 
# High freq. dielectric constant tensor:
#      x y z
#    x 1.685570 0.000000 0.000000 
#    y 0.000000 1.680600 0.000000 
#    z 0.000000 0.000000 1.644140 
# 
# From -- ./inp_files/27379.got.cif
#   From: 2010.06.25/outbox.cif.g09.slc.cpg/sg58_14_cif.got.tgz:27379.got - 2010.06.26 21:38:00.
