data_PCOD8235598
_publ_section_title
;
Structure prediction by ZEFSAII (Michael W. Deem and Ramdas Pophale) SiO2 
 PCOD8235598
Probable space group: P N N M
;
_chemical_formula_sum "Si O2"
_cell_formula_units_Z 64
_cell_length_a 21.323955
_cell_length_b 16.710330
_cell_length_c 9.175065
_cell_angle_alpha 90.000000
_cell_angle_beta 90.000000
_cell_angle_gamma 90.000000
_cell_volume 3269.353893
_symmetry_space_group_name_H-M "P N N M"
_symmetry_group_IT_number 58
_symmetry_cell_setting 'orthorhombic'
loop_
_space_group_symop_operation_xyz
x,y,z
-x,-y,z
1/2+x,1/2-y,1/2-z
1/2-x,1/2+y,1/2-z
-x,-y,-z
x,y,-z
1/2-x,1/2+y,1/2+z
1/2+x,1/2-y,1/2+z
loop_
_atom_site_type_symbol
_atom_site_label
_atom_site_fract_x
_atom_site_fract_y
_atom_site_fract_z
Si Si1 0.311398 0.582700 0.669804
Si Si2 0.606102 0.562663 0.662685
Si Si3 0.819058 0.446281 0.169311
Si Si4 0.974677 0.179610 0.671064
Si Si5 0.097632 0.221433 0.835709
Si Si6 0.326201 0.871521 0.335894
Si Si7 0.786754 0.193069 0.836609
Si Si8 0.129548 0.693808 0.328330
O O1 0.294454 0.568407 0.500000
O O2 0.366876 0.521860 0.719485
O O3 0.249790 0.567457 0.764086
O O4 0.338640 0.671598 0.697494
O O5 0.578757 0.553521 0.500000
O O6 0.550085 0.595853 0.763114
O O7 0.662970 0.623578 0.666528
O O8 0.843482 0.536451 0.193068
O O9 0.871625 0.392222 0.249611
O O10 0.816092 0.423496 0.000000
O O11 0.974507 0.168891 0.500000
O O12 0.044219 0.197094 0.723829
O O13 0.930865 0.254362 0.718305
O O14 0.112481 0.315716 0.818152
O O15 0.074501 0.202510 0.000000
O O16 0.298394 0.861958 0.500000
O O17 0.277479 0.844628 0.215408
O O18 0.806997 0.263791 0.728071
O O19 0.778704 0.227409 0.000000
O O20 0.134213 0.681907 0.500000
#
# Coordination Sequence:
#
# PCOD8235598 Si02
#       8
#     8   8   8   8   8   8   8   8
#     4  10  20  36  58  86 118 152 187 223 278 343
#     4   9  18  33  55  83 114 149 185 221 268 333
#     4  11  22  35  56  87 118 146 185 234 282 335
#     4  10  22  39  58  80 108 145 192 239 282 328
#     4  10  22  39  58  78 108 151 190 228 276 336
#     4  10  21  36  54  81 116 151 184 225 284 341
#     4  10  18  31  55  84 112 144 183 225 275 332
#     4  10  21  37  57  79 108 146 187 232 285 338
#
# _framework density 19.575733
#
# number of rings (size 3 to 8) (size 9 to 14) (size 15 to 20)
#    0.000    2.000    1.250    2.250    0.000    5.500 
#    0.000    3.125    0.000    3.750    0.000    0.000 
#    0.000    0.000    0.000    0.000    0.000    0.000 
#
# Total GULP energy -793642.317567 kJ/mol
# GULP energy per Si atom -12400.661212 kJ/mol
# Density = 1.953118 g / cm^3
# Si number density = 19.575733 Si / 1000 Ang^3
#
#
#
# Elastic Constant Matrix: (Units=GPa)
#
#
# Indices 1 2 3 4 5 6 
#
# 1 35.5179 6.3386 26.3313 0.0000 0.0000 0.0000
# 2 6.3386 99.3640 30.8299 0.0000 0.0000 0.0000
# 3 26.3313 30.8299 75.3143 0.0000 0.0000 0.0000
# 4 0.0000 0.0000 0.0000 26.1974 0.0000 0.0000
# 5 0.0000 0.0000 0.0000 0.0000 30.4811 0.0000
# 6 0.0000 0.0000 0.0000 0.0000 0.0000 12.6396
#
#
#
# Elastic Compliance Matrix: (Units=1/GPa)
#
#
# Indices 1 2 3 4 5 6 
#
# 1 0.038337 0.001962 -0.014206 0.000000 0.000000 0.000000
# 2 0.001962 0.011629 -0.005446 0.000000 0.000000 0.000000
# 3 -0.014206 -0.005446 0.020474 0.000000 0.000000 0.000000
# 4 0.000000 0.000000 0.000000 0.038172 0.000000 0.000000
# 5 0.000000 0.000000 0.000000 0.000000 0.032807 0.000000
# 6 0.000000 0.000000 0.000000 0.000000 0.000000 0.079117
#
#
# Mechanical properties :
#
#
# Convention : Reuss Voigt Hill
#
# Bulk Modulus (GPa) = 28.52383 37.46620 32.99501
# Shear Modulus (GPa) = 18.68450 23.64338 21.16394
#
# Velocity S-wave (km/s) = 3.09281 3.47910 3.29162
# Velocity P-wave (km/s) = 5.23035 5.94302 5.59804
#
# Compressibility (1/GPa) = 0.03505840
#
# Stress axis : x y z
#
# Youngs Moduli (GPa) = 26.08476 85.99462 48.84263
#
# Poissons Ratio (x) = -0.16875 0.69388
# Poissons Ratio (y) = -0.05119 0.26601
# Poissons Ratio (z) = 0.37057 0.46835
#
# Static dielectric constant tensor:
#      x y z
#    x 3.270680 0.000000 0.000000 
#    y 0.000000 3.906110 0.000000 
#    z 0.000000 0.000000 3.615700 
# 
# 
# High freq. dielectric constant tensor:
#      x y z
#    x 1.734950 0.000000 0.000000 
#    y 0.000000 1.774580 0.000000 
#    z 0.000000 0.000000 1.765320 
# 
# From -- ./inp_files/8325.got.cif
#   From: 2010.06.25/outbox.cif.g09.slc.cpg/sg58_5_cif.got.tgz:8325.got - 2010.06.26 21:38:00.
