data_PCOD8235050
_publ_section_title
;
Structure prediction by ZEFSAII (Michael W. Deem and Ramdas Pophale) SiO2 
 PCOD8235050
Probable space group: P B C M
;
_chemical_formula_sum "Si O2"
_cell_formula_units_Z 40
_cell_length_a 12.330556
_cell_length_b 18.273721
_cell_length_c 8.384338
_cell_angle_alpha 90.000000
_cell_angle_beta 90.000000
_cell_angle_gamma 90.000000
_cell_volume 1889.202135
_symmetry_space_group_name_H-M "P B C M"
_symmetry_group_IT_number 57
_symmetry_cell_setting 'orthorhombic'
loop_
_space_group_symop_operation_xyz
x,y,z
-x,-y,1/2+z
x,1/2-y,-z
-x,1/2+y,1/2-z
-x,-y,-z
x,y,1/2-z
-x,1/2+y,z
x,1/2-y,1/2+z
loop_
_atom_site_type_symbol
_atom_site_label
_atom_site_fract_x
_atom_site_fract_y
_atom_site_fract_z
Si Si1 0.790607 0.570188 0.565265
Si Si2 0.357814 0.669204 0.436819
Si Si3 0.457570 0.423078 0.062282
Si Si4 0.840318 0.417573 0.433405
Si Si5 0.965591 0.670901 0.065347
O O1 0.796939 0.548120 0.750000
O O2 0.667533 0.586853 0.515306
O O3 0.839503 0.504238 0.461954
O O4 0.861210 0.641951 0.530412
O O5 0.337357 0.750000 0.500000
O O6 0.335676 0.666674 0.250000
O O7 0.479176 0.643000 0.476519
O O8 0.277084 0.613791 0.523884
O O9 0.476673 0.417845 0.250000
O O10 0.500000 0.500000 0.000000
O O11 0.868467 0.401745 0.250000
O O12 0.931459 0.381330 0.542614
O O13 0.935752 0.675220 0.250000
O O14 0.997771 0.750000 0.000000
#
# Coordination Sequence:
#
# PCOD8235050 Si02
#       5
#     8   8   8   8   8
#     4  11  24  43  68  98 131 171 219 267 322 387
#     4  12  25  42  65  96 133 172 219 271 328 390
#     4  11  23  41  67  96 131 171 216 266 321 384
#     4  12  24  42  68  97 131 170 217 269 327 389
#     4  12  26  45  67  94 131 172 217 269 328 389
#
# _framework density 21.172958999999999
#
# number of rings (size 3 to 8) (size 9 to 14) (size 15 to 20)
#    0.000    0.400    2.000    7.800    0.000    3.200 
#    0.000    0.000    0.000    0.000    0.000    0.000 
#    0.000    0.000    0.000    0.000    0.000    0.000 
#
# Total GULP energy -496414.620754 kJ/mol
# GULP energy per Si atom -12410.365519 kJ/mol
# Density = 2.112477 g / cm^3
# Si number density = 21.172959 Si / 1000 Ang^3
#
#
#
# Elastic Constant Matrix: (Units=GPa)
#
#
# Indices 1 2 3 4 5 6 
#
# 1 117.9151 20.2539 17.8251 0.0000 0.0000 0.0000
# 2 20.2539 64.3240 21.2754 0.0000 0.0000 0.0000
# 3 17.8251 21.2754 85.2439 0.0000 0.0000 0.0000
# 4 0.0000 0.0000 0.0000 37.3003 0.0000 0.0000
# 5 0.0000 0.0000 0.0000 0.0000 29.6854 0.0000
# 6 0.0000 0.0000 0.0000 0.0000 0.0000 23.4867
#
#
#
# Elastic Compliance Matrix: (Units=1/GPa)
#
#
# Indices 1 2 3 4 5 6 
#
# 1 0.009095 -0.002436 -0.001294 0.000000 0.000000 0.000000
# 2 -0.002436 0.017597 -0.003883 0.000000 0.000000 0.000000
# 3 -0.001294 -0.003883 0.012971 0.000000 0.000000 0.000000
# 4 0.000000 0.000000 0.000000 0.026809 0.000000 0.000000
# 5 0.000000 0.000000 0.000000 0.000000 0.033687 0.000000
# 6 0.000000 0.000000 0.000000 0.000000 0.000000 0.042577
#
#
# Mechanical properties :
#
#
# Convention : Reuss Voigt Hill
#
# Bulk Modulus (GPa) = 40.91947 42.91020 41.91483
# Shear Modulus (GPa) = 30.10116 31.96974 31.03545
#
# Velocity S-wave (km/s) = 3.77461 3.89000 3.83274
# Velocity P-wave (km/s) = 6.19396 6.36291 6.27900
#
# Compressibility (1/GPa) = 0.02443825
#
# Stress axis : x y z
#
# Youngs Moduli (GPa) = 109.95487 56.82639 77.09717
#
# Poissons Ratio (x) = 0.13841 0.09975
# Poissons Ratio (y) = 0.26782 0.29934
# Poissons Ratio (z) = 0.14226 0.22064
#
# Static dielectric constant tensor:
#      x y z
#    x 3.995020 0.000000 0.000000 
#    y 0.000000 3.790310 0.000000 
#    z 0.000000 0.000000 3.689780 
# 
# 
# High freq. dielectric constant tensor:
#      x y z
#    x 1.842790 0.000000 0.000000 
#    y 0.000000 1.832410 0.000000 
#    z 0.000000 0.000000 1.844550 
# 
# From -- ./inp_files/2648.got.cif
#   From: 2010.03.12/outbox.cif.g09.slc.cpg/sg57_2_cif.got.tgz:2648.got - 2010.04.16 15:48:40.
