data_PCOD8235514
_publ_section_title
;
Structure prediction by ZEFSAII (Michael W. Deem and Ramdas Pophale) SiO2 
 PCOD8235514
Probable space group: P N N M
;
_chemical_formula_sum "Si O2"
_cell_formula_units_Z 64
_cell_length_a 17.322866
_cell_length_b 21.297903
_cell_length_c 9.066237
_cell_angle_alpha 90.000000
_cell_angle_beta 90.000000
_cell_angle_gamma 90.000000
_cell_volume 3344.904004
_symmetry_space_group_name_H-M "P N N M"
_symmetry_group_IT_number 58
_symmetry_cell_setting 'orthorhombic'
loop_
_space_group_symop_operation_xyz
x,y,z
-x,-y,z
1/2+x,1/2-y,1/2-z
1/2-x,1/2+y,1/2-z
-x,-y,-z
x,y,-z
1/2-x,1/2+y,1/2+z
1/2+x,1/2-y,1/2+z
loop_
_atom_site_type_symbol
_atom_site_label
_atom_site_fract_x
_atom_site_fract_y
_atom_site_fract_z
Si Si1 0.039786 0.707726 0.324726
Si Si2 0.449912 0.557985 0.331812
Si Si3 0.205422 0.038998 0.328610
Si Si4 0.150231 0.611476 0.170550
Si Si5 0.426737 0.335872 0.668690
Si Si6 0.915682 0.517715 0.158098
Si Si7 0.727799 0.593415 0.674973
Si Si8 0.890185 0.637699 0.671983
O O1 0.040919 0.705438 0.500000
O O2 0.109853 0.664242 0.268351
O O3 0.058188 0.777093 0.271829
O O4 0.954122 0.686790 0.262535
O O5 0.500000 0.500000 0.274139
O O6 0.423818 0.545663 0.500000
O O7 0.375879 0.562440 0.230471
O O8 0.498466 0.621082 0.316879
O O9 0.199513 0.022219 0.500000
O O10 0.257907 0.102007 0.304952
O O11 0.236070 0.975009 0.250102
O O12 0.123642 0.543362 0.224731
O O13 0.129381 0.625280 0.000000
O O14 0.414230 0.313925 0.500000
O O15 0.351122 0.373095 0.725242
O O16 0.918334 0.569264 0.284031
O O17 0.000000 0.500000 0.113237
O O18 0.876021 0.538603 0.000000
O O19 0.728242 0.582142 0.500000
O O20 0.799648 0.639864 0.722694
O O21 0.894139 0.646418 0.500000
#
# Coordination Sequence:
#
# PCOD8235514 Si02
#       8
#     8   8   8   8   8   8   8   8
#     4  11  24  40  58  84 119 158 203 249 294 349
#     4  10  20  39  65  90 116 150 193 238 294 363
#     4  11  22  35  58  94 125 149 187 244 300 344
#     4  10  21  37  56  82 119 160 197 234 289 353
#     4  10  22  42  65  83 110 158 203 239 290 359
#     4  10  18  30  52  80 111 148 188 232 277 333
#     4  10  20  38  62  86 115 151 190 236 294 361
#     4  10  21  35  56  85 115 149 189 239 296 348
#
# _framework density 19.133583000000002
#
# number of rings (size 3 to 8) (size 9 to 14) (size 15 to 20)
#    0.000    1.750    3.750    0.750    0.000    3.500 
#    2.250    0.000    0.000    0.000    0.000    0.000 
#    0.000    0.000    0.000    0.000    0.000    0.000 
#
# Total GULP energy -792892.988896 kJ/mol
# GULP energy per Si atom -12388.952951 kJ/mol
# Density = 1.909003 g / cm^3
# Si number density = 19.133583 Si / 1000 Ang^3
#
#
#
# Elastic Constant Matrix: (Units=GPa)
#
#
# Indices 1 2 3 4 5 6 
#
# 1 126.0123 41.8926 47.9821 0.0000 0.0000 0.0000
# 2 41.8926 79.2771 27.4377 0.0000 0.0000 0.0000
# 3 47.9821 27.4377 45.6127 0.0000 0.0000 0.0000
# 4 0.0000 0.0000 0.0000 33.4926 0.0000 0.0000
# 5 0.0000 0.0000 0.0000 0.0000 28.3083 0.0000
# 6 0.0000 0.0000 0.0000 0.0000 0.0000 24.5203
#
#
#
# Elastic Compliance Matrix: (Units=1/GPa)
#
#
# Indices 1 2 3 4 5 6 
#
# 1 0.013730 -0.002850 -0.012729 0.000000 0.000000 0.000000
# 2 -0.002850 0.016522 -0.006941 0.000000 0.000000 0.000000
# 3 -0.012729 -0.006941 0.039489 0.000000 0.000000 0.000000
# 4 0.000000 0.000000 0.000000 0.029857 0.000000 0.000000
# 5 0.000000 0.000000 0.000000 0.000000 0.035325 0.000000
# 6 0.000000 0.000000 0.000000 0.000000 0.000000 0.040783
#
#
# Mechanical properties :
#
#
# Convention : Reuss Voigt Hill
#
# Bulk Modulus (GPa) = 40.48252 53.94743 47.21497
# Shear Modulus (GPa) = 21.83603 26.17022 24.00313
#
# Velocity S-wave (km/s) = 3.38189 3.70234 3.54574
# Velocity P-wave (km/s) = 6.03766 6.82150 6.44151
#
# Compressibility (1/GPa) = 0.02470202
#
# Stress axis : x y z
#
# Youngs Moduli (GPa) = 72.83313 60.52488 25.32357
#
# Poissons Ratio (x) = 0.17249 0.32234
# Poissons Ratio (y) = 0.20757 0.17576
# Poissons Ratio (z) = 0.92709 0.42008
#
# Static dielectric constant tensor:
#      x y z
#    x 3.965230 0.000000 0.000000 
#    y 0.000000 3.280130 0.000000 
#    z 0.000000 0.000000 3.414650 
# 
# 
# High freq. dielectric constant tensor:
#      x y z
#    x 1.764520 0.000000 0.000000 
#    y 0.000000 1.721740 0.000000 
#    z 0.000000 0.000000 1.736600 
# 
# From -- ./inp_files/8373.got.cif
#   From: 2010.06.25/outbox.cif.g09.slc.cpg/sg58_5_cif.got.tgz:8373.got - 2010.06.26 21:38:00.
