data_PCOD8235017
_publ_section_title
;
Structure prediction by ZEFSAII (Michael W. Deem and Ramdas Pophale) SiO2 
 PCOD8235017
Probable space group: P B C M
;
_chemical_formula_sum "Si O2"
_cell_formula_units_Z 64
_cell_length_a 8.036987
_cell_length_b 18.571932
_cell_length_c 20.253778
_cell_angle_alpha 90.000000
_cell_angle_beta 90.000000
_cell_angle_gamma 90.000000
_cell_volume 3023.127028
_symmetry_space_group_name_H-M "P B C M"
_symmetry_group_IT_number 57
_symmetry_cell_setting 'orthorhombic'
loop_
_space_group_symop_operation_xyz
x,y,z
-x,-y,1/2+z
x,1/2-y,-z
-x,1/2+y,1/2-z
-x,-y,-z
x,y,1/2-z
-x,1/2+y,z
x,1/2-y,1/2+z
loop_
_atom_site_type_symbol
_atom_site_label
_atom_site_fract_x
_atom_site_fract_y
_atom_site_fract_z
Si Si1 0.485605 0.479034 0.172911
Si Si2 0.845269 0.013959 0.633969
Si Si3 0.981359 0.386915 0.677925
Si Si4 0.235219 0.048431 0.001553
Si Si5 0.430250 0.313721 0.946670
Si Si6 0.779312 0.738054 0.326122
Si Si7 0.678754 0.417603 0.912558
Si Si8 0.154356 0.395778 0.368979
O O1 0.506119 0.481213 0.250000
O O2 0.661772 0.451043 0.142614
O O3 0.450273 0.558852 0.145145
O O4 0.330824 0.428577 0.153462
O O5 0.876770 0.988498 0.558026
O O6 0.863525 0.942542 0.678770
O O7 0.989676 0.067039 0.660722
O O8 0.892859 0.388185 0.750000
O O9 0.860631 0.410756 0.619012
O O10 0.056290 0.309126 0.663671
O O11 0.131292 0.094081 0.947771
O O12 0.330335 0.981385 0.966842
O O13 0.352543 0.109280 0.033524
O O14 0.365379 0.285115 0.876399
O O15 0.623510 0.338439 0.938967
O O16 0.410072 0.250000 0.000000
O O17 0.714394 0.735390 0.250000
O O18 0.848362 0.815207 0.345249
#
# Coordination Sequence:
#
# PCOD8235017 Si02
#       8
#     8   8   8   8   8   8   8   8
#     4  11  23  39  67 100 130 172 226 278 338 398
#     4  12  23  40  71 105 130 171 229 282 341 402
#     4  11  23  42  66  97 136 180 227 278 340 408
#     4  11  22  42  69 100 130 173 228 285 346 400
#     4  12  24  43  69  99 136 178 230 282 342 414
#     4  11  25  45  67  94 137 186 226 278 347 416
#     4  11  24  42  67  98 135 175 226 287 337 403
#     4  11  25  43  67  97 139 178 221 283 344 408
#
# _framework density 21.170134000000001
#
# number of rings (size 3 to 8) (size 9 to 14) (size 15 to 20)
#    0.000    0.750    6.250    1.875    1.750    3.500 
#    4.500    0.000    0.000    0.000    0.000    0.000 
#    0.000    0.000    0.000    0.000    0.000    0.000 
#
# Total GULP energy -792977.014834 kJ/mol
# GULP energy per Si atom -12390.265857 kJ/mol
# Density = 2.112195 g / cm^3
# Si number density = 21.170134 Si / 1000 Ang^3
#
#
#
# Elastic Constant Matrix: (Units=GPa)
#
#
# Indices 1 2 3 4 5 6 
#
# 1 121.6758 57.8815 36.1603 0.0000 0.0000 0.0000
# 2 57.8815 144.4221 61.4845 0.0000 0.0000 0.0000
# 3 36.1603 61.4845 130.1003 0.0000 0.0000 0.0000
# 4 0.0000 0.0000 0.0000 22.8933 0.0000 0.0000
# 5 0.0000 0.0000 0.0000 0.0000 24.5036 0.0000
# 6 0.0000 0.0000 0.0000 0.0000 0.0000 24.3697
#
#
#
# Elastic Compliance Matrix: (Units=1/GPa)
#
#
# Indices 1 2 3 4 5 6 
#
# 1 0.010288 -0.003638 -0.001140 0.000000 0.000000 0.000000
# 2 -0.003638 0.009954 -0.003693 0.000000 0.000000 0.000000
# 3 -0.001140 -0.003693 0.009749 0.000000 0.000000 0.000000
# 4 0.000000 0.000000 0.000000 0.043681 0.000000 0.000000
# 5 0.000000 0.000000 0.000000 0.000000 0.040810 0.000000
# 6 0.000000 0.000000 0.000000 0.000000 0.000000 0.041034
#
#
# Mechanical properties :
#
#
# Convention : Reuss Voigt Hill
#
# Bulk Modulus (GPa) = 76.63757 78.58342 77.61049
# Shear Modulus (GPa) = 28.27911 30.39812 29.33861
#
# Velocity S-wave (km/s) = 3.65883 3.79343 3.72674
# Velocity P-wave (km/s) = 7.35722 7.50915 7.43358
#
# Compressibility (1/GPa) = 0.01304843
#
# Stress axis : x y z
#
# Youngs Moduli (GPa) = 97.20142 100.45775 102.57732
#
# Poissons Ratio (x) = 0.36544 0.11697
# Poissons Ratio (y) = 0.35359 0.37885
# Poissons Ratio (z) = 0.11084 0.37102
#
# Static dielectric constant tensor:
#      x y z
#    x 3.718330 0.000000 0.000000 
#    y 0.000000 3.843340 0.000000 
#    z 0.000000 0.000000 4.130660 
# 
# 
# High freq. dielectric constant tensor:
#      x y z
#    x 1.819610 0.000000 0.000000 
#    y 0.000000 1.823320 0.000000 
#    z 0.000000 0.000000 1.846340 
# 
# From -- ./inp_files/24630.got.cif
#   From: 2010.03.12/outbox.cif.g09.slc.cpg/sg57_13_cif.got.tgz:24630.got - 2010.04.16 15:48:40.
