data_PCOD8235170
_publ_section_title
;
Structure prediction by ZEFSAII (Michael W. Deem and Ramdas Pophale) SiO2 
 PCOD8235170
Probable space group: P B C M
;
_chemical_formula_sum "Si O2"
_cell_formula_units_Z 56
_cell_length_a 20.634516
_cell_length_b 16.813299
_cell_length_c 9.577472
_cell_angle_alpha 90.000000
_cell_angle_beta 90.000000
_cell_angle_gamma 90.000000
_cell_volume 3322.753422
_symmetry_space_group_name_H-M "P B C M"
_symmetry_group_IT_number 57
_symmetry_cell_setting 'orthorhombic'
loop_
_space_group_symop_operation_xyz
x,y,z
-x,-y,1/2+z
x,1/2-y,-z
-x,1/2+y,1/2-z
-x,-y,-z
x,y,1/2-z
-x,1/2+y,z
x,1/2-y,1/2+z
loop_
_atom_site_type_symbol
_atom_site_label
_atom_site_fract_x
_atom_site_fract_y
_atom_site_fract_z
Si Si1 0.661155 0.175115 0.914721
Si Si2 0.854528 0.979803 0.913623
Si Si3 0.419281 0.063787 0.404655
Si Si4 0.954159 0.442655 0.913027
Si Si5 0.290815 0.507456 0.585540
Si Si6 0.937855 0.826398 0.591952
Si Si7 0.475365 0.611929 0.596599
O O1 0.670461 0.189537 0.750000
O O2 0.701361 0.098061 0.967857
O O3 0.585555 0.163942 0.954576
O O4 0.688770 0.250000 0.000000
O O5 0.864409 0.000862 0.750000
O O6 0.888400 0.896483 0.951964
O O7 0.779210 0.973005 0.954314
O O8 0.884709 0.050937 0.009304
O O9 0.414238 0.101274 0.250000
O O10 0.462568 0.123885 0.496513
O O11 0.347479 0.050766 0.473214
O O12 0.454024 0.979201 0.397131
O O13 0.949087 0.468305 0.750000
O O14 0.987254 0.355550 0.923986
O O15 0.000000 0.500000 0.000000
O O16 0.302720 0.510385 0.750000
O O17 0.924083 0.750000 0.500000
O O18 0.923900 0.801119 0.750000
O O19 0.497066 0.640036 0.750000
#
# Coordination Sequence:
#
# PCOD8235170 Si02
#       7
#     8   8   8   8   8   8   8
#     4   9  17  29  44  62  86 118 153 191 234 278
#     4   9  17  31  50  70  92 122 155 185 223 272
#     4   8  13  23  41  62  80 104 140 176 211 259
#     4   9  17  30  47  69  93 117 148 184 221 263
#     4   8  15  29  47  65  89 121 154 185 223 271
#     4   9  18  30  47  70  92 115 146 183 223 266
#     4   8  14  24  38  58  83 106 133 177 226 261
#
# _framework density 16.853491999999999
#
# number of rings (size 3 to 8) (size 9 to 14) (size 15 to 20)
#    0.000    3.429    0.000    3.000    0.000    3.429 
#    0.000    4.286    0.000    4.286    0.000    4.000 
#    0.000    0.000    0.000    0.000    0.000    0.000 
#
# Total GULP energy -693819.941634 kJ/mol
# GULP energy per Si atom -12389.641815 kJ/mol
# Density = 1.681513 g / cm^3
# Si number density = 16.853492 Si / 1000 Ang^3
#
#
#
# Elastic Constant Matrix: (Units=GPa)
#
#
# Indices 1 2 3 4 5 6 
#
# 1 112.4808 31.3907 44.4407 0.0000 0.0000 0.0000
# 2 31.3907 58.1949 31.5460 0.0000 0.0000 0.0000
# 3 44.4407 31.5460 67.0404 0.0000 0.0000 0.0000
# 4 0.0000 0.0000 0.0000 24.5705 0.0000 0.0000
# 5 0.0000 0.0000 0.0000 0.0000 21.7675 0.0000
# 6 0.0000 0.0000 0.0000 0.0000 0.0000 14.9591
#
#
#
# Elastic Compliance Matrix: (Units=1/GPa)
#
#
# Indices 1 2 3 4 5 6 
#
# 1 0.012424 -0.003003 -0.006823 0.000000 0.000000 0.000000
# 2 -0.003003 0.023794 -0.009205 0.000000 0.000000 0.000000
# 3 -0.006823 -0.009205 0.023771 0.000000 0.000000 0.000000
# 4 0.000000 0.000000 0.000000 0.040699 0.000000 0.000000
# 5 0.000000 0.000000 0.000000 0.000000 0.045940 0.000000
# 6 0.000000 0.000000 0.000000 0.000000 0.000000 0.066849
#
#
# Mechanical properties :
#
#
# Convention : Reuss Voigt Hill
#
# Bulk Modulus (GPa) = 45.60812 50.27456 47.94134
# Shear Modulus (GPa) = 19.31637 20.94866 20.13251
#
# Velocity S-wave (km/s) = 3.38913 3.52943 3.45999
# Velocity P-wave (km/s) = 6.51423 6.81940 6.66856
#
# Compressibility (1/GPa) = 0.02192592
#
# Stress axis : x y z
#
# Youngs Moduli (GPa) = 80.48825 42.02821 42.06864
#
# Poissons Ratio (x) = 0.12622 0.28702
# Poissons Ratio (y) = 0.24173 0.38725
# Poissons Ratio (z) = 0.54915 0.38688
#
# Static dielectric constant tensor:
#      x y z
#    x 3.439470 0.000000 0.000000 
#    y 0.000000 2.854880 0.000000 
#    z 0.000000 0.000000 3.275650 
# 
# 
# High freq. dielectric constant tensor:
#      x y z
#    x 1.643670 0.000000 0.000000 
#    y 0.000000 1.612360 0.000000 
#    z 0.000000 0.000000 1.638960 
# 
# From -- ./inp_files/8331.got.cif
#   From: 2010.03.12/outbox.cif.g09.slc.cpg/sg57_5_cif.got.tgz:8331.got - 2010.04.16 15:48:40.
