data_PCOD8235264
_publ_section_title
;
Structure prediction by ZEFSAII (Michael W. Deem and Ramdas Pophale) SiO2 
 PCOD8235264
Probable space group: P N N M
;
_chemical_formula_sum "Si O2"
_cell_formula_units_Z 64
_cell_length_a 16.022260
_cell_length_b 9.346537
_cell_length_c 25.700590
_cell_angle_alpha 90.000000
_cell_angle_beta 90.000000
_cell_angle_gamma 90.000000
_cell_volume 3848.731354
_symmetry_space_group_name_H-M "P N N M"
_symmetry_group_IT_number 58
_symmetry_cell_setting 'orthorhombic'
loop_
_space_group_symop_operation_xyz
x,y,z
-x,-y,z
1/2+x,1/2-y,1/2-z
1/2-x,1/2+y,1/2-z
-x,-y,-z
x,y,-z
1/2-x,1/2+y,1/2+z
1/2+x,1/2-y,1/2+z
loop_
_atom_site_type_symbol
_atom_site_label
_atom_site_fract_x
_atom_site_fract_y
_atom_site_fract_z
Si Si1 0.416922 0.414843 0.106694
Si Si2 0.424833 0.305342 0.782270
Si Si3 0.608921 0.218522 0.758927
Si Si4 0.327649 0.066496 0.267753
Si Si5 0.331465 0.670875 0.059905
Si Si6 0.502037 0.841356 0.940484
Si Si7 0.836820 0.992990 0.786923
Si Si8 0.743881 0.723927 0.656723
O O1 0.500000 0.500000 0.092588
O O2 0.401890 0.401709 0.167941
O O3 0.343688 0.506674 0.079331
O O4 0.424489 0.253147 0.085119
O O5 0.519380 0.249879 0.784273
O O6 0.360353 0.173529 0.777479
O O7 0.413536 0.411653 0.733791
O O8 0.632648 0.328964 0.711959
O O9 0.672800 0.225842 0.807499
O O10 0.607453 0.065605 0.729681
O O11 0.319538 0.153706 0.321761
O O12 0.239175 0.996642 0.253924
O O13 0.413827 0.765212 0.066854
O O14 0.262101 0.744757 0.096432
O O15 0.301171 0.670114 0.000000
O O16 0.500000 0.000000 0.914571
O O17 0.527551 0.857550 0.000000
O O18 0.802028 0.067348 0.839978
#
# Coordination Sequence:
#
# PCOD8235264 Si02
#       8
#     8   8   8   8   8   8   8   8
#     4  10  18  28  43  63  88 121 156 192 233 270
#     4  11  19  28  45  68  93 121 154 187 216 266
#     4  10  17  29  47  69  92 119 157 187 218 278
#     4   9  19  31  44  65  94 124 151 186 233 281
#     4  10  19  31  47  63  83 120 169 205 230 279
#     4   9  18  30  41  58  86 115 149 199 245 269
#     4   9  18  30  43  60  90 124 146 175 229 280
#     4   9  18  32  45  62  92 123 150 189 241 279
#
# _framework density 16.628855999999999
#
# number of rings (size 3 to 8) (size 9 to 14) (size 15 to 20)
#    0.000    2.375    0.000    5.625    0.000    4.500 
#    0.000    0.000    0.000    0.000    0.000    0.000 
#    0.000   16.000    0.000    0.000    0.000    0.000 
#
# Total GULP energy -792984.946596 kJ/mol
# GULP energy per Si atom -12390.389791 kJ/mol
# Density = 1.659101 g / cm^3
# Si number density = 16.628856 Si / 1000 Ang^3
#
#
#
# Elastic Constant Matrix: (Units=GPa)
#
#
# Indices 1 2 3 4 5 6 
#
# 1 32.7149 11.3004 22.4461 0.0000 0.0000 0.0000
# 2 11.3004 101.2862 31.4790 0.0000 0.0000 0.0000
# 3 22.4461 31.4790 83.1512 0.0000 0.0000 0.0000
# 4 0.0000 0.0000 0.0000 21.6188 0.0000 0.0000
# 5 0.0000 0.0000 0.0000 0.0000 20.2180 0.0000
# 6 0.0000 0.0000 0.0000 0.0000 0.0000 17.6130
#
#
#
# Elastic Compliance Matrix: (Units=1/GPa)
#
#
# Indices 1 2 3 4 5 6 
#
# 1 0.037639 -0.001180 -0.009714 0.000000 0.000000 0.000000
# 2 -0.001180 0.011227 -0.003931 0.000000 0.000000 0.000000
# 3 -0.009714 -0.003931 0.016137 0.000000 0.000000 0.000000
# 4 0.000000 0.000000 0.000000 0.046256 0.000000 0.000000
# 5 0.000000 0.000000 0.000000 0.000000 0.049461 0.000000
# 6 0.000000 0.000000 0.000000 0.000000 0.000000 0.056776
#
#
# Mechanical properties :
#
#
# Convention : Reuss Voigt Hill
#
# Bulk Modulus (GPa) = 28.28717 38.62261 33.45489
# Shear Modulus (GPa) = 19.31018 22.01843 20.66430
#
# Velocity S-wave (km/s) = 3.41140 3.64278 3.52899
# Velocity P-wave (km/s) = 5.70655 6.40077 6.06360
#
# Compressibility (1/GPa) = 0.03535172
#
# Stress axis : x y z
#
# Youngs Moduli (GPa) = 26.56786 89.07432 61.97032
#
# Poissons Ratio (x) = 0.10515 0.60196
# Poissons Ratio (y) = 0.03136 0.24363
# Poissons Ratio (z) = 0.25807 0.35019
#
# Static dielectric constant tensor:
#      x y z
#    x 2.961360 0.000000 0.000000 
#    y 0.000000 3.574220 0.000000 
#    z 0.000000 0.000000 2.847820 
# 
# 
# High freq. dielectric constant tensor:
#      x y z
#    x 1.607850 0.000000 0.000000 
#    y 0.000000 1.665710 0.000000 
#    z 0.000000 0.000000 1.594420 
# 
# From -- ./inp_files/33423.got.cif
#   From: 2010.06.25/outbox.cif.g09.slc.cpg/sg58_17_cif.got.tgz:33423.got - 2010.06.26 21:38:00.
