data_PCOD8235891
_publ_section_title
;
Structure prediction by ZEFSAII (Michael W. Deem and Ramdas Pophale) SiO2 
 PCOD8235891
Probable space group: P N N M
;
_chemical_formula_sum "Si O2"
_cell_formula_units_Z 52
_cell_length_a 12.082432
_cell_length_b 18.034164
_cell_length_c 13.796210
_cell_angle_alpha 90.000000
_cell_angle_beta 90.000000
_cell_angle_gamma 90.000000
_cell_volume 3006.146703
_symmetry_space_group_name_H-M "P N N M"
_symmetry_group_IT_number 58
_symmetry_cell_setting 'orthorhombic'
loop_
_space_group_symop_operation_xyz
x,y,z
-x,-y,z
1/2+x,1/2-y,1/2-z
1/2-x,1/2+y,1/2-z
-x,-y,-z
x,y,-z
1/2-x,1/2+y,1/2+z
1/2+x,1/2-y,1/2+z
loop_
_atom_site_type_symbol
_atom_site_label
_atom_site_fract_x
_atom_site_fract_y
_atom_site_fract_z
Si Si1 0.043773 0.766053 0.388548
Si Si2 0.831755 0.853239 0.613648
Si Si3 0.721831 0.654392 0.781900
Si Si4 0.359095 0.256764 0.386043
Si Si5 0.022665 0.337763 0.770913
Si Si6 0.500000 0.000000 0.664858
Si Si7 0.745143 0.007805 0.390339
O O1 0.029855 0.745766 0.500000
O O2 0.165208 0.796876 0.366221
O O3 0.954733 0.828763 0.355348
O O4 0.024196 0.690089 0.331290
O O5 0.819520 0.861047 0.500000
O O6 0.745412 0.791649 0.648087
O O7 0.799103 0.933613 0.655417
O O8 0.655500 0.668851 0.680000
O O9 0.848063 0.679305 0.776324
O O10 0.714400 0.569031 0.813951
O O11 0.360994 0.277464 0.500000
O O12 0.467718 0.208770 0.359423
O O13 0.996145 0.425216 0.771440
O O14 0.611592 0.002027 0.601157
O O15 0.787580 0.024939 0.500000
#
# Coordination Sequence:
#
# PCOD8235891 Si02
#       7
#     8   8   8   8   8   4   8
#     4  10  20  35  53  74 105 139 173 213 256 307
#     4   9  17  31  52  73  96 133 169 203 252 307
#     4  10  21  33  50  80 106 133 170 216 261 302
#     4  10  19  34  53  74 100 137 176 206 246 306
#     4  10  20  33  52  77 104 135 172 212 258 307
#     4  10  19  30  47  76 112 136 163 212 265 306
#     4  10  19  31  50  78 107 132 163 212 267 312
#
# _framework density 17.297892000000001
#
# number of rings (size 3 to 8) (size 9 to 14) (size 15 to 20)
#    0.000    2.154    3.077    0.692    0.000    3.692 
#    0.000    2.692    0.000    0.923    0.000    8.615 
#    0.000    0.000    0.000    0.000    0.000    0.000 
#
# Total GULP energy -644507.635799 kJ/mol
# GULP energy per Si atom -12394.377612 kJ/mol
# Density = 1.725852 g / cm^3
# Si number density = 17.297892 Si / 1000 Ang^3
#
#
#
# Elastic Constant Matrix: (Units=GPa)
#
#
# Indices 1 2 3 4 5 6 
#
# 1 55.1488 26.6806 24.3628 0.0000 0.0000 0.0000
# 2 26.6806 106.7662 51.5396 0.0000 0.0000 0.0000
# 3 24.3628 51.5396 93.2514 0.0000 0.0000 0.0000
# 4 0.0000 0.0000 0.0000 20.7539 0.0000 0.0000
# 5 0.0000 0.0000 0.0000 0.0000 16.9244 0.0000
# 6 0.0000 0.0000 0.0000 0.0000 0.0000 24.6525
#
#
#
# Elastic Compliance Matrix: (Units=1/GPa)
#
#
# Indices 1 2 3 4 5 6 
#
# 1 0.021481 -0.003626 -0.003608 0.000000 0.000000 0.000000
# 2 -0.003626 0.013387 -0.006451 0.000000 0.000000 0.000000
# 3 -0.003608 -0.006451 0.015232 0.000000 0.000000 0.000000
# 4 0.000000 0.000000 0.000000 0.048184 0.000000 0.000000
# 5 0.000000 0.000000 0.000000 0.000000 0.059086 0.000000
# 6 0.000000 0.000000 0.000000 0.000000 0.000000 0.040564
#
#
# Mechanical properties :
#
#
# Convention : Reuss Voigt Hill
#
# Bulk Modulus (GPa) = 43.99763 51.14803 47.57283
# Shear Modulus (GPa) = 21.47020 22.63839 22.05429
#
# Velocity S-wave (km/s) = 3.52689 3.62157 3.57455
# Velocity P-wave (km/s) = 6.48658 6.86446 6.67820
#
# Compressibility (1/GPa) = 0.02272850
#
# Stress axis : x y z
#
# Youngs Moduli (GPa) = 46.55272 74.70054 65.65169
#
# Poissons Ratio (x) = 0.27090 0.23686
# Poissons Ratio (y) = 0.16882 0.42354
# Poissons Ratio (z) = 0.16795 0.48192
#
# Static dielectric constant tensor:
#      x y z
#    x 3.373140 0.000000 0.000000 
#    y 0.000000 3.347130 0.000000 
#    z 0.000000 0.000000 3.020760 
# 
# 
# High freq. dielectric constant tensor:
#      x y z
#    x 1.678290 0.000000 0.000000 
#    y 0.000000 1.661380 0.000000 
#    z 0.000000 0.000000 1.645150 
# 
# From -- ./inp_files/21403.got.cif
#   From: 2010.06.25/outbox.cif.g09.slc.cpg/sg58_11_cif.got.tgz:21403.got - 2010.06.26 21:38:00.
