data_PCOD8235544
_publ_section_title
;
Structure prediction by ZEFSAII (Michael W. Deem and Ramdas Pophale) SiO2 
 PCOD8235544
Probable space group: P N N M
;
_chemical_formula_sum "Si O2"
_cell_formula_units_Z 64
_cell_length_a 14.618346
_cell_length_b 25.980497
_cell_length_c 9.009092
_cell_angle_alpha 90.000000
_cell_angle_beta 90.000000
_cell_angle_gamma 90.000000
_cell_volume 3421.580117
_symmetry_space_group_name_H-M "P N N M"
_symmetry_group_IT_number 58
_symmetry_cell_setting 'orthorhombic'
loop_
_space_group_symop_operation_xyz
x,y,z
-x,-y,z
1/2+x,1/2-y,1/2-z
1/2-x,1/2+y,1/2-z
-x,-y,-z
x,y,-z
1/2-x,1/2+y,1/2+z
1/2+x,1/2-y,1/2+z
loop_
_atom_site_type_symbol
_atom_site_label
_atom_site_fract_x
_atom_site_fract_y
_atom_site_fract_z
Si Si1 0.888382 0.667474 0.663528
Si Si2 0.663992 0.924546 0.667496
Si Si3 0.207140 0.478553 0.677038
Si Si4 0.215426 0.689098 0.824329
Si Si5 0.887186 0.771369 0.175897
Si Si6 0.194771 0.883447 0.838508
Si Si7 0.956248 0.576722 0.169697
Si Si8 0.595229 0.714004 0.323154
O O1 0.928235 0.681727 0.500000
O O2 0.861213 0.716615 0.758188
O O3 0.797507 0.635291 0.640897
O O4 0.959646 0.633509 0.756947
O O5 0.700646 0.928909 0.500000
O O6 0.671526 0.865509 0.721063
O O7 0.559428 0.943877 0.676642
O O8 0.725307 0.963136 0.767531
O O9 0.202668 0.477120 0.500000
O O10 0.290245 0.440396 0.734939
O O11 0.109505 0.461337 0.741751
O O12 0.314361 0.689255 0.745237
O O13 0.149595 0.735389 0.764877
O O14 0.229054 0.694567 0.000000
O O15 0.990129 0.784662 0.226878
O O16 0.878365 0.770933 0.000000
O O17 0.136506 0.839371 0.752483
O O18 0.148408 0.890919 0.000000
O O19 0.922147 0.581229 0.000000
O O20 0.606226 0.712579 0.500000
#
# Coordination Sequence:
#
# PCOD8235544 Si02
#       8
#     8   8   8   8   8   8   8   8
#     4  10  18  31  51  73 103 141 175 209 257 315
#     4  10  21  35  51  72 103 146 184 213 265 331
#     4  10  20  32  51  78 105 137 178 223 270 317
#     4  10  20  37  57  75 104 147 183 214 264 330
#     4  11  21  32  52  81 108 136 176 224 271 319
#     4   8  15  30  52  73  94 130 174 208 247 306
#     4  10  19  32  51  76 105 137 180 223 260 315
#     4   9  17  33  56  77 102 138 176 214 263 325
#
# _framework density 18.704808
#
# number of rings (size 3 to 8) (size 9 to 14) (size 15 to 20)
#    0.000    2.250    1.250    3.375    0.000    5.000 
#    0.000    2.500    0.000    0.750    0.000    5.250 
#    0.000    0.000    0.000    0.000    0.000    0.000 
#
# Total GULP energy -792988.819970 kJ/mol
# GULP energy per Si atom -12390.450312 kJ/mol
# Density = 1.866223 g / cm^3
# Si number density = 18.704808 Si / 1000 Ang^3
#
#
#
# Elastic Constant Matrix: (Units=GPa)
#
#
# Indices 1 2 3 4 5 6 
#
# 1 70.0536 33.5799 26.2699 0.0000 0.0000 0.0000
# 2 33.5799 91.2197 31.2130 0.0000 0.0000 0.0000
# 3 26.2699 31.2130 60.2262 0.0000 0.0000 0.0000
# 4 0.0000 0.0000 0.0000 25.9003 0.0000 0.0000
# 5 0.0000 0.0000 0.0000 0.0000 20.2112 0.0000
# 6 0.0000 0.0000 0.0000 0.0000 0.0000 21.1323
#
#
#
# Elastic Compliance Matrix: (Units=1/GPa)
#
#
# Indices 1 2 3 4 5 6 
#
# 1 0.018768 -0.004993 -0.005598 0.000000 0.000000 0.000000
# 2 -0.004993 0.014654 -0.005417 0.000000 0.000000 0.000000
# 3 -0.005598 -0.005417 0.021853 0.000000 0.000000 0.000000
# 4 0.000000 0.000000 0.000000 0.038610 0.000000 0.000000
# 5 0.000000 0.000000 0.000000 0.000000 0.049477 0.000000
# 6 0.000000 0.000000 0.000000 0.000000 0.000000 0.047321
#
#
# Mechanical properties :
#
#
# Convention : Reuss Voigt Hill
#
# Bulk Modulus (GPa) = 42.99513 44.84722 43.92118
# Shear Modulus (GPa) = 21.69644 22.14453 21.92048
#
# Velocity S-wave (km/s) = 3.40948 3.44451 3.42704
# Velocity P-wave (km/s) = 6.20769 6.31252 6.26033
#
# Compressibility (1/GPa) = 0.02325845
#
# Stress axis : x y z
#
# Youngs Moduli (GPa) = 53.28325 68.24030 45.75956
#
# Poissons Ratio (x) = 0.34073 0.25618
# Poissons Ratio (y) = 0.26605 0.24787
# Poissons Ratio (z) = 0.29830 0.36964
#
# Static dielectric constant tensor:
#      x y z
#    x 3.253620 0.000000 0.000000 
#    y 0.000000 3.791260 0.000000 
#    z 0.000000 0.000000 3.385670 
# 
# 
# High freq. dielectric constant tensor:
#      x y z
#    x 1.691870 0.000000 0.000000 
#    y 0.000000 1.735470 0.000000 
#    z 0.000000 0.000000 1.705470 
# 
# From -- ./inp_files/7188.got.cif
#   From: 2010.06.25/outbox.cif.g09.slc.cpg/sg58_4_cif.got.tgz:7188.got - 2010.06.26 21:38:00.
