data_PCOD8235202
_publ_section_title
;
Structure prediction by ZEFSAII (Michael W. Deem and Ramdas Pophale) SiO2 
 PCOD8235202
Probable space group: P N N M
;
_chemical_formula_sum "Si O2"
_cell_formula_units_Z 64
_cell_length_a 27.183993
_cell_length_b 11.991897
_cell_length_c 13.141031
_cell_angle_alpha 90.000000
_cell_angle_beta 90.000000
_cell_angle_gamma 90.000000
_cell_volume 4283.813737
_symmetry_space_group_name_H-M "P N N M"
_symmetry_group_IT_number 58
_symmetry_cell_setting 'orthorhombic'
loop_
_space_group_symop_operation_xyz
x,y,z
-x,-y,z
1/2+x,1/2-y,1/2-z
1/2-x,1/2+y,1/2-z
-x,-y,-z
x,y,-z
1/2-x,1/2+y,1/2+z
1/2+x,1/2-y,1/2+z
loop_
_atom_site_type_symbol
_atom_site_label
_atom_site_fract_x
_atom_site_fract_y
_atom_site_fract_z
Si Si1 0.661439 0.044404 0.881935
Si Si2 0.409414 0.827285 0.618769
Si Si3 0.516116 0.874050 0.611782
Si Si4 0.888471 0.433394 0.207427
Si Si5 0.711068 0.440997 0.886299
Si Si6 0.195401 0.715727 0.112939
Si Si7 0.339003 0.740031 0.227070
Si Si8 0.749229 0.116158 0.763963
O O1 0.644385 0.172671 0.862044
O O2 0.716968 0.031425 0.835408
O O3 0.623251 0.961050 0.825298
O O4 0.661015 0.014211 0.000000
O O5 0.400784 0.805478 0.500000
O O6 0.467026 0.809142 0.647869
O O7 0.379509 0.735726 0.683598
O O8 0.389667 0.951426 0.644068
O O9 0.533970 0.830929 0.500000
O O10 0.560075 0.865984 0.694442
O O11 0.500000 0.000000 0.598251
O O12 0.845650 0.356140 0.167044
O O13 0.754527 0.352707 0.893488
O O14 0.667231 0.382678 0.821492
O O15 0.728247 0.553853 0.832552
O O16 0.692628 0.471334 0.000000
O O17 0.205681 0.830511 0.173010
O O18 0.177343 0.747108 0.000000
O O19 0.287548 0.785968 0.275649
#
# Coordination Sequence:
#
# PCOD8235202 Si02
#       8
#     8   8   8   8   8   8   8   8
#     4   9  16  27  39  55  82 112 140 169 206 241
#     4   9  15  26  42  64  93 114 133 173 215 253
#     4   8  14  23  39  63  89 111 134 168 214 256
#     4  10  16  25  42  64  84 115 147 166 204 259
#     4  10  17  29  45  59  82 112 144 178 207 244
#     4  10  17  27  44  61  83 113 144 173 204 249
#     4   8  17  27  43  60  81 112 145 167 204 258
#     4   9  18  28  40  61  81 110 144 176 204 241
#
# _framework density 14.939959
#
# number of rings (size 3 to 8) (size 9 to 14) (size 15 to 20)
#    0.750    2.125    1.250    2.625    0.000    1.500 
#    0.000    1.875    0.000   10.125    0.000    0.875 
#    0.000    4.000    0.000    0.000    0.000    0.000 
#
# Total GULP energy -792878.224387 kJ/mol
# GULP energy per Si atom -12388.722256 kJ/mol
# Density = 1.490595 g / cm^3
# Si number density = 14.939959 Si / 1000 Ang^3
#
#
#
# Elastic Constant Matrix: (Units=GPa)
#
#
# Indices 1 2 3 4 5 6 
#
# 1 60.0834 9.2417 32.4393 0.0000 0.0000 0.0000
# 2 9.2417 27.2791 24.3293 0.0000 0.0000 0.0000
# 3 32.4393 24.3293 90.9405 0.0000 0.0000 0.0000
# 4 0.0000 0.0000 0.0000 12.5535 0.0000 0.0000
# 5 0.0000 0.0000 0.0000 0.0000 17.4851 0.0000
# 6 0.0000 0.0000 0.0000 0.0000 0.0000 14.4554
#
#
#
# Elastic Compliance Matrix: (Units=1/GPa)
#
#
# Indices 1 2 3 4 5 6 
#
# 1 0.020620 -0.000559 -0.007206 0.000000 0.000000 0.000000
# 2 -0.000559 0.048161 -0.012685 0.000000 0.000000 0.000000
# 3 -0.007206 -0.012685 0.016960 0.000000 0.000000 0.000000
# 4 0.000000 0.000000 0.000000 0.079659 0.000000 0.000000
# 5 0.000000 0.000000 0.000000 0.000000 0.057191 0.000000
# 6 0.000000 0.000000 0.000000 0.000000 0.000000 0.069178
#
#
# Mechanical properties :
#
#
# Convention : Reuss Voigt Hill
#
# Bulk Modulus (GPa) = 22.30093 34.48040 28.39067
# Shear Modulus (GPa) = 14.38366 16.38498 15.38432
#
# Velocity S-wave (km/s) = 3.10621 3.31527 3.21244
# Velocity P-wave (km/s) = 5.27486 6.14688 5.72749
#
# Compressibility (1/GPa) = 0.04484118
#
# Stress axis : x y z
#
# Youngs Moduli (GPa) = 48.49674 20.76372 58.96162
#
# Poissons Ratio (x) = 0.01161 0.42486
# Poissons Ratio (y) = 0.02712 0.74793
# Poissons Ratio (z) = 0.34945 0.26339
#
# Static dielectric constant tensor:
#      x y z
#    x 3.137550 0.000000 0.000000 
#    y 0.000000 2.510380 0.000000 
#    z 0.000000 0.000000 2.854780 
# 
# 
# High freq. dielectric constant tensor:
#      x y z
#    x 1.554320 0.000000 0.000000 
#    y 0.000000 1.524800 0.000000 
#    z 0.000000 0.000000 1.564710 
# 
# From -- ./inp_files/17836.got.cif
#   From: 2010.06.25/outbox.cif.g09.slc.cpg/sg58_9_cif.got.tgz:17836.got - 2010.06.26 21:38:00.
