data_PCOD8235475
_publ_section_title
;
Structure prediction by ZEFSAII (Michael W. Deem and Ramdas Pophale) SiO2 
 PCOD8235475
Probable space group: P N N M
;
_chemical_formula_sum "Si O2"
_cell_formula_units_Z 48
_cell_length_a 18.307110
_cell_length_b 17.287222
_cell_length_c 8.612678
_cell_angle_alpha 90.000000
_cell_angle_beta 90.000000
_cell_angle_gamma 90.000000
_cell_volume 2725.732365
_symmetry_space_group_name_H-M "P N N M"
_symmetry_group_IT_number 58
_symmetry_cell_setting 'orthorhombic'
loop_
_space_group_symop_operation_xyz
x,y,z
-x,-y,z
1/2+x,1/2-y,1/2-z
1/2-x,1/2+y,1/2-z
-x,-y,-z
x,y,-z
1/2-x,1/2+y,1/2+z
1/2+x,1/2-y,1/2+z
loop_
_atom_site_type_symbol
_atom_site_label
_atom_site_fract_x
_atom_site_fract_y
_atom_site_fract_z
Si Si1 0.690388 0.586012 0.319146
Si Si2 0.315400 0.576776 0.181189
Si Si3 0.916779 0.780434 0.682385
Si Si4 0.307961 0.186777 0.678880
Si Si5 0.083027 0.789605 0.681266
Si Si6 0.297519 0.809590 0.681116
O O1 0.705283 0.594174 0.500000
O O2 0.667315 0.498876 0.279922
O O3 0.624217 0.642196 0.271233
O O4 0.765942 0.605755 0.225859
O O5 0.374717 0.641220 0.230092
O O6 0.232606 0.606138 0.219850
O O7 0.323175 0.557732 0.000000
O O8 0.911760 0.764587 0.500000
O O9 0.881664 0.706224 0.771948
O O10 0.999876 0.787652 0.738586
O O11 0.331192 0.188674 0.500000
O O12 0.379813 0.205856 0.781163
O O13 0.248965 0.253076 0.710031
O O14 0.088620 0.807168 0.500000
O O15 0.284826 0.793374 0.500000
#
# Coordination Sequence:
#
# PCOD8235475 Si02
#       6
#     8   8   8   8   8   8
#     4  11  21  32  48  71 100 129 161 201 241 282
#     4   9  18  33  50  69  96 129 163 196 238 288
#     4   9  19  34  51  72  99 130 160 196 241 287
#     4   9  17  31  50  70  95 126 161 201 239 280
#     4  10  19  32  51  73  99 130 162 195 237 289
#     4  10  18  30  50  71  93 124 163 201 236 282
#
# _framework density 17.609946000000001
#
# number of rings (size 3 to 8) (size 9 to 14) (size 15 to 20)
#    0.000    2.333    0.000    7.000    0.000    5.333 
#    0.000    3.333    0.000    1.000    0.000    7.000 
#    0.000    0.000    0.000    0.000    0.000    0.000 
#
# Total GULP energy -594929.607119 kJ/mol
# GULP energy per Si atom -12394.366815 kJ/mol
# Density = 1.756987 g / cm^3
# Si number density = 17.609946 Si / 1000 Ang^3
#
#
#
# Elastic Constant Matrix: (Units=GPa)
#
#
# Indices 1 2 3 4 5 6 
#
# 1 130.6734 57.8836 40.9458 0.0000 0.0000 0.0000
# 2 57.8836 36.4493 19.8789 0.0000 0.0000 0.0000
# 3 40.9458 19.8789 57.8333 0.0000 0.0000 0.0000
# 4 0.0000 0.0000 0.0000 25.6459 0.0000 0.0000
# 5 0.0000 0.0000 0.0000 0.0000 27.2657 0.0000
# 6 0.0000 0.0000 0.0000 0.0000 0.0000 18.9640
#
#
#
# Elastic Compliance Matrix: (Units=1/GPa)
#
#
# Indices 1 2 3 4 5 6 
#
# 1 0.027115 -0.040109 -0.005411 0.000000 0.000000 0.000000
# 2 -0.040109 0.093096 -0.003602 0.000000 0.000000 0.000000
# 3 -0.005411 -0.003602 0.022360 0.000000 0.000000 0.000000
# 4 0.000000 0.000000 0.000000 0.038993 0.000000 0.000000
# 5 0.000000 0.000000 0.000000 0.000000 0.036676 0.000000
# 6 0.000000 0.000000 0.000000 0.000000 0.000000 0.052732
#
#
# Mechanical properties :
#
#
# Convention : Reuss Voigt Hill
#
# Bulk Modulus (GPa) = 22.55999 51.37472 36.96736
# Shear Modulus (GPa) = 13.02114 21.45832 17.23973
#
# Velocity S-wave (km/s) = 2.72218 3.49454 3.13225
# Velocity P-wave (km/s) = 4.76645 6.74681 5.84117
#
# Compressibility (1/GPa) = 0.04432627
#
# Stress axis : x y z
#
# Youngs Moduli (GPa) = 36.87988 10.74163 44.72263
#
# Poissons Ratio (x) = 0.43084 0.24198
# Poissons Ratio (y) = 1.47923 0.16110
# Poissons Ratio (z) = 0.19955 0.03869
#
# Static dielectric constant tensor:
#      x y z
#    x 3.536460 0.000000 0.000000 
#    y 0.000000 3.299470 0.000000 
#    z 0.000000 0.000000 3.192900 
# 
# 
# High freq. dielectric constant tensor:
#      x y z
#    x 1.671040 0.000000 0.000000 
#    y 0.000000 1.655630 0.000000 
#    z 0.000000 0.000000 1.687590 
# 
# From -- ./inp_files/7851.got.cif
#   From: 2010.06.25/outbox.cif.g09.slc.cpg/sg58_4_cif.got.tgz:7851.got - 2010.06.26 21:38:00.
