data_PCOD8235191
_publ_section_title
;
Structure prediction by ZEFSAII (Michael W. Deem and Ramdas Pophale) SiO2 
 PCOD8235191
Probable space group: P B C M
;
_chemical_formula_sum "Si O2"
_cell_formula_units_Z 48
_cell_length_a 12.000000
_cell_length_b 24.000000
_cell_length_c 9.000000
_cell_angle_alpha 90.000000
_cell_angle_beta 90.000000
_cell_angle_gamma 90.000000
_cell_volume 2592.000000
_symmetry_space_group_name_H-M "P B C M"
_symmetry_group_IT_number 57
_symmetry_cell_setting 'orthorhombic'
loop_
_space_group_symop_operation_xyz
x,y,z
-x,-y,1/2+z
x,1/2-y,-z
-x,1/2+y,1/2-z
-x,-y,-z
x,y,1/2-z
-x,1/2+y,z
x,1/2-y,1/2+z
loop_
_atom_site_type_symbol
_atom_site_label
_atom_site_fract_x
_atom_site_fract_y
_atom_site_fract_z
Si Si1 0.378536 0.495881 0.072429
Si Si2 0.229992 0.098579 0.071793
Si Si3 0.991426 0.559501 0.575523
Si Si4 0.366040 0.309390 0.425582
Si Si5 0.385921 0.806847 0.080492
Si Si6 0.758738 0.410206 0.421478
O O1 0.389562 0.489286 0.250000
O O2 0.500000 0.500000 0.000000
O O3 0.315040 0.443946 0.003097
O O4 0.302761 0.548590 0.033589
O O5 0.229058 0.091898 0.250000
O O6 0.105305 0.092886 0.008518
O O7 0.274163 0.157991 0.019824
O O8 0.962756 0.553329 0.750000
O O9 0.000000 0.500000 0.500000
O O10 0.108700 0.590990 0.551881
O O11 0.362889 0.250000 0.500000
O O12 0.336508 0.308541 0.250000
O O13 0.491519 0.333034 0.453345
O O14 0.381301 0.790011 0.250000
O O15 0.289180 0.849888 0.038444
O O16 0.359399 0.750000 0.000000
O O17 0.732222 0.426916 0.250000
#
# Coordination Sequence:
#
# PCOD8235191 Si02
#       6
#     8   8   8   8   8   8
#     4  12  24  37  57  85 118 151 189 239 298 358
#     4  12  24  39  59  85 118 155 200 246 295 354
#     4  11  22  38  60  84 116 158 202 245 296 352
#     4  10  20  37  61  88 119 154 194 241 297 357
#     4   9  19  36  59  86 116 150 187 233 289 348
#     4  10  21  38  59  84 116 153 195 241 290 349
#
# _framework density 18.518519000000001
#
# number of rings (size 3 to 8) (size 9 to 14) (size 15 to 20)
#    0.000    1.333    1.667    5.000    0.000    3.333 
#    0.000    0.833    0.000    2.000    0.000    0.000 
#    0.000    0.000    0.000    0.000    0.000    0.000 
#
# Total GULP energy -595134.427295 kJ/mol
# GULP energy per Si atom -12398.633902 kJ/mol
# Density = 1.847637 g / cm^3
# Si number density = 18.518519 Si / 1000 Ang^3
#
#
#
# Elastic Constant Matrix: (Units=GPa)
#
#
# Indices 1 2 3 4 5 6 
#
# 1 139.8022 42.9952 59.5491 0.0000 0.0000 0.0000
# 2 42.9952 52.7848 35.7027 0.0000 0.0000 0.0000
# 3 59.5491 35.7027 148.0916 0.0000 0.0000 0.0000
# 4 0.0000 0.0000 0.0000 34.0177 0.0000 0.0000
# 5 0.0000 0.0000 0.0000 0.0000 39.0291 0.0000
# 6 0.0000 0.0000 0.0000 0.0000 0.0000 45.7343
#
#
#
# Elastic Compliance Matrix: (Units=1/GPa)
#
#
# Indices 1 2 3 4 5 6 
#
# 1 0.010278 -0.006663 -0.002527 0.000000 0.000000 0.000000
# 2 -0.006663 0.026955 -0.003819 0.000000 0.000000 0.000000
# 3 -0.002527 -0.003819 0.008689 0.000000 0.000000 0.000000
# 4 0.000000 0.000000 0.000000 0.029396 0.000000 0.000000
# 5 0.000000 0.000000 0.000000 0.000000 0.025622 0.000000
# 6 0.000000 0.000000 0.000000 0.000000 0.000000 0.021865
#
#
# Mechanical properties :
#
#
# Convention : Reuss Voigt Hill
#
# Bulk Modulus (GPa) = 50.23834 68.57472 59.40653
# Shear Modulus (GPa) = 32.16258 37.25167 34.70712
#
# Velocity S-wave (km/s) = 4.17199 4.48994 4.33388
# Velocity P-wave (km/s) = 7.09894 7.99939 7.56258
#
# Compressibility (1/GPa) = 0.01990511
#
# Stress axis : x y z
#
# Youngs Moduli (GPa) = 97.29130 37.09819 115.08354
#
# Poissons Ratio (x) = 0.24719 0.29078
# Poissons Ratio (y) = 0.64827 0.43953
# Poissons Ratio (z) = 0.24582 0.14169
#
# Static dielectric constant tensor:
#      x y z
#    x 5.207360 0.000000 0.000000 
#    y 0.000000 3.305580 0.000000 
#    z 0.000000 0.000000 3.575650 
# 
# 
# High freq. dielectric constant tensor:
#      x y z
#    x 1.734410 0.000000 0.000000 
#    y 0.000000 1.708900 0.000000 
#    z 0.000000 0.000000 1.739710 
# 
# From -- ./inp_files/3182.got.cif
#   From: 2010.03.12/outbox.ucp.g09.slc.cvg/sg57_2_cif.got.tgz:3182.got - 2010.05.04 19:26:41.
