data_PCOD8235142
_publ_section_title
;
Structure prediction by ZEFSAII (Michael W. Deem and Ramdas Pophale) SiO2 
 PCOD8235142
Probable space group: P B C M
;
_chemical_formula_sum "Si O2"
_cell_formula_units_Z 32
_cell_length_a 11.330079
_cell_length_b 7.913113
_cell_length_c 14.452891
_cell_angle_alpha 90.000000
_cell_angle_beta 90.000000
_cell_angle_gamma 90.000000
_cell_volume 1295.791220
_symmetry_space_group_name_H-M "P B C M"
_symmetry_group_IT_number 57
_symmetry_cell_setting 'orthorhombic'
loop_
_space_group_symop_operation_xyz
x,y,z
-x,-y,1/2+z
x,1/2-y,-z
-x,1/2+y,1/2-z
-x,-y,-z
x,y,1/2-z
-x,1/2+y,z
x,1/2-y,1/2+z
loop_
_atom_site_type_symbol
_atom_site_label
_atom_site_fract_x
_atom_site_fract_y
_atom_site_fract_z
Si Si1 0.314552 0.095575 0.586184
Si Si2 0.878002 0.060119 0.750000
Si Si3 0.145940 0.335554 0.250000
Si Si4 0.727118 0.393271 0.076280
Si Si5 0.470527 0.400184 0.643096
O O1 0.211377 0.096665 0.660244
O O2 0.401618 0.255185 0.587936
O O3 0.254515 0.067453 0.484980
O O4 0.396450 0.927850 0.606150
O O5 0.824950 0.137726 0.844536
O O6 0.015955 0.090933 0.750000
O O7 0.847781 0.864404 0.750000
O O8 0.600176 0.420849 0.126940
O O9 0.736553 0.250000 0.000000
O O10 0.469562 0.350543 0.750000
#
# Coordination Sequence:
#
# PCOD8235142 Si02
#       5
#     8   4   4   8   8
#     4  12  25  46  80 117 156 204 247 317 383 462
#     4  12  30  57  77 108 154 207 264 332 374 437
#     4  12  28  53  81 110 156 203 264 320 376 451
#     4  12  27  48  79 114 157 202 257 313 383 467
#     4  12  22  47  78 117 163 201 242 318 392 463
#
# _framework density 24.695336000000001
#
# number of rings (size 3 to 8) (size 9 to 14) (size 15 to 20)
#    0.000    0.000    6.250    3.000    3.500    1.000 
#    0.000    0.000    0.000    0.000    0.000    0.000 
#    0.000    0.000    0.000    0.000    0.000    0.000 
#
# Total GULP energy -396677.112362 kJ/mol
# GULP energy per Si atom -12396.159761 kJ/mol
# Density = 2.463913 g / cm^3
# Si number density = 24.695336 Si / 1000 Ang^3
#
#
#
# Elastic Constant Matrix: (Units=GPa)
#
#
# Indices 1 2 3 4 5 6 
#
# 1 164.4046 23.2557 78.8814 0.0000 0.0000 0.0000
# 2 23.2557 66.7945 50.5481 0.0000 0.0000 0.0000
# 3 78.8814 50.5481 194.1765 0.0000 0.0000 0.0000
# 4 0.0000 0.0000 0.0000 44.5833 0.0000 0.0000
# 5 0.0000 0.0000 0.0000 0.0000 13.0426 0.0000
# 6 0.0000 0.0000 0.0000 0.0000 0.0000 33.8723
#
#
#
# Elastic Compliance Matrix: (Units=1/GPa)
#
#
# Indices 1 2 3 4 5 6 
#
# 1 0.007563 -0.000384 -0.002972 0.000000 0.000000 0.000000
# 2 -0.000384 0.018664 -0.004703 0.000000 0.000000 0.000000
# 3 -0.002972 -0.004703 0.007582 0.000000 0.000000 0.000000
# 4 0.000000 0.000000 0.000000 0.022430 0.000000 0.000000
# 5 0.000000 0.000000 0.000000 0.000000 0.076672 0.000000
# 6 0.000000 0.000000 0.000000 0.000000 0.000000 0.029523
#
#
# Mechanical properties :
#
#
# Convention : Reuss Voigt Hill
#
# Bulk Modulus (GPa) = 56.52688 81.19401 68.86044
# Shear Modulus (GPa) = 27.10803 36.47901 31.79352
#
# Velocity S-wave (km/s) = 3.31675 3.84756 3.59197
# Velocity P-wave (km/s) = 6.13247 7.25864 6.71919
#
# Compressibility (1/GPa) = 0.01769070
#
# Stress axis : x y z
#
# Youngs Moduli (GPa) = 132.22210 53.57988 131.89685
#
# Poissons Ratio (x) = 0.02056 0.39206
# Poissons Ratio (y) = 0.05074 0.62027
# Poissons Ratio (z) = 0.39303 0.25197
#
# Static dielectric constant tensor:
#      x y z
#    x 3.625340 0.000000 0.000000 
#    y 0.000000 5.053920 0.000000 
#    z 0.000000 0.000000 4.848230 
# 
# 
# High freq. dielectric constant tensor:
#      x y z
#    x 1.953130 0.000000 0.000000 
#    y 0.000000 2.007410 0.000000 
#    z 0.000000 0.000000 2.011840 
# 
# From -- ./inp_files/17213.got.cif
#   From: 2010.03.12/outbox.cif.g09.slc.cpg/sg57_9_cif.got.tgz:17213.got - 2010.04.16 15:48:40.
