data_PCOD8235338
_publ_section_title
;
Structure prediction by ZEFSAII (Michael W. Deem and Ramdas Pophale) SiO2 
 PCOD8235338
Probable space group: P N N M
;
_chemical_formula_sum "Si O2"
_cell_formula_units_Z 64
_cell_length_a 10.054505
_cell_length_b 31.051325
_cell_length_c 13.381708
_cell_angle_alpha 90.000000
_cell_angle_beta 90.000000
_cell_angle_gamma 90.000000
_cell_volume 4177.845546
_symmetry_space_group_name_H-M "P N N M"
_symmetry_group_IT_number 58
_symmetry_cell_setting 'orthorhombic'
loop_
_space_group_symop_operation_xyz
x,y,z
-x,-y,z
1/2+x,1/2-y,1/2-z
1/2-x,1/2+y,1/2-z
-x,-y,-z
x,y,-z
1/2-x,1/2+y,1/2+z
1/2+x,1/2-y,1/2+z
loop_
_atom_site_type_symbol
_atom_site_label
_atom_site_fract_x
_atom_site_fract_y
_atom_site_fract_z
Si Si1 0.752215 0.059828 0.382338
Si Si2 0.976740 0.900490 0.382998
Si Si3 0.594190 0.807180 0.306204
Si Si4 0.474858 0.101019 0.618121
Si Si5 0.403113 0.242870 0.888482
Si Si6 0.755493 0.464462 0.116522
Si Si7 0.100805 0.189870 0.694578
Si Si8 0.397832 0.739845 0.610990
O O1 0.769640 0.054279 0.500000
O O2 0.878382 0.086427 0.342326
O O3 0.622946 0.086889 0.354559
O O4 0.745506 0.011980 0.333691
O O5 0.975045 0.887938 0.500000
O O6 0.883542 0.941321 0.361768
O O7 0.925344 0.860456 0.318955
O O8 0.556825 0.856558 0.319748
O O9 0.565637 0.794856 0.190646
O O10 0.747734 0.799132 0.336035
O O11 0.502185 0.778442 0.377205
O O12 0.455066 0.109722 0.500000
O O13 0.376777 0.063949 0.658749
O O14 0.500491 0.283317 0.874470
O O15 0.250966 0.259017 0.874447
O O16 0.424629 0.224211 0.000000
O O17 0.781952 0.470042 0.000000
O O18 0.074654 0.201641 0.810523
O O19 0.414319 0.720304 0.500000
#
# Coordination Sequence:
#
# PCOD8235338 Si02
#       8
#     8   8   8   8   8   8   8   8
#     4   9  18  28  40  59  87 119 145 173 212 256
#     4  10  18  27  42  63  87 116 147 177 209 253
#     4  10  19  31  46  66  89 115 148 181 215 257
#     4  10  18  27  42  63  87 116 147 177 209 253
#     4   9  19  33  48  64  87 116 146 182 220 257
#     4   9  16  28  42  59  85 115 145 177 214 254
#     4  10  19  31  46  66  89 115 148 181 215 257
#     4   9  19  33  48  64  87 116 146 182 220 257
#
# _framework density 15.318899999999999
#
# number of rings (size 3 to 8) (size 9 to 14) (size 15 to 20)
#    0.000    2.500    1.250    1.500    1.750    4.500 
#    0.000    0.000    0.000    0.000    0.000    0.000 
#    0.000    6.000    0.000    0.000    0.000    0.000 
#
# Total GULP energy -793488.404304 kJ/mol
# GULP energy per Si atom -12398.256317 kJ/mol
# Density = 1.528403 g / cm^3
# Si number density = 15.318900 Si / 1000 Ang^3
#
#
#
# Elastic Constant Matrix: (Units=GPa)
#
#
# Indices 1 2 3 4 5 6 
#
# 1 91.9326 33.7796 28.6049 0.0000 0.0000 0.0000
# 2 33.7796 82.7475 30.7748 0.0000 0.0000 0.0000
# 3 28.6049 30.7748 58.1890 0.0000 0.0000 0.0000
# 4 0.0000 0.0000 0.0000 15.5273 0.0000 0.0000
# 5 0.0000 0.0000 0.0000 0.0000 15.2674 0.0000
# 6 0.0000 0.0000 0.0000 0.0000 0.0000 22.6333
#
#
#
# Elastic Compliance Matrix: (Units=1/GPa)
#
#
# Indices 1 2 3 4 5 6 
#
# 1 0.013767 -0.003863 -0.004725 0.000000 0.000000 0.000000
# 2 -0.003863 0.016128 -0.006631 0.000000 0.000000 0.000000
# 3 -0.004725 -0.006631 0.023015 0.000000 0.000000 0.000000
# 4 0.000000 0.000000 0.000000 0.064403 0.000000 0.000000
# 5 0.000000 0.000000 0.000000 0.000000 0.065499 0.000000
# 6 0.000000 0.000000 0.000000 0.000000 0.000000 0.044183
#
#
# Mechanical properties :
#
#
# Convention : Reuss Voigt Hill
#
# Bulk Modulus (GPa) = 44.49757 46.57641 45.53699
# Shear Modulus (GPa) = 18.87350 19.99959 19.43655
#
# Velocity S-wave (km/s) = 3.51385 3.61716 3.56588
# Velocity P-wave (km/s) = 6.75081 6.92211 6.83700
#
# Compressibility (1/GPa) = 0.02247314
#
# Stress axis : x y z
#
# Youngs Moduli (GPa) = 72.63751 62.00421 43.45032
#
# Poissons Ratio (x) = 0.23951 0.20529
# Poissons Ratio (y) = 0.28059 0.28811
# Poissons Ratio (z) = 0.34319 0.41113
#
# Static dielectric constant tensor:
#      x y z
#    x 3.206530 0.000000 0.000000 
#    y 0.000000 2.920430 0.000000 
#    z 0.000000 0.000000 2.649870 
# 
# 
# High freq. dielectric constant tensor:
#      x y z
#    x 1.609880 0.000000 0.000000 
#    y 0.000000 1.583510 0.000000 
#    z 0.000000 0.000000 1.537070 
# 
# From -- ./inp_files/20395.got.cif
#   From: 2010.06.25/outbox.cif.g09.slc.cpg/sg58_11_cif.got.tgz:20395.got - 2010.06.26 21:38:00.
