data_PCOD8235726
_publ_section_title
;
Structure prediction by ZEFSAII (Michael W. Deem and Ramdas Pophale) SiO2 
 PCOD8235726
Probable space group: P N N M
;
_chemical_formula_sum "Si O2"
_cell_formula_units_Z 48
_cell_length_a 29.160630
_cell_length_b 9.983180
_cell_length_c 9.366703
_cell_angle_alpha 90.000000
_cell_angle_beta 90.000000
_cell_angle_gamma 90.000000
_cell_volume 2726.795408
_symmetry_space_group_name_H-M "P N N M"
_symmetry_group_IT_number 58
_symmetry_cell_setting 'orthorhombic'
loop_
_space_group_symop_operation_xyz
x,y,z
-x,-y,z
1/2+x,1/2-y,1/2-z
1/2-x,1/2+y,1/2-z
-x,-y,-z
x,y,-z
1/2-x,1/2+y,1/2+z
1/2+x,1/2-y,1/2+z
loop_
_atom_site_type_symbol
_atom_site_label
_atom_site_fract_x
_atom_site_fract_y
_atom_site_fract_z
Si Si1 0.890143 0.286106 0.334428
Si Si2 0.218649 0.008701 0.331817
Si Si3 0.473564 0.136860 0.334877
Si Si4 0.474252 0.639720 0.163288
Si Si5 0.215008 0.700503 0.336072
Si Si6 0.882358 0.988024 0.668481
O O1 0.904491 0.295838 0.500000
O O2 0.924457 0.377614 0.242687
O O3 0.838253 0.335240 0.312067
O O4 0.895708 0.135083 0.273678
O O5 0.223589 0.028609 0.500000
O O6 0.256403 0.098423 0.257647
O O7 0.168087 0.056049 0.277253
O O8 0.225540 0.853132 0.290118
O O9 0.465550 0.169691 0.500000
O O10 0.503854 0.253792 0.267500
O O11 0.500000 0.000000 0.311764
O O12 0.500000 0.500000 0.178239
O O13 0.421060 0.619598 0.211033
O O14 0.477111 0.691007 0.000000
O O15 0.228627 0.679419 0.500000
O O16 0.879068 0.006827 0.500000
#
# Coordination Sequence:
#
# PCOD8235726 Si02
#       6
#     8   8   8   8   8   8
#     4   9  17  35  59  77  99 136 182 221 254 304
#     4   9  18  34  55  77 108 141 170 213 265 313
#     4  11  24  38  50  74 114 146 170 210 265 321
#     4  10  18  33  60  83 100 131 177 222 258 302
#     4   9  19  35  56  81 106 135 175 220 260 307
#     4   8  15  31  55  81 102 128 173 223 261 299
#
# _framework density 17.603081
#
# number of rings (size 3 to 8) (size 9 to 14) (size 15 to 20)
#    0.000    2.667    1.667    2.500    0.000    3.000 
#    3.000    3.333    0.000    0.000    0.000    0.000 
#    0.000    0.000    0.000    0.000    0.000    0.000 
#
# Total GULP energy -595039.739025 kJ/mol
# GULP energy per Si atom -12396.661230 kJ/mol
# Density = 1.756302 g / cm^3
# Si number density = 17.603081 Si / 1000 Ang^3
#
#
#
# Elastic Constant Matrix: (Units=GPa)
#
#
# Indices 1 2 3 4 5 6 
#
# 1 131.4602 62.1277 65.9523 0.0000 0.0000 0.0000
# 2 62.1277 71.6963 51.5372 0.0000 0.0000 0.0000
# 3 65.9523 51.5372 75.6030 0.0000 0.0000 0.0000
# 4 0.0000 0.0000 0.0000 31.1331 0.0000 0.0000
# 5 0.0000 0.0000 0.0000 0.0000 31.0665 0.0000
# 6 0.0000 0.0000 0.0000 0.0000 0.0000 25.7857
#
#
#
# Elastic Compliance Matrix: (Units=1/GPa)
#
#
# Indices 1 2 3 4 5 6 
#
# 1 0.015183 -0.007129 -0.008385 0.000000 0.000000 0.000000
# 2 -0.007129 0.030697 -0.014706 0.000000 0.000000 0.000000
# 3 -0.008385 -0.014706 0.030566 0.000000 0.000000 0.000000
# 4 0.000000 0.000000 0.000000 0.032120 0.000000 0.000000
# 5 0.000000 0.000000 0.000000 0.000000 0.032189 0.000000
# 6 0.000000 0.000000 0.000000 0.000000 0.000000 0.038781
#
#
# Mechanical properties :
#
#
# Convention : Reuss Voigt Hill
#
# Bulk Modulus (GPa) = 62.47892 70.88822 66.68357
# Shear Modulus (GPa) = 20.38223 24.20653 22.29438
#
# Velocity S-wave (km/s) = 3.40645 3.71230 3.56266
# Velocity P-wave (km/s) = 7.14438 7.66372 7.40860
#
# Compressibility (1/GPa) = 0.01600540
#
# Stress axis : x y z
#
# Youngs Moduli (GPa) = 65.86460 32.57682 32.71562
#
# Poissons Ratio (x) = 0.23225 0.27431
# Poissons Ratio (y) = 0.46956 0.48112
# Poissons Ratio (z) = 0.55226 0.47908
#
# Static dielectric constant tensor:
#      x y z
#    x 2.722720 0.000000 0.000000 
#    y 0.000000 -1.988670 0.000000 
#    z 0.000000 0.000000 3.070770 
# 
# 
# High freq. dielectric constant tensor:
#      x y z
#    x 1.697600 0.000000 0.000000 
#    y 0.000000 1.662390 0.000000 
#    z 0.000000 0.000000 1.659720 
# 
# From -- ./inp_files/3017.got.cif
#   From: 2010.06.25/outbox.cif.g09.slc.cpg/sg58_2_cif.got.tgz:3017.got - 2010.06.26 21:38:00.
