data_PCOD8235741
_publ_section_title
;
Structure prediction by ZEFSAII (Michael W. Deem and Ramdas Pophale) SiO2 
 PCOD8235741
Probable space group: P N N M
;
_chemical_formula_sum "Si O2"
_cell_formula_units_Z 64
_cell_length_a 18.851917
_cell_length_b 19.933700
_cell_length_c 8.970255
_cell_angle_alpha 90.000000
_cell_angle_beta 90.000000
_cell_angle_gamma 90.000000
_cell_volume 3370.918293
_symmetry_space_group_name_H-M "P N N M"
_symmetry_group_IT_number 58
_symmetry_cell_setting 'orthorhombic'
loop_
_space_group_symop_operation_xyz
x,y,z
-x,-y,z
1/2+x,1/2-y,1/2-z
1/2-x,1/2+y,1/2-z
-x,-y,-z
x,y,-z
1/2-x,1/2+y,1/2+z
1/2+x,1/2-y,1/2+z
loop_
_atom_site_type_symbol
_atom_site_label
_atom_site_fract_x
_atom_site_fract_y
_atom_site_fract_z
Si Si1 0.450983 0.562480 0.326168
Si Si2 0.314142 0.737246 0.177047
Si Si3 0.048280 0.814012 0.824101
Si Si4 0.795239 0.153949 0.822746
Si Si5 0.556145 0.053494 0.822860
Si Si6 0.806314 0.914470 0.323380
Si Si7 0.714372 0.022264 0.822835
Si Si8 0.037525 0.295874 0.676954
O O1 0.500000 0.500000 0.286136
O O2 0.430985 0.562604 0.500000
O O3 0.491152 0.630054 0.278132
O O4 0.379923 0.554072 0.231861
O O5 0.252569 0.785301 0.240874
O O6 0.300270 0.662035 0.233770
O O7 0.389650 0.763227 0.237059
O O8 0.314815 0.740283 0.000000
O O9 0.124929 0.837189 0.763165
O O10 0.028249 0.743746 0.748213
O O11 0.051097 0.803677 0.000000
O O12 0.763776 0.083363 0.766612
O O13 0.793343 0.154772 0.000000
O O14 0.634638 0.035394 0.765907
O O15 0.534119 0.127407 0.767250
O O16 0.500000 0.000000 0.757530
O O17 0.555921 0.052222 0.000000
O O18 0.802661 0.919321 0.500000
O O19 0.740765 0.954094 0.252680
O O20 0.717562 0.014384 0.000000
O O21 0.032122 0.291039 0.500000
#
# Coordination Sequence:
#
# PCOD8235741 Si02
#       8
#     8   8   8   8   8   8   8   8
#     4  10  20  35  53  76 106 142 182 223 266 316
#     4   9  17  32  54  76 100 141 185 214 253 321
#     4  10  20  32  52  81 107 132 176 232 271 309
#     4   9  17  33  56  78 100 140 190 221 254 319
#     4   9  18  33  58  88 110 138 186 235 273 319
#     4  11  22  34  52  80 112 143 178 221 269 323
#     4  10  19  35  58  79 107 146 186 226 268 320
#     4  10  18  34  57  78 106 144 180 215 269 333
#
# _framework density 18.985924000000001
#
# number of rings (size 3 to 8) (size 9 to 14) (size 15 to 20)
#    0.000    2.250    2.500    1.125    0.000    3.250 
#    0.000    2.500    0.000    3.750    0.000    0.000 
#    0.000    0.000    0.000    0.000    0.000    0.000 
#
# Total GULP energy -793697.071646 kJ/mol
# GULP energy per Si atom -12401.516744 kJ/mol
# Density = 1.894271 g / cm^3
# Si number density = 18.985924 Si / 1000 Ang^3
#
#
#
# Elastic Constant Matrix: (Units=GPa)
#
#
# Indices 1 2 3 4 5 6 
#
# 1 125.6678 67.3567 22.7894 0.0000 0.0000 0.0000
# 2 67.3567 160.8104 27.3513 0.0000 0.0000 0.0000
# 3 22.7894 27.3513 25.2194 0.0000 0.0000 0.0000
# 4 0.0000 0.0000 0.0000 25.1806 0.0000 0.0000
# 5 0.0000 0.0000 0.0000 0.0000 17.9240 0.0000
# 6 0.0000 0.0000 0.0000 0.0000 0.0000 41.4435
#
#
#
# Elastic Compliance Matrix: (Units=1/GPa)
#
#
# Indices 1 2 3 4 5 6 
#
# 1 0.010964 -0.003565 -0.006041 0.000000 0.000000 0.000000
# 2 -0.003565 0.008784 -0.006305 0.000000 0.000000 0.000000
# 3 -0.006041 -0.006305 0.051950 0.000000 0.000000 0.000000
# 4 0.000000 0.000000 0.000000 0.039713 0.000000 0.000000
# 5 0.000000 0.000000 0.000000 0.000000 0.055791 0.000000
# 6 0.000000 0.000000 0.000000 0.000000 0.000000 0.024129
#
#
# Mechanical properties :
#
#
# Convention : Reuss Voigt Hill
#
# Bulk Modulus (GPa) = 25.07859 60.74360 42.91110
# Shear Modulus (GPa) = 21.14657 29.85630 25.50144
#
# Velocity S-wave (km/s) = 3.34099 3.96984 3.66891
# Velocity P-wave (km/s) = 5.30289 7.28535 6.37169
#
# Compressibility (1/GPa) = 0.03987464
#
# Stress axis : x y z
#
# Youngs Moduli (GPa) = 91.21004 113.84270 19.24945
#
# Poissons Ratio (x) = 0.40582 0.11629
# Poissons Ratio (y) = 0.32514 0.12137
# Poissons Ratio (z) = 0.55102 0.71782
#
# Static dielectric constant tensor:
#      x y z
#    x 3.620690 0.000000 0.000000 
#    y 0.000000 3.700500 0.000000 
#    z 0.000000 0.000000 2.975920 
# 
# 
# High freq. dielectric constant tensor:
#      x y z
#    x 1.744740 0.000000 0.000000 
#    y 0.000000 1.752770 0.000000 
#    z 0.000000 0.000000 1.688570 
# 
# From -- ./inp_files/9249.got.cif
#   From: 2010.06.25/outbox.cif.g09.slc.cpg/sg58_5_cif.got.tgz:9249.got - 2010.06.26 21:38:00.
