data_PCOD8235677
_publ_section_title
;
Structure prediction by ZEFSAII (Michael W. Deem and Ramdas Pophale) SiO2 
 PCOD8235677
Probable space group: P N N M
;
_chemical_formula_sum "Si O2"
_cell_formula_units_Z 64
_cell_length_a 29.199898
_cell_length_b 12.064498
_cell_length_c 9.040185
_cell_angle_alpha 90.000000
_cell_angle_beta 90.000000
_cell_angle_gamma 90.000000
_cell_volume 3184.695456
_symmetry_space_group_name_H-M "P N N M"
_symmetry_group_IT_number 58
_symmetry_cell_setting 'orthorhombic'
loop_
_space_group_symop_operation_xyz
x,y,z
-x,-y,z
1/2+x,1/2-y,1/2-z
1/2-x,1/2+y,1/2-z
-x,-y,-z
x,y,-z
1/2-x,1/2+y,1/2+z
1/2+x,1/2-y,1/2+z
loop_
_atom_site_type_symbol
_atom_site_label
_atom_site_fract_x
_atom_site_fract_y
_atom_site_fract_z
Si Si1 0.932294 0.028085 0.335586
Si Si2 0.339606 0.757194 0.326333
Si Si3 0.032280 0.743424 0.325850
Si Si4 0.191968 0.496234 0.169017
Si Si5 0.780182 0.952917 0.174976
Si Si6 0.567373 0.286355 0.174097
Si Si7 0.336545 0.370103 0.166973
Si Si8 0.617242 0.830824 0.329756
O O1 0.952630 0.020981 0.500000
O O2 0.957172 0.133166 0.259732
O O3 0.878042 0.043819 0.335722
O O4 0.941732 0.909842 0.258274
O O5 0.348173 0.749578 0.500000
O O6 0.311743 0.867727 0.284112
O O7 0.310469 0.651577 0.269597
O O8 0.389232 0.767790 0.251468
O O9 0.044283 0.739518 0.500000
O O10 0.066580 0.659085 0.243237
O O11 0.978921 0.714488 0.296034
O O12 0.227911 0.561708 0.272185
O O13 0.141897 0.551040 0.188032
O O14 0.208746 0.507407 0.000000
O O15 0.796130 0.068834 0.246036
O O16 0.782459 0.962214 0.000000
O O17 0.577732 0.294341 0.000000
O O18 0.350953 0.258458 0.248627
O O19 0.320390 0.341297 0.000000
O O20 0.611800 0.795910 0.500000
#
# Coordination Sequence:
#
# PCOD8235677 Si02
#       8
#     8   8   8   8   8   8   8   8
#     4   8  14  27  49  78 112 148 183 223 274 335
#     4  10  23  42  60  84 119 152 190 241 296 347
#     4   9  18  32  54  84 118 156 196 240 292 347
#     4  10  24  44  62  81 113 158 198 239 290 351
#     4  11  23  38  60  90 117 144 187 242 294 350
#     4  10  18  32  56  85 116 154 199 240 286 347
#     4  10  19  34  58  84 116 154 186 228 290 348
#     4  10  21  38  59  84 116 153 201 247 286 341
#
# _framework density 20.096112999999999
#
# number of rings (size 3 to 8) (size 9 to 14) (size 15 to 20)
#    0.000    2.250    1.250    2.250    1.750    4.000 
#    0.000    0.625    0.000    6.000    0.000    0.000 
#    0.000    0.000    0.000    0.000    0.000    0.000 
#
# Total GULP energy -793370.282234 kJ/mol
# GULP energy per Si atom -12396.410660 kJ/mol
# Density = 2.005037 g / cm^3
# Si number density = 20.096113 Si / 1000 Ang^3
#
#
#
# Elastic Constant Matrix: (Units=GPa)
#
#
# Indices 1 2 3 4 5 6 
#
# 1 121.7040 32.7596 45.8437 0.0000 0.0000 0.0000
# 2 32.7596 64.4136 33.0681 0.0000 0.0000 0.0000
# 3 45.8437 33.0681 79.8205 0.0000 0.0000 0.0000
# 4 0.0000 0.0000 0.0000 21.3517 0.0000 0.0000
# 5 0.0000 0.0000 0.0000 0.0000 34.8784 0.0000
# 6 0.0000 0.0000 0.0000 0.0000 0.0000 19.4489
#
#
#
# Elastic Compliance Matrix: (Units=1/GPa)
#
#
# Indices 1 2 3 4 5 6 
#
# 1 0.010913 -0.002962 -0.005040 0.000000 0.000000 0.000000
# 2 -0.002962 0.020523 -0.006801 0.000000 0.000000 0.000000
# 3 -0.005040 -0.006801 0.018240 0.000000 0.000000 0.000000
# 4 0.000000 0.000000 0.000000 0.046835 0.000000 0.000000
# 5 0.000000 0.000000 0.000000 0.000000 0.028671 0.000000
# 6 0.000000 0.000000 0.000000 0.000000 0.000000 0.051417
#
#
# Mechanical properties :
#
#
# Convention : Reuss Voigt Hill
#
# Bulk Modulus (GPa) = 49.82857 54.36453 52.09655
# Shear Modulus (GPa) = 23.48583 25.42025 24.45304
#
# Velocity S-wave (km/s) = 3.42230 3.56045 3.49206
# Velocity P-wave (km/s) = 6.36122 6.63426 6.49917
#
# Compressibility (1/GPa) = 0.02006881
#
# Stress axis : x y z
#
# Youngs Moduli (GPa) = 91.63689 48.72675 54.82379
#
# Poissons Ratio (x) = 0.14435 0.27632
# Poissons Ratio (y) = 0.27147 0.37284
# Poissons Ratio (z) = 0.46187 0.33137
#
# Static dielectric constant tensor:
#      x y z
#    x 3.688740 0.000000 0.000000 
#    y 0.000000 3.498960 0.000000 
#    z 0.000000 0.000000 3.459820 
# 
# 
# High freq. dielectric constant tensor:
#      x y z
#    x 1.791580 0.000000 0.000000 
#    y 0.000000 1.766120 0.000000 
#    z 0.000000 0.000000 1.763020 
# 
# From -- ./inp_files/11069.got.cif
#   From: 2010.06.25/outbox.cif.g09.slc.cpg/sg58_6_cif.got.tgz:11069.got - 2010.06.26 21:38:00.
