data_PCOD8235182
_publ_section_title
;
Structure prediction by ZEFSAII (Michael W. Deem and Ramdas Pophale) SiO2 
 PCOD8235182
Probable space group: P B C M
;
_chemical_formula_sum "Si O2"
_cell_formula_units_Z 48
_cell_length_a 13.561233
_cell_length_b 12.432620
_cell_length_c 13.782590
_cell_angle_alpha 90.000000
_cell_angle_beta 90.000000
_cell_angle_gamma 90.000000
_cell_volume 2323.767507
_symmetry_space_group_name_H-M "P B C M"
_symmetry_group_IT_number 57
_symmetry_cell_setting 'orthorhombic'
loop_
_space_group_symop_operation_xyz
x,y,z
-x,-y,1/2+z
x,1/2-y,-z
-x,1/2+y,1/2-z
-x,-y,-z
x,y,1/2-z
-x,1/2+y,z
x,1/2-y,1/2+z
loop_
_atom_site_type_symbol
_atom_site_label
_atom_site_fract_x
_atom_site_fract_y
_atom_site_fract_z
Si Si1 0.369241 0.213943 0.639428
Si Si2 0.036277 0.787182 0.360414
Si Si3 0.082941 0.581722 0.030004
Si Si4 0.171336 0.099924 0.862161
Si Si5 0.442411 0.637242 0.980181
Si Si6 0.569917 0.946324 0.860805
O O1 0.393268 0.181556 0.750000
O O2 0.265698 0.167087 0.603397
O O3 0.455089 0.168803 0.572271
O O4 0.358505 0.343682 0.630945
O O5 0.069756 0.806235 0.250000
O O6 0.924973 0.826911 0.379456
O O7 0.041588 0.661522 0.386830
O O8 0.111216 0.852212 0.432032
O O9 0.171345 0.510937 0.075390
O O10 0.000000 0.500000 0.000000
O O11 0.179241 0.067284 0.750000
O O12 0.382742 0.553527 0.911596
O O13 0.383439 0.750000 0.000000
O O14 0.467224 0.579406 0.082539
O O15 0.543655 0.973036 0.750000
#
# Coordination Sequence:
#
# PCOD8235182 Si02
#       6
#     8   8   8   8   8   8
#     4   9  17  30  49  79 109 138 174 216 264 312
#     4   9  17  30  49  73 104 141 181 224 264 315
#     4   9  17  30  45  74 101 140 178 220 259 319
#     4   9  17  30  50  77 110 139 172 217 265 312
#     4   9  17  30  48  77 103 137 177 215 263 310
#     4   9  17  30  48  73 107 138 171 218 264 310
#
# _framework density 20.656110999999999
#
# number of rings (size 3 to 8) (size 9 to 14) (size 15 to 20)
#    0.000    3.000    0.000    1.000    0.000    1.333 
#   18.000    0.000    0.000    1.000   34.667    0.000 
#    0.000    0.000    0.000    0.000    0.000    0.000 
#
# Total GULP energy -594684.162782 kJ/mol
# GULP energy per Si atom -12389.253391 kJ/mol
# Density = 2.060910 g / cm^3
# Si number density = 20.656111 Si / 1000 Ang^3
#
#
#
# Elastic Constant Matrix: (Units=GPa)
#
#
# Indices 1 2 3 4 5 6 
#
# 1 39.5957 27.2225 20.6562 0.0000 0.0000 0.0000
# 2 27.2225 145.4737 53.3466 0.0000 0.0000 0.0000
# 3 20.6562 53.3466 128.9122 0.0000 0.0000 0.0000
# 4 0.0000 0.0000 0.0000 41.1026 0.0000 0.0000
# 5 0.0000 0.0000 0.0000 0.0000 16.2609 0.0000
# 6 0.0000 0.0000 0.0000 0.0000 0.0000 24.5584
#
#
#
# Elastic Compliance Matrix: (Units=1/GPa)
#
#
# Indices 1 2 3 4 5 6 
#
# 1 0.029887 -0.004523 -0.002917 0.000000 0.000000 0.000000
# 2 -0.004523 0.008788 -0.002912 0.000000 0.000000 0.000000
# 3 -0.002917 -0.002912 0.009430 0.000000 0.000000 0.000000
# 4 0.000000 0.000000 0.000000 0.024329 0.000000 0.000000
# 5 0.000000 0.000000 0.000000 0.000000 0.061497 0.000000
# 6 0.000000 0.000000 0.000000 0.000000 0.000000 0.040719
#
#
# Mechanical properties :
#
#
# Convention : Reuss Voigt Hill
#
# Bulk Modulus (GPa) = 36.49592 57.38136 46.93864
# Shear Modulus (GPa) = 24.45127 30.56815 27.50971
#
# Velocity S-wave (km/s) = 3.44427 3.85107 3.65334
# Velocity P-wave (km/s) = 5.78999 6.90029 6.36938
#
# Compressibility (1/GPa) = 0.02740033
#
# Stress axis : x y z
#
# Youngs Moduli (GPa) = 33.45977 113.78687 106.04751
#
# Poissons Ratio (x) = 0.51465 0.30936
# Poissons Ratio (y) = 0.15134 0.30882
# Poissons Ratio (z) = 0.09761 0.33136
#
# Static dielectric constant tensor:
#      x y z
#    x 3.101320 0.000000 0.000000 
#    y 0.000000 4.476730 0.000000 
#    z 0.000000 0.000000 4.220520 
# 
# 
# High freq. dielectric constant tensor:
#      x y z
#    x 1.731520 0.000000 0.000000 
#    y 0.000000 1.831590 0.000000 
#    z 0.000000 0.000000 1.828900 
# 
# From -- ./inp_files/18406.got.cif
#   From: 2010.03.12/outbox.cif.g09.slc.cpg/sg57_10_cif.got.tgz:18406.got - 2010.04.16 15:48:40.
