data_PCOD8235735
_publ_section_title
;
Structure prediction by ZEFSAII (Michael W. Deem and Ramdas Pophale) SiO2 
 PCOD8235735
Probable space group: P N N M
;
_chemical_formula_sum "Si O2"
_cell_formula_units_Z 52
_cell_length_a 11.364458
_cell_length_b 15.661292
_cell_length_c 15.170453
_cell_angle_alpha 90.000000
_cell_angle_beta 90.000000
_cell_angle_gamma 90.000000
_cell_volume 2700.069009
_symmetry_space_group_name_H-M "P N N M"
_symmetry_group_IT_number 58
_symmetry_cell_setting 'orthorhombic'
loop_
_space_group_symop_operation_xyz
x,y,z
-x,-y,z
1/2+x,1/2-y,1/2-z
1/2-x,1/2+y,1/2-z
-x,-y,-z
x,y,-z
1/2-x,1/2+y,1/2+z
1/2+x,1/2-y,1/2+z
loop_
_atom_site_type_symbol
_atom_site_label
_atom_site_fract_x
_atom_site_fract_y
_atom_site_fract_z
Si Si1 0.629105 0.038035 0.903149
Si Si2 0.614828 0.340023 0.263406
Si Si3 0.237515 0.746216 0.601290
Si Si4 0.000197 0.320908 0.677637
Si Si5 0.230767 0.941676 0.604770
Si Si6 0.665059 0.938320 0.265455
Si Si7 0.000000 0.000000 0.298592
O O1 0.607504 0.137421 0.877511
O O2 0.500000 0.000000 0.909558
O O3 0.700312 0.988030 0.826515
O O4 0.691565 0.031505 0.000000
O O5 0.650995 0.303415 0.358176
O O6 0.546690 0.268050 0.210954
O O7 0.735748 0.367013 0.214337
O O8 0.528707 0.421560 0.267012
O O9 0.263730 0.746069 0.500000
O O10 0.235431 0.843443 0.636025
O O11 0.115615 0.697062 0.619318
O O12 0.960265 0.389160 0.754513
O O13 0.244101 0.952275 0.500000
O O14 0.107313 0.980036 0.636438
O O15 0.335887 0.993979 0.653914
#
# Coordination Sequence:
#
# PCOD8235735 Si02
#       7
#     8   8   8   8   8   8   4
#     4   9  17  31  54  81 110 140 178 226 277 329
#     4  10  20  34  56  81 111 148 183 228 278 333
#     4  10  20  34  55  85 113 142 183 229 273 331
#     4  10  18  34  55  82 111 143 186 231 278 331
#     4  10  19  34  55  80 111 144 183 224 270 324
#     4   9  20  33  52  81 113 144 181 231 280 330
#     4  10  19  36  55  82 104 144 185 226 272 322
#
# _framework density 19.258766000000001
#
# number of rings (size 3 to 8) (size 9 to 14) (size 15 to 20)
#    0.000    2.308    1.538    1.615    0.000    3.692 
#    0.000    1.923    0.000    6.923    0.000    0.000 
#    0.000    0.000    0.000    0.000    0.000    0.000 
#
# Total GULP energy -644318.815264 kJ/mol
# GULP energy per Si atom -12390.746447 kJ/mol
# Density = 1.921493 g / cm^3
# Si number density = 19.258766 Si / 1000 Ang^3
#
#
#
# Elastic Constant Matrix: (Units=GPa)
#
#
# Indices 1 2 3 4 5 6 
#
# 1 34.7843 25.8557 29.9182 0.0000 0.0000 0.0000
# 2 25.8557 134.4561 53.1684 0.0000 0.0000 0.0000
# 3 29.9182 53.1684 83.3281 0.0000 0.0000 0.0000
# 4 0.0000 0.0000 0.0000 24.1813 0.0000 0.0000
# 5 0.0000 0.0000 0.0000 0.0000 20.0852 0.0000
# 6 0.0000 0.0000 0.0000 0.0000 0.0000 37.7251
#
#
#
# Elastic Compliance Matrix: (Units=1/GPa)
#
#
# Indices 1 2 3 4 5 6 
#
# 1 0.042396 -0.002853 -0.013401 0.000000 0.000000 0.000000
# 2 -0.002853 0.010139 -0.005445 0.000000 0.000000 0.000000
# 3 -0.013401 -0.005445 0.020287 0.000000 0.000000 0.000000
# 4 0.000000 0.000000 0.000000 0.041354 0.000000 0.000000
# 5 0.000000 0.000000 0.000000 0.000000 0.049788 0.000000
# 6 0.000000 0.000000 0.000000 0.000000 0.000000 0.026508
#
#
# Mechanical properties :
#
#
# Convention : Reuss Voigt Hill
#
# Bulk Modulus (GPa) = 33.98749 52.27258 43.13004
# Shear Modulus (GPa) = 20.51886 25.97341 23.24613
#
# Velocity S-wave (km/s) = 3.26763 3.67639 3.47802
# Velocity P-wave (km/s) = 5.65002 6.72475 6.21067
#
# Compressibility (1/GPa) = 0.02942259
#
# Stress axis : x y z
#
# Youngs Moduli (GPa) = 23.58710 98.62730 49.29372
#
# Poissons Ratio (x) = 0.28142 0.66060
# Poissons Ratio (y) = 0.06730 0.26840
# Poissons Ratio (z) = 0.31610 0.53702
#
# Static dielectric constant tensor:
#      x y z
#    x 3.383150 0.000000 0.000000 
#    y 0.000000 4.129960 0.000000 
#    z 0.000000 0.000000 3.494810 
# 
# 
# High freq. dielectric constant tensor:
#      x y z
#    x 1.719960 0.000000 0.000000 
#    y 0.000000 1.775920 0.000000 
#    z 0.000000 0.000000 1.724960 
# 
# From -- ./inp_files/21419.got.cif
#   From: 2010.06.25/outbox.cif.g09.slc.cpg/sg58_11_cif.got.tgz:21419.got - 2010.06.26 21:38:00.
