data_PCOD8235651
_publ_section_title
;
Structure prediction by ZEFSAII (Michael W. Deem and Ramdas Pophale) SiO2 
 PCOD8235651
Probable space group: P N N M
;
_chemical_formula_sum "Si O2"
_cell_formula_units_Z 48
_cell_length_a 10.258181
_cell_length_b 28.953700
_cell_length_c 8.934444
_cell_angle_alpha 90.000000
_cell_angle_beta 90.000000
_cell_angle_gamma 90.000000
_cell_volume 2653.639719
_symmetry_space_group_name_H-M "P N N M"
_symmetry_group_IT_number 58
_symmetry_cell_setting 'orthorhombic'
loop_
_space_group_symop_operation_xyz
x,y,z
-x,-y,z
1/2+x,1/2-y,1/2-z
1/2-x,1/2+y,1/2-z
-x,-y,-z
x,y,-z
1/2-x,1/2+y,1/2+z
1/2+x,1/2-y,1/2+z
loop_
_atom_site_type_symbol
_atom_site_label
_atom_site_fract_x
_atom_site_fract_y
_atom_site_fract_z
Si Si1 0.228405 0.619369 0.676305
Si Si2 0.785715 0.285867 0.823600
Si Si3 0.121675 0.967426 0.174894
Si Si4 0.370072 0.022427 0.177535
Si Si5 0.488568 0.279878 0.829133
Si Si6 0.499794 0.385520 0.828082
O O1 0.230025 0.627226 0.500000
O O2 0.172856 0.665257 0.753232
O O3 0.137233 0.576288 0.723359
O O4 0.373154 0.606989 0.728056
O O5 0.638210 0.272272 0.774169
O O6 0.889589 0.247920 0.774568
O O7 0.789029 0.292010 0.000000
O O8 0.110788 0.919657 0.266071
O O9 0.247701 0.993632 0.239062
O O10 0.133112 0.955613 0.000000
O O11 0.000000 0.000000 0.208779
O O12 0.500000 0.000000 0.247015
O O13 0.369303 0.018509 0.000000
O O14 0.448796 0.333280 0.812890
O O15 0.473103 0.263013 0.000000
O O16 0.533839 0.396626 0.000000
#
# Coordination Sequence:
#
# PCOD8235651 Si02
#       6
#     8   8   8   8   8   8
#     4  10  18  33  57  79 106 143 181 217 266 321
#     4  10  21  37  58  84 110 139 180 226 272 323
#     4  10  18  32  54  80 104 135 182 221 259 318
#     4   9  18  33  52  76 107 140 177 219 260 315
#     4   9  20  38  56  78 109 142 179 220 267 327
#     4  10  20  34  54  81 110 138 179 227 271 316
#
# _framework density 18.088363000000001
#
# number of rings (size 3 to 8) (size 9 to 14) (size 15 to 20)
#    0.000    2.333    1.667    2.500    0.000    4.333 
#    3.000    0.000    0.000    3.500    0.000    0.000 
#    0.000    0.000    0.000    0.000    0.000    0.000 
#
# Total GULP energy -595198.334266 kJ/mol
# GULP energy per Si atom -12399.965297 kJ/mol
# Density = 1.804719 g / cm^3
# Si number density = 18.088363 Si / 1000 Ang^3
#
#
#
# Elastic Constant Matrix: (Units=GPa)
#
#
# Indices 1 2 3 4 5 6 
#
# 1 108.0883 69.7197 34.2263 0.0000 0.0000 0.0000
# 2 69.7197 125.6449 50.6692 0.0000 0.0000 0.0000
# 3 34.2263 50.6692 64.3980 0.0000 0.0000 0.0000
# 4 0.0000 0.0000 0.0000 33.2161 0.0000 0.0000
# 5 0.0000 0.0000 0.0000 0.0000 19.4627 0.0000
# 6 0.0000 0.0000 0.0000 0.0000 0.0000 32.6433
#
#
#
# Elastic Compliance Matrix: (Units=1/GPa)
#
#
# Indices 1 2 3 4 5 6 
#
# 1 0.014587 -0.007277 -0.002027 0.000000 0.000000 0.000000
# 2 -0.007277 0.015288 -0.008161 0.000000 0.000000 0.000000
# 3 -0.002027 -0.008161 0.023027 0.000000 0.000000 0.000000
# 4 0.000000 0.000000 0.000000 0.030106 0.000000 0.000000
# 5 0.000000 0.000000 0.000000 0.000000 0.051380 0.000000
# 6 0.000000 0.000000 0.000000 0.000000 0.000000 0.030634
#
#
# Mechanical properties :
#
#
# Convention : Reuss Voigt Hill
#
# Bulk Modulus (GPa) = 55.64304 67.48463 61.56384
# Shear Modulus (GPa) = 24.27830 26.63216 25.45523
#
# Velocity S-wave (km/s) = 3.66759 3.84127 3.75543
# Velocity P-wave (km/s) = 6.98309 7.55401 7.27415
#
# Compressibility (1/GPa) = 0.01797170
#
# Stress axis : x y z
#
# Youngs Moduli (GPa) = 68.55196 65.41018 43.42646
#
# Poissons Ratio (x) = 0.47599 0.08804
# Poissons Ratio (y) = 0.49885 0.35442
# Poissons Ratio (z) = 0.13898 0.53384
#
# Static dielectric constant tensor:
#      x y z
#    x 3.358410 0.000000 0.000000 
#    y 0.000000 3.481060 0.000000 
#    z 0.000000 0.000000 3.199100 
# 
# 
# High freq. dielectric constant tensor:
#      x y z
#    x 1.684700 0.000000 0.000000 
#    y 0.000000 1.710350 0.000000 
#    z 0.000000 0.000000 1.690350 
# 
# From -- ./inp_files/3007.got.cif
#   From: 2010.06.25/outbox.cif.g09.slc.cpg/sg58_2_cif.got.tgz:3007.got - 2010.06.26 21:38:00.
