data_PCOD8235414
_publ_section_title
;
Structure prediction by ZEFSAII (Michael W. Deem and Ramdas Pophale) SiO2 
 PCOD8235414
Probable space group: P N N M
;
_chemical_formula_sum "Si O2"
_cell_formula_units_Z 64
_cell_length_a 12.290297
_cell_length_b 17.493582
_cell_length_c 17.448924
_cell_angle_alpha 90.000000
_cell_angle_beta 90.000000
_cell_angle_gamma 90.000000
_cell_volume 3751.541664
_symmetry_space_group_name_H-M "P N N M"
_symmetry_group_IT_number 58
_symmetry_cell_setting 'orthorhombic'
loop_
_space_group_symop_operation_xyz
x,y,z
-x,-y,z
1/2+x,1/2-y,1/2-z
1/2-x,1/2+y,1/2-z
-x,-y,-z
x,y,-z
1/2-x,1/2+y,1/2+z
1/2+x,1/2-y,1/2+z
loop_
_atom_site_type_symbol
_atom_site_label
_atom_site_fract_x
_atom_site_fract_y
_atom_site_fract_z
Si Si1 0.056731 0.817642 0.778747
Si Si2 0.726720 0.334843 0.585733
Si Si3 0.080756 0.429505 0.588528
Si Si4 0.439999 0.172948 0.819325
Si Si5 0.249628 0.430142 0.281874
Si Si6 0.406359 0.554515 0.676466
Si Si7 0.960415 0.582247 0.815727
Si Si8 0.533518 0.225561 0.413601
O O1 0.038324 0.759194 0.708584
O O2 0.176256 0.854377 0.777475
O O3 0.961385 0.880591 0.770043
O O4 0.047133 0.773638 0.859640
O O5 0.775625 0.344343 0.500000
O O6 0.818079 0.332697 0.650376
O O7 0.651580 0.408006 0.603162
O O8 0.656114 0.257908 0.591627
O O9 0.112443 0.426944 0.500000
O O10 0.192044 0.438124 0.635488
O O11 0.000000 0.500000 0.607320
O O12 0.022538 0.349922 0.612515
O O13 0.458547 0.112943 0.750340
O O14 0.323361 0.505801 0.271029
O O15 0.162490 0.423656 0.214646
O O16 0.500000 0.500000 0.642014
O O17 0.962324 0.637440 0.888652
O O18 0.000000 0.500000 0.843855
O O19 0.488474 0.230987 0.500000
#
# Coordination Sequence:
#
# PCOD8235414 Si02
#       8
#     8   8   8   8   8   8   8   8
#     4   9  19  32  49  69  92 122 153 191 231 269
#     4  10  18  29  47  69  94 123 153 187 226 273
#     4  10  20  32  46  68  98 127 154 186 226 274
#     4  10  18  31  48  69  94 120 155 190 228 272
#     4  10  18  31  49  69  94 121 153 189 226 272
#     4   9  18  31  46  68  95 123 156 189 226 272
#     4  10  19  31  48  69  91 119 153 191 230 267
#     4   9  19  33  47  67  93 119 152 190 228 271
#
# _framework density 17.059653000000001
#
# number of rings (size 3 to 8) (size 9 to 14) (size 15 to 20)
#    0.000    2.375    0.000    4.125    0.000    3.500 
#    0.000    2.500    0.000    0.000    0.000    1.750 
#    0.000    9.500    0.000    0.000    0.000    0.500 
#
# Total GULP energy -793504.260189 kJ/mol
# GULP energy per Si atom -12398.504065 kJ/mol
# Density = 1.702082 g / cm^3
# Si number density = 17.059653 Si / 1000 Ang^3
#
#
#
# Elastic Constant Matrix: (Units=GPa)
#
#
# Indices 1 2 3 4 5 6 
#
# 1 89.8526 53.9361 36.4465 0.0000 0.0000 0.0000
# 2 53.9361 130.5315 44.7398 0.0000 0.0000 0.0000
# 3 36.4465 44.7398 63.6977 0.0000 0.0000 0.0000
# 4 0.0000 0.0000 0.0000 19.2396 0.0000 0.0000
# 5 0.0000 0.0000 0.0000 0.0000 15.1539 0.0000
# 6 0.0000 0.0000 0.0000 0.0000 0.0000 24.9065
#
#
#
# Elastic Compliance Matrix: (Units=1/GPa)
#
#
# Indices 1 2 3 4 5 6 
#
# 1 0.016421 -0.004695 -0.006098 0.000000 0.000000 0.000000
# 2 -0.004695 0.011433 -0.005343 0.000000 0.000000 0.000000
# 3 -0.006098 -0.005343 0.022941 0.000000 0.000000 0.000000
# 4 0.000000 0.000000 0.000000 0.051976 0.000000 0.000000
# 5 0.000000 0.000000 0.000000 0.000000 0.065990 0.000000
# 6 0.000000 0.000000 0.000000 0.000000 0.000000 0.040150
#
#
# Mechanical properties :
#
#
# Convention : Reuss Voigt Hill
#
# Bulk Modulus (GPa) = 53.99054 61.59185 57.79120
# Shear Modulus (GPa) = 20.21355 21.79062 21.00209
#
# Velocity S-wave (km/s) = 3.44594 3.57784 3.51251
# Velocity P-wave (km/s) = 6.89561 7.29727 7.09928
#
# Compressibility (1/GPa) = 0.01852176
#
# Stress axis : x y z
#
# Youngs Moduli (GPa) = 60.89658 87.46968 43.58920
#
# Poissons Ratio (x) = 0.41069 0.26581
# Poissons Ratio (y) = 0.28592 0.23292
# Poissons Ratio (z) = 0.37135 0.46739
#
# Static dielectric constant tensor:
#      x y z
#    x 3.205300 0.000000 0.000000 
#    y 0.000000 3.389780 0.000000 
#    z 0.000000 0.000000 2.980510 
# 
# 
# High freq. dielectric constant tensor:
#      x y z
#    x 1.660180 0.000000 0.000000 
#    y 0.000000 1.666890 0.000000 
#    z 0.000000 0.000000 1.631040 
# 
# From -- ./inp_files/26467.got.cif
#   From: 2010.06.25/outbox.cif.g09.slc.cpg/sg58_14_cif.got.tgz:26467.got - 2010.06.26 21:38:00.
