data_PCOD8235193
_publ_section_title
;
Structure prediction by ZEFSAII (Michael W. Deem and Ramdas Pophale) SiO2 
 PCOD8235193
Probable space group: P B C M
;
_chemical_formula_sum "Si O2"
_cell_formula_units_Z 64
_cell_length_a 12.000000
_cell_length_b 15.000000
_cell_length_c 18.000000
_cell_angle_alpha 90.000000
_cell_angle_beta 90.000000
_cell_angle_gamma 90.000000
_cell_volume 3240.000000
_symmetry_space_group_name_H-M "P B C M"
_symmetry_group_IT_number 57
_symmetry_cell_setting 'orthorhombic'
loop_
_space_group_symop_operation_xyz
x,y,z
-x,-y,1/2+z
x,1/2-y,-z
-x,1/2+y,1/2-z
-x,-y,-z
x,y,1/2-z
-x,1/2+y,z
x,1/2-y,1/2+z
loop_
_atom_site_type_symbol
_atom_site_label
_atom_site_fract_x
_atom_site_fract_y
_atom_site_fract_z
Si Si1 0.749888 0.284140 0.916338
Si Si2 0.135041 0.363929 0.837769
Si Si3 0.608409 0.885787 0.837639
Si Si4 0.504176 0.943142 0.090686
Si Si5 0.016433 0.772966 0.414310
Si Si6 0.917999 0.473379 0.435163
Si Si7 0.541154 0.273031 0.164850
Si Si8 0.316809 0.953177 0.983333
O O1 0.872689 0.274445 0.882076
O O2 0.663315 0.225751 0.870580
O O3 0.716859 0.387907 0.915953
O O4 0.756155 0.250000 0.000000
O O5 0.118547 0.367020 0.750000
O O6 0.264300 0.369399 0.860869
O O7 0.073778 0.450661 0.872163
O O8 0.085704 0.269714 0.868005
O O9 0.597856 0.898241 0.750000
O O10 0.556185 0.970861 0.876473
O O11 0.538706 0.802315 0.868769
O O12 0.627315 0.959981 0.055649
O O13 0.518651 0.867844 0.152814
O O14 0.418163 0.906662 0.028586
O O15 0.994388 0.750000 0.500000
O O16 0.036660 0.879163 0.402876
O O17 0.790757 0.470748 0.465276
O O18 0.000000 0.500000 0.500000
O O19 0.559311 0.254161 0.250000
#
# Coordination Sequence:
#
# PCOD8235193 Si02
#       8
#     8   8   8   8   8   8   8   8
#     4  11  19  38  61  87 126 152 199 265 308 369
#     4  11  25  44  64  91 128 171 215 257 319 396
#     4  10  22  40  59  83 125 165 202 255 311 372
#     4  11  21  36  59  87 120 157 207 255 298 374
#     4  11  22  40  65  93 124 162 208 271 322 377
#     4  12  22  40  67  96 128 164 211 269 323 378
#     4  11  23  38  59  90 125 166 207 250 314 373
#     4  11  21  35  59  92 120 155 204 252 311 364
#
# _framework density 19.753086
#
# number of rings (size 3 to 8) (size 9 to 14) (size 15 to 20)
#    0.000    1.000    7.500    0.375    0.000    2.000 
#    0.000    0.000    0.000    2.250    0.000    0.000 
#    0.000    0.000    0.000    0.000    0.000    0.000 
#
# Total GULP energy -793301.830458 kJ/mol
# GULP energy per Si atom -12395.341101 kJ/mol
# Density = 1.970813 g / cm^3
# Si number density = 19.753086 Si / 1000 Ang^3
#
#
#
# Elastic Constant Matrix: (Units=GPa)
#
#
# Indices 1 2 3 4 5 6 
#
# 1 75.1385 48.9684 30.9184 0.0000 0.0000 0.0000
# 2 48.9684 119.7844 34.0275 0.0000 0.0000 0.0000
# 3 30.9184 34.0275 50.6736 0.0000 0.0000 0.0000
# 4 0.0000 0.0000 0.0000 30.5561 0.0000 0.0000
# 5 0.0000 0.0000 0.0000 0.0000 23.4631 0.0000
# 6 0.0000 0.0000 0.0000 0.0000 0.0000 27.8353
#
#
#
# Elastic Compliance Matrix: (Units=1/GPa)
#
#
# Indices 1 2 3 4 5 6 
#
# 1 0.020805 -0.006054 -0.008629 0.000000 0.000000 0.000000
# 2 -0.006054 0.012078 -0.004417 0.000000 0.000000 0.000000
# 3 -0.008629 -0.004417 0.027965 0.000000 0.000000 0.000000
# 4 0.000000 0.000000 0.000000 0.032727 0.000000 0.000000
# 5 0.000000 0.000000 0.000000 0.000000 0.042620 0.000000
# 6 0.000000 0.000000 0.000000 0.000000 0.000000 0.035926
#
#
# Mechanical properties :
#
#
# Convention : Reuss Voigt Hill
#
# Bulk Modulus (GPa) = 44.15231 52.60279 48.37755
# Shear Modulus (GPa) = 22.94973 25.14971 24.04972
#
# Velocity S-wave (km/s) = 3.41226 3.57207 3.49308
# Velocity P-wave (km/s) = 6.15835 6.61066 6.38851
#
# Compressibility (1/GPa) = 0.02264887
#
# Stress axis : x y z
#
# Youngs Moduli (GPa) = 48.06607 82.79651 35.75946
#
# Poissons Ratio (x) = 0.50124 0.30856
# Poissons Ratio (y) = 0.29099 0.15793
# Poissons Ratio (z) = 0.41475 0.36567
#
# Static dielectric constant tensor:
#      x y z
#    x 3.876000 0.000000 0.000000 
#    y 0.000000 3.953220 0.000000 
#    z 0.000000 0.000000 3.526690 
# 
# 
# High freq. dielectric constant tensor:
#      x y z
#    x 1.779380 0.000000 0.000000 
#    y 0.000000 1.774850 0.000000 
#    z 0.000000 0.000000 1.749470 
# 
# From -- ./inp_files/22081.got.cif
#   From: 2010.03.12/outbox.ucp.g09.slc.cvg/sg57_12_cif.got.tgz:22081.got - 2010.05.04 19:26:41.
