data_PCOD8235809
_publ_section_title
;
Structure prediction by ZEFSAII (Michael W. Deem and Ramdas Pophale) SiO2 
 PCOD8235809
Probable space group: P N N M
;
_chemical_formula_sum "Si O2"
_cell_formula_units_Z 32
_cell_length_a 11.254976
_cell_length_b 7.551104
_cell_length_c 18.210757
_cell_angle_alpha 90.000000
_cell_angle_beta 90.000000
_cell_angle_gamma 90.000000
_cell_volume 1547.686607
_symmetry_space_group_name_H-M "P N N M"
_symmetry_group_IT_number 58
_symmetry_cell_setting 'orthorhombic'
loop_
_space_group_symop_operation_xyz
x,y,z
-x,-y,z
1/2+x,1/2-y,1/2-z
1/2-x,1/2+y,1/2-z
-x,-y,-z
x,y,-z
1/2-x,1/2+y,1/2+z
1/2+x,1/2-y,1/2+z
loop_
_atom_site_type_symbol
_atom_site_label
_atom_site_fract_x
_atom_site_fract_y
_atom_site_fract_z
Si Si1 0.187369 0.879125 0.875675
Si Si2 0.525740 0.791084 0.000000
Si Si3 0.942459 0.696117 0.345783
Si Si4 0.500000 0.500000 0.263238
Si Si5 0.464525 0.201086 0.500000
Si Si6 0.276515 0.635820 0.500000
O O1 0.299768 0.790126 0.835665
O O2 0.247419 0.023041 0.927706
O O3 0.107861 0.746126 0.925760
O O4 0.113814 0.981594 0.814639
O O5 0.468704 0.715903 0.925516
O O6 0.665680 0.729421 0.000000
O O7 0.500000 0.000000 0.000000
O O8 0.000000 0.500000 0.336020
O O9 0.996791 0.821342 0.283835
O O10 0.588369 0.303509 0.500000
O O11 0.500000 0.000000 0.500000
#
# Coordination Sequence:
#
# PCOD8235809 Si02
#       6
#     8   4   8   4   4   4
#     4  11  22  45  65  94 138 170 222 274 333 399
#     4  10  18  39  70  94 120 166 227 278 322 381
#     4  11  25  44  69  97 132 181 223 276 341 389
#     4  12  28  42  64 104 140 178 220 272 334 422
#     4  11  24  41  70 102 125 175 229 283 324 387
#     4  11  18  41  74  90 128 171 217 277 327 375
#
# _framework density 20.676020999999999
#
# number of rings (size 3 to 8) (size 9 to 14) (size 15 to 20)
#    0.000    1.000    7.500    1.500    3.500    3.500 
#    0.000    0.000    0.000    0.000    0.000    0.000 
#    0.000    0.000    0.000    0.000    0.000    0.000 
#
# Total GULP energy -396571.689217 kJ/mol
# GULP energy per Si atom -12392.865288 kJ/mol
# Density = 2.062896 g / cm^3
# Si number density = 20.676021 Si / 1000 Ang^3
#
#
#
# Elastic Constant Matrix: (Units=GPa)
#
#
# Indices 1 2 3 4 5 6 
#
# 1 140.2296 17.4603 26.3738 0.0000 0.0000 0.0000
# 2 17.4603 72.8236 35.8371 0.0000 0.0000 0.0000
# 3 26.3738 35.8371 128.1472 0.0000 0.0000 0.0000
# 4 0.0000 0.0000 0.0000 13.2798 0.0000 0.0000
# 5 0.0000 0.0000 0.0000 0.0000 -61.9256 0.0000
# 6 0.0000 0.0000 0.0000 0.0000 0.0000 7.5819
#
#
#
# Elastic Compliance Matrix: (Units=1/GPa)
#
#
# Indices 1 2 3 4 5 6 
#
# 1 0.007509 -0.001206 -0.001208 0.000000 0.000000 0.000000
# 2 -0.001206 0.016117 -0.004259 0.000000 0.000000 0.000000
# 3 -0.001208 -0.004259 0.009243 0.000000 0.000000 0.000000
# 4 0.000000 0.000000 0.000000 0.075302 0.000000 0.000000
# 5 0.000000 0.000000 0.000000 0.000000 -0.016148 0.000000
# 6 0.000000 0.000000 0.000000 0.000000 0.000000 0.131892
#
#
# Mechanical properties :
#
#
# Convention : Reuss Voigt Hill
#
# Bulk Modulus (GPa) = 51.22213 55.61587 53.41900
# Shear Modulus (GPa) = 20.51131 9.22251 14.86691
#
# Velocity S-wave (km/s) = 3.15307 2.11428 2.68440
# Velocity P-wave (km/s) = 6.17117 5.73736 5.95821
#
# Compressibility (1/GPa) = 0.01952281
#
# Stress axis : x y z
#
# Youngs Moduli (GPa) = 133.18229 62.04705 108.18731
#
# Poissons Ratio (x) = 0.07481 0.13070
# Poissons Ratio (y) = 0.16058 0.46077
# Poissons Ratio (z) = 0.16090 0.26426
#
# Static dielectric constant tensor:
#      x y z
#    x 3.688060 0.000000 0.000000 
#    y 0.000000 3.320490 0.000000 
#    z 0.000000 0.000000 3.883140 
# 
# 
# High freq. dielectric constant tensor:
#      x y z
#    x 1.835500 0.000000 0.000000 
#    y 0.000000 1.772880 0.000000 
#    z 0.000000 0.000000 1.818380 
# 
# From -- ./inp_files/19219.got.cif
#   From: 2010.06.25/outbox.cif.g09.slc.cpg/sg58_10_cif.got.tgz:19219.got - 2010.06.26 21:38:00.
