data_PCOD8235643
_publ_section_title
;
Structure prediction by ZEFSAII (Michael W. Deem and Ramdas Pophale) SiO2 
 PCOD8235643
Probable space group: P N N M
;
_chemical_formula_sum "Si O2"
_cell_formula_units_Z 48
_cell_length_a 14.093037
_cell_length_b 20.411395
_cell_length_c 8.973152
_cell_angle_alpha 90.000000
_cell_angle_beta 90.000000
_cell_angle_gamma 90.000000
_cell_volume 2581.203848
_symmetry_space_group_name_H-M "P N N M"
_symmetry_group_IT_number 58
_symmetry_cell_setting 'orthorhombic'
loop_
_space_group_symop_operation_xyz
x,y,z
-x,-y,z
1/2+x,1/2-y,1/2-z
1/2-x,1/2+y,1/2-z
-x,-y,-z
x,y,-z
1/2-x,1/2+y,1/2+z
1/2+x,1/2-y,1/2+z
loop_
_atom_site_type_symbol
_atom_site_label
_atom_site_fract_x
_atom_site_fract_y
_atom_site_fract_z
Si Si1 0.745843 0.609038 0.677083
Si Si2 0.953588 0.566749 0.677222
Si Si3 0.744539 0.259776 0.176880
Si Si4 0.080357 0.686365 0.676480
Si Si5 0.043705 0.193651 0.323663
Si Si6 0.057081 0.935809 0.676749
O O1 0.737572 0.604741 0.500000
O O2 0.845456 0.577330 0.732694
O O3 0.740851 0.684743 0.730961
O O4 0.660910 0.567200 0.749252
O O5 0.953279 0.566927 0.500000
O O6 0.000000 0.500000 0.740150
O O7 0.019974 0.625188 0.736374
O O8 0.818289 0.311220 0.245144
O O9 0.645772 0.287232 0.241100
O O10 0.748638 0.262468 0.000000
O O11 0.093421 0.682915 0.500000
O O12 0.029364 0.751995 0.730968
O O13 0.049972 0.193178 0.500000
O O14 0.007188 0.124071 0.263846
O O15 0.071686 0.933629 0.500000
O O16 0.000000 0.000000 0.727587
#
# Coordination Sequence:
#
# PCOD8235643 Si02
#       6
#     8   8   8   8   8   8
#     4  10  19  33  54  77 101 134 172 214 263 304
#     4   9  18  33  54  79 106 136 171 210 257 314
#     4  10  19  32  52  77 103 134 173 216 258 300
#     4  10  18  32  54  77 100 133 174 211 251 303
#     4   9  17  32  52  72  99 135 172 205 246 306
#     4  10  21  36  54  76 104 140 175 208 253 310
#
# _framework density 18.595974999999999
#
# number of rings (size 3 to 8) (size 9 to 14) (size 15 to 20)
#    0.000    2.333    3.333    0.000    0.000    1.667 
#    0.000    2.500    0.000    1.000    0.000    0.000 
#    0.000    0.000    0.000    0.000    0.000    0.000 
#
# Total GULP energy -595090.728899 kJ/mol
# GULP energy per Si atom -12397.723519 kJ/mol
# Density = 1.855365 g / cm^3
# Si number density = 18.595975 Si / 1000 Ang^3
#
#
#
# Elastic Constant Matrix: (Units=GPa)
#
#
# Indices 1 2 3 4 5 6 
#
# 1 148.0721 60.0773 24.2998 0.0000 0.0000 0.0000
# 2 60.0773 135.8665 17.6758 0.0000 0.0000 0.0000
# 3 24.2998 17.6758 17.1754 0.0000 0.0000 0.0000
# 4 0.0000 0.0000 0.0000 7.9186 0.0000 0.0000
# 5 0.0000 0.0000 0.0000 0.0000 28.5095 0.0000
# 6 0.0000 0.0000 0.0000 0.0000 0.0000 38.4914
#
#
#
# Elastic Compliance Matrix: (Units=1/GPa)
#
#
# Indices 1 2 3 4 5 6 
#
# 1 0.009686 -0.002887 -0.010733 0.000000 0.000000 0.000000
# 2 -0.002887 0.009358 -0.005547 0.000000 0.000000 0.000000
# 3 -0.010733 -0.005547 0.079117 0.000000 0.000000 0.000000
# 4 0.000000 0.000000 0.000000 0.126285 0.000000 0.000000
# 5 0.000000 0.000000 0.000000 0.000000 0.035076 0.000000
# 6 0.000000 0.000000 0.000000 0.000000 0.000000 0.025980
#
#
# Mechanical properties :
#
#
# Convention : Reuss Voigt Hill
#
# Bulk Modulus (GPa) = 16.71467 56.13553 36.42510
# Shear Modulus (GPa) = 14.54427 28.25463 21.39945
#
# Velocity S-wave (km/s) = 2.79967 3.90217 3.39596
# Velocity P-wave (km/s) = 4.41121 7.11021 5.91666
#
# Compressibility (1/GPa) = 0.05982767
#
# Stress axis : x y z
#
# Youngs Moduli (GPa) = 103.24133 106.85820 12.63956
#
# Poissons Ratio (x) = 0.30846 0.13566
# Poissons Ratio (y) = 0.29802 0.07011
# Poissons Ratio (z) = 1.10810 0.59273
#
# Static dielectric constant tensor:
#      x y z
#    x 3.605710 0.000000 0.000000 
#    y 0.000000 3.617760 0.000000 
#    z 0.000000 0.000000 2.904480 
# 
# 
# High freq. dielectric constant tensor:
#      x y z
#    x 1.739270 0.000000 0.000000 
#    y 0.000000 1.723920 0.000000 
#    z 0.000000 0.000000 1.674690 
# 
# From -- ./inp_files/5874.got.cif
#   From: 2010.06.25/outbox.cif.g09.slc.cpg/sg58_3_cif.got.tgz:5874.got - 2010.06.26 21:38:00.
