data_PCOD8235999
_publ_section_title
;
Structure prediction by ZEFSAII (Michael W. Deem and Ramdas Pophale) SiO2 
 PCOD8235999
Probable space group: P N N M
;
_chemical_formula_sum "Si O2"
_cell_formula_units_Z 64
_cell_length_a 29.017257
_cell_length_b 12.077653
_cell_length_c 9.284862
_cell_angle_alpha 90.000000
_cell_angle_beta 90.000000
_cell_angle_gamma 90.000000
_cell_volume 3253.976089
_symmetry_space_group_name_H-M "P N N M"
_symmetry_group_IT_number 58
_symmetry_cell_setting 'orthorhombic'
loop_
_space_group_symop_operation_xyz
x,y,z
-x,-y,z
1/2+x,1/2-y,1/2-z
1/2-x,1/2+y,1/2-z
-x,-y,-z
x,y,-z
1/2-x,1/2+y,1/2+z
1/2+x,1/2-y,1/2+z
loop_
_atom_site_type_symbol
_atom_site_label
_atom_site_fract_x
_atom_site_fract_y
_atom_site_fract_z
Si Si1 0.434750 0.538429 0.836391
Si Si2 0.335446 0.257740 0.669369
Si Si3 0.838435 0.866544 0.338926
Si Si4 0.318799 0.039428 0.835028
Si Si5 0.062702 0.821523 0.835009
Si Si6 0.465818 0.751186 0.333952
Si Si7 0.111408 0.353392 0.330266
Si Si8 0.781529 0.027568 0.834719
O O1 0.379533 0.544258 0.836189
O O2 0.450311 0.422933 0.768428
O O3 0.454980 0.634768 0.738897
O O4 0.453602 0.548050 0.000000
O O5 0.328910 0.245784 0.500000
O O6 0.315058 0.148150 0.739804
O O7 0.389117 0.267586 0.713193
O O8 0.306123 0.362554 0.728305
O O9 0.818991 0.850263 0.500000
O O10 0.856589 0.748958 0.278934
O O11 0.797772 0.914971 0.242205
O O12 0.363061 0.966803 0.789519
O O13 0.273410 0.963613 0.813569
O O14 0.323305 0.076801 0.000000
O O15 0.021297 0.731318 0.821031
O O16 0.066512 0.864393 0.000000
O O17 0.450296 0.748903 0.500000
O O18 0.437586 0.848636 0.253015
O O19 0.101591 0.342002 0.500000
O O20 0.795826 0.014927 0.000000
#
# Coordination Sequence:
#
# PCOD8235999 Si02
#       8
#     8   8   8   8   8   8   8   8
#     4  10  19  31  50  80 117 152 186 228 278 335
#     4  10  22  40  61  84 114 150 189 232 285 342
#     4   9  18  32  54  82 111 145 183 225 274 329
#     4  10  23  41  60  83 113 148 190 239 286 334
#     4  10  20  35  54  80 114 151 190 237 286 334
#     4  10  20  33  54  82 113 149 192 237 283 336
#     4   9  20  39  58  79 113 151 189 235 282 332
#     4  10  21  37  59  84 112 146 183 229 283 340
#
# _framework density 19.668247000000001
#
# number of rings (size 3 to 8) (size 9 to 14) (size 15 to 20)
#    0.000    2.250    1.250    1.875    1.750    6.500 
#    0.000    0.625    0.000    3.750    0.000    0.000 
#    0.000    0.000    0.000    0.000    0.000    0.000 
#
# Total GULP energy -793528.299596 kJ/mol
# GULP energy per Si atom -12398.879681 kJ/mol
# Density = 1.962348 g / cm^3
# Si number density = 19.668247 Si / 1000 Ang^3
#
#
#
# Elastic Constant Matrix: (Units=GPa)
#
#
# Indices 1 2 3 4 5 6 
#
# 1 90.6038 27.2363 31.1521 0.0000 0.0000 0.0000
# 2 27.2363 72.4860 27.6302 0.0000 0.0000 0.0000
# 3 31.1521 27.6302 66.1325 0.0000 0.0000 0.0000
# 4 0.0000 0.0000 0.0000 27.7844 0.0000 0.0000
# 5 0.0000 0.0000 0.0000 0.0000 28.0920 0.0000
# 6 0.0000 0.0000 0.0000 0.0000 0.0000 18.6388
#
#
#
# Elastic Compliance Matrix: (Units=1/GPa)
#
#
# Indices 1 2 3 4 5 6 
#
# 1 0.013772 -0.003214 -0.005145 0.000000 0.000000 0.000000
# 2 -0.003214 0.017159 -0.005655 0.000000 0.000000 0.000000
# 3 -0.005145 -0.005655 0.019907 0.000000 0.000000 0.000000
# 4 0.000000 0.000000 0.000000 0.035991 0.000000 0.000000
# 5 0.000000 0.000000 0.000000 0.000000 0.035597 0.000000
# 6 0.000000 0.000000 0.000000 0.000000 0.000000 0.053652
#
#
# Mechanical properties :
#
#
# Convention : Reuss Voigt Hill
#
# Bulk Modulus (GPa) = 43.83831 44.58442 44.21136
# Shear Modulus (GPa) = 23.61725 24.44993 24.03359
#
# Velocity S-wave (km/s) = 3.46899 3.52961 3.49943
# Velocity P-wave (km/s) = 6.19536 6.27123 6.23341
#
# Compressibility (1/GPa) = 0.02281110
#
# Stress axis : x y z
#
# Youngs Moduli (GPa) = 72.61092 58.27857 50.23274
#
# Poissons Ratio (x) = 0.18729 0.25843
# Poissons Ratio (y) = 0.23335 0.28408
# Poissons Ratio (z) = 0.37356 0.32958
#
# Static dielectric constant tensor:
#      x y z
#    x 3.749970 0.000000 0.000000 
#    y 0.000000 3.270300 0.000000 
#    z 0.000000 0.000000 3.526150 
# 
# 
# High freq. dielectric constant tensor:
#      x y z
#    x 1.774470 0.000000 0.000000 
#    y 0.000000 1.738970 0.000000 
#    z 0.000000 0.000000 1.761300 
# 
# From -- ./inp_files/10961.got.cif
#   From: 2010.06.25/outbox.cif.g09.slc.cpg/sg58_6_cif.got.tgz:10961.got - 2010.06.26 21:38:00.
