data_PCOD8235926
_publ_section_title
;
Structure prediction by ZEFSAII (Michael W. Deem and Ramdas Pophale) SiO2 
 PCOD8235926
Probable space group: P N N M
;
_chemical_formula_sum "Si O2"
_cell_formula_units_Z 64
_cell_length_a 20.813814
_cell_length_b 19.347740
_cell_length_c 9.415787
_cell_angle_alpha 90.000000
_cell_angle_beta 90.000000
_cell_angle_gamma 90.000000
_cell_volume 3791.739889
_symmetry_space_group_name_H-M "P N N M"
_symmetry_group_IT_number 58
_symmetry_cell_setting 'orthorhombic'
loop_
_space_group_symop_operation_xyz
x,y,z
-x,-y,z
1/2+x,1/2-y,1/2-z
1/2-x,1/2+y,1/2-z
-x,-y,-z
x,y,-z
1/2-x,1/2+y,1/2+z
1/2+x,1/2-y,1/2+z
loop_
_atom_site_type_symbol
_atom_site_label
_atom_site_fract_x
_atom_site_fract_y
_atom_site_fract_z
Si Si1 0.136380 0.321150 0.668610
Si Si2 0.010591 0.831802 0.334862
Si Si3 0.315053 0.539488 0.667905
Si Si4 0.437770 0.040181 0.831082
Si Si5 0.312414 0.963768 0.169056
Si Si6 0.439869 0.454246 0.334086
Si Si7 0.360451 0.667270 0.165998
Si Si8 0.006448 0.679192 0.331696
O O1 0.132283 0.321642 0.500000
O O2 0.182530 0.383636 0.721796
O O3 0.160706 0.244821 0.715184
O O4 0.064910 0.334888 0.730391
O O5 0.024003 0.843946 0.500000
O O6 0.935636 0.843912 0.300300
O O7 0.031053 0.754740 0.285430
O O8 0.056516 0.882072 0.247315
O O9 0.312758 0.552759 0.500000
O O10 0.252773 0.498548 0.725022
O O11 0.375670 0.493370 0.712017
O O12 0.318400 0.613509 0.744243
O O13 0.444100 0.120036 0.779800
O O14 0.500000 0.000000 0.772509
O O15 0.372606 0.007279 0.768811
O O16 0.435983 0.034801 0.000000
O O17 0.313070 0.965542 0.000000
O O18 0.500000 0.500000 0.286297
O O19 0.441176 0.438084 0.500000
O O20 0.346685 0.655741 0.000000
O O21 0.000193 0.677377 0.500000
#
# Coordination Sequence:
#
# PCOD8235926 Si02
#       8
#     8   8   8   8   8   8   8   8
#     4   8  13  24  42  64  88 114 147 183 219 265
#     4   9  17  28  45  69  92 114 145 189 231 266
#     4  10  20  32  45  65  93 122 153 188 223 260
#     4   9  13  20  39  66  94 118 139 173 225 272
#     4   9  16  26  42  65  92 121 150 182 221 266
#     4  10  19  31  45  61  86 120 154 189 224 259
#     4   9  17  29  47  68  89 116 149 185 226 269
#     4   8  13  22  38  65  96 116 137 178 230 273
#
# _framework density 16.878795
#
# number of rings (size 3 to 8) (size 9 to 14) (size 15 to 20)
#    0.000    3.000    2.500    1.500    0.000    0.750 
#    0.000    1.250    0.000    0.750    0.000    0.000 
#    0.000    1.000    0.000    0.000    0.000    0.000 
#
# Total GULP energy -793148.078447 kJ/mol
# GULP energy per Si atom -12392.938726 kJ/mol
# Density = 1.684038 g / cm^3
# Si number density = 16.878795 Si / 1000 Ang^3
#
#
#
# Elastic Constant Matrix: (Units=GPa)
#
#
# Indices 1 2 3 4 5 6 
#
# 1 109.5528 77.4117 19.1245 0.0000 0.0000 0.0000
# 2 77.4117 176.6249 33.2748 0.0000 0.0000 0.0000
# 3 19.1245 33.2748 17.7240 0.0000 0.0000 0.0000
# 4 0.0000 0.0000 0.0000 15.0955 0.0000 0.0000
# 5 0.0000 0.0000 0.0000 0.0000 8.1027 0.0000
# 6 0.0000 0.0000 0.0000 0.0000 0.0000 28.0735
#
#
#
# Elastic Compliance Matrix: (Units=1/GPa)
#
#
# Indices 1 2 3 4 5 6 
#
# 1 0.013546 -0.004925 -0.005369 0.000000 0.000000 0.000000
# 2 -0.004925 0.010551 -0.014494 0.000000 0.000000 0.000000
# 3 -0.005369 -0.014494 0.089424 0.000000 0.000000 0.000000
# 4 0.000000 0.000000 0.000000 0.066245 0.000000 0.000000
# 5 0.000000 0.000000 0.000000 0.000000 0.123416 0.000000
# 6 0.000000 0.000000 0.000000 0.000000 0.000000 0.035621
#
#
# Mechanical properties :
#
#
# Convention : Reuss Voigt Hill
#
# Bulk Modulus (GPa) = 15.63855 62.61375 39.12615
# Shear Modulus (GPa) = 12.20426 21.86041 17.03233
#
# Velocity S-wave (km/s) = 2.69188 3.60271 3.18007
# Velocity P-wave (km/s) = 4.35281 7.38124 6.05927
#
# Compressibility (1/GPa) = 0.06394453
#
# Stress axis : x y z
#
# Youngs Moduli (GPa) = 73.82473 94.77891 11.18264
#
# Poissons Ratio (x) = 0.46681 0.06004
# Poissons Ratio (y) = 0.36361 0.16208
# Poissons Ratio (z) = 0.39638 1.37369
#
# Static dielectric constant tensor:
#      x y z
#    x 3.112390 0.000000 0.000000 
#    y 0.000000 3.529480 0.000000 
#    z 0.000000 0.000000 2.602960 
# 
# 
# High freq. dielectric constant tensor:
#      x y z
#    x 1.627920 0.000000 0.000000 
#    y 0.000000 1.670800 0.000000 
#    z 0.000000 0.000000 1.590630 
# 
# From -- ./inp_files/17206.got.cif
#   From: 2010.06.25/outbox.cif.g09.slc.cpg/sg58_9_cif.got.tgz:17206.got - 2010.06.26 21:38:00.
