data_PCOD8235436
_publ_section_title
;
Structure prediction by ZEFSAII (Michael W. Deem and Ramdas Pophale) SiO2 
 PCOD8235436
Probable space group: P N N M
;
_chemical_formula_sum "Si O2"
_cell_formula_units_Z 64
_cell_length_a 24.527019
_cell_length_b 14.775435
_cell_length_c 9.186093
_cell_angle_alpha 90.000000
_cell_angle_beta 90.000000
_cell_angle_gamma 90.000000
_cell_volume 3329.015990
_symmetry_space_group_name_H-M "P N N M"
_symmetry_group_IT_number 58
_symmetry_cell_setting 'orthorhombic'
loop_
_space_group_symop_operation_xyz
x,y,z
-x,-y,z
1/2+x,1/2-y,1/2-z
1/2-x,1/2+y,1/2-z
-x,-y,-z
x,y,-z
1/2-x,1/2+y,1/2+z
1/2+x,1/2-y,1/2+z
loop_
_atom_site_type_symbol
_atom_site_label
_atom_site_fract_x
_atom_site_fract_y
_atom_site_fract_z
Si Si1 0.671524 0.501067 0.172674
Si Si2 0.242506 0.640904 0.829392
Si Si3 0.957129 0.571973 0.831977
Si Si4 0.946872 0.942833 0.671725
Si Si5 0.583025 0.771603 0.164478
Si Si6 0.797469 0.192745 0.335775
Si Si7 0.873137 0.431509 0.166873
Si Si8 0.481430 0.728763 0.673416
O O1 0.704767 0.413297 0.229187
O O2 0.608105 0.496120 0.217995
O O3 0.701211 0.591788 0.233503
O O4 0.675839 0.506923 0.000000
O O5 0.240446 0.739524 0.755792
O O6 0.189901 0.579290 0.787965
O O7 0.245907 0.658089 0.000000
O O8 0.895129 0.534143 0.811506
O O9 0.960726 0.673161 0.766595
O O10 0.000000 0.500000 0.761834
O O11 0.972928 0.582264 0.000000
O O12 0.948074 0.922841 0.500000
O O13 0.943520 0.848617 0.758440
O O14 0.000000 0.000000 0.719385
O O15 0.640517 0.723430 0.167607
O O16 0.587817 0.870578 0.234051
O O17 0.541773 0.712574 0.261676
O O18 0.560787 0.779206 0.000000
O O19 0.774486 0.192844 0.500000
O O20 0.881198 0.400218 0.000000
O O21 0.481181 0.720206 0.500000
#
# Coordination Sequence:
#
# PCOD8235436 Si02
#       8
#     8   8   8   8   8   8   8   8
#     4   9  18  36  58  79 105 139 179 219 267 330
#     4   9  18  33  55  80 103 132 174 221 267 315
#     4   9  16  29  48  71 104 143 176 211 261 317
#     4  10  21  39  60  78 103 142 182 223 276 333
#     4  10  18  29  49  76 105 138 181 222 261 309
#     4   9  18  34  56  79 103 137 179 221 261 313
#     4   9  16  30  50  71  99 138 180 218 260 310
#     4  11  21  33  51  78 110 141 177 221 269 319
#
# _framework density 19.224899000000001
#
# number of rings (size 3 to 8) (size 9 to 14) (size 15 to 20)
#    0.000    2.500    1.250    1.500    0.000    2.750 
#    2.250    3.750    0.000    0.000    0.000    0.000 
#    0.000    0.000    0.000    0.000    0.000    0.000 
#
# Total GULP energy -793234.017722 kJ/mol
# GULP energy per Si atom -12394.281527 kJ/mol
# Density = 1.918114 g / cm^3
# Si number density = 19.224899 Si / 1000 Ang^3
#
#
#
# Elastic Constant Matrix: (Units=GPa)
#
#
# Indices 1 2 3 4 5 6 
#
# 1 88.5652 53.2458 22.3885 0.0000 0.0000 0.0000
# 2 53.2458 148.0149 37.0379 0.0000 0.0000 0.0000
# 3 22.3885 37.0379 50.2348 0.0000 0.0000 0.0000
# 4 0.0000 0.0000 0.0000 28.5996 0.0000 0.0000
# 5 0.0000 0.0000 0.0000 0.0000 16.3774 0.0000
# 6 0.0000 0.0000 0.0000 0.0000 0.0000 29.8396
#
#
#
# Elastic Compliance Matrix: (Units=1/GPa)
#
#
# Indices 1 2 3 4 5 6 
#
# 1 0.014836 -0.004515 -0.003283 0.000000 0.000000 0.000000
# 2 -0.004515 0.009659 -0.005109 0.000000 0.000000 0.000000
# 3 -0.003283 -0.005109 0.025136 0.000000 0.000000 0.000000
# 4 0.000000 0.000000 0.000000 0.034966 0.000000 0.000000
# 5 0.000000 0.000000 0.000000 0.000000 0.061060 0.000000
# 6 0.000000 0.000000 0.000000 0.000000 0.000000 0.033512
#
#
# Mechanical properties :
#
#
# Convention : Reuss Voigt Hill
#
# Bulk Modulus (GPa) = 41.98748 56.90658 49.44703
# Shear Modulus (GPa) = 23.48281 26.57285 25.02783
#
# Velocity S-wave (km/s) = 3.49876 3.72184 3.61202
# Velocity P-wave (km/s) = 6.18137 6.93788 6.57052
#
# Compressibility (1/GPa) = 0.02381662
#
# Stress axis : x y z
#
# Youngs Moduli (GPa) = 67.40516 103.53200 39.78296
#
# Poissons Ratio (x) = 0.46749 0.13060
# Poissons Ratio (y) = 0.30436 0.20325
# Poissons Ratio (z) = 0.22127 0.52894
#
# Static dielectric constant tensor:
#      x y z
#    x 3.483760 0.000000 0.000000 
#    y 0.000000 3.730800 0.000000 
#    z 0.000000 0.000000 3.340990 
# 
# 
# High freq. dielectric constant tensor:
#      x y z
#    x 1.736310 0.000000 0.000000 
#    y 0.000000 1.751230 0.000000 
#    z 0.000000 0.000000 1.714890 
# 
# From -- ./inp_files/9945.got.cif
#   From: 2010.06.25/outbox.cif.g09.slc.cpg/sg58_5_cif.got.tgz:9945.got - 2010.06.26 21:38:00.
