data_PCOD8235364
_publ_section_title
;
Structure prediction by ZEFSAII (Michael W. Deem and Ramdas Pophale) SiO2 
 PCOD8235364
Probable space group: P N N M
;
_chemical_formula_sum "Si O2"
_cell_formula_units_Z 56
_cell_length_a 18.180662
_cell_length_b 20.996349
_cell_length_c 9.036714
_cell_angle_alpha 90.000000
_cell_angle_beta 90.000000
_cell_angle_gamma 90.000000
_cell_volume 3449.562464
_symmetry_space_group_name_H-M "P N N M"
_symmetry_group_IT_number 58
_symmetry_cell_setting 'orthorhombic'
loop_
_space_group_symop_operation_xyz
x,y,z
-x,-y,z
1/2+x,1/2-y,1/2-z
1/2-x,1/2+y,1/2-z
-x,-y,-z
x,y,-z
1/2-x,1/2+y,1/2+z
1/2+x,1/2-y,1/2+z
loop_
_atom_site_type_symbol
_atom_site_label
_atom_site_fract_x
_atom_site_fract_y
_atom_site_fract_z
Si Si1 0.709370 0.188742 0.326338
Si Si2 0.147863 0.119262 0.332581
Si Si3 0.780295 0.302363 0.167333
Si Si4 0.835589 0.124515 0.173101
Si Si5 0.917383 0.999338 0.175223
Si Si6 0.071315 0.750047 0.832727
Si Si7 0.421872 0.755130 0.172328
O O1 0.702465 0.178266 0.500000
O O2 0.750591 0.254293 0.289953
O O3 0.757642 0.131473 0.257019
O O4 0.627772 0.192380 0.256403
O O5 0.128958 0.098935 0.500000
O O6 0.236265 0.131189 0.314035
O O7 0.124644 0.063962 0.223139
O O8 0.104937 0.183807 0.289432
O O9 0.868640 0.307414 0.185253
O O10 0.763321 0.275361 0.000000
O O11 0.889348 0.183520 0.207692
O O12 0.874635 0.061139 0.235239
O O13 0.818883 0.119394 0.000000
O O14 0.920354 0.000525 0.000000
O O15 0.000000 0.000000 0.240646
O O16 0.005667 0.736401 0.721541
O O17 0.040505 0.752594 0.000000
O O18 0.415850 0.769296 0.000000
#
# Coordination Sequence:
#
# PCOD8235364 Si02
#       7
#     8   8   8   8   8   8   8
#     4  10  18  28  45  66  86 113 152 189 220 264
#     4   9  18  31  45  62  88 122 153 182 218 259
#     4   8  16  31  46  62  89 120 146 180 229 272
#     4   9  18  32  46  62  91 125 151 182 225 264
#     4  10  20  32  46  65  90 122 156 185 215 255
#     4   9  16  28  47  67  88 116 149 183 220 267
#     4  10  19  30  44  65  94 121 145 181 230 271
#
# _framework density 16.233943
#
# number of rings (size 3 to 8) (size 9 to 14) (size 15 to 20)
#    0.000    2.714    0.000    4.286    0.000    7.143 
#    0.000    0.000    0.000    0.000    0.000    1.000 
#    0.000    8.000    0.000    0.000    0.000    0.000 
#
# Total GULP energy -694110.900205 kJ/mol
# GULP energy per Si atom -12394.837504 kJ/mol
# Density = 1.619699 g / cm^3
# Si number density = 16.233943 Si / 1000 Ang^3
#
#
#
# Elastic Constant Matrix: (Units=GPa)
#
#
# Indices 1 2 3 4 5 6 
#
# 1 127.5187 51.7234 47.3072 0.0000 0.0000 0.0000
# 2 51.7234 64.7511 23.4983 0.0000 0.0000 0.0000
# 3 47.3072 23.4983 61.1095 0.0000 0.0000 0.0000
# 4 0.0000 0.0000 0.0000 19.5548 0.0000 0.0000
# 5 0.0000 0.0000 0.0000 0.0000 29.5587 0.0000
# 6 0.0000 0.0000 0.0000 0.0000 0.0000 25.1558
#
#
#
# Elastic Compliance Matrix: (Units=1/GPa)
#
#
# Indices 1 2 3 4 5 6 
#
# 1 0.014141 -0.008511 -0.007675 0.000000 0.000000 0.000000
# 2 -0.008511 0.023071 -0.002283 0.000000 0.000000 0.000000
# 3 -0.007675 -0.002283 0.023183 0.000000 0.000000 0.000000
# 4 0.000000 0.000000 0.000000 0.051138 0.000000 0.000000
# 5 0.000000 0.000000 0.000000 0.000000 0.033831 0.000000
# 6 0.000000 0.000000 0.000000 0.000000 0.000000 0.039752
#
#
# Mechanical properties :
#
#
# Convention : Reuss Voigt Hill
#
# Bulk Modulus (GPa) = 42.62840 55.38190 49.00515
# Shear Modulus (GPa) = 21.75118 23.57723 22.66421
#
# Velocity S-wave (km/s) = 3.66438 3.81509 3.74050
# Velocity P-wave (km/s) = 6.64977 7.32090 6.99339
#
# Compressibility (1/GPa) = 0.02345854
#
# Stress axis : x y z
#
# Youngs Moduli (GPa) = 70.71487 43.34500 43.13506
#
# Poissons Ratio (x) = 0.36891 0.33104
# Poissons Ratio (y) = 0.60185 0.09846
# Poissons Ratio (z) = 0.54271 0.09894
#
# Static dielectric constant tensor:
#      x y z
#    x 3.315000 0.000000 0.000000 
#    y 0.000000 2.837620 0.000000 
#    z 0.000000 0.000000 2.960800 
# 
# 
# High freq. dielectric constant tensor:
#      x y z
#    x 1.629890 0.000000 0.000000 
#    y 0.000000 1.579490 0.000000 
#    z 0.000000 0.000000 1.623730 
# 
# From -- ./inp_files/8128.got.cif
#   From: 2010.06.25/outbox.cif.g09.slc.cpg/sg58_5_cif.got.tgz:8128.got - 2010.06.26 21:38:00.
