data_PCOD8235216
_publ_section_title
;
Structure prediction by ZEFSAII (Michael W. Deem and Ramdas Pophale) SiO2 
 PCOD8235216
Probable space group: P N N M
;
_chemical_formula_sum "Si O2"
_cell_formula_units_Z 56
_cell_length_a 29.389362
_cell_length_b 13.725713
_cell_length_c 9.178233
_cell_angle_alpha 90.000000
_cell_angle_beta 90.000000
_cell_angle_gamma 90.000000
_cell_volume 3702.406933
_symmetry_space_group_name_H-M "P N N M"
_symmetry_group_IT_number 58
_symmetry_cell_setting 'orthorhombic'
loop_
_space_group_symop_operation_xyz
x,y,z
-x,-y,z
1/2+x,1/2-y,1/2-z
1/2-x,1/2+y,1/2-z
-x,-y,-z
x,y,-z
1/2-x,1/2+y,1/2+z
1/2+x,1/2-y,1/2+z
loop_
_atom_site_type_symbol
_atom_site_label
_atom_site_fract_x
_atom_site_fract_y
_atom_site_fract_z
Si Si1 0.004901 0.884343 0.661088
Si Si2 0.091822 0.901040 0.827267
Si Si3 0.728615 0.894972 0.327568
Si Si4 0.682594 0.286394 0.172158
Si Si5 0.771047 0.593257 0.327327
Si Si6 0.317706 0.298587 0.672066
Si Si7 0.594059 0.394201 0.172414
O O1 0.017952 0.845902 0.500000
O O2 0.044435 0.852881 0.772731
O O3 0.954994 0.844505 0.708639
O O4 0.000000 0.000000 0.658437
O O5 0.132642 0.831202 0.773404
O O6 0.100431 0.005704 0.757780
O O7 0.089930 0.911723 0.000000
O O8 0.727327 0.911334 0.500000
O O9 0.778688 0.861470 0.273073
O O10 0.692780 0.811689 0.277068
O O11 0.714317 0.993970 0.249385
O O12 0.693099 0.176416 0.224125
O O13 0.633095 0.320419 0.227751
O O14 0.684651 0.287175 0.000000
O O15 0.772212 0.577886 0.500000
O O16 0.721007 0.626554 0.271754
O O17 0.314978 0.301245 0.500000
O O18 0.597501 0.416489 0.000000
#
# Coordination Sequence:
#
# PCOD8235216 Si02
#       7
#     8   8   8   8   8   8   8
#     4   8  15  26  38  54  78 104 128 158 195 231
#     4  10  17  25  39  58  80 106 133 159 189 227
#     4   9  16  28  43  58  79 106 133 158 189 231
#     4   8  15  27  43  59  77 106 135 155 187 237
#     4   9  16  28  43  59  80 103 130 163 194 224
#     4   8  16  28  40  56  81 110 131 152 192 237
#     4   9  16  27  41  57  79 106 132 157 191 233
#
# _framework density 15.125296000000001
#
# number of rings (size 3 to 8) (size 9 to 14) (size 15 to 20)
#    0.000    3.286    0.000    3.857    0.000    2.571 
#    0.000    5.714    0.000    0.000    0.000    1.000 
#    0.000    8.000    0.000    0.000    0.000    0.000 
#
# Total GULP energy -693933.845430 kJ/mol
# GULP energy per Si atom -12391.675811 kJ/mol
# Density = 1.509087 g / cm^3
# Si number density = 15.125296 Si / 1000 Ang^3
#
#
#
# Elastic Constant Matrix: (Units=GPa)
#
#
# Indices 1 2 3 4 5 6 
#
# 1 143.8311 60.7124 38.2482 0.0000 0.0000 0.0000
# 2 60.7124 96.4172 32.1162 0.0000 0.0000 0.0000
# 3 38.2482 32.1162 40.6194 0.0000 0.0000 0.0000
# 4 0.0000 0.0000 0.0000 20.8068 0.0000 0.0000
# 5 0.0000 0.0000 0.0000 0.0000 5.6770 0.0000
# 6 0.0000 0.0000 0.0000 0.0000 0.0000 22.8390
#
#
#
# Elastic Compliance Matrix: (Units=1/GPa)
#
#
# Indices 1 2 3 4 5 6 
#
# 1 0.010555 -0.004528 -0.006358 0.000000 0.000000 0.000000
# 2 -0.004528 0.016022 -0.008404 0.000000 0.000000 0.000000
# 3 -0.006358 -0.008404 0.037251 0.000000 0.000000 0.000000
# 4 0.000000 0.000000 0.000000 0.048061 0.000000 0.000000
# 5 0.000000 0.000000 0.000000 0.000000 0.176149 0.000000
# 6 0.000000 0.000000 0.000000 0.000000 0.000000 0.043785
#
#
# Mechanical properties :
#
#
# Convention : Reuss Voigt Hill
#
# Bulk Modulus (GPa) = 39.60989 60.33569 49.97279
# Shear Modulus (GPa) = 13.19885 19.85063 16.52474
#
# Velocity S-wave (km/s) = 2.95724 3.62665 3.30892
# Velocity P-wave (km/s) = 6.15671 7.58380 6.90721
#
# Compressibility (1/GPa) = 0.02524622
#
# Stress axis : x y z
#
# Youngs Moduli (GPa) = 94.74286 62.41250 26.84493
#
# Poissons Ratio (x) = 0.28262 0.17069
# Poissons Ratio (y) = 0.42902 0.22561
# Poissons Ratio (z) = 0.60241 0.52454
#
# Static dielectric constant tensor:
#      x y z
#    x 3.469250 0.000000 0.000000 
#    y 0.000000 2.823840 0.000000 
#    z 0.000000 0.000000 2.673500 
# 
# 
# High freq. dielectric constant tensor:
#      x y z
#    x 1.582660 0.000000 0.000000 
#    y 0.000000 1.549340 0.000000 
#    z 0.000000 0.000000 1.558510 
# 
# From -- ./inp_files/7097.got.cif
#   From: 2010.06.25/outbox.cif.g09.slc.cpg/sg58_4_cif.got.tgz:7097.got - 2010.06.26 21:38:00.
