data_PCOD8235774
_publ_section_title
;
Structure prediction by ZEFSAII (Michael W. Deem and Ramdas Pophale) SiO2 
 PCOD8235774
Probable space group: P N N M
;
_chemical_formula_sum "Si O2"
_cell_formula_units_Z 64
_cell_length_a 12.054359
_cell_length_b 15.855186
_cell_length_c 18.305189
_cell_angle_alpha 90.000000
_cell_angle_beta 90.000000
_cell_angle_gamma 90.000000
_cell_volume 3498.562847
_symmetry_space_group_name_H-M "P N N M"
_symmetry_group_IT_number 58
_symmetry_cell_setting 'orthorhombic'
loop_
_space_group_symop_operation_xyz
x,y,z
-x,-y,z
1/2+x,1/2-y,1/2-z
1/2-x,1/2+y,1/2-z
-x,-y,-z
x,y,-z
1/2-x,1/2+y,1/2+z
1/2+x,1/2-y,1/2+z
loop_
_atom_site_type_symbol
_atom_site_label
_atom_site_fract_x
_atom_site_fract_y
_atom_site_fract_z
Si Si1 0.136860 0.301711 0.316188
Si Si2 0.397217 0.241242 0.820925
Si Si3 0.062832 0.229343 0.084240
Si Si4 0.880963 0.542262 0.581356
Si Si5 0.293583 0.860295 0.658053
Si Si6 0.146797 0.704295 0.159444
Si Si7 0.871997 0.476967 0.085440
Si Si8 0.260506 0.120968 0.085089
O O1 0.122153 0.384881 0.361604
O O2 0.147606 0.334014 0.233411
O O3 0.236044 0.249470 0.351799
O O4 0.028560 0.242508 0.324211
O O5 0.334489 0.330628 0.833644
O O6 0.367906 0.193440 0.745661
O O7 0.358966 0.176641 0.882350
O O8 0.139321 0.312134 0.094277
O O9 0.137366 0.149529 0.112301
O O10 0.949583 0.233998 0.129694
O O11 0.029352 0.221385 0.000000
O O12 0.858304 0.576839 0.500000
O O13 0.783483 0.476403 0.603367
O O14 0.000000 0.500000 0.584957
O O15 0.299175 0.958671 0.635354
O O16 0.147174 0.616043 0.117103
O O17 0.000000 0.500000 0.094631
O O18 0.836331 0.479814 0.000000
O O19 0.268000 0.139055 0.000000
#
# Coordination Sequence:
#
# PCOD8235774 Si02
#       8
#     8   8   8   8   8   8   8   8
#     4  11  22  37  58  83 117 154 184 235 294 341
#     4  10  20  37  56  81 116 148 190 233 281 347
#     4  10  18  35  58  81 113 148 186 231 280 336
#     4  10  20  34  53  83 112 141 190 237 278 332
#     4  10  21  35  57  85 110 148 196 236 280 336
#     4  11  23  36  56  87 119 148 187 235 292 346
#     4  11  21  36  59  87 116 148 195 247 289 337
#     4   9  19  34  57  82 108 148 190 231 275 326
#
# _framework density 18.293226000000001
#
# number of rings (size 3 to 8) (size 9 to 14) (size 15 to 20)
#    0.000    1.750    3.750    0.750    1.750    2.000 
#    0.000    1.250    0.000    6.000    0.000    0.000 
#    0.000    0.000    0.000    0.000    0.000    0.000 
#
# Total GULP energy -793339.872811 kJ/mol
# GULP energy per Si atom -12395.935513 kJ/mol
# Density = 1.825159 g / cm^3
# Si number density = 18.293226 Si / 1000 Ang^3
#
#
#
# Elastic Constant Matrix: (Units=GPa)
#
#
# Indices 1 2 3 4 5 6 
#
# 1 98.0025 13.3833 17.3389 0.0000 0.0000 0.0000
# 2 13.3833 35.7297 22.3162 0.0000 0.0000 0.0000
# 3 17.3389 22.3162 38.9560 0.0000 0.0000 0.0000
# 4 0.0000 0.0000 0.0000 14.3243 0.0000 0.0000
# 5 0.0000 0.0000 0.0000 0.0000 25.7888 0.0000
# 6 0.0000 0.0000 0.0000 0.0000 0.0000 13.5672
#
#
#
# Elastic Compliance Matrix: (Units=1/GPa)
#
#
# Indices 1 2 3 4 5 6 
#
# 1 0.011140 -0.001675 -0.003999 0.000000 0.000000 0.000000
# 2 -0.001675 0.043833 -0.024364 0.000000 0.000000 0.000000
# 3 -0.003999 -0.024364 0.041407 0.000000 0.000000 0.000000
# 4 0.000000 0.000000 0.000000 0.069811 0.000000 0.000000
# 5 0.000000 0.000000 0.000000 0.000000 0.038776 0.000000
# 6 0.000000 0.000000 0.000000 0.000000 0.000000 0.073707
#
#
# Mechanical properties :
#
#
# Convention : Reuss Voigt Hill
#
# Bulk Modulus (GPa) = 27.54553 30.97390 29.25971
# Shear Modulus (GPa) = 14.25100 18.71272 16.48186
#
# Velocity S-wave (km/s) = 2.79414 3.20180 3.00489
# Velocity P-wave (km/s) = 5.04976 5.53510 5.29799
#
# Compressibility (1/GPa) = 0.03630353
#
# Stress axis : x y z
#
# Youngs Moduli (GPa) = 89.76619 22.81385 24.15052
#
# Poissons Ratio (x) = 0.03822 0.09657
# Poissons Ratio (y) = 0.15038 0.58841
# Poissons Ratio (z) = 0.35894 0.55584
#
# Static dielectric constant tensor:
#      x y z
#    x 3.092500 0.000000 0.000000 
#    y 0.000000 3.064550 0.000000 
#    z 0.000000 0.000000 3.530770 
# 
# 
# High freq. dielectric constant tensor:
#      x y z
#    x 1.705230 0.000000 0.000000 
#    y 0.000000 1.690530 0.000000 
#    z 0.000000 0.000000 1.721430 
# 
# From -- ./inp_files/26391.got.cif
#   From: 2010.06.25/outbox.cif.g09.slc.cpg/sg58_14_cif.got.tgz:26391.got - 2010.06.26 21:38:00.
