data_PCOD8235783
_publ_section_title
;
Structure prediction by ZEFSAII (Michael W. Deem and Ramdas Pophale) SiO2 
 PCOD8235783
Probable space group: P N N M
;
_chemical_formula_sum "Si O2"
_cell_formula_units_Z 56
_cell_length_a 14.569368
_cell_length_b 22.091015
_cell_length_c 8.594369
_cell_angle_alpha 90.000000
_cell_angle_beta 90.000000
_cell_angle_gamma 90.000000
_cell_volume 2766.115943
_symmetry_space_group_name_H-M "P N N M"
_symmetry_group_IT_number 58
_symmetry_cell_setting 'orthorhombic'
loop_
_space_group_symop_operation_xyz
x,y,z
-x,-y,z
1/2+x,1/2-y,1/2-z
1/2-x,1/2+y,1/2-z
-x,-y,-z
x,y,-z
1/2-x,1/2+y,1/2+z
1/2+x,1/2-y,1/2+z
loop_
_atom_site_type_symbol
_atom_site_label
_atom_site_fract_x
_atom_site_fract_y
_atom_site_fract_z
Si Si1 0.107667 0.841253 0.315286
Si Si2 0.103042 0.977540 0.322439
Si Si3 0.696339 0.412428 0.320099
Si Si4 0.083181 0.422047 0.815739
Si Si5 0.620146 0.943588 0.315785
Si Si6 0.411217 0.695988 0.818003
Si Si7 0.694320 0.191507 0.683933
O O1 0.101916 0.844402 0.500000
O O2 0.109084 0.910026 0.252934
O O3 0.199915 0.807433 0.256333
O O4 0.016623 0.806228 0.255576
O O5 0.139832 0.980228 0.500000
O O6 0.166923 0.019032 0.215630
O O7 0.000000 0.000000 0.312889
O O8 0.682482 0.396165 0.500000
O O9 0.802906 0.405262 0.274173
O O10 0.635342 0.368225 0.215364
O O11 0.124857 0.486176 0.761611
O O12 0.141962 0.366801 0.743783
O O13 0.977370 0.415752 0.762938
O O14 0.086149 0.420241 0.000000
O O15 0.635033 0.937713 0.500000
O O16 0.356429 0.747680 0.729783
O O17 0.407479 0.709507 0.000000
O O18 0.694431 0.185870 0.500000
#
# Coordination Sequence:
#
# PCOD8235783 Si02
#       7
#     8   8   8   8   8   8   8
#     4   9  19  37  62  86 112 147 188 232 284 345
#     4  10  18  35  63  88 111 148 189 231 286 351
#     4  12  24  36  53  85 121 152 184 236 293 338
#     4   8  16  33  60  88 114 145 189 235 281 333
#     4   9  17  34  60  87 114 151 190 228 273 341
#     4  11  23  41  58  78 108 151 198 235 273 339
#     4  10  20  37  59  85 114 146 186 238 292 336
#
# _framework density 20.244993999999998
#
# number of rings (size 3 to 8) (size 9 to 14) (size 15 to 20)
#    0.000    2.143    1.429    3.429    0.000    3.714 
#    0.000    9.286    0.000    0.000    0.000    0.000 
#    0.000    0.000    0.000    0.000    0.000    0.000 
#
# Total GULP energy -694361.416416 kJ/mol
# GULP energy per Si atom -12399.311007 kJ/mol
# Density = 2.019892 g / cm^3
# Si number density = 20.244994 Si / 1000 Ang^3
#
#
#
# Elastic Constant Matrix: (Units=GPa)
#
#
# Indices 1 2 3 4 5 6 
#
# 1 166.0980 64.4881 14.2075 0.0000 0.0000 0.0000
# 2 64.4881 93.9572 1.3906 0.0000 0.0000 0.0000
# 3 14.2075 1.3906 24.0147 0.0000 0.0000 0.0000
# 4 0.0000 0.0000 0.0000 20.2378 0.0000 0.0000
# 5 0.0000 0.0000 0.0000 0.0000 17.9631 0.0000
# 6 0.0000 0.0000 0.0000 0.0000 0.0000 34.4856
#
#
#
# Elastic Compliance Matrix: (Units=1/GPa)
#
#
# Indices 1 2 3 4 5 6 
#
# 1 0.008732 -0.005922 -0.004823 0.000000 0.000000 0.000000
# 2 -0.005922 0.014669 0.002654 0.000000 0.000000 0.000000
# 3 -0.004823 0.002654 0.044341 0.000000 0.000000 0.000000
# 4 0.000000 0.000000 0.000000 0.049412 0.000000 0.000000
# 5 0.000000 0.000000 0.000000 0.000000 0.055670 0.000000
# 6 0.000000 0.000000 0.000000 0.000000 0.000000 0.028998
#
#
# Mechanical properties :
#
#
# Convention : Reuss Voigt Hill
#
# Bulk Modulus (GPa) = 19.39506 49.36027 34.37767
# Shear Modulus (GPa) = 21.25934 28.13621 24.69777
#
# Velocity S-wave (km/s) = 3.24405 3.73203 3.49656
# Velocity P-wave (km/s) = 4.86135 6.55783 5.77226
#
# Compressibility (1/GPa) = 0.05155952
#
# Stress axis : x y z
#
# Youngs Moduli (GPa) = 114.51598 68.17300 22.55249
#
# Poissons Ratio (x) = 0.40373 0.10878
# Poissons Ratio (y) = 0.67818 -0.05986
# Poissons Ratio (z) = 0.55235 -0.18095
#
# Static dielectric constant tensor:
#      x y z
#    x 4.059940 0.000000 0.000000 
#    y 0.000000 3.675450 0.000000 
#    z 0.000000 0.000000 3.184020 
# 
# 
# High freq. dielectric constant tensor:
#      x y z
#    x 1.812130 0.000000 0.000000 
#    y 0.000000 1.782820 0.000000 
#    z 0.000000 0.000000 1.745810 
# 
# From -- ./inp_files/6477.got.cif
#   From: 2010.06.25/outbox.cif.g09.slc.cpg/sg58_4_cif.got.tgz:6477.got - 2010.06.26 21:38:00.
