data_PCOD8235169
_publ_section_title
;
Structure prediction by ZEFSAII (Michael W. Deem and Ramdas Pophale) SiO2 
 PCOD8235169
Probable space group: P B C M
;
_chemical_formula_sum "Si O2"
_cell_formula_units_Z 32
_cell_length_a 4.968308
_cell_length_b 13.748462
_cell_length_c 18.355791
_cell_angle_alpha 90.000000
_cell_angle_beta 90.000000
_cell_angle_gamma 90.000000
_cell_volume 1253.821559
_symmetry_space_group_name_H-M "P B C M"
_symmetry_group_IT_number 57
_symmetry_cell_setting 'orthorhombic'
loop_
_space_group_symop_operation_xyz
x,y,z
-x,-y,1/2+z
x,1/2-y,-z
-x,1/2+y,1/2-z
-x,-y,-z
x,y,1/2-z
-x,1/2+y,z
x,1/2-y,1/2+z
loop_
_atom_site_type_symbol
_atom_site_label
_atom_site_fract_x
_atom_site_fract_y
_atom_site_fract_z
Si Si1 0.364920 0.273061 0.372040
Si Si2 0.859135 0.147487 0.382149
Si Si3 0.980727 0.557248 0.829499
Si Si4 0.359574 0.594629 0.531289
O O1 0.649848 0.225209 0.346394
O O2 0.412408 0.325741 0.450103
O O3 0.162523 0.183196 0.373554
O O4 0.244333 0.358157 0.321595
O O5 0.825144 0.360754 0.531065
O O6 0.823526 0.043642 0.343742
O O7 0.124980 0.551318 0.750000
O O8 0.191056 0.575461 0.894752
O O9 0.500000 0.500000 0.500000
#
# Coordination Sequence:
#
# PCOD8235169 Si02
#       4
#     8   8   8   8
#     4  12  28  49  82 118 154 205 269 336 397 472
#     4  12  28  48  84 117 155 210 274 331 393 476
#     4  12  30  53  76 117 171 212 264 336 413 481
#     4  12  26  50  86 117 159 209 279 327 400 464
#
# _framework density 25.521971000000001
#
# number of rings (size 3 to 8) (size 9 to 14) (size 15 to 20)
#    0.000    0.000    5.000    3.000    7.000    3.000 
#    0.000    0.000    0.000    0.000    0.000    0.000 
#    0.000    0.000    0.000    0.000    0.000    0.000 
#
# Total GULP energy -396568.033168 kJ/mol
# GULP energy per Si atom -12392.751037 kJ/mol
# Density = 2.546388 g / cm^3
# Si number density = 25.521971 Si / 1000 Ang^3
#
#
#
# Elastic Constant Matrix: (Units=GPa)
#
#
# Indices 1 2 3 4 5 6 
#
# 1 107.5782 34.0918 34.3509 0.0000 0.0000 0.0000
# 2 34.0918 149.0814 35.6569 0.0000 0.0000 0.0000
# 3 34.3509 35.6569 157.3791 0.0000 0.0000 0.0000
# 4 0.0000 0.0000 0.0000 -19.5962 0.0000 0.0000
# 5 0.0000 0.0000 0.0000 0.0000 24.9977 0.0000
# 6 0.0000 0.0000 0.0000 0.0000 0.0000 35.8618
#
#
#
# Elastic Compliance Matrix: (Units=1/GPa)
#
#
# Indices 1 2 3 4 5 6 
#
# 1 0.010507 -0.001961 -0.001849 0.000000 0.000000 0.000000
# 2 -0.001961 0.007458 -0.001262 0.000000 0.000000 0.000000
# 3 -0.001849 -0.001262 0.007044 0.000000 0.000000 0.000000
# 4 0.000000 0.000000 0.000000 -0.051030 0.000000 0.000000
# 5 0.000000 0.000000 0.000000 0.000000 0.040004 0.000000
# 6 0.000000 0.000000 0.000000 0.000000 0.000000 0.027885
#
#
# Mechanical properties :
#
#
# Convention : Reuss Voigt Hill
#
# Bulk Modulus (GPa) = 67.26883 69.13755 68.20319
# Shear Modulus (GPa) = 87.77256 28.91526 58.34391
#
# Velocity S-wave (km/s) = 5.87074 3.36959 4.78643
# Velocity P-wave (km/s) = 8.50698 6.50285 7.57152
#
# Compressibility (1/GPa) = 0.01486573
#
# Stress axis : x y z
#
# Youngs Moduli (GPa) = 95.17155 134.08669 141.97302
#
# Poissons Ratio (x) = 0.26288 0.26254
# Poissons Ratio (y) = 0.18658 0.17914
# Poissons Ratio (z) = 0.17599 0.16919
#
# Static dielectric constant tensor:
#      x y z
#    x 4.537530 0.000000 0.000000 
#    y 0.000000 5.165090 0.000000 
#    z 0.000000 0.000000 4.587330 
# 
# 
# High freq. dielectric constant tensor:
#      x y z
#    x 2.015020 0.000000 0.000000 
#    y 0.000000 2.053130 0.000000 
#    z 0.000000 0.000000 2.000740 
# 
# From -- ./inp_files/25984.got.cif
#   From: 2010.03.12/outbox.cif.g09.slc.cpg/sg57_13_cif.got.tgz:25984.got - 2010.04.16 15:48:40.
