data_PCOD8235738
_publ_section_title
;
Structure prediction by ZEFSAII (Michael W. Deem and Ramdas Pophale) SiO2 
 PCOD8235738
Probable space group: P N N M
;
_chemical_formula_sum "Si O2"
_cell_formula_units_Z 64
_cell_length_a 16.803191
_cell_length_b 11.811539
_cell_length_c 17.413506
_cell_angle_alpha 90.000000
_cell_angle_beta 90.000000
_cell_angle_gamma 90.000000
_cell_volume 3456.085454
_symmetry_space_group_name_H-M "P N N M"
_symmetry_group_IT_number 58
_symmetry_cell_setting 'orthorhombic'
loop_
_space_group_symop_operation_xyz
x,y,z
-x,-y,z
1/2+x,1/2-y,1/2-z
1/2-x,1/2+y,1/2-z
-x,-y,-z
x,y,-z
1/2-x,1/2+y,1/2+z
1/2+x,1/2-y,1/2+z
loop_
_atom_site_type_symbol
_atom_site_label
_atom_site_fract_x
_atom_site_fract_y
_atom_site_fract_z
Si Si1 0.844266 0.912029 0.589359
Si Si2 0.395753 0.197934 0.742767
Si Si3 0.728190 0.520756 0.583678
Si Si4 0.815763 0.278568 0.914306
Si Si5 0.931229 0.767670 0.289041
Si Si6 0.911214 0.962039 0.822440
Si Si7 0.838123 0.537546 0.280788
Si Si8 0.682958 0.599963 0.800352
O O1 0.866679 0.910200 0.500000
O O2 0.757033 0.861682 0.606494
O O3 0.911883 0.840861 0.634588
O O4 0.842796 0.042704 0.619006
O O5 0.384386 0.214873 0.650495
O O6 0.475877 0.248356 0.777742
O O7 0.327135 0.263591 0.792707
O O8 0.394798 0.063378 0.753689
O O9 0.754941 0.478263 0.500000
O O10 0.721101 0.655128 0.585915
O O11 0.643418 0.461658 0.601816
O O12 0.796566 0.488259 0.643122
O O13 0.850295 0.306799 0.000000
O O14 0.902850 0.837893 0.214751
O O15 0.889253 0.647815 0.296933
O O16 0.876131 0.055439 0.765375
O O17 0.000000 0.000000 0.844459
O O18 0.773674 0.566264 0.215758
#
# Coordination Sequence:
#
# PCOD8235738 Si02
#       8
#     8   8   8   8   8   8   8   8
#     4  10  20  37  62  87 113 150 198 246 291 342
#     4  12  21  38  58  86 118 152 193 241 290 350
#     4  10  20  33  54  83 112 145 190 236 286 345
#     4  10  18  34  60  88 112 147 195 240 284 345
#     4  11  22  36  58  87 117 153 194 237 290 358
#     4  10  18  34  56  83 113 140 180 244 294 339
#     4  11  22  36  58  82 115 157 199 235 284 351
#     4  10  20  34  58  84 107 147 197 241 286 335
#
# _framework density 18.518060999999999
#
# number of rings (size 3 to 8) (size 9 to 14) (size 15 to 20)
#    0.000    1.500    6.250    0.375    3.500    0.250 
#    0.000    3.125    0.000    4.500    0.000    0.000 
#    0.000    0.000    0.000    0.000    0.000    0.000 
#
# Total GULP energy -793234.322164 kJ/mol
# GULP energy per Si atom -12394.286284 kJ/mol
# Density = 1.847591 g / cm^3
# Si number density = 18.518061 Si / 1000 Ang^3
#
#
#
# Elastic Constant Matrix: (Units=GPa)
#
#
# Indices 1 2 3 4 5 6 
#
# 1 61.8276 7.5764 36.7788 0.0000 0.0000 0.0000
# 2 7.5764 77.4638 26.1608 0.0000 0.0000 0.0000
# 3 36.7788 26.1608 110.0271 0.0000 0.0000 0.0000
# 4 0.0000 0.0000 0.0000 21.8445 0.0000 0.0000
# 5 0.0000 0.0000 0.0000 0.0000 19.4357 0.0000
# 6 0.0000 0.0000 0.0000 0.0000 0.0000 18.9037
#
#
#
# Elastic Compliance Matrix: (Units=1/GPa)
#
#
# Indices 1 2 3 4 5 6 
#
# 1 0.020196 0.000331 -0.006830 0.000000 0.000000 0.000000
# 2 0.000331 0.014042 -0.003449 0.000000 0.000000 0.000000
# 3 -0.006830 -0.003449 0.012192 0.000000 0.000000 0.000000
# 4 0.000000 0.000000 0.000000 0.045778 0.000000 0.000000
# 5 0.000000 0.000000 0.000000 0.000000 0.051452 0.000000
# 6 0.000000 0.000000 0.000000 0.000000 0.000000 0.052900
#
#
# Mechanical properties :
#
#
# Convention : Reuss Voigt Hill
#
# Bulk Modulus (GPa) = 37.68759 43.37228 40.52994
# Shear Modulus (GPa) = 22.19267 23.95695 23.07481
#
# Velocity S-wave (km/s) = 3.46560 3.60072 3.53380
# Velocity P-wave (km/s) = 6.03405 6.38430 6.21165
#
# Compressibility (1/GPa) = 0.02653393
#
# Stress axis : x y z
#
# Youngs Moduli (GPa) = 49.51440 71.21606 82.02239
#
# Poissons Ratio (x) = -0.02359 0.56019
# Poissons Ratio (y) = -0.01640 0.28293
# Poissons Ratio (z) = 0.33817 0.24565
#
# Static dielectric constant tensor:
#      x y z
#    x 3.356110 0.000000 0.000000 
#    y 0.000000 3.474930 0.000000 
#    z 0.000000 0.000000 3.578800 
# 
# 
# High freq. dielectric constant tensor:
#      x y z
#    x 1.704920 0.000000 0.000000 
#    y 0.000000 1.720670 0.000000 
#    z 0.000000 0.000000 1.703610 
# 
# From -- ./inp_files/27388.got.cif
#   From: 2010.06.25/outbox.cif.g09.slc.cpg/sg58_14_cif.got.tgz:27388.got - 2010.06.26 21:38:00.
