data_PCOD8235174
_publ_section_title
;
Structure prediction by ZEFSAII (Michael W. Deem and Ramdas Pophale) SiO2 
 PCOD8235174
Probable space group: P B C M
;
_chemical_formula_sum "Si O2"
_cell_formula_units_Z 40
_cell_length_a 9.721442
_cell_length_b 25.997608
_cell_length_c 9.116959
_cell_angle_alpha 90.000000
_cell_angle_beta 90.000000
_cell_angle_gamma 90.000000
_cell_volume 2304.167689
_symmetry_space_group_name_H-M "P B C M"
_symmetry_group_IT_number 57
_symmetry_cell_setting 'orthorhombic'
loop_
_space_group_symop_operation_xyz
x,y,z
-x,-y,1/2+z
x,1/2-y,-z
-x,1/2+y,1/2-z
-x,-y,-z
x,y,1/2-z
-x,1/2+y,z
x,1/2-y,1/2+z
loop_
_atom_site_type_symbol
_atom_site_label
_atom_site_fract_x
_atom_site_fract_y
_atom_site_fract_z
Si Si1 0.160645 0.801901 0.076636
Si Si2 0.845783 0.801408 0.421654
Si Si3 0.644876 0.504575 0.078138
Si Si4 0.350488 0.891956 0.420679
Si Si5 0.337620 0.396690 0.423890
O O1 0.177948 0.795591 0.250000
O O2 0.251458 0.848647 0.010178
O O3 0.002852 0.813339 0.034480
O O4 0.212965 0.750000 0.000000
O O5 0.792077 0.750000 0.500000
O O6 0.828769 0.792570 0.250000
O O7 0.753576 0.848828 0.475788
O O8 0.626026 0.515592 0.250000
O O9 0.716263 0.448714 0.052097
O O10 0.500000 0.500000 0.000000
O O11 0.725151 0.551991 0.001759
O O12 0.359958 0.880533 0.250000
O O13 0.506427 0.887761 0.481940
O O14 0.331272 0.405246 0.250000
#
# Coordination Sequence:
#
# PCOD8235174 Si02
#       5
#     8   8   8   8   8
#     4   9  17  31  47  63  85 116 147 178 217 262
#     4   9  18  31  47  64  87 117 148 180 219 262
#     4   9  16  28  46  67  90 118 147 179 219 264
#     4   8  15  28  46  64  86 114 144 175 214 259
#     4   9  17  30  46  66  90 117 146 180 219 261
#
# _framework density 17.359848
#
# number of rings (size 3 to 8) (size 9 to 14) (size 15 to 20)
#    0.000    3.200    0.000    1.800    0.000    1.600 
#    0.000    6.000    0.000    0.000    0.000    0.000 
#    0.000    0.000    0.000    0.000    0.000    0.000 
#
# Total GULP energy -495692.787536 kJ/mol
# GULP energy per Si atom -12392.319688 kJ/mol
# Density = 1.732034 g / cm^3
# Si number density = 17.359848 Si / 1000 Ang^3
#
#
#
# Elastic Constant Matrix: (Units=GPa)
#
#
# Indices 1 2 3 4 5 6 
#
# 1 63.1021 75.3096 20.0890 0.0000 0.0000 0.0000
# 2 75.3096 195.0742 49.3748 0.0000 0.0000 0.0000
# 3 20.0890 49.3748 40.3351 0.0000 0.0000 0.0000
# 4 0.0000 0.0000 0.0000 34.2368 0.0000 0.0000
# 5 0.0000 0.0000 0.0000 0.0000 14.1616 0.0000
# 6 0.0000 0.0000 0.0000 0.0000 0.0000 17.9240
#
#
#
# Elastic Compliance Matrix: (Units=1/GPa)
#
#
# Indices 1 2 3 4 5 6 
#
# 1 0.029420 -0.011083 -0.001086 0.000000 0.000000 0.000000
# 2 -0.011083 0.011603 -0.008683 0.000000 0.000000 0.000000
# 3 -0.001086 -0.008683 0.035962 0.000000 0.000000 0.000000
# 4 0.000000 0.000000 0.000000 0.029208 0.000000 0.000000
# 5 0.000000 0.000000 0.000000 0.000000 0.070613 0.000000
# 6 0.000000 0.000000 0.000000 0.000000 0.000000 0.055791
#
#
# Mechanical properties :
#
#
# Convention : Reuss Voigt Hill
#
# Bulk Modulus (GPa) = 28.34389 65.33980 46.84184
# Shear Modulus (GPa) = 17.47872 23.51368 20.49620
#
# Velocity S-wave (km/s) = 3.17653 3.68433 3.43981
# Velocity P-wave (km/s) = 5.46045 7.47122 6.54353
#
# Compressibility (1/GPa) = 0.03528098
#
# Stress axis : x y z
#
# Youngs Moduli (GPa) = 33.99045 86.18742 27.80691
#
# Poissons Ratio (x) = 0.95521 0.03020
# Poissons Ratio (y) = 0.37671 0.24145
# Poissons Ratio (z) = 0.03691 0.74837
#
# Static dielectric constant tensor:
#      x y z
#    x 3.232800 0.000000 0.000000 
#    y 0.000000 4.168110 0.000000 
#    z 0.000000 0.000000 3.117830 
# 
# 
# High freq. dielectric constant tensor:
#      x y z
#    x 1.638800 0.000000 0.000000 
#    y 0.000000 1.689210 0.000000 
#    z 0.000000 0.000000 1.650390 
# 
# From -- ./inp_files/1710.got.cif
#   From: 2010.03.12/outbox.cif.g09.slc.cpg/sg57_1_cif.got.tgz:1710.got - 2010.04.16 15:48:40.
