data_PCOD8235208
_publ_section_title
;
Structure prediction by ZEFSAII (Michael W. Deem and Ramdas Pophale) SiO2 
 PCOD8235208
Probable space group: P N N M
;
_chemical_formula_sum "Si O2"
_cell_formula_units_Z 44
_cell_length_a 20.919575
_cell_length_b 11.724498
_cell_length_c 7.859749
_cell_angle_alpha 90.000000
_cell_angle_beta 90.000000
_cell_angle_gamma 90.000000
_cell_volume 1927.772547
_symmetry_space_group_name_H-M "P N N M"
_symmetry_group_IT_number 58
_symmetry_cell_setting 'orthorhombic'
loop_
_space_group_symop_operation_xyz
x,y,z
-x,-y,z
1/2+x,1/2-y,1/2-z
1/2-x,1/2+y,1/2-z
-x,-y,-z
x,y,-z
1/2-x,1/2+y,1/2+z
1/2+x,1/2-y,1/2+z
loop_
_atom_site_type_symbol
_atom_site_label
_atom_site_fract_x
_atom_site_fract_y
_atom_site_fract_z
Si Si1 0.297255 0.865667 0.691884
Si Si2 0.584640 0.285836 0.806927
Si Si3 0.257298 0.143468 0.000000
Si Si4 0.620389 0.422546 0.500000
Si Si5 0.831648 0.370957 0.186749
Si Si6 0.978881 0.376169 0.800805
Si Si7 0.220419 0.900410 0.000000
O O1 0.274087 0.823069 0.500000
O O2 0.360317 0.802496 0.756177
O O3 0.239100 0.838392 0.823390
O O4 0.314031 0.997169 0.667893
O O5 0.582099 0.393037 0.674360
O O6 0.517380 0.220707 0.799172
O O7 0.595370 0.331253 0.000000
O O8 0.180946 0.162751 0.000000
O O9 0.287898 0.192315 0.174142
O O10 0.270403 0.007543 0.000000
O O11 0.646149 0.554336 0.500000
O O12 0.904848 0.357212 0.240651
O O13 0.820492 0.310711 0.000000
O O14 0.000000 0.500000 0.733400
O O15 0.994638 0.365344 0.000000
#
# Coordination Sequence:
#
# PCOD8235208 Si02
#       7
#     8   8   4   4   8   8   4
#     4  10  16  29  48  66  89 119 169 197 225 273
#     4  12  22  30  45  69 102 137 163 196 242 276
#     4   8  18  32  46  58  84 117 167 194 239 268
#     4  10  22  36  43  64 102 127 163 205 250 280
#     4   9  17  27  45  67  84 118 167 198 221 265
#     4  10  18  28  43  66  99 130 160 200 226 268
#     4   8  18  32  47  63  81 124 168 197 233 284
#
# _framework density 22.824271
#
# number of rings (size 3 to 8) (size 9 to 14) (size 15 to 20)
#    0.545    1.636    4.545    0.000    1.273    1.818 
#    0.000    0.000    0.000    0.000    0.000    0.000 
#    0.000    0.000    0.000    4.909    0.000    0.000 
#
# Total GULP energy -545259.688148 kJ/mol
# GULP energy per Si atom -12392.265640 kJ/mol
# Density = 2.277232 g / cm^3
# Si number density = 22.824271 Si / 1000 Ang^3
#
#
#
# Elastic Constant Matrix: (Units=GPa)
#
#
# Indices 1 2 3 4 5 6 
#
# 1 28.0783 -7.1052 27.1135 0.0000 0.0000 0.0000
# 2 -7.1052 19.5704 20.4244 0.0000 0.0000 0.0000
# 3 27.1135 20.4244 167.3265 0.0000 0.0000 0.0000
# 4 0.0000 0.0000 0.0000 12.0415 0.0000 0.0000
# 5 0.0000 0.0000 0.0000 0.0000 24.8127 0.0000
# 6 0.0000 0.0000 0.0000 0.0000 0.0000 15.4067
#
#
#
# Elastic Compliance Matrix: (Units=1/GPa)
#
#
# Indices 1 2 3 4 5 6 
#
# 1 0.057692 0.035184 -0.013643 0.000000 0.000000 0.000000
# 2 0.035184 0.080014 -0.015468 0.000000 0.000000 0.000000
# 3 -0.013643 -0.015468 0.010075 0.000000 0.000000 0.000000
# 4 0.000000 0.000000 0.000000 0.083046 0.000000 0.000000
# 5 0.000000 0.000000 0.000000 0.000000 0.040302 0.000000
# 6 0.000000 0.000000 0.000000 0.000000 0.000000 0.064907
#
#
# Mechanical properties :
#
#
# Convention : Reuss Voigt Hill
#
# Bulk Modulus (GPa) = 6.25284 32.87120 19.56202
# Shear Modulus (GPa) = 13.25558 22.08835 17.67197
#
# Velocity S-wave (km/s) = 2.41252 3.11425 2.78558
# Velocity P-wave (km/s) = 3.24128 5.23112 4.35146
#
# Compressibility (1/GPa) = 0.15992731
#
# Stress axis : x y z
#
# Youngs Moduli (GPa) = 17.33339 12.49776 99.25431
#
# Poissons Ratio (x) = -0.43972 1.35413
# Poissons Ratio (y) = -0.60986 1.53526
# Poissons Ratio (z) = 0.23648 0.19332
#
# Static dielectric constant tensor:
#      x y z
#    x 3.770400 0.000000 0.000000 
#    y 0.000000 4.023030 0.000000 
#    z 0.000000 0.000000 4.548830 
# 
# 
# High freq. dielectric constant tensor:
#      x y z
#    x 1.878470 0.000000 0.000000 
#    y 0.000000 1.899410 0.000000 
#    z 0.000000 0.000000 1.920090 
# 
# From -- ./inp_files/7693.got.cif
#   From: 2010.06.25/outbox.cif.g09.slc.cpg/sg58_4_cif.got.tgz:7693.got - 2010.06.26 21:38:00.
