data_PCOD8235960
_publ_section_title
;
Structure prediction by ZEFSAII (Michael W. Deem and Ramdas Pophale) SiO2 
 PCOD8235960
Probable space group: P N N M
;
_chemical_formula_sum "Si O2"
_cell_formula_units_Z 56
_cell_length_a 21.996101
_cell_length_b 14.674248
_cell_length_c 9.379935
_cell_angle_alpha 90.000000
_cell_angle_beta 90.000000
_cell_angle_gamma 90.000000
_cell_volume 3027.620161
_symmetry_space_group_name_H-M "P N N M"
_symmetry_group_IT_number 58
_symmetry_cell_setting 'orthorhombic'
loop_
_space_group_symop_operation_xyz
x,y,z
-x,-y,z
1/2+x,1/2-y,1/2-z
1/2-x,1/2+y,1/2-z
-x,-y,-z
x,y,-z
1/2-x,1/2+y,1/2+z
1/2+x,1/2-y,1/2+z
loop_
_atom_site_type_symbol
_atom_site_label
_atom_site_fract_x
_atom_site_fract_y
_atom_site_fract_z
Si Si1 0.212387 0.322866 0.665502
Si Si2 0.623811 0.296826 0.334901
Si Si3 0.536575 0.131251 0.661400
Si Si4 0.151509 0.847211 0.169011
Si Si5 0.569178 0.488021 0.670015
Si Si6 0.878242 0.514199 0.664974
Si Si7 0.895847 0.345559 0.835245
O O1 0.213814 0.295048 0.500000
O O2 0.183165 0.237263 0.748997
O O3 0.279240 0.346530 0.724858
O O4 0.175218 0.414645 0.692081
O O5 0.642596 0.303745 0.500000
O O6 0.568966 0.227030 0.310003
O O7 0.599438 0.393626 0.276591
O O8 0.548473 0.097715 0.500000
O O9 0.560172 0.052866 0.765750
O O10 0.466702 0.145192 0.692795
O O11 0.111869 0.930929 0.231277
O O12 0.121835 0.753584 0.221351
O O13 0.150590 0.855334 0.000000
O O14 0.500000 0.500000 0.728339
O O15 0.567083 0.488957 0.500000
O O16 0.889985 0.495219 0.500000
O O17 0.859806 0.420411 0.742673
O O18 0.877896 0.358434 0.000000
#
# Coordination Sequence:
#
# PCOD8235960 Si02
#       7
#     8   8   8   8   8   8   8
#     4   9  19  35  50  67  96 132 164 194 236 291
#     4   9  17  30  52  77  98 124 159 201 243 284
#     4   9  17  30  48  73 101 124 153 194 238 284
#     4   9  18  32  49  69  96 129 162 197 241 292
#     4   9  16  28  50  79 103 123 157 207 255 293
#     4  10  20  32  48  70  97 129 161 193 232 281
#     4  10  19  31  49  71  95 125 158 194 237 283
#
# _framework density 18.496375
#
# number of rings (size 3 to 8) (size 9 to 14) (size 15 to 20)
#    0.000    2.714    0.000    1.714    0.000    7.429 
#    0.000    2.143    0.000    2.143    0.000    0.000 
#    0.000    0.000    0.000    0.000    0.000    0.000 
#
# Total GULP energy -694346.763843 kJ/mol
# GULP energy per Si atom -12399.049354 kJ/mol
# Density = 1.845428 g / cm^3
# Si number density = 18.496375 Si / 1000 Ang^3
#
#
#
# Elastic Constant Matrix: (Units=GPa)
#
#
# Indices 1 2 3 4 5 6 
#
# 1 118.8089 64.6929 36.2337 0.0000 0.0000 0.0000
# 2 64.6929 151.7982 46.0232 0.0000 0.0000 0.0000
# 3 36.2337 46.0232 49.8443 0.0000 0.0000 0.0000
# 4 0.0000 0.0000 0.0000 16.5312 0.0000 0.0000
# 5 0.0000 0.0000 0.0000 0.0000 17.7615 0.0000
# 6 0.0000 0.0000 0.0000 0.0000 0.0000 21.9613
#
#
#
# Elastic Compliance Matrix: (Units=1/GPa)
#
#
# Indices 1 2 3 4 5 6 
#
# 1 0.011970 -0.003421 -0.005543 0.000000 0.000000 0.000000
# 2 -0.003421 0.010126 -0.006863 0.000000 0.000000 0.000000
# 3 -0.005543 -0.006863 0.030429 0.000000 0.000000 0.000000
# 4 0.000000 0.000000 0.000000 0.060492 0.000000 0.000000
# 5 0.000000 0.000000 0.000000 0.000000 0.056302 0.000000
# 6 0.000000 0.000000 0.000000 0.000000 0.000000 0.045535
#
#
# Mechanical properties :
#
#
# Convention : Reuss Voigt Hill
#
# Bulk Modulus (GPa) = 47.91272 68.26122 58.08697
# Shear Modulus (GPa) = 19.72661 22.81758 21.27209
#
# Velocity S-wave (km/s) = 3.26929 3.51611 3.39494
# Velocity P-wave (km/s) = 6.34122 7.31227 6.84399
#
# Compressibility (1/GPa) = 0.02087128
#
# Stress axis : x y z
#
# Youngs Moduli (GPa) = 83.54234 98.75109 32.86333
#
# Poissons Ratio (x) = 0.33781 0.18216
# Poissons Ratio (y) = 0.28578 0.22556
# Poissons Ratio (z) = 0.46306 0.67777
#
# Static dielectric constant tensor:
#      x y z
#    x 3.467030 0.000000 0.000000 
#    y 0.000000 3.632940 0.000000 
#    z 0.000000 0.000000 3.115650 
# 
# 
# High freq. dielectric constant tensor:
#      x y z
#    x 1.718850 0.000000 0.000000 
#    y 0.000000 1.729910 0.000000 
#    z 0.000000 0.000000 1.676460 
# 
# From -- ./inp_files/9047.got.cif
#   From: 2010.06.25/outbox.cif.g09.slc.cpg/sg58_5_cif.got.tgz:9047.got - 2010.06.26 21:38:00.
