data_PCOD8235356
_publ_section_title
;
Structure prediction by ZEFSAII (Michael W. Deem and Ramdas Pophale) SiO2 
 PCOD8235356
Probable space group: P N N M
;
_chemical_formula_sum "Si O2"
_cell_formula_units_Z 56
_cell_length_a 29.092568
_cell_length_b 13.743422
_cell_length_c 8.868068
_cell_angle_alpha 90.000000
_cell_angle_beta 90.000000
_cell_angle_gamma 90.000000
_cell_volume 3545.732390
_symmetry_space_group_name_H-M "P N N M"
_symmetry_group_IT_number 58
_symmetry_cell_setting 'orthorhombic'
loop_
_space_group_symop_operation_xyz
x,y,z
-x,-y,z
1/2+x,1/2-y,1/2-z
1/2-x,1/2+y,1/2-z
-x,-y,-z
x,y,-z
1/2-x,1/2+y,1/2+z
1/2+x,1/2-y,1/2+z
loop_
_atom_site_type_symbol
_atom_site_label
_atom_site_fract_x
_atom_site_fract_y
_atom_site_fract_z
Si Si1 0.408558 0.893340 0.175868
Si Si2 0.678208 0.781647 0.679221
Si Si3 0.726987 0.608680 0.178685
Si Si4 0.686440 0.200597 0.824183
Si Si5 0.592682 0.882581 0.176875
Si Si6 0.000204 0.615562 0.169471
Si Si7 0.266665 0.606591 0.824472
O O1 0.364761 0.829329 0.222703
O O2 0.452052 0.847405 0.262187
O O3 0.399286 0.005040 0.222350
O O4 0.419589 0.887062 0.000000
O O5 0.677778 0.777166 0.500000
O O6 0.688261 0.673796 0.741549
O O7 0.629601 0.817363 0.738325
O O8 0.718441 0.852812 0.741969
O O9 0.778294 0.639930 0.223758
O O10 0.720019 0.498599 0.241727
O O11 0.720908 0.616937 0.000000
O O12 0.692843 0.315704 0.791351
O O13 0.696184 0.177509 0.000000
O O14 0.542584 0.846160 0.230532
O O15 0.597374 0.865906 0.000000
O O16 0.000000 0.500000 0.173419
O O17 0.005399 0.655540 0.000000
O O18 0.258590 0.592404 0.000000
#
# Coordination Sequence:
#
# PCOD8235356 Si02
#       7
#     8   8   8   8   8   8   8
#     4   9  17  28  44  65  90 117 145 179 215 253
#     4  10  19  31  45  63  87 116 147 177 215 259
#     4  10  18  29  44  63  86 113 146 181 212 246
#     4   9  17  30  45  63  87 116 146 175 214 257
#     4  10  18  28  43  65  90 115 145 180 215 253
#     4   9  17  28  42  61  87 118 147 175 212 258
#     4   8  16  29  44  61  85 115 144 175 210 252
#
# _framework density 15.793635
#
# number of rings (size 3 to 8) (size 9 to 14) (size 15 to 20)
#    0.000    2.714    0.000    3.429    0.000    2.857 
#    0.000    6.429    0.000    0.000    0.000    1.000 
#    0.000    8.000    0.000    0.000    0.000    0.000 
#
# Total GULP energy -694285.850182 kJ/mol
# GULP energy per Si atom -12397.961610 kJ/mol
# Density = 1.575769 g / cm^3
# Si number density = 15.793635 Si / 1000 Ang^3
#
#
#
# Elastic Constant Matrix: (Units=GPa)
#
#
# Indices 1 2 3 4 5 6 
#
# 1 119.0517 52.8564 37.1576 0.0000 0.0000 0.0000
# 2 52.8564 98.5784 31.0258 0.0000 0.0000 0.0000
# 3 37.1576 31.0258 61.0377 0.0000 0.0000 0.0000
# 4 0.0000 0.0000 0.0000 17.0059 0.0000 0.0000
# 5 0.0000 0.0000 0.0000 0.0000 29.6323 0.0000
# 6 0.0000 0.0000 0.0000 0.0000 0.0000 22.8347
#
#
#
# Elastic Compliance Matrix: (Units=1/GPa)
#
#
# Indices 1 2 3 4 5 6 
#
# 1 0.012122 -0.004972 -0.004852 0.000000 0.000000 0.000000
# 2 -0.004972 0.014116 -0.004148 0.000000 0.000000 0.000000
# 3 -0.004852 -0.004148 0.021445 0.000000 0.000000 0.000000
# 4 0.000000 0.000000 0.000000 0.058803 0.000000 0.000000
# 5 0.000000 0.000000 0.000000 0.000000 0.033747 0.000000
# 6 0.000000 0.000000 0.000000 0.000000 0.000000 0.043793
#
#
# Mechanical properties :
#
#
# Convention : Reuss Voigt Hill
#
# Bulk Modulus (GPa) = 50.66280 57.86082 54.26181
# Shear Modulus (GPa) = 22.87802 24.40309 23.64056
#
# Velocity S-wave (km/s) = 3.81012 3.93507 3.87310
# Velocity P-wave (km/s) = 7.17661 7.57373 7.37784
#
# Compressibility (1/GPa) = 0.01973835
#
# Stress axis : x y z
#
# Youngs Moduli (GPa) = 82.49683 70.84188 46.63004
#
# Poissons Ratio (x) = 0.35226 0.22624
# Poissons Ratio (y) = 0.41021 0.19343
# Poissons Ratio (z) = 0.40025 0.29386
#
# Static dielectric constant tensor:
#      x y z
#    x 3.035070 0.000000 0.000000 
#    y 0.000000 2.988440 0.000000 
#    z 0.000000 0.000000 2.977830 
# 
# 
# High freq. dielectric constant tensor:
#      x y z
#    x 1.602220 0.000000 0.000000 
#    y 0.000000 1.577650 0.000000 
#    z 0.000000 0.000000 1.607250 
# 
# From -- ./inp_files/7111.got.cif
#   From: 2010.06.25/outbox.cif.g09.slc.cpg/sg58_4_cif.got.tgz:7111.got - 2010.06.26 21:38:00.
