data_PCOD8235175
_publ_section_title
;
Structure prediction by ZEFSAII (Michael W. Deem and Ramdas Pophale) SiO2 
 PCOD8235175
Probable space group: P B C M
;
_chemical_formula_sum "Si O2"
_cell_formula_units_Z 40
_cell_length_a 11.534968
_cell_length_b 9.585742
_cell_length_c 17.399426
_cell_angle_alpha 90.000000
_cell_angle_beta 90.000000
_cell_angle_gamma 90.000000
_cell_volume 1923.875886
_symmetry_space_group_name_H-M "P B C M"
_symmetry_group_IT_number 57
_symmetry_cell_setting 'orthorhombic'
loop_
_space_group_symop_operation_xyz
x,y,z
-x,-y,1/2+z
x,1/2-y,-z
-x,1/2+y,1/2-z
-x,-y,-z
x,y,1/2-z
-x,1/2+y,z
x,1/2-y,1/2+z
loop_
_atom_site_type_symbol
_atom_site_label
_atom_site_fract_x
_atom_site_fract_y
_atom_site_fract_z
Si Si1 0.640038 0.953274 0.591730
Si Si2 0.253839 0.782200 0.162080
Si Si3 0.021070 0.576141 0.660005
Si Si4 0.852183 0.695939 0.157578
Si Si5 0.606001 0.118832 0.446881
O O1 0.664006 0.085399 0.646075
O O2 0.647741 0.990749 0.500598
O O3 0.730004 0.829894 0.614260
O O4 0.507127 0.909660 0.605512
O O5 0.263283 0.737803 0.250000
O O6 0.124020 0.818944 0.137732
O O7 0.289541 0.649663 0.111347
O O8 0.009985 0.562733 0.750000
O O9 0.053402 0.421778 0.629225
O O10 0.902502 0.652267 0.631096
O O11 0.833584 0.685792 0.250000
O O12 0.575936 0.250000 0.500000
#
# Coordination Sequence:
#
# PCOD8235175 Si02
#       5
#     8   8   8   8   8
#     4   9  17  31  49  68  93 131 166 197 244 300
#     4   9  17  30  49  71  95 125 162 203 247 294
#     4   8  15  28  46  69  98 129 159 199 250 293
#     4   9  16  29  50  74 101 133 169 207 249 298
#     4   9  18  32  49  68  96 128 159 199 249 296
#
# _framework density 20.791361999999999
#
# number of rings (size 3 to 8) (size 9 to 14) (size 15 to 20)
#    0.000    3.200    0.000    1.800    0.000    1.600 
#    0.000    7.000    0.000    6.000    0.000    0.000 
#    0.000    0.000    0.000    0.000    0.000    0.000 
#
# Total GULP energy -495535.727793 kJ/mol
# GULP energy per Si atom -12388.393195 kJ/mol
# Density = 2.074404 g / cm^3
# Si number density = 20.791362 Si / 1000 Ang^3
#
#
#
# Elastic Constant Matrix: (Units=GPa)
#
#
# Indices 1 2 3 4 5 6 
#
# 1 56.3110 8.7765 14.5317 0.0000 0.0000 0.0000
# 2 8.7765 18.9417 -0.2523 0.0000 0.0000 0.0000
# 3 14.5317 -0.2523 49.3516 0.0000 0.0000 0.0000
# 4 0.0000 0.0000 0.0000 17.6649 0.0000 0.0000
# 5 0.0000 0.0000 0.0000 0.0000 30.3438 0.0000
# 6 0.0000 0.0000 0.0000 0.0000 0.0000 51.0936
#
#
#
# Elastic Compliance Matrix: (Units=1/GPa)
#
#
# Indices 1 2 3 4 5 6 
#
# 1 0.020879 -0.009756 -0.006198 0.000000 0.000000 0.000000
# 2 -0.009756 0.057356 0.003166 0.000000 0.000000 0.000000
# 3 -0.006198 0.003166 0.022104 0.000000 0.000000 0.000000
# 4 0.000000 0.000000 0.000000 0.056609 0.000000 0.000000
# 5 0.000000 0.000000 0.000000 0.000000 0.032956 0.000000
# 6 0.000000 0.000000 0.000000 0.000000 0.000000 0.019572
#
#
# Mechanical properties :
#
#
# Convention : Reuss Voigt Hill
#
# Bulk Modulus (GPa) = 13.37569 18.96849 16.17209
# Shear Modulus (GPa) = 19.23278 26.59035 22.91157
#
# Velocity S-wave (km/s) = 3.04474 3.58007 3.32320
# Velocity P-wave (km/s) = 4.33680 5.12174 4.74553
#
# Compressibility (1/GPa) = 0.07476248
#
# Stress axis : x y z
#
# Youngs Moduli (GPa) = 47.89611 17.43488 45.24097
#
# Poissons Ratio (x) = 0.17010 0.28039
# Poissons Ratio (y) = 0.46730 -0.14323
# Poissons Ratio (z) = 0.29684 -0.05520
#
# Static dielectric constant tensor:
#      x y z
#    x 3.690440 0.000000 0.000000 
#    y 0.000000 3.811160 0.000000 
#    z 0.000000 0.000000 3.578580 
# 
# 
# High freq. dielectric constant tensor:
#      x y z
#    x 1.808610 0.000000 0.000000 
#    y 0.000000 1.804100 0.000000 
#    z 0.000000 0.000000 1.781210 
# 
# From -- ./inp_files/17396.got.cif
#   From: 2010.03.12/outbox.cif.g09.slc.cpg/sg57_9_cif.got.tgz:17396.got - 2010.04.16 15:48:40.
