data_PCOD8235850
_publ_section_title
;
Structure prediction by ZEFSAII (Michael W. Deem and Ramdas Pophale) SiO2 
 PCOD8235850
Probable space group: P N N M
;
_chemical_formula_sum "Si O2"
_cell_formula_units_Z 64
_cell_length_a 27.503852
_cell_length_b 14.661054
_cell_length_c 9.625494
_cell_angle_alpha 90.000000
_cell_angle_beta 90.000000
_cell_angle_gamma 90.000000
_cell_volume 3881.340495
_symmetry_space_group_name_H-M "P N N M"
_symmetry_group_IT_number 58
_symmetry_cell_setting 'orthorhombic'
loop_
_space_group_symop_operation_xyz
x,y,z
-x,-y,z
1/2+x,1/2-y,1/2-z
1/2-x,1/2+y,1/2-z
-x,-y,-z
x,y,-z
1/2-x,1/2+y,1/2+z
1/2+x,1/2-y,1/2+z
loop_
_atom_site_type_symbol
_atom_site_label
_atom_site_fract_x
_atom_site_fract_y
_atom_site_fract_z
Si Si1 0.057689 0.898802 0.164443
Si Si2 0.717577 0.406467 0.661832
Si Si3 0.134025 0.789477 0.340566
Si Si4 0.669245 0.077226 0.661716
Si Si5 0.329093 0.094042 0.160450
Si Si6 0.863664 0.769656 0.164907
Si Si7 0.948149 0.895913 0.164546
Si Si8 0.281358 0.424566 0.842021
O O1 0.093479 0.830737 0.241601
O O2 0.002904 0.872097 0.210290
O O3 0.067587 0.002756 0.213745
O O4 0.065040 0.887792 0.000000
O O5 0.709627 0.426571 0.500000
O O6 0.773230 0.383596 0.697624
O O7 0.684933 0.322138 0.713067
O O8 0.699556 0.495800 0.742546
O O9 0.118010 0.803431 0.500000
O O10 0.138999 0.682686 0.304886
O O11 0.186344 0.835475 0.313930
O O12 0.659784 0.057395 0.500000
O O13 0.638779 0.164900 0.715814
O O14 0.725618 0.100081 0.690743
O O15 0.651306 0.989539 0.747384
O O16 0.333874 0.066003 0.000000
O O17 0.911209 0.820554 0.227319
O O18 0.865871 0.769866 0.000000
O O19 0.945543 0.896111 0.000000
O O20 0.286731 0.458636 0.000000
#
# Coordination Sequence:
#
# PCOD8235850 Si02
#       8
#     8   8   8   8   8   8   8   8
#     4   9  17  30  48  69  91 113 141 178 218 260
#     4   9  16  27  45  67  89 116 148 176 208 259
#     4  10  19  30  45  64  89 121 150 176 214 261
#     4   9  17  29  45  64  86 114 148 182 212 248
#     4   9  18  31  44  61  89 121 149 179 215 253
#     4   9  15  25  45  68  87 111 144 177 213 260
#     4   8  15  28  46  69  94 114 134 173 226 266
#     4   9  17  28  41  62  92 118 141 175 215 251
#
# _framework density 16.489148
#
# number of rings (size 3 to 8) (size 9 to 14) (size 15 to 20)
#    0.000    3.000    0.000    2.250    0.000    5.000 
#    0.000    1.875    0.000    9.000    0.000    5.250 
#    0.000    0.000    0.000    0.000    0.000    0.000 
#
# Total GULP energy -793402.952414 kJ/mol
# GULP energy per Si atom -12396.921131 kJ/mol
# Density = 1.645162 g / cm^3
# Si number density = 16.489148 Si / 1000 Ang^3
#
#
#
# Elastic Constant Matrix: (Units=GPa)
#
#
# Indices 1 2 3 4 5 6 
#
# 1 79.7232 64.9237 32.8421 0.0000 0.0000 0.0000
# 2 64.9237 139.0455 51.4587 0.0000 0.0000 0.0000
# 3 32.8421 51.4587 44.7343 0.0000 0.0000 0.0000
# 4 0.0000 0.0000 0.0000 25.7197 0.0000 0.0000
# 5 0.0000 0.0000 0.0000 0.0000 19.2457 0.0000
# 6 0.0000 0.0000 0.0000 0.0000 0.0000 27.6828
#
#
#
# Elastic Compliance Matrix: (Units=1/GPa)
#
#
# Indices 1 2 3 4 5 6 
#
# 1 0.021559 -0.007329 -0.007397 0.000000 0.000000 0.000000
# 2 -0.007329 0.015015 -0.011891 0.000000 0.000000 0.000000
# 3 -0.007397 -0.011891 0.041464 0.000000 0.000000 0.000000
# 4 0.000000 0.000000 0.000000 0.038881 0.000000 0.000000
# 5 0.000000 0.000000 0.000000 0.000000 0.051960 0.000000
# 6 0.000000 0.000000 0.000000 0.000000 0.000000 0.036124
#
#
# Mechanical properties :
#
#
# Convention : Reuss Voigt Hill
#
# Bulk Modulus (GPa) = 40.31795 62.43910 51.37852
# Shear Modulus (GPa) = 18.76150 22.14820 20.45485
#
# Velocity S-wave (km/s) = 3.37680 3.66894 3.52590
# Velocity P-wave (km/s) = 6.30143 7.47644 6.91394
#
# Compressibility (1/GPa) = 0.02480285
#
# Stress axis : x y z
#
# Youngs Moduli (GPa) = 46.38426 66.60175 24.11752
#
# Poissons Ratio (x) = 0.48811 0.17840
# Poissons Ratio (y) = 0.33994 0.28678
# Poissons Ratio (z) = 0.34312 0.79197
#
# Static dielectric constant tensor:
#      x y z
#    x 3.143330 0.000000 0.000000 
#    y 0.000000 3.255180 0.000000 
#    z 0.000000 0.000000 2.890730 
# 
# 
# High freq. dielectric constant tensor:
#      x y z
#    x 1.619000 0.000000 0.000000 
#    y 0.000000 1.634620 0.000000 
#    z 0.000000 0.000000 1.607150 
# 
# From -- ./inp_files/7170.got.cif
#   From: 2010.06.25/outbox.cif.g09.slc.cpg/sg58_4_cif.got.tgz:7170.got - 2010.06.26 21:38:00.
