data_PCOD8235163
_publ_section_title
;
Structure prediction by ZEFSAII (Michael W. Deem and Ramdas Pophale) SiO2 
 PCOD8235163
Probable space group: P B C M
;
_chemical_formula_sum "Si O2"
_cell_formula_units_Z 32
_cell_length_a 4.828664
_cell_length_b 8.433485
_cell_length_c 32.561399
_cell_angle_alpha 90.000000
_cell_angle_beta 90.000000
_cell_angle_gamma 90.000000
_cell_volume 1325.980445
_symmetry_space_group_name_H-M "P B C M"
_symmetry_group_IT_number 57
_symmetry_cell_setting 'orthorhombic'
loop_
_space_group_symop_operation_xyz
x,y,z
-x,-y,1/2+z
x,1/2-y,-z
-x,1/2+y,1/2-z
-x,-y,-z
x,y,1/2-z
-x,1/2+y,z
x,1/2-y,1/2+z
loop_
_atom_site_type_symbol
_atom_site_label
_atom_site_fract_x
_atom_site_fract_y
_atom_site_fract_z
Si Si1 0.364055 0.334977 0.576364
Si Si2 0.141596 0.952318 0.702447
Si Si3 0.118240 0.487211 0.045394
Si Si4 0.371484 0.224152 0.170215
O O1 0.637739 0.385617 0.551914
O O2 0.444907 0.291506 0.622544
O O3 0.135704 0.475678 0.576450
O O4 0.230336 0.187560 0.552889
O O5 0.110539 0.996157 0.750000
O O6 0.260828 0.100731 0.677820
O O7 0.347506 0.803455 0.696042
O O8 0.844534 0.909268 0.684277
O O9 0.000000 0.500000 0.000000
#
# Coordination Sequence:
#
# PCOD8235163 Si02
#       4
#     8   8   8   8
#     4  12  25  47  71 102 137 180 230 283 343 409
#     4  12  25  44  68 102 141 184 231 284 342 406
#     4  12  27  47  72 102 138 179 227 286 346 411
#     4  12  25  44  70 100 137 183 230 283 340 406
#
# _framework density 24.133085999999999
#
# number of rings (size 3 to 8) (size 9 to 14) (size 15 to 20)
#    0.000    0.000    0.000   11.250    0.000    2.000 
#    0.000    0.000    0.000    0.000    0.000    0.000 
#    0.000    0.000    0.000    0.000    0.000    0.000 
#
# Total GULP energy -397123.893523 kJ/mol
# GULP energy per Si atom -12410.121673 kJ/mol
# Density = 2.407816 g / cm^3
# Si number density = 24.133086 Si / 1000 Ang^3
#
#
#
# Elastic Constant Matrix: (Units=GPa)
#
#
# Indices 1 2 3 4 5 6 
#
# 1 116.6043 8.3123 62.5500 0.0000 0.0000 0.0000
# 2 8.3123 60.6308 37.8522 0.0000 0.0000 0.0000
# 3 62.5500 37.8522 133.8345 0.0000 0.0000 0.0000
# 4 0.0000 0.0000 0.0000 39.4536 0.0000 0.0000
# 5 0.0000 0.0000 0.0000 0.0000 44.7312 0.0000
# 6 0.0000 0.0000 0.0000 0.0000 0.0000 44.8903
#
#
#
# Elastic Compliance Matrix: (Units=1/GPa)
#
#
# Indices 1 2 3 4 5 6 
#
# 1 0.011681 0.002194 -0.006080 0.000000 0.000000 0.000000
# 2 0.002194 0.020442 -0.006807 0.000000 0.000000 0.000000
# 3 -0.006080 -0.006807 0.012239 0.000000 0.000000 0.000000
# 4 0.000000 0.000000 0.000000 0.025346 0.000000 0.000000
# 5 0.000000 0.000000 0.000000 0.000000 0.022356 0.000000
# 6 0.000000 0.000000 0.000000 0.000000 0.000000 0.022277
#
#
# Mechanical properties :
#
#
# Convention : Reuss Voigt Hill
#
# Bulk Modulus (GPa) = 43.52300 58.72207 51.12253
# Shear Modulus (GPa) = 34.87113 39.30536 37.08824
#
# Velocity S-wave (km/s) = 3.80538 4.04008 3.92448
# Velocity P-wave (km/s) = 6.11405 6.79327 6.46259
#
# Compressibility (1/GPa) = 0.02297636
#
# Stress axis : x y z
#
# Youngs Moduli (GPa) = 85.60868 48.91834 81.70753
#
# Poissons Ratio (x) = -0.10734 0.49678
# Poissons Ratio (y) = -0.18785 0.55620
# Poissons Ratio (z) = 0.52050 0.33300
#
# Static dielectric constant tensor:
#      x y z
#    x 4.803030 0.000000 0.000000 
#    y 0.000000 4.591840 0.000000 
#    z 0.000000 0.000000 4.316740 
# 
# 
# High freq. dielectric constant tensor:
#      x y z
#    x 1.980780 0.000000 0.000000 
#    y 0.000000 1.969140 0.000000 
#    z 0.000000 0.000000 1.964230 
# 
# From -- ./inp_files/29011.got.cif
#   From: 2010.03.12/outbox.cif.g09.slc.cpg/sg57_15_cif.got.tgz:29011.got - 2010.04.16 15:48:40.
