data_PCOD8235928
_publ_section_title
;
Structure prediction by ZEFSAII (Michael W. Deem and Ramdas Pophale) SiO2 
 PCOD8235928
Probable space group: P N N M
;
_chemical_formula_sum "Si O2"
_cell_formula_units_Z 56
_cell_length_a 13.729914
_cell_length_b 28.938646
_cell_length_c 9.000396
_cell_angle_alpha 90.000000
_cell_angle_beta 90.000000
_cell_angle_gamma 90.000000
_cell_volume 3576.083428
_symmetry_space_group_name_H-M "P N N M"
_symmetry_group_IT_number 58
_symmetry_cell_setting 'orthorhombic'
loop_
_space_group_symop_operation_xyz
x,y,z
-x,-y,z
1/2+x,1/2-y,1/2-z
1/2-x,1/2+y,1/2-z
-x,-y,-z
x,y,-z
1/2-x,1/2+y,1/2+z
1/2+x,1/2-y,1/2+z
loop_
_atom_site_type_symbol
_atom_site_label
_atom_site_fract_x
_atom_site_fract_y
_atom_site_fract_z
Si Si1 0.120745 0.274242 0.173309
Si Si2 0.768100 0.818635 0.171924
Si Si3 0.100485 0.729307 0.825419
Si Si4 0.884904 0.005022 0.836418
Si Si5 0.291267 0.321601 0.324406
Si Si6 0.398581 0.404470 0.175608
Si Si7 0.106238 0.095893 0.824449
O O1 0.156316 0.222356 0.204997
O O2 0.182042 0.310428 0.270465
O O3 0.009758 0.277448 0.228631
O O4 0.131400 0.286732 0.000000
O O5 0.666520 0.810889 0.255726
O O6 0.816795 0.865906 0.229464
O O7 0.742574 0.822133 0.000000
O O8 0.138071 0.779710 0.774913
O O9 0.108869 0.724826 0.000000
O O10 0.846614 0.954303 0.786112
O O11 0.856793 0.044916 0.720271
O O12 0.843679 0.018067 0.000000
O O13 0.000000 0.000000 0.846506
O O14 0.292659 0.329699 0.500000
O O15 0.325000 0.367359 0.241757
O O16 0.505617 0.395706 0.239576
O O17 0.401544 0.400473 0.000000
O O18 0.083735 0.100270 0.000000
#
# Coordination Sequence:
#
# PCOD8235928 Si02
#       7
#     8   8   8   8   8   8   8
#     4   9  17  30  45  63  89 117 145 180 217 250
#     4   9  17  29  46  66  88 115 148 181 212 252
#     4   9  18  31  46  64  89 118 146 180 219 257
#     4   8  15  28  44  61  85 117 148 176 212 260
#     4  10  19  31  46  64  87 117 151 180 212 258
#     4  11  20  28  42  65  91 117 146 182 221 259
#     4   9  17  30  46  64  89 121 150 177 214 259
#
# _framework density 15.659591000000001
#
# number of rings (size 3 to 8) (size 9 to 14) (size 15 to 20)
#    0.000    2.714    0.000    3.429    0.000    6.571 
#    0.000    2.857    0.000    0.000    0.000    1.000 
#    0.000    8.000    0.000    0.000    0.000    0.000 
#
# Total GULP energy -694302.830877 kJ/mol
# GULP energy per Si atom -12398.264837 kJ/mol
# Density = 1.562395 g / cm^3
# Si number density = 15.659591 Si / 1000 Ang^3
#
#
#
# Elastic Constant Matrix: (Units=GPa)
#
#
# Indices 1 2 3 4 5 6 
#
# 1 101.3628 56.5800 39.1671 0.0000 0.0000 0.0000
# 2 56.5800 120.7206 45.8444 0.0000 0.0000 0.0000
# 3 39.1671 45.8444 62.1974 0.0000 0.0000 0.0000
# 4 0.0000 0.0000 0.0000 23.6170 0.0000 0.0000
# 5 0.0000 0.0000 0.0000 0.0000 24.7774 0.0000
# 6 0.0000 0.0000 0.0000 0.0000 0.0000 23.6194
#
#
#
# Elastic Compliance Matrix: (Units=1/GPa)
#
#
# Indices 1 2 3 4 5 6 
#
# 1 0.014735 -0.004697 -0.005817 0.000000 0.000000 0.000000
# 2 -0.004697 0.013001 -0.006625 0.000000 0.000000 0.000000
# 3 -0.005817 -0.006625 0.024624 0.000000 0.000000 0.000000
# 4 0.000000 0.000000 0.000000 0.042342 0.000000 0.000000
# 5 0.000000 0.000000 0.000000 0.000000 0.040359 0.000000
# 6 0.000000 0.000000 0.000000 0.000000 0.000000 0.042338
#
#
# Mechanical properties :
#
#
# Convention : Reuss Voigt Hill
#
# Bulk Modulus (GPa) = 55.30282 63.05153 59.17718
# Shear Modulus (GPa) = 22.96688 23.91538 23.44113
#
# Velocity S-wave (km/s) = 3.83382 3.91218 3.87320
# Velocity P-wave (km/s) = 7.41551 7.79475 7.60750
#
# Compressibility (1/GPa) = 0.01808226
#
# Stress axis : x y z
#
# Youngs Moduli (GPa) = 67.86503 76.91784 40.61099
#
# Poissons Ratio (x) = 0.36129 0.23623
# Poissons Ratio (y) = 0.31877 0.26904
# Poissons Ratio (z) = 0.39476 0.50956
#
# Static dielectric constant tensor:
#      x y z
#    x 2.845660 0.000000 0.000000 
#    y 0.000000 3.260810 0.000000 
#    z 0.000000 0.000000 2.950450 
# 
# 
# High freq. dielectric constant tensor:
#      x y z
#    x 1.570580 0.000000 0.000000 
#    y 0.000000 1.600100 0.000000 
#    z 0.000000 0.000000 1.600400 
# 
# From -- ./inp_files/7117.got.cif
#   From: 2010.06.25/outbox.cif.g09.slc.cpg/sg58_4_cif.got.tgz:7117.got - 2010.06.26 21:38:00.
