data_PCOD8235313
_publ_section_title
;
Structure prediction by ZEFSAII (Michael W. Deem and Ramdas Pophale) SiO2 
 PCOD8235313
Probable space group: P N N M
;
_chemical_formula_sum "Si O2"
_cell_formula_units_Z 52
_cell_length_a 8.327825
_cell_length_b 11.372299
_cell_length_c 29.813470
_cell_angle_alpha 90.000000
_cell_angle_beta 90.000000
_cell_angle_gamma 90.000000
_cell_volume 2823.529871
_symmetry_space_group_name_H-M "P N N M"
_symmetry_group_IT_number 58
_symmetry_cell_setting 'orthorhombic'
loop_
_space_group_symop_operation_xyz
x,y,z
-x,-y,z
1/2+x,1/2-y,1/2-z
1/2-x,1/2+y,1/2-z
-x,-y,-z
x,y,-z
1/2-x,1/2+y,1/2+z
1/2+x,1/2-y,1/2+z
loop_
_atom_site_type_symbol
_atom_site_label
_atom_site_fract_x
_atom_site_fract_y
_atom_site_fract_z
Si Si1 0.695190 0.180297 0.639499
Si Si2 0.044708 0.133236 0.374964
Si Si3 0.000000 0.500000 0.084844
Si Si4 0.555628 0.630224 0.385535
Si Si5 0.958246 0.635241 0.769115
Si Si6 0.778036 0.302820 0.948691
Si Si7 0.746325 0.727245 0.692451
O O1 0.634690 0.059896 0.616207
O O2 0.601539 0.290924 0.619900
O O3 0.669178 0.168261 0.692566
O O4 0.880962 0.207162 0.629471
O O5 0.116107 0.152114 0.424568
O O6 0.176562 0.172212 0.338668
O O7 0.000000 0.000000 0.364866
O O8 0.914464 0.403134 0.054090
O O9 0.500000 0.500000 0.397717
O O10 0.661668 0.681651 0.426246
O O11 0.658835 0.631904 0.339509
O O12 0.881399 0.662114 0.720977
O O13 0.000000 0.500000 0.771246
O O14 0.119463 0.711065 0.774705
O O15 0.735750 0.276924 0.000000
#
# Coordination Sequence:
#
# PCOD8235313 Si02
#       7
#     8   8   4   8   8   8   8
#     4  10  19  35  59  81 113 151 189 224 289 336
#     4  11  20  36  56  82 116 151 179 230 294 346
#     4  10  17  36  56  86 114 148 176 228 289 336
#     4   9  21  40  59  77 111 152 192 233 283 339
#     4  11  21  36  55  80 112 147 190 245 274 327
#     4  10  21  36  59  89 115 142 189 235 283 350
#     4  10  23  35  52  82 108 146 197 228 282 332
#
# _framework density 18.416663
#
# number of rings (size 3 to 8) (size 9 to 14) (size 15 to 20)
#    0.000    1.846    2.308    3.000    0.000    4.308 
#    0.000    4.615    0.000    0.923    0.000    0.000 
#    0.000    0.000    0.000    0.000    0.000    0.000 
#
# Total GULP energy -644963.468942 kJ/mol
# GULP energy per Si atom -12403.143634 kJ/mol
# Density = 1.837475 g / cm^3
# Si number density = 18.416663 Si / 1000 Ang^3
#
#
#
# Elastic Constant Matrix: (Units=GPa)
#
#
# Indices 1 2 3 4 5 6 
#
# 1 103.6013 16.4891 32.7111 0.0000 0.0000 0.0000
# 2 16.4891 87.6145 18.2559 0.0000 0.0000 0.0000
# 3 32.7111 18.2559 89.1246 0.0000 0.0000 0.0000
# 4 0.0000 0.0000 0.0000 18.1532 0.0000 0.0000
# 5 0.0000 0.0000 0.0000 0.0000 22.9605 0.0000
# 6 0.0000 0.0000 0.0000 0.0000 0.0000 20.3747
#
#
#
# Elastic Compliance Matrix: (Units=1/GPa)
#
#
# Indices 1 2 3 4 5 6 
#
# 1 0.011055 -0.001290 -0.003793 0.000000 0.000000 0.000000
# 2 -0.001290 0.012073 -0.001999 0.000000 0.000000 0.000000
# 3 -0.003793 -0.001999 0.013022 0.000000 0.000000 0.000000
# 4 0.000000 0.000000 0.000000 0.055087 0.000000 0.000000
# 5 0.000000 0.000000 0.000000 0.000000 0.043553 0.000000
# 6 0.000000 0.000000 0.000000 0.000000 0.000000 0.049080
#
#
# Mechanical properties :
#
#
# Convention : Reuss Voigt Hill
#
# Bulk Modulus (GPa) = 45.48654 46.13916 45.81285
# Shear Modulus (GPa) = 24.34687 26.48996 25.41841
#
# Velocity S-wave (km/s) = 3.63988 3.79670 3.71912
# Velocity P-wave (km/s) = 6.51285 6.65787 6.58576
#
# Compressibility (1/GPa) = 0.02198453
#
# Stress axis : x y z
#
# Youngs Moduli (GPa) = 90.45307 82.82894 76.79269
#
# Poissons Ratio (x) = 0.10687 0.29130
# Poissons Ratio (y) = 0.11671 0.15354
# Poissons Ratio (z) = 0.34312 0.16561
#
# Static dielectric constant tensor:
#      x y z
#    x 3.564030 0.000000 0.000000 
#    y 0.000000 3.192200 0.000000 
#    z 0.000000 0.000000 3.280940 
# 
# 
# High freq. dielectric constant tensor:
#      x y z
#    x 1.723400 0.000000 0.000000 
#    y 0.000000 1.702200 0.000000 
#    z 0.000000 0.000000 1.705130 
# 
# From -- ./inp_files/34703.got.cif
#   From: 2010.06.25/outbox.cif.g09.slc.cpg/sg58_18_cif.got.tgz:34703.got - 2010.06.26 21:38:00.
