data_PCOD8235755
_publ_section_title
;
Structure prediction by ZEFSAII (Michael W. Deem and Ramdas Pophale) SiO2 
 PCOD8235755
Probable space group: P N N M
;
_chemical_formula_sum "Si O2"
_cell_formula_units_Z 64
_cell_length_a 30.927772
_cell_length_b 12.053836
_cell_length_c 8.712626
_cell_angle_alpha 90.000000
_cell_angle_beta 90.000000
_cell_angle_gamma 90.000000
_cell_volume 3248.052088
_symmetry_space_group_name_H-M "P N N M"
_symmetry_group_IT_number 58
_symmetry_cell_setting 'orthorhombic'
loop_
_space_group_symop_operation_xyz
x,y,z
-x,-y,z
1/2+x,1/2-y,1/2-z
1/2-x,1/2+y,1/2-z
-x,-y,-z
x,y,-z
1/2-x,1/2+y,1/2+z
1/2+x,1/2-y,1/2+z
loop_
_atom_site_type_symbol
_atom_site_label
_atom_site_fract_x
_atom_site_fract_y
_atom_site_fract_z
Si Si1 0.624950 0.103148 0.318364
Si Si2 0.455552 0.276996 0.181113
Si Si3 0.334375 0.500757 0.319504
Si Si4 0.051435 0.249276 0.318323
Si Si5 0.125802 0.638825 0.680845
Si Si6 0.300737 0.735502 0.681552
Si Si7 0.205679 0.795220 0.319284
Si Si8 0.425151 0.507621 0.819428
O O1 0.623728 0.105850 0.500000
O O2 0.580910 0.158067 0.258395
O O3 0.666547 0.170700 0.254431
O O4 0.628779 0.978566 0.262161
O O5 0.501624 0.223267 0.224880
O O6 0.416199 0.203505 0.248177
O O7 0.454667 0.405139 0.241016
O O8 0.449027 0.281584 0.000000
O O9 0.343943 0.503640 0.500000
O O10 0.316371 0.617039 0.257311
O O11 0.300144 0.406764 0.277573
O O12 0.377177 0.472959 0.225913
O O13 0.058777 0.252845 0.500000
O O14 0.062158 0.127057 0.248687
O O15 0.121744 0.619556 0.500000
O O16 0.168984 0.706149 0.723302
O O17 0.301628 0.737246 0.500000
O O18 0.251932 0.751646 0.739047
O O19 0.205097 0.821761 0.500000
O O20 0.429861 0.518426 0.000000
#
# Coordination Sequence:
#
# PCOD8235755 Si02
#       8
#     8   8   8   8   8   8   8   8
#     4  11  23  40  57  78 116 154 187 229 283 339
#     4   9  18  35  58  86 114 143 183 238 288 322
#     4  11  21  36  59  87 118 149 182 228 285 337
#     4  10  20  35  60  87 111 144 191 236 277 332
#     4  10  21  38  60  82 110 146 189 236 280 330
#     4   9  21  39  58  81 115 153 183 228 284 331
#     4  10  21  40  62  84 112 149 192 235 280 329
#     4  10  18  34  59  87 115 147 185 228 278 336
#
# _framework density 19.704118000000001
#
# number of rings (size 3 to 8) (size 9 to 14) (size 15 to 20)
#    0.000    2.000    2.500    1.125    1.750    2.500 
#    0.000    5.625    0.000    1.500    0.000    0.000 
#    0.000    0.000    0.000    0.000    0.000    0.000 
#
# Total GULP energy -793538.869244 kJ/mol
# GULP energy per Si atom -12399.044832 kJ/mol
# Density = 1.965927 g / cm^3
# Si number density = 19.704118 Si / 1000 Ang^3
#
#
#
# Elastic Constant Matrix: (Units=GPa)
#
#
# Indices 1 2 3 4 5 6 
#
# 1 139.7033 61.0982 17.1659 0.0000 0.0000 0.0000
# 2 61.0982 143.4737 28.9042 0.0000 0.0000 0.0000
# 3 17.1659 28.9042 17.1896 0.0000 0.0000 0.0000
# 4 0.0000 0.0000 0.0000 25.4578 0.0000 0.0000
# 5 0.0000 0.0000 0.0000 0.0000 19.6303 0.0000
# 6 0.0000 0.0000 0.0000 0.0000 0.0000 26.4023
#
#
#
# Elastic Compliance Matrix: (Units=1/GPa)
#
#
# Indices 1 2 3 4 5 6 
#
# 1 0.008960 -0.003044 -0.003829 0.000000 0.000000 0.000000
# 2 -0.003044 0.011575 -0.016423 0.000000 0.000000 0.000000
# 3 -0.003829 -0.016423 0.089613 0.000000 0.000000 0.000000
# 4 0.000000 0.000000 0.000000 0.039281 0.000000 0.000000
# 5 0.000000 0.000000 0.000000 0.000000 0.050942 0.000000
# 6 0.000000 0.000000 0.000000 0.000000 0.000000 0.037876
#
#
# Mechanical properties :
#
#
# Convention : Reuss Voigt Hill
#
# Bulk Modulus (GPa) = 15.73409 57.18923 36.46166
# Shear Modulus (GPa) = 16.33862 27.17795 21.75829
#
# Velocity S-wave (km/s) = 2.88270 3.71793 3.32663
# Velocity P-wave (km/s) = 4.36835 6.89330 5.77062
#
# Compressibility (1/GPa) = 0.06355627
#
# Stress axis : x y z
#
# Youngs Moduli (GPa) = 111.60921 86.39392 11.15904
#
# Poissons Ratio (x) = 0.26300 0.04272
# Poissons Ratio (y) = 0.33976 0.18327
# Poissons Ratio (z) = 0.42731 1.41885
#
# Static dielectric constant tensor:
#      x y z
#    x 3.844090 0.000000 0.000000 
#    y 0.000000 3.745060 0.000000 
#    z 0.000000 0.000000 3.190590 
# 
# 
# High freq. dielectric constant tensor:
#      x y z
#    x 1.781060 0.000000 0.000000 
#    y 0.000000 1.778000 0.000000 
#    z 0.000000 0.000000 1.730770 
# 
# From -- ./inp_files/11053.got.cif
#   From: 2010.06.25/outbox.cif.g09.slc.cpg/sg58_6_cif.got.tgz:11053.got - 2010.06.26 21:38:00.
