data_PCOD8235071
_publ_section_title
;
Structure prediction by ZEFSAII (Michael W. Deem and Ramdas Pophale) SiO2 
 PCOD8235071
Probable space group: P B C M
;
_chemical_formula_sum "Si O2"
_cell_formula_units_Z 40
_cell_length_a 8.336004
_cell_length_b 9.819678
_cell_length_c 22.740520
_cell_angle_alpha 90.000000
_cell_angle_beta 90.000000
_cell_angle_gamma 90.000000
_cell_volume 1861.467905
_symmetry_space_group_name_H-M "P B C M"
_symmetry_group_IT_number 57
_symmetry_cell_setting 'orthorhombic'
loop_
_space_group_symop_operation_xyz
x,y,z
-x,-y,1/2+z
x,1/2-y,-z
-x,1/2+y,1/2-z
-x,-y,-z
x,y,1/2-z
-x,1/2+y,z
x,1/2-y,1/2+z
loop_
_atom_site_type_symbol
_atom_site_label
_atom_site_fract_x
_atom_site_fract_y
_atom_site_fract_z
Si Si1 0.303249 0.499748 0.943199
Si Si2 0.329359 0.001320 0.578400
Si Si3 0.337009 0.342429 0.750000
Si Si4 0.818153 0.763596 0.869991
Si Si5 0.353073 0.656750 0.750000
Si Si6 0.186869 0.762043 0.369595
O O1 0.483932 0.461668 0.924165
O O2 0.186479 0.390448 0.914103
O O3 0.266083 0.651100 0.921552
O O4 0.265854 0.493544 0.012065
O O5 0.304516 0.147182 0.608826
O O6 0.232329 0.893922 0.617831
O O7 0.226870 0.315641 0.694132
O O8 0.399554 0.497540 0.750000
O O9 0.485591 0.241924 0.750000
O O10 0.998244 0.709236 0.869706
O O11 0.249890 0.692549 0.693358
#
# Coordination Sequence:
#
# PCOD8235071 Si02
#       6
#     8   8   4   8   4   8
#     4  11  23  46  67 102 137 181 231 273 330 407
#     4  11  25  42  73  98 137 183 227 277 332 403
#     4  12  27  48  74 100 134 179 230 280 338 413
#     4  12  26  44  69 102 139 176 223 284 343 400
#     4  12  27  48  74 100 134 179 230 280 338 413
#     4  12  26  44  69 102 139 176 223 284 343 400
#
# _framework density 21.488417999999999
#
# number of rings (size 3 to 8) (size 9 to 14) (size 15 to 20)
#    0.000    0.400    2.000    6.600    2.800    8.000 
#    0.000    0.000    0.000    0.000    0.000    0.000 
#    0.000    0.000    0.000    0.000    0.000    0.000 
#
# Total GULP energy -496369.194145 kJ/mol
# GULP energy per Si atom -12409.229854 kJ/mol
# Density = 2.143951 g / cm^3
# Si number density = 21.488418 Si / 1000 Ang^3
#
#
#
# Elastic Constant Matrix: (Units=GPa)
#
#
# Indices 1 2 3 4 5 6 
#
# 1 82.5827 20.3617 35.8471 0.0000 0.0000 0.0000
# 2 20.3617 116.6501 58.9186 0.0000 0.0000 0.0000
# 3 35.8471 58.9186 133.7178 0.0000 0.0000 0.0000
# 4 0.0000 0.0000 0.0000 40.0226 0.0000 0.0000
# 5 0.0000 0.0000 0.0000 0.0000 31.9402 0.0000
# 6 0.0000 0.0000 0.0000 0.0000 0.0000 36.4490
#
#
#
# Elastic Compliance Matrix: (Units=1/GPa)
#
#
# Indices 1 2 3 4 5 6 
#
# 1 0.013747 -0.000692 -0.003380 0.000000 0.000000 0.000000
# 2 -0.000692 0.011061 -0.004688 0.000000 0.000000 0.000000
# 3 -0.003380 -0.004688 0.010450 0.000000 0.000000 0.000000
# 4 0.000000 0.000000 0.000000 0.024986 0.000000 0.000000
# 5 0.000000 0.000000 0.000000 0.000000 0.031309 0.000000
# 6 0.000000 0.000000 0.000000 0.000000 0.000000 0.027436
#
#
# Mechanical properties :
#
#
# Convention : Reuss Voigt Hill
#
# Bulk Modulus (GPa) = 56.37866 62.57837 59.47852
# Shear Modulus (GPa) = 35.10666 36.20390 35.65528
#
# Velocity S-wave (km/s) = 4.04635 4.10910 4.07784
# Velocity P-wave (km/s) = 6.93717 7.19013 7.06478
#
# Compressibility (1/GPa) = 0.01773721
#
# Stress axis : x y z
#
# Youngs Moduli (GPa) = 72.74280 90.40368 95.69015
#
# Poissons Ratio (x) = 0.06258 0.32346
# Poissons Ratio (y) = 0.05036 0.44863
# Poissons Ratio (z) = 0.24589 0.42384
#
# Static dielectric constant tensor:
#      x y z
#    x 3.785050 0.000000 0.000000 
#    y 0.000000 3.949560 0.000000 
#    z 0.000000 0.000000 4.362080 
# 
# 
# High freq. dielectric constant tensor:
#      x y z
#    x 1.847010 0.000000 0.000000 
#    y 0.000000 1.858330 0.000000 
#    z 0.000000 0.000000 1.861900 
# 
# From -- ./inp_files/26542.got.cif
#   From: 2010.03.12/outbox.cif.g09.slc.cpg/sg57_14_cif.got.tgz:26542.got - 2010.04.16 15:48:40.
