data_PCOD8235015
_publ_section_title
;
Structure prediction by ZEFSAII (Michael W. Deem and Ramdas Pophale) SiO2 
 PCOD8235015
Probable space group: P B C M
;
_chemical_formula_sum "Si O2"
_cell_formula_units_Z 40
_cell_length_a 7.345471
_cell_length_b 8.266861
_cell_length_c 29.795951
_cell_angle_alpha 90.000000
_cell_angle_beta 90.000000
_cell_angle_gamma 90.000000
_cell_volume 1809.328963
_symmetry_space_group_name_H-M "P B C M"
_symmetry_group_IT_number 57
_symmetry_cell_setting 'orthorhombic'
loop_
_space_group_symop_operation_xyz
x,y,z
-x,-y,1/2+z
x,1/2-y,-z
-x,1/2+y,1/2-z
-x,-y,-z
x,y,1/2-z
-x,1/2+y,z
x,1/2-y,1/2+z
loop_
_atom_site_type_symbol
_atom_site_label
_atom_site_fract_x
_atom_site_fract_y
_atom_site_fract_z
Si Si1 0.390117 0.295002 0.250000
Si Si2 0.233659 0.840883 0.750000
Si Si3 0.390688 0.640699 0.404943
Si Si4 0.415242 0.127965 0.967220
Si Si5 0.739631 0.862628 0.841075
Si Si6 0.900236 0.214731 0.660041
O O1 0.609139 0.296072 0.250000
O O2 0.312999 0.476585 0.250000
O O3 0.337664 0.196553 0.294049
O O4 0.107417 0.811353 0.792933
O O5 0.423308 0.767972 0.444634
O O6 0.319096 0.470438 0.426820
O O7 0.578306 0.616482 0.377046
O O8 0.230541 0.696540 0.374032
O O9 0.296417 0.250000 0.000000
O O10 0.500000 0.000000 0.000000
O O11 0.891351 0.732233 0.857469
O O12 0.843876 0.030656 0.834435
#
# Coordination Sequence:
#
# PCOD8235015 Si02
#       6
#     4   4   8   8   8   8
#     4  12  25  42  65  93 137 181 224 268 323 374
#     4  12  25  42  65  93 137 181 224 270 319 380
#     4  11  22  41  70  97 132 170 219 269 326 389
#     4   9  20  40  70 100 124 169 213 264 338 403
#     4  12  26  42  66  98 136 179 223 271 322 384
#     4  12  26  42  66  98 136 178 225 269 323 382
#
# _framework density 22.107644000000001
#
# number of rings (size 3 to 8) (size 9 to 14) (size 15 to 20)
#    0.000    0.800    4.000    3.600    5.600    0.000 
#    0.000    0.000    0.000   24.000    0.000    0.000 
#    0.000    0.000    0.000    0.000    0.000    0.000 
#
# Total GULP energy -495598.737542 kJ/mol
# GULP energy per Si atom -12389.968439 kJ/mol
# Density = 2.205733 g / cm^3
# Si number density = 22.107644 Si / 1000 Ang^3
#
#
#
# Elastic Constant Matrix: (Units=GPa)
#
#
# Indices 1 2 3 4 5 6 
#
# 1 78.6834 -6.4491 26.1883 0.0000 0.0000 0.0000
# 2 -6.4491 86.2962 42.1382 0.0000 0.0000 0.0000
# 3 26.1883 42.1382 124.3316 0.0000 0.0000 0.0000
# 4 0.0000 0.0000 0.0000 -3.2359 0.0000 0.0000
# 5 0.0000 0.0000 0.0000 0.0000 3.3980 0.0000
# 6 0.0000 0.0000 0.0000 0.0000 0.0000 30.0350
#
#
#
# Elastic Compliance Matrix: (Units=1/GPa)
#
#
# Indices 1 2 3 4 5 6 
#
# 1 0.014305 0.003044 -0.004045 0.000000 0.000000 0.000000
# 2 0.003044 0.014534 -0.005567 0.000000 0.000000 0.000000
# 3 -0.004045 -0.005567 0.010782 0.000000 0.000000 0.000000
# 4 0.000000 0.000000 0.000000 -0.309030 0.000000 0.000000
# 5 0.000000 0.000000 0.000000 0.000000 0.294293 0.000000
# 6 0.000000 0.000000 0.000000 0.000000 0.000000 0.033294
#
#
# Mechanical properties :
#
#
# Convention : Reuss Voigt Hill
#
# Bulk Modulus (GPa) = 37.75706 45.89626 41.82666
# Shear Modulus (GPa) = 62.38941 21.20166 41.79554
#
# Velocity S-wave (km/s) = 5.31808 3.10016 4.35276
# Velocity P-wave (km/s) = 7.40440 5.79829 6.65001
#
# Compressibility (1/GPa) = 0.02648511
#
# Stress axis : x y z
#
# Youngs Moduli (GPa) = 69.90617 68.80506 92.74964
#
# Poissons Ratio (x) = -0.20945 0.37515
# Poissons Ratio (y) = -0.21280 0.51633
# Poissons Ratio (z) = 0.28275 0.38303
#
# Static dielectric constant tensor:
#      x y z
#    x 4.043850 0.000000 0.000000 
#    y 0.000000 4.686730 0.000000 
#    z 0.000000 0.000000 4.138370 
# 
# 
# High freq. dielectric constant tensor:
#      x y z
#    x 1.834540 0.000000 0.000000 
#    y 0.000000 1.900650 0.000000 
#    z 0.000000 0.000000 1.888590 
# 
# From -- ./inp_files/29387.got.cif
#   From: 2010.03.12/outbox.cif.g09.slc.cpg/sg57_15_cif.got.tgz:29387.got - 2010.04.16 15:48:40.
