data_PCOD8235978
_publ_section_title
;
Structure prediction by ZEFSAII (Michael W. Deem and Ramdas Pophale) SiO2 
 PCOD8235978
Probable space group: P N N M
;
_chemical_formula_sum "Si O2"
_cell_formula_units_Z 40
_cell_length_a 5.027859
_cell_length_b 15.754591
_cell_length_c 27.290592
_cell_angle_alpha 90.000000
_cell_angle_beta 90.000000
_cell_angle_gamma 90.000000
_cell_volume 2161.738612
_symmetry_space_group_name_H-M "P N N M"
_symmetry_group_IT_number 58
_symmetry_cell_setting 'orthorhombic'
loop_
_space_group_symop_operation_xyz
x,y,z
-x,-y,z
1/2+x,1/2-y,1/2-z
1/2-x,1/2+y,1/2-z
-x,-y,-z
x,y,-z
1/2-x,1/2+y,1/2+z
1/2+x,1/2-y,1/2+z
loop_
_atom_site_type_symbol
_atom_site_label
_atom_site_fract_x
_atom_site_fract_y
_atom_site_fract_z
Si Si1 0.449685 0.193085 0.355211
Si Si2 0.450730 0.402124 0.817558
Si Si3 0.548126 0.300707 0.443211
Si Si4 0.947618 0.793972 0.232640
Si Si5 0.965630 0.592774 0.443238
O O1 0.158378 0.154657 0.347905
O O2 0.485073 0.215911 0.412266
O O3 0.482436 0.282554 0.324873
O O4 0.659184 0.122920 0.336548
O O5 0.500000 0.500000 0.828003
O O6 0.481086 0.383767 0.758691
O O7 0.560458 0.272507 0.500000
O O8 0.328936 0.373260 0.434613
O O9 0.822980 0.339426 0.422458
O O10 0.634773 0.775835 0.239880
O O11 0.038843 0.583083 0.500000
O O12 0.000000 0.500000 0.418155
#
# Coordination Sequence:
#
# PCOD8235978 Si02
#       5
#     8   8   8   8   8
#     4  10  19  33  52  73 100 131 163 200 244 292
#     4  10  19  33  53  74  96 125 164 206 249 294
#     4  10  19  31  50  73  99 135 170 198 234 287
#     4   8  16  30  49  70  92 120 152 193 243 291
#     4   9  17  30  47  68  95 127 164 203 240 278
#
# _framework density 18.503623999999999
#
# number of rings (size 3 to 8) (size 9 to 14) (size 15 to 20)
#    0.000    2.600    0.000    2.400    0.000    2.400 
#    0.000    2.000    0.000    3.600    0.000    0.000 
#    0.000    0.000    0.000    0.000    0.000    0.000 
#
# Total GULP energy -495684.748421 kJ/mol
# GULP energy per Si atom -12392.118711 kJ/mol
# Density = 1.846151 g / cm^3
# Si number density = 18.503624 Si / 1000 Ang^3
#
#
#
# Elastic Constant Matrix: (Units=GPa)
#
#
# Indices 1 2 3 4 5 6 
#
# 1 70.0658 -2.5452 7.1505 0.0000 0.0000 0.0000
# 2 -2.5452 63.8420 31.4341 0.0000 0.0000 0.0000
# 3 7.1505 31.4341 71.3914 0.0000 0.0000 0.0000
# 4 0.0000 0.0000 0.0000 16.5099 0.0000 0.0000
# 5 0.0000 0.0000 0.0000 0.0000 18.5092 0.0000
# 6 0.0000 0.0000 0.0000 0.0000 0.0000 23.1528
#
#
#
# Elastic Compliance Matrix: (Units=1/GPa)
#
#
# Indices 1 2 3 4 5 6 
#
# 1 0.014556 0.001657 -0.002188 0.000000 0.000000 0.000000
# 2 0.001657 0.020188 -0.009055 0.000000 0.000000 0.000000
# 3 -0.002188 -0.009055 0.018213 0.000000 0.000000 0.000000
# 4 0.000000 0.000000 0.000000 0.060570 0.000000 0.000000
# 5 0.000000 0.000000 0.000000 0.000000 0.054027 0.000000
# 6 0.000000 0.000000 0.000000 0.000000 0.000000 0.043191
#
#
# Mechanical properties :
#
#
# Convention : Reuss Voigt Hill
#
# Bulk Modulus (GPa) = 29.59729 30.81979 30.20854
# Shear Modulus (GPa) = 20.73154 22.91837 21.82496
#
# Velocity S-wave (km/s) = 3.35088 3.52318 3.43811
# Velocity P-wave (km/s) = 5.56788 5.76564 5.66762
#
# Compressibility (1/GPa) = 0.03378688
#
# Stress axis : x y z
#
# Youngs Moduli (GPa) = 68.70130 49.53388 54.90461
#
# Poissons Ratio (x) = -0.08210 0.12011
# Poissons Ratio (y) = -0.11387 0.49716
# Poissons Ratio (z) = 0.15030 0.44853
#
# Static dielectric constant tensor:
#      x y z
#    x 3.548380 0.000000 0.000000 
#    y 0.000000 3.071210 0.000000 
#    z 0.000000 0.000000 3.284450 
# 
# 
# High freq. dielectric constant tensor:
#      x y z
#    x 1.743430 0.000000 0.000000 
#    y 0.000000 1.680880 0.000000 
#    z 0.000000 0.000000 1.690230 
# 
# From -- ./inp_files/11854.got.cif
#   From: 2010.06.25/outbox.cif.g09.slc.cpg/sg58_6_cif.got.tgz:11854.got - 2010.06.26 21:38:00.
