data_PCOD8235777
_publ_section_title
;
Structure prediction by ZEFSAII (Michael W. Deem and Ramdas Pophale) SiO2 
 PCOD8235777
Probable space group: P N N M
;
_chemical_formula_sum "Si O2"
_cell_formula_units_Z 64
_cell_length_a 15.172250
_cell_length_b 12.103588
_cell_length_c 17.500741
_cell_angle_alpha 90.000000
_cell_angle_beta 90.000000
_cell_angle_gamma 90.000000
_cell_volume 3213.812679
_symmetry_space_group_name_H-M "P N N M"
_symmetry_group_IT_number 58
_symmetry_cell_setting 'orthorhombic'
loop_
_space_group_symop_operation_xyz
x,y,z
-x,-y,z
1/2+x,1/2-y,1/2-z
1/2-x,1/2+y,1/2-z
-x,-y,-z
x,y,-z
1/2-x,1/2+y,1/2+z
1/2+x,1/2-y,1/2+z
loop_
_atom_site_type_symbol
_atom_site_label
_atom_site_fract_x
_atom_site_fract_y
_atom_site_fract_z
Si Si1 0.802840 0.171913 0.343360
Si Si2 0.662847 0.082672 0.222758
Si Si3 0.273541 0.547669 0.913538
Si Si4 0.054716 0.804944 0.780161
Si Si5 0.235375 0.101510 0.850472
Si Si6 0.128877 0.176289 0.289347
Si Si7 0.903117 0.043294 0.916905
Si Si8 0.419762 0.063442 0.341312
O O1 0.735467 0.124034 0.281846
O O2 0.894110 0.190839 0.299537
O O3 0.779065 0.287898 0.384982
O O4 0.803513 0.080362 0.409677
O O5 0.621636 0.194386 0.188024
O O6 0.701519 0.005499 0.155538
O O7 0.590015 0.010758 0.265615
O O8 0.349512 0.612843 0.867239
O O9 0.172397 0.569614 0.886916
O O10 0.279215 0.588702 0.000000
O O11 0.106172 0.874278 0.845420
O O12 0.046815 0.683639 0.815838
O O13 0.959704 0.856648 0.757340
O O14 0.209385 0.140332 0.765014
O O15 0.155400 0.065956 0.904081
O O16 0.877846 0.097302 0.000000
O O17 0.000000 0.000000 0.922635
O O18 0.500000 0.000000 0.387305
#
# Coordination Sequence:
#
# PCOD8235777 Si02
#       8
#     8   8   8   8   8   8   8   8
#     4  10  21  36  61  87 111 160 210 256 297 354
#     4  10  18  35  59  87 117 150 203 256 298 354
#     4  11  25  43  60  87 129 168 204 244 311 379
#     4  12  21  36  63  92 122 153 210 261 303 360
#     4  11  19  37  61  83 116 160 209 252 296 363
#     4  11  21  36  62  90 117 161 207 259 300 354
#     4  11  24  37  53  87 129 159 191 246 317 377
#     4  11  21  38  62  95 122 153 203 260 312 362
#
# _framework density 19.914041000000001
#
# number of rings (size 3 to 8) (size 9 to 14) (size 15 to 20)
#    0.000    1.125    7.500    0.750    0.000    1.250 
#    0.000    2.500    0.000    0.000    0.000    0.875 
#    0.000    0.000    0.000    0.000    0.000    0.000 
#
# Total GULP energy -793026.770073 kJ/mol
# GULP energy per Si atom -12391.043282 kJ/mol
# Density = 1.986872 g / cm^3
# Si number density = 19.914041 Si / 1000 Ang^3
#
#
#
# Elastic Constant Matrix: (Units=GPa)
#
#
# Indices 1 2 3 4 5 6 
#
# 1 58.7125 33.0852 34.3632 0.0000 0.0000 0.0000
# 2 33.0852 114.0291 36.6920 0.0000 0.0000 0.0000
# 3 34.3632 36.6920 89.3059 0.0000 0.0000 0.0000
# 4 0.0000 0.0000 0.0000 13.1822 0.0000 0.0000
# 5 0.0000 0.0000 0.0000 0.0000 -55.3313 0.0000
# 6 0.0000 0.0000 0.0000 0.0000 0.0000 33.9972
#
#
#
# Elastic Compliance Matrix: (Units=1/GPa)
#
#
# Indices 1 2 3 4 5 6 
#
# 1 0.023892 -0.004579 -0.007312 0.000000 0.000000 0.000000
# 2 -0.004579 0.010983 -0.002751 0.000000 0.000000 0.000000
# 3 -0.007312 -0.002751 0.015141 0.000000 0.000000 0.000000
# 4 0.000000 0.000000 0.000000 0.075860 0.000000 0.000000
# 5 0.000000 0.000000 0.000000 0.000000 -0.018073 0.000000
# 6 0.000000 0.000000 0.000000 0.000000 0.000000 0.029414
#
#
# Mechanical properties :
#
#
# Convention : Reuss Voigt Hill
#
# Bulk Modulus (GPa) = 48.23211 52.25870 50.24541
# Shear Modulus (GPa) = 28.83303 8.89676 18.86489
#
# Velocity S-wave (km/s) = 3.80922 2.11596 3.08119
# Velocity P-wave (km/s) = 6.60452 5.68056 6.15989
#
# Compressibility (1/GPa) = 0.02073307
#
# Stress axis : x y z
#
# Youngs Moduli (GPa) = 41.85477 91.04582 66.04600
#
# Poissons Ratio (x) = 0.41694 0.48291
# Poissons Ratio (y) = 0.19167 0.18166
# Poissons Ratio (z) = 0.30603 0.25043
#
# Static dielectric constant tensor:
#      x y z
#    x 3.663080 0.000000 0.000000 
#    y 0.000000 4.048450 0.000000 
#    z 0.000000 0.000000 3.422240 
# 
# 
# High freq. dielectric constant tensor:
#      x y z
#    x 1.772130 0.000000 0.000000 
#    y 0.000000 1.794710 0.000000 
#    z 0.000000 0.000000 1.730340 
# 
# From -- ./inp_files/27010.got.cif
#   From: 2010.06.25/outbox.cif.g09.slc.cpg/sg58_14_cif.got.tgz:27010.got - 2010.06.26 21:38:00.
