data_PCOD8235002
_publ_section_title
;
Structure prediction by ZEFSAII (Michael W. Deem and Ramdas Pophale) SiO2 
 PCOD8235002
Probable space group: P B C M
;
_chemical_formula_sum "Si O2"
_cell_formula_units_Z 32
_cell_length_a 6.669021
_cell_length_b 15.364341
_cell_length_c 13.201177
_cell_angle_alpha 90.000000
_cell_angle_beta 90.000000
_cell_angle_gamma 90.000000
_cell_volume 1352.660090
_symmetry_space_group_name_H-M "P B C M"
_symmetry_group_IT_number 57
_symmetry_cell_setting 'orthorhombic'
loop_
_space_group_symop_operation_xyz
x,y,z
-x,-y,1/2+z
x,1/2-y,-z
-x,1/2+y,1/2-z
-x,-y,-z
x,y,1/2-z
-x,1/2+y,z
x,1/2-y,1/2+z
loop_
_atom_site_type_symbol
_atom_site_label
_atom_site_fract_x
_atom_site_fract_y
_atom_site_fract_z
Si Si1 0.520249 0.817742 0.864516
Si Si2 0.866106 0.867087 0.998297
Si Si3 0.749233 0.451144 0.954363
Si Si4 0.210571 0.665543 0.631357
O O1 0.592781 0.807354 0.750000
O O2 0.715880 0.806205 0.934895
O O3 0.027565 0.915794 0.924171
O O4 0.357804 0.745028 0.893705
O O5 0.416970 0.911908 0.879181
O O6 0.988525 0.811442 0.084184
O O7 0.738051 0.944425 0.052681
O O8 0.705978 0.418678 0.070707
O O9 0.193614 0.645341 0.750000
#
# Coordination Sequence:
#
# PCOD8235002 Si02
#       4
#     8   8   8   8
#     4  11  22  39  65  97 130 170 214 267 331 389
#     4   9  21  41  68  93 129 174 214 266 329 379
#     4   9  20  42  65  94 132 163 220 270 324 383
#     4   9  20  41  65  95 130 167 214 266 327 388
#
# _framework density 23.657091999999999
#
# number of rings (size 3 to 8) (size 9 to 14) (size 15 to 20)
#    1.500    1.000    0.000    1.500    0.000    3.000 
#    9.000    1.250    0.000    1.500    0.000    0.000 
#    0.000    0.000    0.000    0.000    0.000    0.000 
#
# Total GULP energy -396477.361161 kJ/mol
# GULP energy per Si atom -12389.917536 kJ/mol
# Density = 2.360325 g / cm^3
# Si number density = 23.657092 Si / 1000 Ang^3
#
#
#
# Elastic Constant Matrix: (Units=GPa)
#
#
# Indices 1 2 3 4 5 6 
#
# 1 107.1252 61.2088 61.3873 0.0000 0.0000 0.0000
# 2 61.2088 78.6678 48.9523 0.0000 0.0000 0.0000
# 3 61.3873 48.9523 120.2676 0.0000 0.0000 0.0000
# 4 0.0000 0.0000 0.0000 18.5535 0.0000 0.0000
# 5 0.0000 0.0000 0.0000 0.0000 44.1174 0.0000
# 6 0.0000 0.0000 0.0000 0.0000 0.0000 31.7869
#
#
#
# Elastic Compliance Matrix: (Units=1/GPa)
#
#
# Indices 1 2 3 4 5 6 
#
# 1 0.018707 -0.011535 -0.004853 0.000000 0.000000 0.000000
# 2 -0.011535 0.024136 -0.003936 0.000000 0.000000 0.000000
# 3 -0.004853 -0.003936 0.012394 0.000000 0.000000 0.000000
# 4 0.000000 0.000000 0.000000 0.053898 0.000000 0.000000
# 5 0.000000 0.000000 0.000000 0.000000 0.022667 0.000000
# 6 0.000000 0.000000 0.000000 0.000000 0.000000 0.031459
#
#
# Mechanical properties :
#
#
# Convention : Reuss Voigt Hill
#
# Bulk Modulus (GPa) = 68.55043 72.12860 70.33952
# Shear Modulus (GPa) = 23.94932 27.85904 25.90418
#
# Velocity S-wave (km/s) = 3.18520 3.43537 3.31265
# Velocity P-wave (km/s) = 6.52433 6.80375 6.66551
#
# Compressibility (1/GPa) = 0.01458780
#
# Stress axis : x y z
#
# Youngs Moduli (GPa) = 53.45595 41.43141 80.68280
#
# Poissons Ratio (x) = 0.47792 0.39158
# Poissons Ratio (y) = 0.61663 0.31759
# Poissons Ratio (z) = 0.25944 0.16309
#
# Static dielectric constant tensor:
#      x y z
#    x 4.365880 0.000000 0.000000 
#    y 0.000000 4.044070 0.000000 
#    z 0.000000 0.000000 3.788280 
# 
# 
# High freq. dielectric constant tensor:
#      x y z
#    x 1.950950 0.000000 0.000000 
#    y 0.000000 1.935080 0.000000 
#    z 0.000000 0.000000 1.894810 
# 
# From -- ./inp_files/11510.got.cif
#   From: 2010.03.12/outbox.cif.g09.slc.cpg/sg57_6_cif.got.tgz:11510.got - 2010.04.16 15:48:40.
