data_PCOD8235760
_publ_section_title
;
Structure prediction by ZEFSAII (Michael W. Deem and Ramdas Pophale) SiO2 
 PCOD8235760
Probable space group: P N N M
;
_chemical_formula_sum "Si O2"
_cell_formula_units_Z 64
_cell_length_a 13.671885
_cell_length_b 18.258823
_cell_length_c 12.645581
_cell_angle_alpha 90.000000
_cell_angle_beta 90.000000
_cell_angle_gamma 90.000000
_cell_volume 3156.748357
_symmetry_space_group_name_H-M "P N N M"
_symmetry_group_IT_number 58
_symmetry_cell_setting 'orthorhombic'
loop_
_space_group_symop_operation_xyz
x,y,z
-x,-y,z
1/2+x,1/2-y,1/2-z
1/2-x,1/2+y,1/2-z
-x,-y,-z
x,y,-z
1/2-x,1/2+y,1/2+z
1/2+x,1/2-y,1/2+z
loop_
_atom_site_type_symbol
_atom_site_label
_atom_site_fract_x
_atom_site_fract_y
_atom_site_fract_z
Si Si1 0.677786 0.772062 0.382101
Si Si2 0.579197 0.551149 0.754438
Si Si3 0.219103 0.853208 0.620760
Si Si4 0.256864 0.533925 0.375857
Si Si5 0.004781 0.828457 0.876112
Si Si6 0.292093 0.700664 0.315440
Si Si7 0.441763 0.084256 0.616666
Si Si8 0.868977 0.542997 0.777407
O O1 0.718958 0.758738 0.500000
O O2 0.610154 0.705240 0.342393
O O3 0.770197 0.788809 0.308944
O O4 0.600645 0.836410 0.378136
O O5 0.500000 0.500000 0.815181
O O6 0.617175 0.613172 0.835922
O O7 0.662627 0.502610 0.699859
O O8 0.512994 0.588546 0.662711
O O9 0.230601 0.877655 0.500000
O O10 0.230259 0.764880 0.626370
O O11 0.301803 0.888539 0.694179
O O12 0.274138 0.517708 0.500000
O O13 0.255103 0.621858 0.358171
O O14 0.156701 0.492903 0.337755
O O15 0.908734 0.789165 0.827741
O O16 0.988879 0.824837 0.000000
O O17 0.488788 0.072273 0.500000
O O18 0.520433 0.073472 0.711286
O O19 0.356987 0.023771 0.637661
#
# Coordination Sequence:
#
# PCOD8235760 Si02
#       8
#     8   8   8   8   8   8   8   8
#     4  10  22  40  63  92 124 160 203 252 309 368
#     4  11  23  40  61  91 124 159 204 261 305 371
#     4  11  23  39  60  87 121 161 201 251 309 366
#     4  11  23  38  60  86 121 163 202 250 309 366
#     4  11  22  39  66  92 122 166 212 256 304 367
#     4  12  22  40  64  93 123 158 211 259 305 364
#     4  10  18  34  60  87 119 153 193 246 301 356
#     4  10  20  35  56  87 115 149 198 249 296 360
#
# _framework density 20.274027
#
# number of rings (size 3 to 8) (size 9 to 14) (size 15 to 20)
#    0.000    1.250    3.750    3.750    0.000    1.750 
#    0.000    1.875    0.000    0.000    0.000    0.000 
#    0.000    0.000    0.000    0.000    0.000    0.000 
#
# Total GULP energy -792871.335417 kJ/mol
# GULP energy per Si atom -12388.614616 kJ/mol
# Density = 2.022788 g / cm^3
# Si number density = 20.274027 Si / 1000 Ang^3
#
#
#
# Elastic Constant Matrix: (Units=GPa)
#
#
# Indices 1 2 3 4 5 6 
#
# 1 72.2382 20.6331 31.1587 0.0000 0.0000 0.0000
# 2 20.6331 103.1596 27.0649 0.0000 0.0000 0.0000
# 3 31.1587 27.0649 88.4014 0.0000 0.0000 0.0000
# 4 0.0000 0.0000 0.0000 21.0900 0.0000 0.0000
# 5 0.0000 0.0000 0.0000 0.0000 26.7648 0.0000
# 6 0.0000 0.0000 0.0000 0.0000 0.0000 32.2205
#
#
#
# Elastic Compliance Matrix: (Units=1/GPa)
#
#
# Indices 1 2 3 4 5 6 
#
# 1 0.016678 -0.001950 -0.005281 0.000000 0.000000 0.000000
# 2 -0.001950 0.010768 -0.002609 0.000000 0.000000 0.000000
# 3 -0.005281 -0.002609 0.013973 0.000000 0.000000 0.000000
# 4 0.000000 0.000000 0.000000 0.047416 0.000000 0.000000
# 5 0.000000 0.000000 0.000000 0.000000 0.037363 0.000000
# 6 0.000000 0.000000 0.000000 0.000000 0.000000 0.031036
#
#
# Mechanical properties :
#
#
# Convention : Reuss Voigt Hill
#
# Bulk Modulus (GPa) = 46.00484 46.83474 46.41979
# Shear Modulus (GPa) = 27.15008 28.34455 27.74731
#
# Velocity S-wave (km/s) = 3.66342 3.74314 3.70349
# Velocity P-wave (km/s) = 6.37455 6.46780 6.42135
#
# Compressibility (1/GPa) = 0.02173684
#
# Stress axis : x y z
#
# Youngs Moduli (GPa) = 59.95857 92.86439 71.56914
#
# Poissons Ratio (x) = 0.18110 0.37799
# Poissons Ratio (y) = 0.11693 0.18676
# Poissons Ratio (z) = 0.31667 0.24233
#
# Static dielectric constant tensor:
#      x y z
#    x 3.700840 0.000000 0.000000 
#    y 0.000000 4.002740 0.000000 
#    z 0.000000 0.000000 3.702020 
# 
# 
# High freq. dielectric constant tensor:
#      x y z
#    x 1.777330 0.000000 0.000000 
#    y 0.000000 1.815070 0.000000 
#    z 0.000000 0.000000 1.774210 
# 
# From -- ./inp_files/15917.got.cif
#   From: 2010.06.25/outbox.cif.g09.slc.cpg/sg58_8_cif.got.tgz:15917.got - 2010.06.26 21:38:00.
