data_PCOD8235211
_publ_section_title
;
Structure prediction by ZEFSAII (Michael W. Deem and Ramdas Pophale) SiO2 
 PCOD8235211
Probable space group: P N N M
;
_chemical_formula_sum "Si O2"
_cell_formula_units_Z 64
_cell_length_a 9.287357
_cell_length_b 18.871970
_cell_length_c 21.590667
_cell_angle_alpha 90.000000
_cell_angle_beta 90.000000
_cell_angle_gamma 90.000000
_cell_volume 3784.211808
_symmetry_space_group_name_H-M "P N N M"
_symmetry_group_IT_number 58
_symmetry_cell_setting 'orthorhombic'
loop_
_space_group_symop_operation_xyz
x,y,z
-x,-y,z
1/2+x,1/2-y,1/2-z
1/2-x,1/2+y,1/2-z
-x,-y,-z
x,y,-z
1/2-x,1/2+y,1/2+z
1/2+x,1/2-y,1/2+z
loop_
_atom_site_type_symbol
_atom_site_label
_atom_site_fract_x
_atom_site_fract_y
_atom_site_fract_z
Si Si1 0.130359 0.310665 0.429602
Si Si2 0.841652 0.311585 0.072982
Si Si3 0.451232 0.710805 0.645475
Si Si4 0.935498 0.683197 0.248296
Si Si5 0.642755 0.837214 0.141178
Si Si6 0.334636 0.024053 0.208401
Si Si7 0.920828 0.428931 0.832663
Si Si8 0.794890 0.117395 0.829628
O O1 0.160734 0.327321 0.500000
O O2 0.193810 0.231967 0.413279
O O3 0.210668 0.373846 0.394009
O O4 0.961260 0.317487 0.415643
O O5 0.971488 0.261334 0.095814
O O6 0.843388 0.385703 0.111340
O O7 0.859728 0.328469 0.000000
O O8 0.431889 0.743319 0.713224
O O9 0.291786 0.697909 0.620673
O O10 0.539420 0.638333 0.658806
O O11 0.067889 0.690176 0.296013
O O12 0.957292 0.619495 0.199502
O O13 0.782985 0.671446 0.281991
O O14 0.678489 0.919695 0.152936
O O15 0.303427 0.053030 0.278396
O O16 0.500000 0.000000 0.209465
O O17 0.219998 0.962643 0.193978
O O18 0.000000 0.500000 0.858664
#
# Coordination Sequence:
#
# PCOD8235211 Si02
#       8
#     8   8   8   8   8   8   8   8
#     4   9  18  33  51  69  92 130 173 206 240 289
#     4   9  19  33  49  73 102 132 170 211 253 295
#     4  10  20  29  46  75  99 126 161 210 261 301
#     4   9  16  30  48  69  96 130 165 201 245 306
#     4  10  19  30  48  70  96 127 166 204 250 303
#     4  10  16  31  49  71  97 131 166 202 247 303
#     4   9  15  28  51  76  98 133 164 208 249 295
#     4  10  17  31  50  68 101 131 157 209 255 293
#
# _framework density 16.912372999999999
#
# number of rings (size 3 to 8) (size 9 to 14) (size 15 to 20)
#    0.000    2.500    5.000    0.750    0.000    4.250 
#    0.000    1.250    0.000    0.000    0.000    4.375 
#    0.000    9.000    0.000    0.000    0.000    0.000 
#
# Total GULP energy -792986.601675 kJ/mol
# GULP energy per Si atom -12390.415651 kJ/mol
# Density = 1.687388 g / cm^3
# Si number density = 16.912373 Si / 1000 Ang^3
#
#
#
# Elastic Constant Matrix: (Units=GPa)
#
#
# Indices 1 2 3 4 5 6 
#
# 1 79.0016 21.5345 16.8525 0.0000 0.0000 0.0000
# 2 21.5345 78.9960 36.9276 0.0000 0.0000 0.0000
# 3 16.8525 36.9276 84.8246 0.0000 0.0000 0.0000
# 4 0.0000 0.0000 0.0000 23.0530 0.0000 0.0000
# 5 0.0000 0.0000 0.0000 0.0000 8.7445 0.0000
# 6 0.0000 0.0000 0.0000 0.0000 0.0000 20.6419
#
#
#
# Elastic Compliance Matrix: (Units=1/GPa)
#
#
# Indices 1 2 3 4 5 6 
#
# 1 0.013803 -0.003115 -0.001386 0.000000 0.000000 0.000000
# 2 -0.003115 0.016596 -0.006606 0.000000 0.000000 0.000000
# 3 -0.001386 -0.006606 0.014940 0.000000 0.000000 0.000000
# 4 0.000000 0.000000 0.000000 0.043378 0.000000 0.000000
# 5 0.000000 0.000000 0.000000 0.000000 0.114358 0.000000
# 6 0.000000 0.000000 0.000000 0.000000 0.000000 0.048445
#
#
# Mechanical properties :
#
#
# Convention : Reuss Voigt Hill
#
# Bulk Modulus (GPa) = 43.24330 43.71684 43.48007
# Shear Modulus (GPa) = 17.76559 21.65504 19.71031
#
# Velocity S-wave (km/s) = 3.24458 3.58219 3.41755
# Velocity P-wave (km/s) = 6.29769 6.55855 6.42944
#
# Compressibility (1/GPa) = 0.02312497
#
# Stress axis : x y z
#
# Youngs Moduli (GPa) = 72.44960 60.25535 66.93268
#
# Poissons Ratio (x) = 0.18767 0.09279
# Poissons Ratio (y) = 0.22565 0.44217
# Poissons Ratio (z) = 0.10044 0.39806
#
# Static dielectric constant tensor:
#      x y z
#    x 3.048770 0.000000 0.000000 
#    y 0.000000 3.421870 0.000000 
#    z 0.000000 0.000000 3.187570 
# 
# 
# High freq. dielectric constant tensor:
#      x y z
#    x 1.631620 0.000000 0.000000 
#    y 0.000000 1.645610 0.000000 
#    z 0.000000 0.000000 1.641580 
# 
# From -- ./inp_files/29118.got.cif
#   From: 2010.06.25/outbox.cif.g09.slc.cpg/sg58_15_cif.got.tgz:29118.got - 2010.06.26 21:38:00.
