data_PCOD8235242
_publ_section_title
;
Structure prediction by ZEFSAII (Michael W. Deem and Ramdas Pophale) SiO2 
 PCOD8235242
Probable space group: P N N M
;
_chemical_formula_sum "Si O2"
_cell_formula_units_Z 52
_cell_length_a 27.319046
_cell_length_b 5.484146
_cell_length_c 19.094301
_cell_angle_alpha 90.000000
_cell_angle_beta 90.000000
_cell_angle_gamma 90.000000
_cell_volume 2860.739430
_symmetry_space_group_name_H-M "P N N M"
_symmetry_group_IT_number 58
_symmetry_cell_setting 'orthorhombic'
loop_
_space_group_symop_operation_xyz
x,y,z
-x,-y,z
1/2+x,1/2-y,1/2-z
1/2-x,1/2+y,1/2-z
-x,-y,-z
x,y,-z
1/2-x,1/2+y,1/2+z
1/2+x,1/2-y,1/2+z
loop_
_atom_site_type_symbol
_atom_site_label
_atom_site_fract_x
_atom_site_fract_y
_atom_site_fract_z
Si Si1 0.418241 0.308604 0.077641
Si Si2 0.712839 0.397853 0.166883
Si Si3 0.640893 0.394343 0.297879
Si Si4 0.328361 0.101263 0.857358
Si Si5 0.552506 0.378448 0.202005
Si Si6 0.000000 0.500000 0.373271
Si Si7 0.826821 0.394949 0.193984
O O1 0.376827 0.107507 0.094619
O O2 0.415573 0.510523 0.138171
O O3 0.473158 0.196841 0.078082
O O4 0.409911 0.419116 0.000000
O O5 0.681183 0.399331 0.236950
O O6 0.702811 0.651191 0.125043
O O7 0.768924 0.386646 0.188472
O O8 0.700144 0.150564 0.123067
O O9 0.584972 0.386583 0.271430
O O10 0.649427 0.648680 0.340585
O O11 0.651451 0.143957 0.341668
O O12 0.343042 0.097219 0.775467
O O13 0.500000 0.500000 0.216604
O O14 0.542018 0.104200 0.177908
#
# Coordination Sequence:
#
# PCOD8235242 Si02
#       7
#     8   8   8   8   8   4   8
#     4  11  22  34  45  60  79 113 152 198 238 272
#     4  10  17  28  47  66  85 102 124 161 228 275
#     4  10  17  28  43  62  87 102 131 166 216 271
#     4  10  18  30  44  62  86 103 129 169 220 276
#     4  10  21  33  45  59  80 113 147 192 233 273
#     4  10  21  34  48  58  72 104 160 198 238 270
#     4  10  17  27  47  67  84 102 124 162 226 276
#
# _framework density 18.177116999999999
#
# number of rings (size 3 to 8) (size 9 to 14) (size 15 to 20)
#    0.000    1.846    3.077    6.692    2.154    3.385 
#    0.000    0.000    0.000    0.000    0.000    0.000 
#    0.000    0.000    0.000    0.000    0.000    0.000 
#
# Total GULP energy -644197.043960 kJ/mol
# GULP energy per Si atom -12388.404692 kJ/mol
# Density = 1.813575 g / cm^3
# Si number density = 18.177117 Si / 1000 Ang^3
#
#
#
# Elastic Constant Matrix: (Units=GPa)
#
#
# Indices 1 2 3 4 5 6 
#
# 1 74.7058 21.8214 11.3539 0.0000 0.0000 0.0000
# 2 21.8214 156.8159 2.5376 0.0000 0.0000 0.0000
# 3 11.3539 2.5376 5.4847 0.0000 0.0000 0.0000
# 4 0.0000 0.0000 0.0000 7.9871 0.0000 0.0000
# 5 0.0000 0.0000 0.0000 0.0000 8.7721 0.0000
# 6 0.0000 0.0000 0.0000 0.0000 0.0000 30.8697
#
#
#
# Elastic Compliance Matrix: (Units=1/GPa)
#
#
# Indices 1 2 3 4 5 6 
#
# 1 0.020227 -0.002153 -0.040876 0.000000 0.000000 0.000000
# 2 -0.002153 0.006654 0.001379 0.000000 0.000000 0.000000
# 3 -0.040876 0.001379 0.266306 0.000000 0.000000 0.000000
# 4 0.000000 0.000000 0.000000 0.125202 0.000000 0.000000
# 5 0.000000 0.000000 0.000000 0.000000 0.113998 0.000000
# 6 0.000000 0.000000 0.000000 0.000000 0.000000 0.032394
#
#
# Mechanical properties :
#
#
# Convention : Reuss Voigt Hill
#
# Bulk Modulus (GPa) = 4.76449 34.27024 19.51737
# Shear Modulus (GPa) = 6.96334 22.94534 14.95434
#
# Velocity S-wave (km/s) = 1.95937 3.55677 2.87139
# Velocity P-wave (km/s) = 2.78311 5.98013 4.66410
#
# Compressibility (1/GPa) = 0.20988605
#
# Stress axis : x y z
#
# Youngs Moduli (GPa) = 49.43820 150.28047 3.75507
#
# Poissons Ratio (x) = 0.32359 0.15349
# Poissons Ratio (y) = 0.10645 -0.00518
# Poissons Ratio (z) = 2.02086 -0.20720
#
# Static dielectric constant tensor:
#      x y z
#    x 3.405890 0.000000 0.000000 
#    y 0.000000 4.668590 0.000000 
#    z 0.000000 0.000000 2.500900 
# 
# 
# High freq. dielectric constant tensor:
#      x y z
#    x 1.711380 0.000000 0.000000 
#    y 0.000000 1.739550 0.000000 
#    z 0.000000 0.000000 1.585940 
# 
# From -- ./inp_files/24406.got.cif
#   From: 2010.06.25/outbox.cif.g09.slc.cpg/sg58_13_cif.got.tgz:24406.got - 2010.06.26 21:38:00.
