data_PCOD8235341
_publ_section_title
;
Structure prediction by ZEFSAII (Michael W. Deem and Ramdas Pophale) SiO2 
 PCOD8235341
Probable space group: P N N M
;
_chemical_formula_sum "Si O2"
_cell_formula_units_Z 56
_cell_length_a 18.452362
_cell_length_b 21.282613
_cell_length_c 8.819874
_cell_angle_alpha 90.000000
_cell_angle_beta 90.000000
_cell_angle_gamma 90.000000
_cell_volume 3463.692226
_symmetry_space_group_name_H-M "P N N M"
_symmetry_group_IT_number 58
_symmetry_cell_setting 'orthorhombic'
loop_
_space_group_symop_operation_xyz
x,y,z
-x,-y,z
1/2+x,1/2-y,1/2-z
1/2-x,1/2+y,1/2-z
-x,-y,-z
x,y,-z
1/2-x,1/2+y,1/2+z
1/2+x,1/2-y,1/2+z
loop_
_atom_site_type_symbol
_atom_site_label
_atom_site_fract_x
_atom_site_fract_y
_atom_site_fract_z
Si Si1 0.418503 0.498243 0.180095
Si Si2 0.703092 0.819876 0.334244
Si Si3 0.926832 0.247414 0.179093
Si Si4 0.655825 0.375399 0.817939
Si Si5 0.283297 0.812120 0.831962
Si Si6 0.650119 0.631550 0.820291
Si Si7 0.591772 0.253467 0.322767
O O1 0.500000 0.500000 0.246227
O O2 0.374521 0.558516 0.241578
O O3 0.378223 0.435892 0.236685
O O4 0.421282 0.500470 0.000000
O O5 0.686471 0.847709 0.500000
O O6 0.625446 0.804138 0.255523
O O7 0.760698 0.867224 0.254257
O O8 0.744274 0.754071 0.344795
O O9 0.906947 0.182526 0.260209
O O10 0.009140 0.266059 0.211964
O O11 0.911420 0.238751 0.000000
O O12 0.605089 0.320407 0.755225
O O13 0.655878 0.370178 0.000000
O O14 0.231256 0.860248 0.743451
O O15 0.358744 0.802557 0.742913
O O16 0.299594 0.838816 0.000000
O O17 0.652936 0.636138 0.000000
O O18 0.607182 0.260545 0.500000
#
# Coordination Sequence:
#
# PCOD8235341 Si02
#       7
#     8   8   8   8   8   8   8
#     4   9  17  27  40  62  90 118 149 182 213 250
#     4   7  12  24  41  57  74 103 138 168 204 252
#     4   9  17  28  41  61  89 114 138 176 224 266
#     4   9  16  28  44  59  82 118 151 175 208 259
#     4   9  17  30  45  60  83 113 143 176 219 269
#     4  10  18  28  44  64  87 116 151 186 214 251
#     4  10  18  27  42  65  89 110 138 180 223 261
#
# _framework density 16.167718000000001
#
# number of rings (size 3 to 8) (size 9 to 14) (size 15 to 20)
#    0.000    3.000    0.000    3.857    0.000    2.286 
#    0.000    1.429    0.000    3.857    0.000    1.000 
#    0.000    8.000    0.000    0.000    0.000    0.000 
#
# Total GULP energy -693819.720006 kJ/mol
# GULP energy per Si atom -12389.637857 kJ/mol
# Density = 1.613092 g / cm^3
# Si number density = 16.167718 Si / 1000 Ang^3
#
#
#
# Elastic Constant Matrix: (Units=GPa)
#
#
# Indices 1 2 3 4 5 6 
#
# 1 155.8053 71.4984 37.5502 0.0000 0.0000 0.0000
# 2 71.4984 83.1244 21.7412 0.0000 0.0000 0.0000
# 3 37.5502 21.7412 50.4794 0.0000 0.0000 0.0000
# 4 0.0000 0.0000 0.0000 15.2043 0.0000 0.0000
# 5 0.0000 0.0000 0.0000 0.0000 20.9108 0.0000
# 6 0.0000 0.0000 0.0000 0.0000 0.0000 27.4854
#
#
#
# Elastic Compliance Matrix: (Units=1/GPa)
#
#
# Indices 1 2 3 4 5 6 
#
# 1 0.011577 -0.008684 -0.004872 0.000000 0.000000 0.000000
# 2 -0.008684 0.020071 -0.002185 0.000000 0.000000 0.000000
# 3 -0.004872 -0.002185 0.024375 0.000000 0.000000 0.000000
# 4 0.000000 0.000000 0.000000 0.065771 0.000000 0.000000
# 5 0.000000 0.000000 0.000000 0.000000 0.047822 0.000000
# 6 0.000000 0.000000 0.000000 0.000000 0.000000 0.036383
#
#
# Mechanical properties :
#
#
# Convention : Reuss Voigt Hill
#
# Bulk Modulus (GPa) = 40.74611 61.22095 50.98353
# Shear Modulus (GPa) = 20.35320 23.29473 21.82397
#
# Velocity S-wave (km/s) = 3.55192 3.79993 3.67801
# Velocity P-wave (km/s) = 6.48678 7.56313 7.04554
#
# Compressibility (1/GPa) = 0.02454222
#
# Stress axis : x y z
#
# Youngs Moduli (GPa) = 86.37459 49.82324 41.02535
#
# Poissons Ratio (x) = 0.43266 0.19988
# Poissons Ratio (y) = 0.75007 0.08963
# Poissons Ratio (z) = 0.42082 0.10885
#
# Static dielectric constant tensor:
#      x y z
#    x 3.443750 0.000000 0.000000 
#    y 0.000000 2.952650 0.000000 
#    z 0.000000 0.000000 2.930880 
# 
# 
# High freq. dielectric constant tensor:
#      x y z
#    x 1.632250 0.000000 0.000000 
#    y 0.000000 1.581300 0.000000 
#    z 0.000000 0.000000 1.604210 
# 
# From -- ./inp_files/8142.got.cif
#   From: 2010.06.25/outbox.cif.g09.slc.cpg/sg58_5_cif.got.tgz:8142.got - 2010.06.26 21:38:00.
