data_PCOD8235966
_publ_section_title
;
Structure prediction by ZEFSAII (Michael W. Deem and Ramdas Pophale) SiO2 
 PCOD8235966
Probable space group: P N N M
;
_chemical_formula_sum "Si O2"
_cell_formula_units_Z 40
_cell_length_a 15.601277
_cell_length_b 15.832059
_cell_length_c 9.057399
_cell_angle_alpha 90.000000
_cell_angle_beta 90.000000
_cell_angle_gamma 90.000000
_cell_volume 2237.180614
_symmetry_space_group_name_H-M "P N N M"
_symmetry_group_IT_number 58
_symmetry_cell_setting 'orthorhombic'
loop_
_space_group_symop_operation_xyz
x,y,z
-x,-y,z
1/2+x,1/2-y,1/2-z
1/2-x,1/2+y,1/2-z
-x,-y,-z
x,y,-z
1/2-x,1/2+y,1/2+z
1/2+x,1/2-y,1/2+z
loop_
_atom_site_type_symbol
_atom_site_label
_atom_site_fract_x
_atom_site_fract_y
_atom_site_fract_z
Si Si1 0.548570 0.186560 0.673553
Si Si2 0.308851 0.948291 0.673687
Si Si3 0.073143 0.569736 0.666090
Si Si4 0.866843 0.039182 0.174965
Si Si5 0.960284 0.875075 0.825680
O O1 0.530010 0.183476 0.500000
O O2 0.631610 0.131526 0.714803
O O3 0.463252 0.152587 0.753620
O O4 0.564828 0.281861 0.731211
O O5 0.303952 0.962476 0.500000
O O6 0.216143 0.928575 0.739109
O O7 0.345080 0.034089 0.746294
O O8 0.101526 0.593000 0.500000
O O9 0.000000 0.500000 0.666373
O O10 0.944029 0.100387 0.225801
O O11 0.890647 0.943898 0.228287
O O12 0.850037 0.043472 0.000000
O O13 0.960025 0.878436 0.000000
#
# Coordination Sequence:
#
# PCOD8235966 Si02
#       5
#     8   8   8   8   8
#     4   9  17  32  52  73 101 132 164 203 251 302
#     4  10  19  31  49  74 104 134 163 203 254 299
#     4   9  17  30  49  72  98 129 164 201 243 292
#     4   9  17  33  55  73  95 132 174 207 242 295
#     4   8  16  33  55  73  94 133 173 204 246 298
#
# _framework density 17.879648
#
# number of rings (size 3 to 8) (size 9 to 14) (size 15 to 20)
#    0.000    3.000    0.000    2.400    0.000    3.200 
#    3.600    4.000    0.000    0.000    0.000    0.000 
#    0.000    0.000    0.000    0.000    0.000    0.000 
#
# Total GULP energy -495881.748747 kJ/mol
# GULP energy per Si atom -12397.043719 kJ/mol
# Density = 1.783895 g / cm^3
# Si number density = 17.879648 Si / 1000 Ang^3
#
#
#
# Elastic Constant Matrix: (Units=GPa)
#
#
# Indices 1 2 3 4 5 6 
#
# 1 104.2763 46.3755 40.0242 0.0000 0.0000 0.0000
# 2 46.3755 120.0827 34.8862 0.0000 0.0000 0.0000
# 3 40.0242 34.8862 64.7795 0.0000 0.0000 0.0000
# 4 0.0000 0.0000 0.0000 16.1690 0.0000 0.0000
# 5 0.0000 0.0000 0.0000 0.0000 31.6301 0.0000
# 6 0.0000 0.0000 0.0000 0.0000 0.0000 16.9582
#
#
#
# Elastic Compliance Matrix: (Units=1/GPa)
#
#
# Indices 1 2 3 4 5 6 
#
# 1 0.013612 -0.003335 -0.006614 0.000000 0.000000 0.000000
# 2 -0.003335 0.010689 -0.003696 0.000000 0.000000 0.000000
# 3 -0.006614 -0.003696 0.021514 0.000000 0.000000 0.000000
# 4 0.000000 0.000000 0.000000 0.061847 0.000000 0.000000
# 5 0.000000 0.000000 0.000000 0.000000 0.031615 0.000000
# 6 0.000000 0.000000 0.000000 0.000000 0.000000 0.058969
#
#
# Mechanical properties :
#
#
# Convention : Reuss Voigt Hill
#
# Bulk Modulus (GPa) = 53.98191 59.07894 56.53042
# Shear Modulus (GPa) = 21.57860 24.14163 22.86011
#
# Velocity S-wave (km/s) = 3.47779 3.67853 3.57957
# Velocity P-wave (km/s) = 6.81058 7.15237 6.98357
#
# Compressibility (1/GPa) = 0.01852472
#
# Stress axis : x y z
#
# Youngs Moduli (GPa) = 73.46523 93.55031 46.48186
#
# Poissons Ratio (x) = 0.31203 0.30743
# Poissons Ratio (y) = 0.24504 0.17179
# Poissons Ratio (z) = 0.48589 0.34575
#
# Static dielectric constant tensor:
#      x y z
#    x 3.206700 0.000000 0.000000 
#    y 0.000000 3.655740 0.000000 
#    z 0.000000 0.000000 3.148900 
# 
# 
# High freq. dielectric constant tensor:
#      x y z
#    x 1.683540 0.000000 0.000000 
#    y 0.000000 1.685240 0.000000 
#    z 0.000000 0.000000 1.674830 
# 
# From -- ./inp_files/5369.got.cif
#   From: 2010.06.25/outbox.cif.g09.slc.cpg/sg58_3_cif.got.tgz:5369.got - 2010.06.26 21:38:00.
