data_PCOD8235734
_publ_section_title
;
Structure prediction by ZEFSAII (Michael W. Deem and Ramdas Pophale) SiO2 
 PCOD8235734
Probable space group: P N N M
;
_chemical_formula_sum "Si O2"
_cell_formula_units_Z 64
_cell_length_a 18.723314
_cell_length_b 15.119600
_cell_length_c 12.991159
_cell_angle_alpha 90.000000
_cell_angle_beta 90.000000
_cell_angle_gamma 90.000000
_cell_volume 3677.654449
_symmetry_space_group_name_H-M "P N N M"
_symmetry_group_IT_number 58
_symmetry_cell_setting 'orthorhombic'
loop_
_space_group_symop_operation_xyz
x,y,z
-x,-y,z
1/2+x,1/2-y,1/2-z
1/2-x,1/2+y,1/2-z
-x,-y,-z
x,y,-z
1/2-x,1/2+y,1/2+z
1/2+x,1/2-y,1/2+z
loop_
_atom_site_type_symbol
_atom_site_label
_atom_site_fract_x
_atom_site_fract_y
_atom_site_fract_z
Si Si1 0.215430 0.683265 0.385247
Si Si2 0.233039 0.838208 0.884069
Si Si3 0.302498 0.526729 0.308311
Si Si4 0.366537 0.184805 0.315390
Si Si5 0.448393 0.574483 0.617062
Si Si6 0.021227 0.271597 0.118405
Si Si7 0.286454 0.013422 0.617445
Si Si8 0.672991 0.176647 0.310003
O O1 0.184016 0.692475 0.500000
O O2 0.244197 0.583993 0.369773
O O3 0.151461 0.700386 0.305075
O O4 0.279833 0.753053 0.372770
O O5 0.174594 0.760442 0.878777
O O6 0.300338 0.823131 0.808429
O O7 0.193271 0.929352 0.856445
O O8 0.263176 0.841572 0.000000
O O9 0.377851 0.575818 0.313959
O O10 0.283752 0.523917 0.187511
O O11 0.451203 0.186553 0.330936
O O12 0.343109 0.089169 0.355695
O O13 0.500000 0.500000 0.662405
O O14 0.425832 0.552060 0.500000
O O15 0.489201 0.666676 0.623692
O O16 0.089938 0.298211 0.185412
O O17 0.030357 0.303112 0.000000
O O18 0.261493 0.020942 0.500000
O O19 0.321893 0.919083 0.638605
#
# Coordination Sequence:
#
# PCOD8235734 Si02
#       8
#     8   8   8   8   8   8   8   8
#     4  10  18  34  55  75 100 132 173 218 256 300
#     4  10  19  34  53  76 105 133 167 214 261 305
#     4  10  19  31  54  80 100 128 170 212 255 314
#     4  10  22  34  50  76 104 136 173 209 257 312
#     4  10  19  30  49  77 106 133 161 205 266 314
#     4  11  20  33  51  73 106 137 167 213 260 305
#     4  10  20  35  52  73 101 136 175 212 251 294
#     4  10  21  33  52  78 101 134 177 212 252 308
#
# _framework density 17.402396
#
# number of rings (size 3 to 8) (size 9 to 14) (size 15 to 20)
#    0.000    1.875    1.250    4.125    0.000    1.500 
#    0.000    1.875    0.000    1.125    0.000    5.250 
#    0.000    0.000    0.000    0.000    0.000    0.000 
#
# Total GULP energy -793695.877687 kJ/mol
# GULP energy per Si atom -12401.498089 kJ/mol
# Density = 1.736279 g / cm^3
# Si number density = 17.402396 Si / 1000 Ang^3
#
#
#
# Elastic Constant Matrix: (Units=GPa)
#
#
# Indices 1 2 3 4 5 6 
#
# 1 83.5873 11.0800 37.9311 0.0000 0.0000 0.0000
# 2 11.0800 86.1591 21.5118 0.0000 0.0000 0.0000
# 3 37.9311 21.5118 130.4332 0.0000 0.0000 0.0000
# 4 0.0000 0.0000 0.0000 16.8009 0.0000 0.0000
# 5 0.0000 0.0000 0.0000 0.0000 19.2094 0.0000
# 6 0.0000 0.0000 0.0000 0.0000 0.0000 23.8194
#
#
#
# Elastic Compliance Matrix: (Units=1/GPa)
#
#
# Indices 1 2 3 4 5 6 
#
# 1 0.013836 -0.000808 -0.003890 0.000000 0.000000 0.000000
# 2 -0.000808 0.012152 -0.001769 0.000000 0.000000 0.000000
# 3 -0.003890 -0.001769 0.009090 0.000000 0.000000 0.000000
# 4 0.000000 0.000000 0.000000 0.059521 0.000000 0.000000
# 5 0.000000 0.000000 0.000000 0.000000 0.052058 0.000000
# 6 0.000000 0.000000 0.000000 0.000000 0.000000 0.041983
#
#
# Mechanical properties :
#
#
# Convention : Reuss Voigt Hill
#
# Bulk Modulus (GPa) = 45.16126 49.02504 47.09315
# Shear Modulus (GPa) = 23.92856 27.27638 25.60247
#
# Velocity S-wave (km/s) = 3.71214 3.96333 3.83979
# Velocity P-wave (km/s) = 6.66190 7.01260 6.83949
#
# Compressibility (1/GPa) = 0.02214287
#
# Stress axis : x y z
#
# Youngs Moduli (GPa) = 72.27488 82.29051 110.01211
#
# Poissons Ratio (x) = 0.06649 0.42799
# Poissons Ratio (y) = 0.05840 0.19464
# Poissons Ratio (z) = 0.28118 0.14559
#
# Static dielectric constant tensor:
#      x y z
#    x 2.980460 0.000000 0.000000 
#    y 0.000000 3.472260 0.000000 
#    z 0.000000 0.000000 3.260230 
# 
# 
# High freq. dielectric constant tensor:
#      x y z
#    x 1.647780 0.000000 0.000000 
#    y 0.000000 1.693710 0.000000 
#    z 0.000000 0.000000 1.666060 
# 
# From -- ./inp_files/15913.got.cif
#   From: 2010.06.25/outbox.cif.g09.slc.cpg/sg58_8_cif.got.tgz:15913.got - 2010.06.26 21:38:00.
