data_PCOD8235459
_publ_section_title
;
Structure prediction by ZEFSAII (Michael W. Deem and Ramdas Pophale) SiO2 
 PCOD8235459
Probable space group: P N N M
;
_chemical_formula_sum "Si O2"
_cell_formula_units_Z 40
_cell_length_a 9.685786
_cell_length_b 14.788585
_cell_length_c 17.887986
_cell_angle_alpha 90.000000
_cell_angle_beta 90.000000
_cell_angle_gamma 90.000000
_cell_volume 2562.258471
_symmetry_space_group_name_H-M "P N N M"
_symmetry_group_IT_number 58
_symmetry_cell_setting 'orthorhombic'
loop_
_space_group_symop_operation_xyz
x,y,z
-x,-y,z
1/2+x,1/2-y,1/2-z
1/2-x,1/2+y,1/2-z
-x,-y,-z
x,y,-z
1/2-x,1/2+y,1/2+z
1/2+x,1/2-y,1/2+z
loop_
_atom_site_type_symbol
_atom_site_label
_atom_site_fract_x
_atom_site_fract_y
_atom_site_fract_z
Si Si1 0.287320 0.842803 0.712873
Si Si2 0.082485 0.706917 0.777731
Si Si3 0.071089 0.264227 0.915286
Si Si4 0.364694 0.553569 0.584772
Si Si5 0.157357 0.523122 0.714503
O O1 0.150201 0.795741 0.743110
O O2 0.425125 0.802246 0.754072
O O3 0.305754 0.823217 0.623691
O O4 0.276756 0.949337 0.729394
O O5 0.171627 0.618769 0.756900
O O6 0.070630 0.717959 0.868339
O O7 0.109984 0.159773 0.909917
O O8 0.050149 0.296903 0.000000
O O9 0.500000 0.500000 0.611884
O O10 0.327103 0.525429 0.500000
O O11 0.237966 0.524782 0.636590
O O12 0.000000 0.500000 0.695444
#
# Coordination Sequence:
#
# PCOD8235459 Si02
#       5
#     8   8   8   8   8
#     4   9  18  30  49  69  96 128 164 200 241 294
#     4   9  17  31  47  71  94 129 161 201 242 290
#     4   9  18  31  50  71  98 129 163 203 243 289
#     4  10  19  31  49  73  99 129 163 203 251 298
#     4  10  18  30  47  72  98 125 164 201 243 294
#
# _framework density 15.611227
#
# number of rings (size 3 to 8) (size 9 to 14) (size 15 to 20)
#    1.200    1.400    2.000    1.200    0.000    0.400 
#    0.000    2.000    0.000    2.400    0.000    0.000 
#    0.000    6.400    0.000    0.000    0.000    0.000 
#
# Total GULP energy -495583.003189 kJ/mol
# GULP energy per Si atom -12389.575080 kJ/mol
# Density = 1.557570 g / cm^3
# Si number density = 15.611227 Si / 1000 Ang^3
#
#
#
# Elastic Constant Matrix: (Units=GPa)
#
#
# Indices 1 2 3 4 5 6 
#
# 1 36.1690 13.5482 28.0471 0.0000 0.0000 0.0000
# 2 13.5482 57.0955 24.5086 0.0000 0.0000 0.0000
# 3 28.0471 24.5086 111.4380 0.0000 0.0000 0.0000
# 4 0.0000 0.0000 0.0000 25.2923 0.0000 0.0000
# 5 0.0000 0.0000 0.0000 0.0000 26.6094 0.0000
# 6 0.0000 0.0000 0.0000 0.0000 0.0000 21.1186
#
#
#
# Elastic Compliance Matrix: (Units=1/GPa)
#
#
# Indices 1 2 3 4 5 6 
#
# 1 0.035642 -0.005087 -0.007852 0.000000 0.000000 0.000000
# 2 -0.005087 0.020066 -0.003133 0.000000 0.000000 0.000000
# 3 -0.007852 -0.003133 0.011639 0.000000 0.000000 0.000000
# 4 0.000000 0.000000 0.000000 0.039538 0.000000 0.000000
# 5 0.000000 0.000000 0.000000 0.000000 0.037581 0.000000
# 6 0.000000 0.000000 0.000000 0.000000 0.000000 0.047352
#
#
# Mechanical properties :
#
#
# Convention : Reuss Voigt Hill
#
# Bulk Modulus (GPa) = 28.40597 37.43448 32.92023
# Shear Modulus (GPa) = 21.21382 23.84397 22.52890
#
# Velocity S-wave (km/s) = 3.69030 3.91239 3.80297
# Velocity P-wave (km/s) = 6.03267 6.66635 6.35741
#
# Compressibility (1/GPa) = 0.03520386
#
# Stress axis : x y z
#
# Youngs Moduli (GPa) = 28.05670 49.83445 85.91992
#
# Poissons Ratio (x) = 0.25352 0.67462
# Poissons Ratio (y) = 0.14273 0.26917
# Poissons Ratio (z) = 0.22029 0.15612
#
# Static dielectric constant tensor:
#      x y z
#    x 2.777110 0.000000 0.000000 
#    y 0.000000 3.031260 0.000000 
#    z 0.000000 0.000000 2.949720 
# 
# 
# High freq. dielectric constant tensor:
#      x y z
#    x 1.580200 0.000000 0.000000 
#    y 0.000000 1.606350 0.000000 
#    z 0.000000 0.000000 1.582990 
# 
# From -- ./inp_files/28785.got.cif
#   From: 2010.06.25/outbox.cif.g09.slc.cpg/sg58_15_cif.got.tgz:28785.got - 2010.06.26 21:38:00.
