data_PCOD8235624
_publ_section_title
;
Structure prediction by ZEFSAII (Michael W. Deem and Ramdas Pophale) SiO2 
 PCOD8235624
Probable space group: P N N M
;
_chemical_formula_sum "Si O2"
_cell_formula_units_Z 64
_cell_length_a 20.980911
_cell_length_b 19.101809
_cell_length_c 9.087587
_cell_angle_alpha 90.000000
_cell_angle_beta 90.000000
_cell_angle_gamma 90.000000
_cell_volume 3642.062727
_symmetry_space_group_name_H-M "P N N M"
_symmetry_group_IT_number 58
_symmetry_cell_setting 'orthorhombic'
loop_
_space_group_symop_operation_xyz
x,y,z
-x,-y,z
1/2+x,1/2-y,1/2-z
1/2-x,1/2+y,1/2-z
-x,-y,-z
x,y,-z
1/2-x,1/2+y,1/2+z
1/2+x,1/2-y,1/2+z
loop_
_atom_site_type_symbol
_atom_site_label
_atom_site_fract_x
_atom_site_fract_y
_atom_site_fract_z
Si Si1 0.190485 0.035862 0.671674
Si Si2 0.435982 0.038821 0.673527
Si Si3 0.114889 0.668526 0.672344
Si Si4 0.622563 0.674368 0.170471
Si Si5 0.812843 0.547415 0.825787
Si Si6 0.245725 0.330904 0.670617
Si Si7 0.745565 0.826703 0.668706
Si Si8 0.064083 0.967884 0.327188
O O1 0.187792 0.019182 0.500000
O O2 0.197832 0.118642 0.703464
O O3 0.252444 0.996285 0.734580
O O4 0.125274 0.007390 0.744216
O O5 0.434884 0.050978 0.500000
O O6 0.433371 0.115207 0.748750
O O7 0.500000 0.000000 0.724842
O O8 0.376730 0.991564 0.726445
O O9 0.112095 0.654278 0.500000
O O10 0.095089 0.748866 0.711187
O O11 0.186371 0.655529 0.727679
O O12 0.684719 0.654541 0.263073
O O13 0.568958 0.615592 0.203975
O O14 0.643337 0.672282 0.000000
O O15 0.808595 0.623633 0.750867
O O16 0.813022 0.556779 0.000000
O O17 0.247611 0.350362 0.500000
O O18 0.226555 0.250168 0.697107
O O19 0.721785 0.835455 0.500000
O O20 0.062558 0.983223 0.500000
O O21 0.000000 0.000000 0.254533
#
# Coordination Sequence:
#
# PCOD8235624 Si02
#       8
#     8   8   8   8   8   8   8   8
#     4   9  15  27  49  71  92 123 161 201 240 279
#     4  10  21  37  55  73  95 131 176 213 249 306
#     4  10  19  30  49  76 104 130 159 205 258 302
#     4   9  17  31  49  73 102 132 167 201 245 300
#     4  10  18  32  53  72  95 127 163 207 251 295
#     4  10  19  29  47  76 104 129 162 208 252 294
#     4   9  17  31  49  72 101 132 169 205 243 293
#     4   9  16  27  47  74  98 123 162 203 233 277
#
# _framework density 17.57246
#
# number of rings (size 3 to 8) (size 9 to 14) (size 15 to 20)
#    0.000    2.500    2.500    0.750    0.000    1.750 
#    0.000    1.250    0.000    3.375    0.000    0.000 
#    0.000    0.000    0.000    0.000    0.000    0.000 
#
# Total GULP energy -793411.677799 kJ/mol
# GULP energy per Si atom -12397.057466 kJ/mol
# Density = 1.753246 g / cm^3
# Si number density = 17.572460 Si / 1000 Ang^3
#
#
#
# Elastic Constant Matrix: (Units=GPa)
#
#
# Indices 1 2 3 4 5 6 
#
# 1 122.3101 77.1727 24.5473 0.0000 0.0000 0.0000
# 2 77.1727 145.5276 36.0482 0.0000 0.0000 0.0000
# 3 24.5473 36.0482 36.6838 0.0000 0.0000 0.0000
# 4 0.0000 0.0000 0.0000 27.2324 0.0000 0.0000
# 5 0.0000 0.0000 0.0000 0.0000 14.0361 0.0000
# 6 0.0000 0.0000 0.0000 0.0000 0.0000 30.1181
#
#
#
# Elastic Compliance Matrix: (Units=1/GPa)
#
#
# Indices 1 2 3 4 5 6 
#
# 1 0.012450 -0.005999 -0.002436 0.000000 0.000000 0.000000
# 2 -0.005999 0.011973 -0.007751 0.000000 0.000000 0.000000
# 3 -0.002436 -0.007751 0.036507 0.000000 0.000000 0.000000
# 4 0.000000 0.000000 0.000000 0.036721 0.000000 0.000000
# 5 0.000000 0.000000 0.000000 0.000000 0.071245 0.000000
# 6 0.000000 0.000000 0.000000 0.000000 0.000000 0.033203
#
#
# Mechanical properties :
#
#
# Convention : Reuss Voigt Hill
#
# Bulk Modulus (GPa) = 35.01704 64.45089 49.73396
# Shear Modulus (GPa) = 20.49272 25.39419 22.94345
#
# Velocity S-wave (km/s) = 3.41865 3.80559 3.61730
# Velocity P-wave (km/s) = 5.96266 7.48778 6.76832
#
# Compressibility (1/GPa) = 0.02855753
#
# Stress axis : x y z
#
# Youngs Moduli (GPa) = 80.32289 83.52412 27.39195
#
# Poissons Ratio (x) = 0.50103 0.06673
# Poissons Ratio (y) = 0.48182 0.21232
# Poissons Ratio (z) = 0.19568 0.64741
#
# Static dielectric constant tensor:
#      x y z
#    x 3.191210 0.000000 0.000000 
#    y 0.000000 3.535900 0.000000 
#    z 0.000000 0.000000 3.023450 
# 
# 
# High freq. dielectric constant tensor:
#      x y z
#    x 1.648800 0.000000 0.000000 
#    y 0.000000 1.697300 0.000000 
#    z 0.000000 0.000000 1.651520 
# 
# From -- ./inp_files/8410.got.cif
#   From: 2010.06.25/outbox.cif.g09.slc.cpg/sg58_5_cif.got.tgz:8410.got - 2010.06.26 21:38:00.
