data_PCOD8235127
_publ_section_title
;
Structure prediction by ZEFSAII (Michael W. Deem and Ramdas Pophale) SiO2 
 PCOD8235127
Probable space group: P B C M
;
_chemical_formula_sum "Si O2"
_cell_formula_units_Z 32
_cell_length_a 4.906058
_cell_length_b 10.457812
_cell_length_c 22.704720
_cell_angle_alpha 90.000000
_cell_angle_beta 90.000000
_cell_angle_gamma 90.000000
_cell_volume 1164.902719
_symmetry_space_group_name_H-M "P B C M"
_symmetry_group_IT_number 57
_symmetry_cell_setting 'orthorhombic'
loop_
_space_group_symop_operation_xyz
x,y,z
-x,-y,1/2+z
x,1/2-y,-z
-x,1/2+y,1/2-z
-x,-y,-z
x,y,1/2-z
-x,1/2+y,z
x,1/2-y,1/2+z
loop_
_atom_site_type_symbol
_atom_site_label
_atom_site_fract_x
_atom_site_fract_y
_atom_site_fract_z
Si Si1 0.073049 0.250815 0.250000
Si Si2 0.039341 0.053944 0.434171
Si Si3 0.687284 0.014896 0.750000
Si Si4 0.458759 0.784551 0.564328
Si Si5 0.669690 0.904721 0.151136
O O1 0.067813 0.092942 0.250000
O O2 0.232006 0.287449 0.308823
O O3 0.796695 0.337023 0.250000
O O4 0.857819 0.181779 0.432565
O O5 0.350334 0.093817 0.417900
O O6 0.931720 0.965591 0.381073
O O7 0.000000 0.000000 0.500000
O O8 0.497221 0.995325 0.692118
O O9 0.562312 0.750000 0.500000
O O10 0.473570 0.656660 0.602454
#
# Coordination Sequence:
#
# PCOD8235127 Si02
#       5
#     4   8   4   8   8
#     4  11  28  50  85 110 164 214 282 350 422 505
#     4  12  27  47  77 116 163 214 278 340 423 508
#     4  11  28  54  79 128 158 228 286 358 426 507
#     4  12  27  46  77 116 164 213 274 341 420 500
#     4  11  28  49  78 113 165 216 281 350 422 504
#
# _framework density 27.470103000000002
#
# number of rings (size 3 to 8) (size 9 to 14) (size 15 to 20)
#    0.000    0.500    2.500    3.000   10.500    4.000 
#    0.000    0.000    0.000    0.000    0.000    0.000 
#    0.000    0.000    0.000    0.000    0.000    0.000 
#
# Total GULP energy -396692.611963 kJ/mol
# GULP energy per Si atom -12396.644124 kJ/mol
# Density = 2.740758 g / cm^3
# Si number density = 27.470103 Si / 1000 Ang^3
#
#
#
# Elastic Constant Matrix: (Units=GPa)
#
#
# Indices 1 2 3 4 5 6 
#
# 1 73.6580 14.3120 6.0454 0.0000 0.0000 0.0000
# 2 14.3120 112.4007 41.4182 0.0000 0.0000 0.0000
# 3 6.0454 41.4182 169.0587 0.0000 0.0000 0.0000
# 4 0.0000 0.0000 0.0000 24.6777 0.0000 0.0000
# 5 0.0000 0.0000 0.0000 0.0000 31.4576 0.0000
# 6 0.0000 0.0000 0.0000 0.0000 0.0000 56.7351
#
#
#
# Elastic Compliance Matrix: (Units=1/GPa)
#
#
# Indices 1 2 3 4 5 6 
#
# 1 0.013921 -0.001747 -0.000070 0.000000 0.000000 0.000000
# 2 -0.001747 0.009999 -0.002387 0.000000 0.000000 0.000000
# 3 -0.000070 -0.002387 0.006502 0.000000 0.000000 0.000000
# 4 0.000000 0.000000 0.000000 0.040522 0.000000 0.000000
# 5 0.000000 0.000000 0.000000 0.000000 0.031789 0.000000
# 6 0.000000 0.000000 0.000000 0.000000 0.000000 0.017626
#
#
# Mechanical properties :
#
#
# Convention : Reuss Voigt Hill
#
# Bulk Modulus (GPa) = 45.42384 53.18542 49.30463
# Shear Modulus (GPa) = 36.73615 42.13020 39.43318
#
# Velocity S-wave (km/s) = 3.66090 3.92046 3.79290
# Velocity P-wave (km/s) = 5.86866 6.31638 6.09663
#
# Compressibility (1/GPa) = 0.02201487
#
# Stress axis : x y z
#
# Youngs Moduli (GPa) = 71.83178 100.01180 153.78830
#
# Poissons Ratio (x) = 0.17471 0.01074
# Poissons Ratio (y) = 0.12548 0.36712
# Poissons Ratio (z) = 0.00502 0.23875
#
# Static dielectric constant tensor:
#      x y z
#    x 4.785400 0.000000 0.000000 
#    y 0.000000 4.799620 0.000000 
#    z 0.000000 0.000000 5.390650 
# 
# 
# High freq. dielectric constant tensor:
#      x y z
#    x 2.103380 0.000000 0.000000 
#    y 0.000000 2.101660 0.000000 
#    z 0.000000 0.000000 2.136820 
# 
# From -- ./inp_files/26001.got.cif
#   From: 2010.03.12/outbox.cif.g09.slc.cpg/sg57_14_cif.got.tgz:26001.got - 2010.04.16 15:48:40.
