data_PCOD8235496
_publ_section_title
;
Structure prediction by ZEFSAII (Michael W. Deem and Ramdas Pophale) SiO2 
 PCOD8235496
Probable space group: P N N M
;
_chemical_formula_sum "Si O2"
_cell_formula_units_Z 64
_cell_length_a 21.602224
_cell_length_b 18.796981
_cell_length_c 8.759705
_cell_angle_alpha 90.000000
_cell_angle_beta 90.000000
_cell_angle_gamma 90.000000
_cell_volume 3556.935977
_symmetry_space_group_name_H-M "P N N M"
_symmetry_group_IT_number 58
_symmetry_cell_setting 'orthorhombic'
loop_
_space_group_symop_operation_xyz
x,y,z
-x,-y,z
1/2+x,1/2-y,1/2-z
1/2-x,1/2+y,1/2-z
-x,-y,-z
x,y,-z
1/2-x,1/2+y,1/2+z
1/2+x,1/2-y,1/2+z
loop_
_atom_site_type_symbol
_atom_site_label
_atom_site_fract_x
_atom_site_fract_y
_atom_site_fract_z
Si Si1 0.266456 0.622203 0.678983
Si Si2 0.351784 0.075247 0.679762
Si Si3 0.115634 0.166899 0.320712
Si Si4 0.189230 0.419278 0.175878
Si Si5 0.018970 0.579709 0.320631
Si Si6 0.907865 0.675713 0.321765
Si Si7 0.431376 0.522660 0.680228
Si Si8 0.685781 0.519738 0.821897
O O1 0.266956 0.637308 0.500000
O O2 0.196946 0.629651 0.743171
O O3 0.313584 0.676046 0.762667
O O4 0.291449 0.544222 0.716677
O O5 0.344000 0.081197 0.500000
O O6 0.419088 0.100121 0.731661
O O7 0.338070 0.994605 0.735818
O O8 0.114833 0.150874 0.500000
O O9 0.082592 0.241537 0.280737
O O10 0.080061 0.103461 0.234907
O O11 0.157327 0.353924 0.260584
O O12 0.264330 0.416632 0.202233
O O13 0.172867 0.410891 0.000000
O O14 0.030460 0.589484 0.500000
O O15 0.000000 0.500000 0.279117
O O16 0.965906 0.631820 0.255420
O O17 0.905237 0.663372 0.500000
O O18 0.500000 0.500000 0.728933
O O19 0.421637 0.518068 0.500000
O O20 0.384232 0.466204 0.762955
O O21 0.685272 0.497261 0.000000
#
# Coordination Sequence:
#
# PCOD8235496 Si02
#       8
#     8   8   8   8   8   8   8   8
#     4  10  18  30  51  75  98 128 165 209 258 304
#     4  10  19  31  49  75 104 134 173 217 259 301
#     4  10  20  35  54  77 105 135 173 216 264 322
#     4   9  18  30  47  73 103 133 169 212 254 302
#     4  10  19  32  50  75 107 142 183 221 257 305
#     4  10  21  34  51  75 104 141 178 215 261 315
#     4  10  20  34  55  82 106 132 173 220 265 318
#     4   9  17  30  49  77 105 129 162 206 255 305
#
# _framework density 17.993013999999999
#
# number of rings (size 3 to 8) (size 9 to 14) (size 15 to 20)
#    0.000    2.250    1.250    4.875    0.000    5.250 
#    0.000    0.000    2.750    0.000    0.000    0.000 
#    0.000    0.000    0.000    0.000    0.000    0.000 
#
# Total GULP energy -793277.148899 kJ/mol
# GULP energy per Si atom -12394.955452 kJ/mol
# Density = 1.795206 g / cm^3
# Si number density = 17.993014 Si / 1000 Ang^3
#
#
#
# Elastic Constant Matrix: (Units=GPa)
#
#
# Indices 1 2 3 4 5 6 
#
# 1 149.9746 48.3002 37.5803 0.0000 0.0000 0.0000
# 2 48.3002 65.3095 26.9534 0.0000 0.0000 0.0000
# 3 37.5803 26.9534 47.9337 0.0000 0.0000 0.0000
# 4 0.0000 0.0000 0.0000 14.8955 0.0000 0.0000
# 5 0.0000 0.0000 0.0000 0.0000 30.8011 0.0000
# 6 0.0000 0.0000 0.0000 0.0000 0.0000 25.1581
#
#
#
# Elastic Compliance Matrix: (Units=1/GPa)
#
#
# Indices 1 2 3 4 5 6 
#
# 1 0.009452 -0.005120 -0.004531 0.000000 0.000000 0.000000
# 2 -0.005120 0.022713 -0.008757 0.000000 0.000000 0.000000
# 3 -0.004531 -0.008757 0.029339 0.000000 0.000000 0.000000
# 4 0.000000 0.000000 0.000000 0.067134 0.000000 0.000000
# 5 0.000000 0.000000 0.000000 0.000000 0.032466 0.000000
# 6 0.000000 0.000000 0.000000 0.000000 0.000000 0.039749
#
#
# Mechanical properties :
#
#
# Convention : Reuss Voigt Hill
#
# Bulk Modulus (GPa) = 40.50850 54.32060 47.41455
# Shear Modulus (GPa) = 20.33352 24.19655 22.26504
#
# Velocity S-wave (km/s) = 3.36531 3.67110 3.52152
# Velocity P-wave (km/s) = 6.13700 6.94440 6.55314
#
# Compressibility (1/GPa) = 0.02468618
#
# Stress axis : x y z
#
# Youngs Moduli (GPa) = 105.79397 44.02845 34.08438
#
# Poissons Ratio (x) = 0.22544 0.15445
# Poissons Ratio (y) = 0.54171 0.29848
# Poissons Ratio (z) = 0.47940 0.38556
#
# Static dielectric constant tensor:
#      x y z
#    x 3.798680 0.000000 0.000000 
#    y 0.000000 3.068710 0.000000 
#    z 0.000000 0.000000 3.278990 
# 
# 
# High freq. dielectric constant tensor:
#      x y z
#    x 1.707330 0.000000 0.000000 
#    y 0.000000 1.651820 0.000000 
#    z 0.000000 0.000000 1.702790 
# 
# From -- ./inp_files/9468.got.cif
#   From: 2010.06.25/outbox.cif.g09.slc.cpg/sg58_5_cif.got.tgz:9468.got - 2010.06.26 21:38:00.
