data_PCOD8235984
_publ_section_title
;
Structure prediction by ZEFSAII (Michael W. Deem and Ramdas Pophale) SiO2 
 PCOD8235984
Probable space group: P N N M
;
_chemical_formula_sum "Si O2"
_cell_formula_units_Z 56
_cell_length_a 18.393709
_cell_length_b 18.514256
_cell_length_c 9.183311
_cell_angle_alpha 90.000000
_cell_angle_beta 90.000000
_cell_angle_gamma 90.000000
_cell_volume 3127.338333
_symmetry_space_group_name_H-M "P N N M"
_symmetry_group_IT_number 58
_symmetry_cell_setting 'orthorhombic'
loop_
_space_group_symop_operation_xyz
x,y,z
-x,-y,z
1/2+x,1/2-y,1/2-z
1/2-x,1/2+y,1/2-z
-x,-y,-z
x,y,-z
1/2-x,1/2+y,1/2+z
1/2+x,1/2-y,1/2+z
loop_
_atom_site_type_symbol
_atom_site_label
_atom_site_fract_x
_atom_site_fract_y
_atom_site_fract_z
Si Si1 0.961986 0.924935 0.169840
Si Si2 0.346167 0.761464 0.839810
Si Si3 0.315767 0.607116 0.829973
Si Si4 0.543317 0.860370 0.172461
Si Si5 0.338976 0.048313 0.332773
Si Si6 0.509470 0.705770 0.160161
Si Si7 0.895387 0.610024 0.168495
O O1 0.882787 0.925708 0.241587
O O2 0.014533 0.861323 0.229862
O O3 0.951999 0.912018 0.000000
O O4 0.000000 0.000000 0.206684
O O5 0.299930 0.691448 0.788035
O O6 0.427977 0.733972 0.848589
O O7 0.341008 0.827645 0.727187
O O8 0.320652 0.788163 0.000000
O O9 0.244811 0.561050 0.791494
O O10 0.336208 0.602647 0.000000
O O11 0.612604 0.903433 0.227580
O O12 0.555943 0.775536 0.212573
O O13 0.471404 0.892482 0.247150
O O14 0.533945 0.870073 0.000000
O O15 0.354762 0.070185 0.500000
O O16 0.354510 0.964715 0.305625
O O17 0.535379 0.679872 0.000000
O O18 0.911871 0.624780 0.000000
#
# Coordination Sequence:
#
# PCOD8235984 Si02
#       7
#     8   8   8   8   8   8   8
#     4  10  20  33  52  79 104 126 162 212 257 296
#     4   8  15  30  51  71  91 120 161 203 242 289
#     4   9  19  36  54  71  96 133 171 204 247 303
#     4  10  20  33  50  74 102 132 169 209 247 292
#     4  10  21  35  50  72 103 136 168 203 248 301
#     4   8  16  31  50  72  96 125 162 198 238 293
#     4  10  19  31  50  75 101 131 168 207 246 292
#
# _framework density 17.906601999999999
#
# number of rings (size 3 to 8) (size 9 to 14) (size 15 to 20)
#    0.000    2.714    0.000    3.429    0.000   10.286 
#    0.000    1.429    0.000    6.857    0.000    0.000 
#    0.000    0.000    0.000    0.000    0.000    0.000 
#
# Total GULP energy -694198.560498 kJ/mol
# GULP energy per Si atom -12396.402866 kJ/mol
# Density = 1.786585 g / cm^3
# Si number density = 17.906602 Si / 1000 Ang^3
#
#
#
# Elastic Constant Matrix: (Units=GPa)
#
#
# Indices 1 2 3 4 5 6 
#
# 1 69.6739 61.1005 52.5448 0.0000 0.0000 0.0000
# 2 61.1005 140.9931 83.1190 0.0000 0.0000 0.0000
# 3 52.5448 83.1190 107.5148 0.0000 0.0000 0.0000
# 4 0.0000 0.0000 0.0000 30.6717 0.0000 0.0000
# 5 0.0000 0.0000 0.0000 0.0000 4.3821 0.0000
# 6 0.0000 0.0000 0.0000 0.0000 0.0000 17.4463
#
#
#
# Elastic Compliance Matrix: (Units=1/GPa)
#
#
# Indices 1 2 3 4 5 6 
#
# 1 0.025955 -0.006927 -0.007330 0.000000 0.000000 0.000000
# 2 -0.006927 0.014881 -0.008119 0.000000 0.000000 0.000000
# 3 -0.007330 -0.008119 0.019160 0.000000 0.000000 0.000000
# 4 0.000000 0.000000 0.000000 0.032603 0.000000 0.000000
# 5 0.000000 0.000000 0.000000 0.000000 0.228200 0.000000
# 6 0.000000 0.000000 0.000000 0.000000 0.000000 0.057319
#
#
# Mechanical properties :
#
#
# Convention : Reuss Voigt Hill
#
# Bulk Modulus (GPa) = 65.59653 79.07895 72.33774
# Shear Modulus (GPa) = 11.68363 18.59451 15.13907
#
# Velocity S-wave (km/s) = 2.55713 3.22594 2.91081
# Velocity P-wave (km/s) = 6.74023 7.62452 7.19597
#
# Compressibility (1/GPa) = 0.01524471
#
# Stress axis : x y z
#
# Youngs Moduli (GPa) = 38.52885 67.20193 52.19252
#
# Poissons Ratio (x) = 0.46548 0.38255
# Poissons Ratio (y) = 0.26687 0.42374
# Poissons Ratio (z) = 0.28240 0.54560
#
# Static dielectric constant tensor:
#      x y z
#    x 3.084370 0.000000 0.000000 
#    y 0.000000 3.772320 0.000000 
#    z 0.000000 0.000000 3.394380 
# 
# 
# High freq. dielectric constant tensor:
#      x y z
#    x 1.656750 0.000000 0.000000 
#    y 0.000000 1.703880 0.000000 
#    z 0.000000 0.000000 1.697530 
# 
# From -- ./inp_files/8188.got.cif
#   From: 2010.06.25/outbox.cif.g09.slc.cpg/sg58_5_cif.got.tgz:8188.got - 2010.06.26 21:38:00.
