data_PCOD8235300
_publ_section_title
;
Structure prediction by ZEFSAII (Michael W. Deem and Ramdas Pophale) SiO2 
 PCOD8235300
Probable space group: P N N M
;
_chemical_formula_sum "Si O2"
_cell_formula_units_Z 56
_cell_length_a 14.954934
_cell_length_b 21.124134
_cell_length_c 8.695505
_cell_angle_alpha 90.000000
_cell_angle_beta 90.000000
_cell_angle_gamma 90.000000
_cell_volume 2746.997243
_symmetry_space_group_name_H-M "P N N M"
_symmetry_group_IT_number 58
_symmetry_cell_setting 'orthorhombic'
loop_
_space_group_symop_operation_xyz
x,y,z
-x,-y,z
1/2+x,1/2-y,1/2-z
1/2-x,1/2+y,1/2-z
-x,-y,-z
x,y,-z
1/2-x,1/2+y,1/2+z
1/2+x,1/2-y,1/2+z
loop_
_atom_site_type_symbol
_atom_site_label
_atom_site_fract_x
_atom_site_fract_y
_atom_site_fract_z
Si Si1 0.330110 0.841714 0.819026
Si Si2 0.995404 0.736149 0.318676
Si Si3 0.573835 0.543675 0.826642
Si Si4 0.428207 0.636124 0.826902
Si Si5 0.759440 0.903325 0.179737
Si Si6 0.729980 0.030891 0.317596
Si Si7 0.302600 0.235624 0.816837
O O1 0.433215 0.823745 0.777905
O O2 0.327721 0.912977 0.754795
O O3 0.256615 0.793477 0.748300
O O4 0.313500 0.841174 0.000000
O O5 0.005656 0.744940 0.500000
O O6 0.935711 0.794307 0.253501
O O7 0.095583 0.735865 0.250026
O O8 0.500000 0.500000 0.741306
O O9 0.531581 0.613399 0.826899
O O10 0.670574 0.544324 0.749280
O O11 0.587827 0.516722 0.000000
O O12 0.363956 0.590500 0.726903
O O13 0.389219 0.636882 0.000000
O O14 0.732109 0.833350 0.237712
O O15 0.702784 0.960143 0.260441
O O16 0.744670 0.911054 0.000000
O O17 0.721680 0.035290 0.500000
O O18 0.300063 0.241279 0.000000
#
# Coordination Sequence:
#
# PCOD8235300 Si02
#       7
#     8   8   8   8   8   8   8
#     4  11  22  38  61  90 120 148 192 250 298 338
#     4   9  19  36  60  84 111 154 200 236 281 354
#     4   9  16  28  51  79 103 140 191 227 262 343
#     4  10  17  32  56  79 107 145 190 231 280 344
#     4  11  22  35  55  85 118 147 188 241 290 336
#     4  11  22  38  59  80 114 159 198 234 289 355
#     4  10  21  40  63  86 116 158 201 236 285 355
#
# _framework density 20.385895999999999
#
# number of rings (size 3 to 8) (size 9 to 14) (size 15 to 20)
#    0.000    1.857    2.857    2.143    0.000    2.857 
#    0.000    6.429    0.000    4.286    0.000    0.000 
#    0.000    0.000    0.000    0.000    0.000    0.000 
#
# Total GULP energy -693795.341529 kJ/mol
# GULP energy per Si atom -12389.202527 kJ/mol
# Density = 2.033950 g / cm^3
# Si number density = 20.385896 Si / 1000 Ang^3
#
#
#
# Elastic Constant Matrix: (Units=GPa)
#
#
# Indices 1 2 3 4 5 6 
#
# 1 66.3295 11.5501 16.1989 0.0000 0.0000 0.0000
# 2 11.5501 114.4582 26.5075 0.0000 0.0000 0.0000
# 3 16.1989 26.5075 51.4454 0.0000 0.0000 0.0000
# 4 0.0000 0.0000 0.0000 32.5888 0.0000 0.0000
# 5 0.0000 0.0000 0.0000 0.0000 18.6437 0.0000
# 6 0.0000 0.0000 0.0000 0.0000 0.0000 26.1658
#
#
#
# Elastic Compliance Matrix: (Units=1/GPa)
#
#
# Indices 1 2 3 4 5 6 
#
# 1 0.016359 -0.000520 -0.004883 0.000000 0.000000 0.000000
# 2 -0.000520 0.009937 -0.004956 0.000000 0.000000 0.000000
# 3 -0.004883 -0.004956 0.023530 0.000000 0.000000 0.000000
# 4 0.000000 0.000000 0.000000 0.030685 0.000000 0.000000
# 5 0.000000 0.000000 0.000000 0.000000 0.053637 0.000000
# 6 0.000000 0.000000 0.000000 0.000000 0.000000 0.038218
#
#
# Mechanical properties :
#
#
# Convention : Reuss Voigt Hill
#
# Bulk Modulus (GPa) = 34.35627 37.86068 36.10848
# Shear Modulus (GPa) = 24.65626 27.34476 26.00051
#
# Velocity S-wave (km/s) = 3.48153 3.66643 3.57517
# Velocity P-wave (km/s) = 5.74899 6.04449 5.89859
#
# Compressibility (1/GPa) = 0.02910677
#
# Stress axis : x y z
#
# Youngs Moduli (GPa) = 61.12699 100.63250 42.49975
#
# Poissons Ratio (x) = 0.05232 0.20754
# Poissons Ratio (y) = 0.03178 0.21065
# Poissons Ratio (z) = 0.29850 0.49878
#
# Static dielectric constant tensor:
#      x y z
#    x 3.753020 0.000000 0.000000 
#    y 0.000000 3.945570 0.000000 
#    z 0.000000 0.000000 3.343350 
# 
# 
# High freq. dielectric constant tensor:
#      x y z
#    x 1.782700 0.000000 0.000000 
#    y 0.000000 1.813000 0.000000 
#    z 0.000000 0.000000 1.759600 
# 
# From -- ./inp_files/6384.got.cif
#   From: 2010.06.25/outbox.cif.g09.slc.cpg/sg58_4_cif.got.tgz:6384.got - 2010.06.26 21:38:00.
