data_PCOD8235596
_publ_section_title
;
Structure prediction by ZEFSAII (Michael W. Deem and Ramdas Pophale) SiO2 
 PCOD8235596
Probable space group: P N N M
;
_chemical_formula_sum "Si O2"
_cell_formula_units_Z 48
_cell_length_a 20.359031
_cell_length_b 14.462886
_cell_length_c 8.787791
_cell_angle_alpha 90.000000
_cell_angle_beta 90.000000
_cell_angle_gamma 90.000000
_cell_volume 2587.568087
_symmetry_space_group_name_H-M "P N N M"
_symmetry_group_IT_number 58
_symmetry_cell_setting 'orthorhombic'
loop_
_space_group_symop_operation_xyz
x,y,z
-x,-y,z
1/2+x,1/2-y,1/2-z
1/2-x,1/2+y,1/2-z
-x,-y,-z
x,y,-z
1/2-x,1/2+y,1/2+z
1/2+x,1/2-y,1/2+z
loop_
_atom_site_type_symbol
_atom_site_label
_atom_site_fract_x
_atom_site_fract_y
_atom_site_fract_z
Si Si1 0.174406 0.166060 0.819779
Si Si2 0.925322 0.325357 0.678136
Si Si3 0.136046 0.484387 0.677226
Si Si4 0.274713 0.487373 0.179273
Si Si5 0.799602 0.219372 0.318925
Si Si6 0.569930 0.206536 0.180618
O O1 0.236140 0.225384 0.756490
O O2 0.107083 0.208338 0.756906
O O3 0.178644 0.061472 0.760484
O O4 0.172557 0.166330 0.000000
O O5 0.926295 0.306638 0.500000
O O6 0.915626 0.434037 0.710759
O O7 0.865657 0.265538 0.749631
O O8 0.995469 0.293783 0.745245
O O9 0.156176 0.483121 0.500000
O O10 0.199827 0.505382 0.776038
O O11 0.103994 0.388953 0.730622
O O12 0.296506 0.386144 0.237090
O O13 0.282943 0.497196 0.000000
O O14 0.799029 0.225717 0.500000
O O15 0.571464 0.217170 0.000000
#
# Coordination Sequence:
#
# PCOD8235596 Si02
#       6
#     8   8   8   8   8   8
#     4  11  21  37  57  78 109 147 181 221 274 326
#     4   9  17  33  55  80 110 145 183 221 268 325
#     4  10  18  31  54  84 114 142 173 220 278 330
#     4  11  21  34  54  83 109 137 183 231 268 317
#     4   9  18  33  55  78 104 141 182 221 264 317
#     4  10  20  33  55  85 112 141 182 227 269 323
#
# _framework density 18.550236000000002
#
# number of rings (size 3 to 8) (size 9 to 14) (size 15 to 20)
#    0.000    2.000    3.333    1.500    0.000    2.000 
#    0.000    1.667    0.000    7.000    0.000    0.000 
#    0.000    0.000    0.000    0.000    0.000    0.000 
#
# Total GULP energy -595255.012584 kJ/mol
# GULP energy per Si atom -12401.146096 kJ/mol
# Density = 1.850801 g / cm^3
# Si number density = 18.550236 Si / 1000 Ang^3
#
#
#
# Elastic Constant Matrix: (Units=GPa)
#
#
# Indices 1 2 3 4 5 6 
#
# 1 80.7169 15.9178 9.3548 0.0000 0.0000 0.0000
# 2 15.9178 86.0873 8.2177 0.0000 0.0000 0.0000
# 3 9.3548 8.2177 25.4880 0.0000 0.0000 0.0000
# 4 0.0000 0.0000 0.0000 23.4706 0.0000 0.0000
# 5 0.0000 0.0000 0.0000 0.0000 23.5321 0.0000
# 6 0.0000 0.0000 0.0000 0.0000 0.0000 33.1039
#
#
#
# Elastic Compliance Matrix: (Units=1/GPa)
#
#
# Indices 1 2 3 4 5 6 
#
# 1 0.013282 -0.002054 -0.004213 0.000000 0.000000 0.000000
# 2 -0.002054 0.012303 -0.003213 0.000000 0.000000 0.000000
# 3 -0.004213 -0.003213 0.041816 0.000000 0.000000 0.000000
# 4 0.000000 0.000000 0.000000 0.042607 0.000000 0.000000
# 5 0.000000 0.000000 0.000000 0.000000 0.042495 0.000000
# 6 0.000000 0.000000 0.000000 0.000000 0.000000 0.030208
#
#
# Mechanical properties :
#
#
# Convention : Reuss Voigt Hill
#
# Bulk Modulus (GPa) = 20.64305 28.80808 24.72557
# Shear Modulus (GPa) = 22.95511 26.60813 24.78162
#
# Velocity S-wave (km/s) = 3.52157 3.79143 3.65899
# Velocity P-wave (km/s) = 5.26190 5.89322 5.58649
#
# Compressibility (1/GPa) = 0.04844245
#
# Stress axis : x y z
#
# Youngs Moduli (GPa) = 75.28855 81.28402 23.91419
#
# Poissons Ratio (x) = 0.16694 0.10074
# Poissons Ratio (y) = 0.15463 0.07683
# Poissons Ratio (z) = 0.31717 0.26114
#
# Static dielectric constant tensor:
#      x y z
#    x 3.608700 0.000000 0.000000 
#    y 0.000000 3.569740 0.000000 
#    z 0.000000 0.000000 3.065900 
# 
# 
# High freq. dielectric constant tensor:
#      x y z
#    x 1.718120 0.000000 0.000000 
#    y 0.000000 1.726670 0.000000 
#    z 0.000000 0.000000 1.685510 
# 
# From -- ./inp_files/5788.got.cif
#   From: 2010.06.25/outbox.cif.g09.slc.cpg/sg58_3_cif.got.tgz:5788.got - 2010.06.26 21:38:00.
