data_PCOD8235004
_publ_section_title
;
Structure prediction by ZEFSAII (Michael W. Deem and Ramdas Pophale) SiO2 
 PCOD8235004
Probable space group: P B C M
;
_chemical_formula_sum "Si O2"
_cell_formula_units_Z 48
_cell_length_a 9.126913
_cell_length_b 10.256515
_cell_length_c 24.453896
_cell_angle_alpha 90.000000
_cell_angle_beta 90.000000
_cell_angle_gamma 90.000000
_cell_volume 2289.137032
_symmetry_space_group_name_H-M "P B C M"
_symmetry_group_IT_number 57
_symmetry_cell_setting 'orthorhombic'
loop_
_space_group_symop_operation_xyz
x,y,z
-x,-y,1/2+z
x,1/2-y,-z
-x,1/2+y,1/2-z
-x,-y,-z
x,y,1/2-z
-x,1/2+y,z
x,1/2-y,1/2+z
loop_
_atom_site_type_symbol
_atom_site_label
_atom_site_fract_x
_atom_site_fract_y
_atom_site_fract_z
Si Si1 0.047603 0.096038 0.353862
Si Si2 0.111366 0.829337 0.310541
Si Si3 0.629488 0.854229 0.815316
Si Si4 0.600295 0.115878 0.517911
Si Si5 0.578773 0.128696 0.853954
Si Si6 0.076173 0.880005 0.972942
O O1 0.219191 0.129014 0.348597
O O2 0.969101 0.130822 0.410265
O O3 0.966981 0.189546 0.310817
O O4 0.026132 0.940987 0.345008
O O5 0.111068 0.886797 0.250000
O O6 0.278323 0.808140 0.327493
O O7 0.651300 0.836534 0.750000
O O8 0.553260 0.727648 0.841496
O O9 0.538932 0.987475 0.827608
O O10 0.521632 0.250000 0.500000
O O11 0.619230 0.111936 0.582653
O O12 0.750812 0.107198 0.483553
O O13 0.500000 0.000000 0.500000
O O14 0.013307 0.750000 0.000000
O O15 0.000000 0.000000 0.000000
#
# Coordination Sequence:
#
# PCOD8235004 Si02
#       6
#     8   8   8   8   8   8
#     4  11  23  40  62  91 125 163 209 261 312 373
#     4  11  22  40  61  88 123 163 205 257 314 373
#     4  11  23  42  64  94 128 165 211 264 318 381
#     4  11  24  42  62  92 127 162 207 260 312 373
#     4  11  23  41  64  91 125 165 205 257 315 373
#     4  11  23  41  63  90 124 164 208 257 310 373
#
# _framework density 20.968599999999999
#
# number of rings (size 3 to 8) (size 9 to 14) (size 15 to 20)
#    0.000    1.000    0.000   10.000    0.000    4.667 
#    0.000    3.333    0.000    0.000    0.000    0.000 
#    0.000    0.000    0.000    0.000    0.000    0.000 
#
# Total GULP energy -595072.015910 kJ/mol
# GULP energy per Si atom -12397.333665 kJ/mol
# Density = 2.092088 g / cm^3
# Si number density = 20.968600 Si / 1000 Ang^3
#
#
#
# Elastic Constant Matrix: (Units=GPa)
#
#
# Indices 1 2 3 4 5 6 
#
# 1 82.3677 61.4797 44.6063 0.0000 0.0000 0.0000
# 2 61.4797 132.6720 29.4027 0.0000 0.0000 0.0000
# 3 44.6063 29.4027 137.4922 0.0000 0.0000 0.0000
# 4 0.0000 0.0000 0.0000 36.0775 0.0000 0.0000
# 5 0.0000 0.0000 0.0000 0.0000 28.5564 0.0000
# 6 0.0000 0.0000 0.0000 0.0000 0.0000 42.0906
#
#
#
# Elastic Compliance Matrix: (Units=1/GPa)
#
#
# Indices 1 2 3 4 5 6 
#
# 1 0.021482 -0.008829 -0.005081 0.000000 0.000000 0.000000
# 2 -0.008829 0.011541 0.000396 0.000000 0.000000 0.000000
# 3 -0.005081 0.000396 0.008837 0.000000 0.000000 0.000000
# 4 0.000000 0.000000 0.000000 0.027718 0.000000 0.000000
# 5 0.000000 0.000000 0.000000 0.000000 0.035018 0.000000
# 6 0.000000 0.000000 0.000000 0.000000 0.000000 0.023758
#
#
# Mechanical properties :
#
#
# Convention : Reuss Voigt Hill
#
# Bulk Modulus (GPa) = 67.42032 69.27881 68.34956
# Shear Modulus (GPa) = 31.18636 35.81445 33.50040
#
# Velocity S-wave (km/s) = 3.86072 4.13728 4.00139
# Velocity P-wave (km/s) = 7.21778 7.47889 7.34950
#
# Compressibility (1/GPa) = 0.01483232
#
# Stress axis : x y z
#
# Youngs Moduli (GPa) = 46.54996 86.64964 113.16108
#
# Poissons Ratio (x) = 0.76500 0.57502
# Poissons Ratio (y) = 0.41097 -0.04484
# Poissons Ratio (z) = 0.23654 -0.03434
#
# Static dielectric constant tensor:
#      x y z
#    x 3.607350 0.000000 0.000000 
#    y 0.000000 4.160750 0.000000 
#    z 0.000000 0.000000 3.557770 
# 
# 
# High freq. dielectric constant tensor:
#      x y z
#    x 1.809230 0.000000 0.000000 
#    y 0.000000 1.843810 0.000000 
#    z 0.000000 0.000000 1.837390 
# 
# From -- ./inp_files/26670.got.cif
#   From: 2010.03.12/outbox.cif.g09.slc.cpg/sg57_14_cif.got.tgz:26670.got - 2010.04.16 15:48:40.
