data_PCOD8235154
_publ_section_title
;
Structure prediction by ZEFSAII (Michael W. Deem and Ramdas Pophale) SiO2 
 PCOD8235154
Probable space group: P B C M
;
_chemical_formula_sum "Si O2"
_cell_formula_units_Z 40
_cell_length_a 11.404362
_cell_length_b 8.855731
_cell_length_c 17.695585
_cell_angle_alpha 90.000000
_cell_angle_beta 90.000000
_cell_angle_gamma 90.000000
_cell_volume 1787.147241
_symmetry_space_group_name_H-M "P B C M"
_symmetry_group_IT_number 57
_symmetry_cell_setting 'orthorhombic'
loop_
_space_group_symop_operation_xyz
x,y,z
-x,-y,1/2+z
x,1/2-y,-z
-x,1/2+y,1/2-z
-x,-y,-z
x,y,1/2-z
-x,1/2+y,z
x,1/2-y,1/2+z
loop_
_atom_site_type_symbol
_atom_site_label
_atom_site_fract_x
_atom_site_fract_y
_atom_site_fract_z
Si Si1 0.389219 0.297784 0.750000
Si Si2 0.205404 0.715960 0.130048
Si Si3 0.942966 0.766564 0.168348
Si Si4 0.765021 0.554631 0.377266
Si Si5 0.359064 0.558261 0.250000
Si Si6 0.129815 0.030323 0.530094
O O1 0.333080 0.357341 0.828977
O O2 0.522095 0.348132 0.750000
O O3 0.384130 0.118351 0.750000
O O4 0.285732 0.603637 0.176919
O O5 0.183960 0.633008 0.050532
O O6 0.081054 0.750343 0.167833
O O7 0.267470 0.878033 0.123423
O O8 0.904951 0.834840 0.250000
O O9 0.890095 0.596123 0.161504
O O10 0.880544 0.864194 0.103370
O O11 0.784181 0.601653 0.466039
O O12 0.000000 0.000000 0.500000
#
# Coordination Sequence:
#
# PCOD8235154 Si02
#       6
#     4   8   8   8   4   8
#     4  12  28  53  76 105 140 195 261 311 375 436
#     4  12  24  41  71 108 148 194 243 298 370 431
#     4  12  24  40  67 110 152 200 242 293 363 445
#     4  12  25  43  71 104 151 197 240 299 365 436
#     4  12  28  51  78 105 142 189 257 323 365 438
#     4  12  25  42  68 110 161 197 237 292 363 444
#
# _framework density 22.382038999999999
#
# number of rings (size 3 to 8) (size 9 to 14) (size 15 to 20)
#    0.000    0.000    6.000    4.200    1.400    1.600 
#    0.000    1.000    0.000    2.400    0.000    0.000 
#    0.000    0.000    0.000    0.000    0.000    0.000 
#
# Total GULP energy -495613.747282 kJ/mol
# GULP energy per Si atom -12390.343682 kJ/mol
# Density = 2.233110 g / cm^3
# Si number density = 22.382039 Si / 1000 Ang^3
#
#
#
# Elastic Constant Matrix: (Units=GPa)
#
#
# Indices 1 2 3 4 5 6 
#
# 1 86.6512 54.3752 43.8377 0.0000 0.0000 0.0000
# 2 54.3752 153.5653 57.9957 0.0000 0.0000 0.0000
# 3 43.8377 57.9957 177.3562 0.0000 0.0000 0.0000
# 4 0.0000 0.0000 0.0000 46.0041 0.0000 0.0000
# 5 0.0000 0.0000 0.0000 0.0000 -4.8746 0.0000
# 6 0.0000 0.0000 0.0000 0.0000 0.0000 32.2485
#
#
#
# Elastic Compliance Matrix: (Units=1/GPa)
#
#
# Indices 1 2 3 4 5 6 
#
# 1 0.015648 -0.004655 -0.002346 0.000000 0.000000 0.000000
# 2 -0.004655 0.008814 -0.001732 0.000000 0.000000 0.000000
# 3 -0.002346 -0.001732 0.006784 0.000000 0.000000 0.000000
# 4 0.000000 0.000000 0.000000 0.021737 0.000000 0.000000
# 5 0.000000 0.000000 0.000000 0.000000 -0.205145 0.000000
# 6 0.000000 0.000000 0.000000 0.000000 0.000000 0.031009
#
#
# Mechanical properties :
#
#
# Convention : Reuss Voigt Hill
#
# Bulk Modulus (GPa) = 72.55696 81.10999 76.83347
# Shear Modulus (GPa) = -50.45734 32.09987 -9.17873
#
# Velocity S-wave (km/s) = -4.75317 3.79117 -2.02727
# Velocity P-wave (km/s) = 1.53765 7.44859 5.37800
#
# Compressibility (1/GPa) = 0.01378228
#
# Stress axis : x y z
#
# Youngs Moduli (GPa) = 63.90478 113.45438 147.39680
#
# Poissons Ratio (x) = 0.52813 0.34574
# Poissons Ratio (y) = 0.29747 0.25524
# Poissons Ratio (z) = 0.14990 0.19646
#
# Static dielectric constant tensor:
#      x y z
#    x 3.802730 0.000000 0.000000 
#    y 0.000000 4.432630 0.000000 
#    z 0.000000 0.000000 4.294280 
# 
# 
# High freq. dielectric constant tensor:
#      x y z
#    x 1.840100 0.000000 0.000000 
#    y 0.000000 1.904570 0.000000 
#    z 0.000000 0.000000 1.899770 
# 
# From -- ./inp_files/21667.got.cif
#   From: 2010.03.12/outbox.cif.g09.slc.cpg/sg57_11_cif.got.tgz:21667.got - 2010.04.16 15:48:40.
