data_PCOD8235833
_publ_section_title
;
Structure prediction by ZEFSAII (Michael W. Deem and Ramdas Pophale) SiO2 
 PCOD8235833
Probable space group: P N N M
;
_chemical_formula_sum "Si O2"
_cell_formula_units_Z 64
_cell_length_a 22.636000
_cell_length_b 17.542529
_cell_length_c 8.696991
_cell_angle_alpha 90.000000
_cell_angle_beta 90.000000
_cell_angle_gamma 90.000000
_cell_volume 3453.511520
_symmetry_space_group_name_H-M "P N N M"
_symmetry_group_IT_number 58
_symmetry_cell_setting 'orthorhombic'
loop_
_space_group_symop_operation_xyz
x,y,z
-x,-y,z
1/2+x,1/2-y,1/2-z
1/2-x,1/2+y,1/2-z
-x,-y,-z
x,y,-z
1/2-x,1/2+y,1/2+z
1/2+x,1/2-y,1/2+z
loop_
_atom_site_type_symbol
_atom_site_label
_atom_site_fract_x
_atom_site_fract_y
_atom_site_fract_z
Si Si1 0.605286 0.789930 0.818808
Si Si2 0.159177 0.565545 0.174607
Si Si3 0.512925 0.263902 0.681407
Si Si4 0.279081 0.916628 0.683230
Si Si5 0.883985 0.677604 0.671457
Si Si6 0.527639 0.579285 0.819059
Si Si7 0.847050 0.131104 0.319893
Si Si8 0.435342 0.980633 0.169104
O O1 0.649263 0.859114 0.775705
O O2 0.539229 0.791464 0.746676
O O3 0.638433 0.715005 0.755799
O O4 0.596199 0.787065 0.000000
O O5 0.208738 0.504996 0.234880
O O6 0.100514 0.515484 0.189916
O O7 0.170724 0.590580 0.000000
O O8 0.510958 0.257371 0.500000
O O9 0.579357 0.241822 0.736585
O O10 0.503137 0.350996 0.732234
O O11 0.283591 0.911779 0.500000
O O12 0.323938 0.852952 0.749329
O O13 0.214132 0.899143 0.752079
O O14 0.868167 0.707782 0.500000
O O15 0.930055 0.609272 0.660945
O O16 0.500000 0.500000 0.761382
O O17 0.597744 0.576044 0.780593
O O18 0.517318 0.592070 0.000000
O O19 0.836835 0.135913 0.500000
O O20 0.500000 0.000000 0.216554
O O21 0.418273 0.015740 0.000000
#
# Coordination Sequence:
#
# PCOD8235833 Si02
#       8
#     8   8   8   8   8   8   8   8
#     4  10  19  33  53  74  99 133 175 217 260 314
#     4  10  19  29  45  70  99 129 164 210 257 303
#     4  11  21  33  52  78 108 137 169 214 265 311
#     4   9  18  34  52  71 101 139 176 212 257 312
#     4  10  19  31  48  72 102 135 171 206 246 299
#     4   9  18  35  59  83 106 134 172 216 264 318
#     4   8  16  33  56  76  97 134 175 212 259 311
#     4   9  17  28  43  63  90 126 163 199 239 287
#
# _framework density 18.531862
#
# number of rings (size 3 to 8) (size 9 to 14) (size 15 to 20)
#    0.000    2.500    0.000    3.750    0.000    2.500 
#    0.000    4.375    0.000    1.500    0.000    0.000 
#    0.000    0.000    0.000    0.000    0.000    0.000 
#
# Total GULP energy -792883.726641 kJ/mol
# GULP energy per Si atom -12388.808229 kJ/mol
# Density = 1.848968 g / cm^3
# Si number density = 18.531862 Si / 1000 Ang^3
#
#
#
# Elastic Constant Matrix: (Units=GPa)
#
#
# Indices 1 2 3 4 5 6 
#
# 1 125.2969 59.9901 30.4003 0.0000 0.0000 0.0000
# 2 59.9901 95.5545 27.2482 0.0000 0.0000 0.0000
# 3 30.4003 27.2482 65.7530 0.0000 0.0000 0.0000
# 4 0.0000 0.0000 0.0000 26.2376 0.0000 0.0000
# 5 0.0000 0.0000 0.0000 0.0000 -0.1871 0.0000
# 6 0.0000 0.0000 0.0000 0.0000 0.0000 28.2223
#
#
#
# Elastic Compliance Matrix: (Units=1/GPa)
#
#
# Indices 1 2 3 4 5 6 
#
# 1 0.011822 -0.006649 -0.002710 0.000000 0.000000 0.000000
# 2 -0.006649 0.015607 -0.003394 0.000000 0.000000 0.000000
# 3 -0.002710 -0.003394 0.017868 0.000000 0.000000 0.000000
# 4 0.000000 0.000000 0.000000 0.038113 0.000000 0.000000
# 5 0.000000 0.000000 0.000000 0.000000 -5.345401 0.000000
# 6 0.000000 0.000000 0.000000 0.000000 0.000000 0.035433
#
#
# Mechanical properties :
#
#
# Convention : Reuss Voigt Hill
#
# Bulk Modulus (GPa) = 50.52778 57.98683 54.25731
# Shear Modulus (GPa) = -0.96257 22.11894 10.57819
#
# Velocity S-wave (km/s) = -0.72148 3.45855 2.39176
# Velocity P-wave (km/s) = 5.16047 6.87801 6.08019
#
# Compressibility (1/GPa) = 0.01979109
#
# Stress axis : x y z
#
# Youngs Moduli (GPa) = 84.58681 64.07240 55.96636
#
# Poissons Ratio (x) = 0.42603 0.15169
# Poissons Ratio (y) = 0.56243 0.18992
# Poissons Ratio (z) = 0.22927 0.21743
#
# Static dielectric constant tensor:
#      x y z
#    x 3.436390 0.000000 0.000000 
#    y 0.000000 3.463570 0.000000 
#    z 0.000000 0.000000 3.305320 
# 
# 
# High freq. dielectric constant tensor:
#      x y z
#    x 1.707570 0.000000 0.000000 
#    y 0.000000 1.711350 0.000000 
#    z 0.000000 0.000000 1.707880 
# 
# From -- ./inp_files/10162.got.cif
#   From: 2010.06.25/outbox.cif.g09.slc.cpg/sg58_6_cif.got.tgz:10162.got - 2010.06.26 21:38:00.
