data_PCOD8235490
_publ_section_title
;
Structure prediction by ZEFSAII (Michael W. Deem and Ramdas Pophale) SiO2 
 PCOD8235490
Probable space group: P N N M
;
_chemical_formula_sum "Si O2"
_cell_formula_units_Z 56
_cell_length_a 9.475011
_cell_length_b 26.997932
_cell_length_c 13.546174
_cell_angle_alpha 90.000000
_cell_angle_beta 90.000000
_cell_angle_gamma 90.000000
_cell_volume 3465.188559
_symmetry_space_group_name_H-M "P N N M"
_symmetry_group_IT_number 58
_symmetry_cell_setting 'orthorhombic'
loop_
_space_group_symop_operation_xyz
x,y,z
-x,-y,z
1/2+x,1/2-y,1/2-z
1/2-x,1/2+y,1/2-z
-x,-y,-z
x,y,-z
1/2-x,1/2+y,1/2+z
1/2+x,1/2-y,1/2+z
loop_
_atom_site_type_symbol
_atom_site_label
_atom_site_fract_x
_atom_site_fract_y
_atom_site_fract_z
Si Si1 0.162709 0.837918 0.386751
Si Si2 0.772544 0.619467 0.291764
Si Si3 0.519213 0.341167 0.287928
Si Si4 0.346492 0.983263 0.115035
Si Si5 0.461194 0.158249 0.111055
Si Si6 0.777454 0.770181 0.113074
Si Si7 0.719235 0.415066 0.610679
O O1 0.137150 0.852908 0.500000
O O2 0.255531 0.879247 0.328407
O O3 0.010652 0.833638 0.330230
O O4 0.254223 0.787882 0.376314
O O5 0.631527 0.645018 0.338641
O O6 0.789860 0.563335 0.324878
O O7 0.902472 0.654109 0.321056
O O8 0.584706 0.289839 0.328676
O O9 0.622863 0.387508 0.308786
O O10 0.500000 0.000000 0.153626
O O11 0.232531 0.026752 0.134340
O O12 0.355008 0.968779 0.000000
O O13 0.361920 0.201877 0.153428
O O14 0.377900 0.106302 0.113856
O O15 0.510949 0.170493 0.000000
O O16 0.799460 0.786550 0.000000
O O17 0.656781 0.406992 0.500000
#
# Coordination Sequence:
#
# PCOD8235490 Si02
#       7
#     8   8   8   8   8   8   8
#     4   9  21  37  52  69 100 142 174 213 257 294
#     4  10  20  29  51  77 101 141 174 213 236 311
#     4   9  20  32  52  78  99 135 172 215 247 305
#     4  10  18  30  50  79 112 140 164 198 259 330
#     4   9  16  28  49  77 106 135 162 198 252 316
#     4   9  18  34  54  75 104 134 163 204 265 312
#     4   9  17  31  50  76 111 138 158 200 264 316
#
# _framework density 16.160737000000001
#
# number of rings (size 3 to 8) (size 9 to 14) (size 15 to 20)
#    0.857    1.857    1.429    1.714    2.000    2.857 
#    0.000    1.429    0.000    7.286    0.000    0.000 
#    0.000    0.000    0.000    0.000    0.000    0.000 
#
# Total GULP energy -693786.222133 kJ/mol
# GULP energy per Si atom -12389.039681 kJ/mol
# Density = 1.612395 g / cm^3
# Si number density = 16.160737 Si / 1000 Ang^3
#
#
#
# Elastic Constant Matrix: (Units=GPa)
#
#
# Indices 1 2 3 4 5 6 
#
# 1 88.6166 25.1680 48.3101 0.0000 0.0000 0.0000
# 2 25.1680 76.6080 39.1725 0.0000 0.0000 0.0000
# 3 48.3101 39.1725 100.7708 0.0000 0.0000 0.0000
# 4 0.0000 0.0000 0.0000 24.2848 0.0000 0.0000
# 5 0.0000 0.0000 0.0000 0.0000 22.2405 0.0000
# 6 0.0000 0.0000 0.0000 0.0000 0.0000 23.7368
#
#
#
# Elastic Compliance Matrix: (Units=1/GPa)
#
#
# Indices 1 2 3 4 5 6 
#
# 1 0.015434 -0.001606 -0.006775 0.000000 0.000000 0.000000
# 2 -0.001606 0.016459 -0.005628 0.000000 0.000000 0.000000
# 3 -0.006775 -0.005628 0.015359 0.000000 0.000000 0.000000
# 4 0.000000 0.000000 0.000000 0.041178 0.000000 0.000000
# 5 0.000000 0.000000 0.000000 0.000000 0.044963 0.000000
# 6 0.000000 0.000000 0.000000 0.000000 0.000000 0.042129
#
#
# Mechanical properties :
#
#
# Convention : Reuss Voigt Hill
#
# Bulk Modulus (GPa) = 51.99126 54.58851 53.28989
# Shear Modulus (GPa) = 23.81504 24.27542 24.04523
#
# Velocity S-wave (km/s) = 3.84296 3.87993 3.86149
# Velocity P-wave (km/s) = 7.20641 7.34327 7.27516
#
# Compressibility (1/GPa) = 0.01923400
#
# Stress axis : x y z
#
# Youngs Moduli (GPa) = 64.79157 60.75704 65.10789
#
# Poissons Ratio (x) = 0.09760 0.44109
# Poissons Ratio (y) = 0.10408 0.36643
# Poissons Ratio (z) = 0.43895 0.34194
#
# Static dielectric constant tensor:
#      x y z
#    x 2.963100 0.000000 0.000000 
#    y 0.000000 2.982180 0.000000 
#    z 0.000000 0.000000 2.839520 
# 
# 
# High freq. dielectric constant tensor:
#      x y z
#    x 1.616340 0.000000 0.000000 
#    y 0.000000 1.620550 0.000000 
#    z 0.000000 0.000000 1.588460 
# 
# From -- ./inp_files/20382.got.cif
#   From: 2010.06.25/outbox.cif.g09.slc.cpg/sg58_11_cif.got.tgz:20382.got - 2010.06.26 21:38:00.
