data_PCOD8235183
_publ_section_title
;
Structure prediction by ZEFSAII (Michael W. Deem and Ramdas Pophale) SiO2 
 PCOD8235183
Probable space group: P B C M
;
_chemical_formula_sum "Si O2"
_cell_formula_units_Z 64
_cell_length_a 24.000000
_cell_length_b 15.000000
_cell_length_c 9.000000
_cell_angle_alpha 90.000000
_cell_angle_beta 90.000000
_cell_angle_gamma 90.000000
_cell_volume 3240.000000
_symmetry_space_group_name_H-M "P B C M"
_symmetry_group_IT_number 57
_symmetry_cell_setting 'orthorhombic'
loop_
_space_group_symop_operation_xyz
x,y,z
-x,-y,1/2+z
x,1/2-y,-z
-x,1/2+y,1/2-z
-x,-y,-z
x,y,1/2-z
-x,1/2+y,z
x,1/2-y,1/2+z
loop_
_atom_site_type_symbol
_atom_site_label
_atom_site_fract_x
_atom_site_fract_y
_atom_site_fract_z
Si Si1 0.130867 0.664571 0.420106
Si Si2 0.059027 0.491021 0.423144
Si Si3 0.559412 0.500411 0.925163
Si Si4 0.246156 0.906551 0.573407
Si Si5 0.365632 0.161916 0.575514
Si Si6 0.869282 0.838569 0.927278
Si Si7 0.636410 0.339141 0.925471
Si Si8 0.758165 0.890774 0.074664
O O1 0.104731 0.750000 0.500000
O O2 0.138843 0.688762 0.250000
O O3 0.088488 0.585012 0.442396
O O4 0.191611 0.642877 0.490330
O O5 0.053341 0.464444 0.250000
O O6 0.096153 0.420527 0.509661
O O7 0.000000 0.500000 0.500000
O O8 0.551453 0.505876 0.750000
O O9 0.596646 0.581740 0.985027
O O10 0.592180 0.412639 0.973621
O O11 0.500000 0.500000 0.000000
O O12 0.247125 0.905149 0.750000
O O13 0.302278 0.862205 0.509802
O O14 0.243047 0.007824 0.521006
O O15 0.389603 0.250000 0.500000
O O16 0.371997 0.169538 0.750000
O O17 0.301226 0.150155 0.531688
O O18 0.873476 0.835545 0.750000
O O19 0.895881 0.750000 0.000000
O O20 0.805079 0.842059 0.978574
O O21 0.639286 0.328592 0.750000
O O22 0.614288 0.250000 0.000000
O O23 0.771764 0.881575 0.250000
#
# Coordination Sequence:
#
# PCOD8235183 Si02
#       8
#     8   8   8   8   8   8   8   8
#     4  10  21  37  61  89 120 156 191 234 292 350
#     4  11  24  44  66  89 121 163 207 255 305 354
#     4  10  22  40  59  80 110 153 197 241 293 346
#     4   9  16  33  60  86 116 154 188 229 291 354
#     4  10  21  37  60  86 115 152 192 237 294 356
#     4  12  25  41  63  93 125 160 202 250 303 363
#     4  10  20  36  59  85 115 151 190 234 288 348
#     4  10  18  36  63  88 120 157 192 239 299 362
#
# _framework density 19.753086
#
# number of rings (size 3 to 8) (size 9 to 14) (size 15 to 20)
#    0.000    1.750    2.500    2.250    0.000    4.500 
#    0.000    4.375    0.000    0.000    0.000    0.000 
#    0.000    0.000    0.000    0.000    0.000    0.000 
#
# Total GULP energy -793648.140548 kJ/mol
# GULP energy per Si atom -12400.752196 kJ/mol
# Density = 1.970813 g / cm^3
# Si number density = 19.753086 Si / 1000 Ang^3
#
#
#
# Elastic Constant Matrix: (Units=GPa)
#
#
# Indices 1 2 3 4 5 6 
#
# 1 127.7000 41.4925 55.3820 0.0000 0.0000 0.0000
# 2 41.4925 127.1161 58.2110 0.0000 0.0000 0.0000
# 3 55.3820 58.2110 77.9454 0.0000 0.0000 0.0000
# 4 0.0000 0.0000 0.0000 31.8912 0.0000 0.0000
# 5 0.0000 0.0000 0.0000 0.0000 29.8576 0.0000
# 6 0.0000 0.0000 0.0000 0.0000 0.0000 30.9077
#
#
#
# Elastic Compliance Matrix: (Units=1/GPa)
#
#
# Indices 1 2 3 4 5 6 
#
# 1 0.011319 -0.000018 -0.008029 0.000000 0.000000 0.000000
# 2 -0.000018 0.011956 -0.008916 0.000000 0.000000 0.000000
# 3 -0.008029 -0.008916 0.025193 0.000000 0.000000 0.000000
# 4 0.000000 0.000000 0.000000 0.031357 0.000000 0.000000
# 5 0.000000 0.000000 0.000000 0.000000 0.033492 0.000000
# 6 0.000000 0.000000 0.000000 0.000000 0.000000 0.032354
#
#
# Mechanical properties :
#
#
# Convention : Reuss Voigt Hill
#
# Bulk Modulus (GPa) = 68.76771 71.43694 70.10232
# Shear Modulus (GPa) = 27.10868 30.37638 28.74253
#
# Velocity S-wave (km/s) = 3.70858 3.92574 3.81870
# Velocity P-wave (km/s) = 7.29570 7.53605 7.41685
#
# Compressibility (1/GPa) = 0.01454171
#
# Stress axis : x y z
#
# Youngs Moduli (GPa) = 88.34950 83.64292 39.69396
#
# Poissons Ratio (x) = 0.00150 0.31870
# Poissons Ratio (y) = 0.00158 0.35391
# Poissons Ratio (z) = 0.70934 0.74575
#
# Static dielectric constant tensor:
#      x y z
#    x 3.726320 0.000000 0.000000 
#    y 0.000000 3.696990 0.000000 
#    z 0.000000 0.000000 3.376750 
# 
# 
# High freq. dielectric constant tensor:
#      x y z
#    x 1.771480 0.000000 0.000000 
#    y 0.000000 1.779460 0.000000 
#    z 0.000000 0.000000 1.748180 
# 
# From -- ./inp_files/9464.got.cif
#   From: 2010.03.12/outbox.ucp.g09.slc.cvg/sg57_5_cif.got.tgz:9464.got - 2010.05.04 19:26:41.
