data_PCOD8235441
_publ_section_title
;
Structure prediction by ZEFSAII (Michael W. Deem and Ramdas Pophale) SiO2 
 PCOD8235441
Probable space group: P N N M
;
_chemical_formula_sum "Si O2"
_cell_formula_units_Z 48
_cell_length_a 18.493991
_cell_length_b 8.974437
_cell_length_c 14.201201
_cell_angle_alpha 90.000000
_cell_angle_beta 90.000000
_cell_angle_gamma 90.000000
_cell_volume 2357.018165
_symmetry_space_group_name_H-M "P N N M"
_symmetry_group_IT_number 58
_symmetry_cell_setting 'orthorhombic'
loop_
_space_group_symop_operation_xyz
x,y,z
-x,-y,z
1/2+x,1/2-y,1/2-z
1/2-x,1/2+y,1/2-z
-x,-y,-z
x,y,-z
1/2-x,1/2+y,1/2+z
1/2+x,1/2-y,1/2+z
loop_
_atom_site_type_symbol
_atom_site_label
_atom_site_fract_x
_atom_site_fract_y
_atom_site_fract_z
Si Si1 0.775946 0.215781 0.606289
Si Si2 0.662784 0.604331 0.712671
Si Si3 0.377684 0.692358 0.608157
Si Si4 0.542983 0.152003 0.892718
Si Si5 0.509339 0.675896 0.278944
Si Si6 0.299004 0.940495 0.109643
O O1 0.802754 0.183259 0.500000
O O2 0.818075 0.103975 0.675686
O O3 0.688631 0.190377 0.613032
O O4 0.794813 0.385216 0.636234
O O5 0.642922 0.440845 0.677803
O O6 0.593231 0.712200 0.694659
O O7 0.735332 0.656568 0.658657
O O8 0.387472 0.637370 0.500000
O O9 0.454189 0.757278 0.647400
O O10 0.506142 0.274724 0.827492
O O11 0.624820 0.126201 0.857814
O O12 0.500000 0.000000 0.882408
O O13 0.540366 0.209749 0.000000
O O14 0.500000 0.500000 0.285081
O O15 0.286738 0.921838 0.000000
#
# Coordination Sequence:
#
# PCOD8235441 Si02
#       6
#     8   8   8   8   8   8
#     4   9  17  31  51  73  98 130 168 213 262 310
#     4  10  18  29  50  75 101 131 170 214 258 306
#     4   9  19  35  53  74 102 137 175 214 259 312
#     4  10  20  35  55  78 106 140 177 217 264 318
#     4  10  21  33  50  79 107 138 174 215 264 311
#     4   9  18  32  51  74  99 131 173 216 257 305
#
# _framework density 20.364713999999999
#
# number of rings (size 3 to 8) (size 9 to 14) (size 15 to 20)
#    0.000    2.500    0.000    3.500    0.000    6.000 
#    0.000    2.500    0.000    8.500    0.000    4.667 
#    0.000    0.000    0.000    0.000    0.000    0.000 
#
# Total GULP energy -594779.772310 kJ/mol
# GULP energy per Si atom -12391.245256 kJ/mol
# Density = 2.031836 g / cm^3
# Si number density = 20.364714 Si / 1000 Ang^3
#
#
#
# Elastic Constant Matrix: (Units=GPa)
#
#
# Indices 1 2 3 4 5 6 
#
# 1 157.3090 15.5959 56.7679 0.0000 0.0000 0.0000
# 2 15.5959 12.8434 24.1779 0.0000 0.0000 0.0000
# 3 56.7679 24.1779 105.6857 0.0000 0.0000 0.0000
# 4 0.0000 0.0000 0.0000 31.4014 0.0000 0.0000
# 5 0.0000 0.0000 0.0000 0.0000 33.1408 0.0000
# 6 0.0000 0.0000 0.0000 0.0000 0.0000 17.7423
#
#
#
# Elastic Compliance Matrix: (Units=1/GPa)
#
#
# Indices 1 2 3 4 5 6 
#
# 1 0.007944 -0.002834 -0.003618 0.000000 0.000000 0.000000
# 2 -0.002834 0.137769 -0.029995 0.000000 0.000000 0.000000
# 3 -0.003618 -0.029995 0.018268 0.000000 0.000000 0.000000
# 4 0.000000 0.000000 0.000000 0.031846 0.000000 0.000000
# 5 0.000000 0.000000 0.000000 0.000000 0.030174 0.000000
# 6 0.000000 0.000000 0.000000 0.000000 0.000000 0.056362
#
#
# Mechanical properties :
#
#
# Convention : Reuss Voigt Hill
#
# Bulk Modulus (GPa) = 10.97881 52.10237 31.54059
# Shear Modulus (GPa) = 12.96611 28.41001 20.68806
#
# Velocity S-wave (km/s) = 2.52602 3.73910 3.19074
# Velocity P-wave (km/s) = 3.72968 6.65442 5.39406
#
# Compressibility (1/GPa) = 0.09108453
#
# Stress axis : x y z
#
# Youngs Moduli (GPa) = 125.88586 7.25851 54.74139
#
# Poissons Ratio (x) = 0.02057 0.19808
# Poissons Ratio (y) = 0.35680 1.64198
# Poissons Ratio (z) = 0.45551 0.21772
#
# Static dielectric constant tensor:
#      x y z
#    x 4.858310 0.000000 0.000000 
#    y 0.000000 3.102720 0.000000 
#    z 0.000000 0.000000 3.775880 
# 
# 
# High freq. dielectric constant tensor:
#      x y z
#    x 1.828480 0.000000 0.000000 
#    y 0.000000 1.727520 0.000000 
#    z 0.000000 0.000000 1.799130 
# 
# From -- ./inp_files/16362.got.cif
#   From: 2010.06.25/outbox.cif.g09.slc.cpg/sg58_9_cif.got.tgz:16362.got - 2010.06.26 21:38:00.
