data_PCOD8235445
_publ_section_title
;
Structure prediction by ZEFSAII (Michael W. Deem and Ramdas Pophale) SiO2 
 PCOD8235445
Probable space group: P N N M
;
_chemical_formula_sum "Si O2"
_cell_formula_units_Z 64
_cell_length_a 22.012839
_cell_length_b 16.579879
_cell_length_c 9.294640
_cell_angle_alpha 90.000000
_cell_angle_beta 90.000000
_cell_angle_gamma 90.000000
_cell_volume 3392.266685
_symmetry_space_group_name_H-M "P N N M"
_symmetry_group_IT_number 58
_symmetry_cell_setting 'orthorhombic'
loop_
_space_group_symop_operation_xyz
x,y,z
-x,-y,z
1/2+x,1/2-y,1/2-z
1/2-x,1/2+y,1/2-z
-x,-y,-z
x,y,-z
1/2-x,1/2+y,1/2+z
1/2+x,1/2-y,1/2+z
loop_
_atom_site_type_symbol
_atom_site_label
_atom_site_fract_x
_atom_site_fract_y
_atom_site_fract_z
Si Si1 0.825393 0.091238 0.165503
Si Si2 0.372013 0.578229 0.661510
Si Si3 0.714837 0.318879 0.838520
Si Si4 0.883323 0.683785 0.663713
Si Si5 0.324544 0.143892 0.164612
Si Si6 0.307894 0.964094 0.170516
Si Si7 0.528508 0.295094 0.331728
Si Si8 0.904627 0.212629 0.333878
O O1 0.759484 0.061360 0.223133
O O2 0.849194 0.161372 0.268501
O O3 0.874793 0.018355 0.174766
O O4 0.820756 0.122005 0.000000
O O5 0.352344 0.603343 0.500000
O O6 0.320431 0.606707 0.769381
O O7 0.435989 0.620995 0.698178
O O8 0.676594 0.237800 0.831215
O O9 0.776539 0.303319 0.753279
O O10 0.730711 0.343589 0.000000
O O11 0.908692 0.679372 0.500000
O O12 0.860781 0.597154 0.723235
O O13 0.935484 0.718944 0.766000
O O14 0.388196 0.191947 0.178333
O O15 0.327379 0.052795 0.227465
O O16 0.302806 0.140737 0.000000
O O17 0.307146 0.962634 0.000000
O O18 0.518658 0.279108 0.500000
O O19 0.464621 0.305166 0.255301
O O20 0.914436 0.188070 0.500000
#
# Coordination Sequence:
#
# PCOD8235445 Si02
#       8
#     8   8   8   8   8   8   8   8
#     4  10  19  35  59  83 112 143 179 221 268 328
#     4   9  18  34  57  81 107 145 183 219 262 323
#     4  10  18  29  51  82 112 138 169 217 274 322
#     4   9  18  33  55  81 106 136 177 223 270 317
#     4  10  20  36  55  76 107 147 185 219 265 328
#     4   9  17  33  58  83 107 139 179 220 263 322
#     4  10  21  38  58  78 105 144 190 227 266 321
#     4  11  24  38  54  78 110 146 184 230 275 318
#
# _framework density 18.866440999999998
#
# number of rings (size 3 to 8) (size 9 to 14) (size 15 to 20)
#    0.000    2.250    1.250    1.875    0.000    4.000 
#    0.000    4.375    0.000    3.750    0.000    0.000 
#    0.000    0.000    0.000    0.000    0.000    0.000 
#
# Total GULP energy -793430.533084 kJ/mol
# GULP energy per Si atom -12397.352079 kJ/mol
# Density = 1.882350 g / cm^3
# Si number density = 18.866441 Si / 1000 Ang^3
#
#
#
# Elastic Constant Matrix: (Units=GPa)
#
#
# Indices 1 2 3 4 5 6 
#
# 1 59.3516 35.8368 28.7112 0.0000 0.0000 0.0000
# 2 35.8368 91.4381 32.2419 0.0000 0.0000 0.0000
# 3 28.7112 32.2419 85.7341 0.0000 0.0000 0.0000
# 4 0.0000 0.0000 0.0000 21.4468 0.0000 0.0000
# 5 0.0000 0.0000 0.0000 0.0000 29.3460 0.0000
# 6 0.0000 0.0000 0.0000 0.0000 0.0000 21.7449
#
#
#
# Elastic Compliance Matrix: (Units=1/GPa)
#
#
# Indices 1 2 3 4 5 6 
#
# 1 0.023905 -0.007547 -0.005167 0.000000 0.000000 0.000000
# 2 -0.007547 0.014991 -0.003110 0.000000 0.000000 0.000000
# 3 -0.005167 -0.003110 0.014564 0.000000 0.000000 0.000000
# 4 0.000000 0.000000 0.000000 0.046627 0.000000 0.000000
# 5 0.000000 0.000000 0.000000 0.000000 0.034076 0.000000
# 6 0.000000 0.000000 0.000000 0.000000 0.000000 0.045988
#
#
# Mechanical properties :
#
#
# Convention : Reuss Voigt Hill
#
# Bulk Modulus (GPa) = 45.84812 47.78929 46.81871
# Shear Modulus (GPa) = 22.82363 23.82312 23.32338
#
# Velocity S-wave (km/s) = 3.48192 3.55734 3.51983
# Velocity P-wave (km/s) = 6.36547 6.50063 6.43340
#
# Compressibility (1/GPa) = 0.02181114
#
# Stress axis : x y z
#
# Youngs Moduli (GPa) = 41.83160 66.70708 68.66187
#
# Poissons Ratio (x) = 0.50344 0.35480
# Poissons Ratio (y) = 0.31570 0.21355
# Poissons Ratio (z) = 0.21616 0.20747
#
# Static dielectric constant tensor:
#      x y z
#    x 3.291320 0.000000 0.000000 
#    y 0.000000 3.642200 0.000000 
#    z 0.000000 0.000000 3.450200 
# 
# 
# High freq. dielectric constant tensor:
#      x y z
#    x 1.716900 0.000000 0.000000 
#    y 0.000000 1.734010 0.000000 
#    z 0.000000 0.000000 1.722510 
# 
# From -- ./inp_files/9255.got.cif
#   From: 2010.06.25/outbox.cif.g09.slc.cpg/sg58_5_cif.got.tgz:9255.got - 2010.06.26 21:38:00.
