data_PCOD8235006
_publ_section_title
;
Structure prediction by ZEFSAII (Michael W. Deem and Ramdas Pophale) SiO2 
 PCOD8235006
Probable space group: P B C M
;
_chemical_formula_sum "Si O2"
_cell_formula_units_Z 40
_cell_length_a 25.152411
_cell_length_b 9.214729
_cell_length_c 8.405690
_cell_angle_alpha 90.000000
_cell_angle_beta 90.000000
_cell_angle_gamma 90.000000
_cell_volume 1948.209055
_symmetry_space_group_name_H-M "P B C M"
_symmetry_group_IT_number 57
_symmetry_cell_setting 'orthorhombic'
loop_
_space_group_symop_operation_xyz
x,y,z
-x,-y,1/2+z
x,1/2-y,-z
-x,1/2+y,1/2-z
-x,-y,-z
x,y,1/2-z
-x,1/2+y,z
x,1/2-y,1/2+z
loop_
_atom_site_type_symbol
_atom_site_label
_atom_site_fract_x
_atom_site_fract_y
_atom_site_fract_z
Si Si1 0.260523 0.407841 0.562889
Si Si2 0.450679 0.088947 0.063872
Si Si3 0.144375 0.095977 0.937785
Si Si4 0.950183 0.410977 0.439206
Si Si5 0.353418 0.910927 0.563623
O O1 0.277757 0.250000 0.500000
O O2 0.270104 0.414641 0.750000
O O3 0.199514 0.441096 0.523316
O O4 0.294857 0.531621 0.477934
O O5 0.455237 0.095094 0.250000
O O6 0.452964 0.250000 0.000000
O O7 0.500000 0.000000 0.000000
O O8 0.395545 0.016363 0.016677
O O9 0.153625 0.103924 0.750000
O O10 0.122042 0.250000 0.000000
O O11 0.103217 0.971565 0.982171
O O12 0.958334 0.250000 0.500000
O O13 0.946200 0.418008 0.250000
O O14 0.000000 0.500000 0.500000
O O15 0.361198 0.750000 0.500000
O O16 0.362841 0.910905 0.750000
#
# Coordination Sequence:
#
# PCOD8235006 Si02
#       5
#     8   8   8   8   8
#     4  11  22  40  64  93 125 164 207 254 306 365
#     4  12  25  44  67  95 127 165 207 255 308 367
#     4  11  22  40  64  93 125 163 205 253 306 365
#     4  12  25  43  64  91 123 161 204 253 306 365
#     4  12  25  43  64  92 126 165 208 257 309 366
#
# _framework density 20.531676000000001
#
# number of rings (size 3 to 8) (size 9 to 14) (size 15 to 20)
#    0.000    0.400    0.000   12.000    0.000    0.800 
#    0.000    4.000    0.000    0.000    0.000    0.000 
#    0.000    0.000    0.000    0.000    0.000    0.000 
#
# Total GULP energy -496322.440672 kJ/mol
# GULP energy per Si atom -12408.061017 kJ/mol
# Density = 2.048494 g / cm^3
# Si number density = 20.531676 Si / 1000 Ang^3
#
#
#
# Elastic Constant Matrix: (Units=GPa)
#
#
# Indices 1 2 3 4 5 6 
#
# 1 99.5376 69.2315 22.3231 0.0000 0.0000 0.0000
# 2 69.2315 165.6251 46.5185 0.0000 0.0000 0.0000
# 3 22.3231 46.5185 141.1350 0.0000 0.0000 0.0000
# 4 0.0000 0.0000 0.0000 41.3496 0.0000 0.0000
# 5 0.0000 0.0000 0.0000 0.0000 42.2641 0.0000
# 6 0.0000 0.0000 0.0000 0.0000 0.0000 63.3540
#
#
#
# Elastic Compliance Matrix: (Units=1/GPa)
#
#
# Indices 1 2 3 4 5 6 
#
# 1 0.014178 -0.005837 -0.000319 0.000000 0.000000 0.000000
# 2 -0.005837 0.009057 -0.002062 0.000000 0.000000 0.000000
# 3 -0.000319 -0.002062 0.007815 0.000000 0.000000 0.000000
# 4 0.000000 0.000000 0.000000 0.024184 0.000000 0.000000
# 5 0.000000 0.000000 0.000000 0.000000 0.023661 0.000000
# 6 0.000000 0.000000 0.000000 0.000000 0.000000 0.015784
#
#
# Mechanical properties :
#
#
# Convention : Reuss Voigt Hill
#
# Bulk Modulus (GPa) = 68.42267 75.82710 72.12489
# Shear Modulus (GPa) = 43.10905 47.27517 45.19211
#
# Velocity S-wave (km/s) = 4.58715 4.80369 4.69667
# Velocity P-wave (km/s) = 7.83924 8.23281 8.03844
#
# Compressibility (1/GPa) = 0.01461504
#
# Stress axis : x y z
#
# Youngs Moduli (GPa) = 70.53406 110.41653 127.95217
#
# Poissons Ratio (x) = 0.64447 0.04077
# Poissons Ratio (y) = 0.41169 0.26382
# Poissons Ratio (z) = 0.02247 0.22767
#
# Static dielectric constant tensor:
#      x y z
#    x 3.879340 0.000000 0.000000 
#    y 0.000000 3.936040 0.000000 
#    z 0.000000 0.000000 4.033900 
# 
# 
# High freq. dielectric constant tensor:
#      x y z
#    x 1.818770 0.000000 0.000000 
#    y 0.000000 1.813550 0.000000 
#    z 0.000000 0.000000 1.831380 
# 
# From -- ./inp_files/8901.got.cif
#   From: 2010.03.12/outbox.cif.g09.slc.cpg/sg57_5_cif.got.tgz:8901.got - 2010.04.16 15:48:40.
