data_PCOD8235739
_publ_section_title
;
Structure prediction by ZEFSAII (Michael W. Deem and Ramdas Pophale) SiO2 
 PCOD8235739
Probable space group: P N N M
;
_chemical_formula_sum "Si O2"
_cell_formula_units_Z 64
_cell_length_a 20.692274
_cell_length_b 19.570611
_cell_length_c 9.085579
_cell_angle_alpha 90.000000
_cell_angle_beta 90.000000
_cell_angle_gamma 90.000000
_cell_volume 3679.300116
_symmetry_space_group_name_H-M "P N N M"
_symmetry_group_IT_number 58
_symmetry_cell_setting 'orthorhombic'
loop_
_space_group_symop_operation_xyz
x,y,z
-x,-y,z
1/2+x,1/2-y,1/2-z
1/2-x,1/2+y,1/2-z
-x,-y,-z
x,y,-z
1/2-x,1/2+y,1/2+z
1/2+x,1/2-y,1/2+z
loop_
_atom_site_type_symbol
_atom_site_label
_atom_site_fract_x
_atom_site_fract_y
_atom_site_fract_z
Si Si1 0.576369 0.199890 0.171996
Si Si2 0.687606 0.707409 0.826897
Si Si3 0.228870 0.075392 0.169725
Si Si4 0.801952 0.789057 0.674226
Si Si5 0.880667 0.431532 0.330047
Si Si6 0.379221 0.932539 0.328444
Si Si7 0.933290 0.290178 0.327136
Si Si8 0.769923 0.059606 0.330383
O O1 0.630959 0.253242 0.219907
O O2 0.582147 0.129103 0.256851
O O3 0.506252 0.231799 0.213701
O O4 0.580976 0.183099 0.000000
O O5 0.743516 0.745986 0.740333
O O6 0.618323 0.734648 0.768500
O O7 0.688395 0.626716 0.793040
O O8 0.699037 0.721265 0.000000
O O9 0.194225 0.135440 0.259015
O O10 0.305093 0.082523 0.193314
O O11 0.204165 0.002703 0.231802
O O12 0.209039 0.080724 0.000000
O O13 0.793212 0.793623 0.500000
O O14 0.896655 0.445758 0.500000
O O15 0.904778 0.496509 0.238311
O O16 0.917767 0.365731 0.264789
O O17 0.393285 0.932788 0.500000
O O18 0.303889 0.922797 0.291270
O O19 0.923305 0.294963 0.500000
O O20 0.776543 0.037893 0.500000
#
# Coordination Sequence:
#
# PCOD8235739 Si02
#       8
#     8   8   8   8   8   8   8   8
#     4  10  21  35  51  73 102 137 173 209 250 300
#     4  10  18  34  57  78 100 132 173 213 255 300
#     4  10  19  32  53  77 102 133 171 210 254 304
#     4  11  21  32  51  78 106 133 167 212 257 301
#     4   9  17  31  51  72  98 134 174 210 245 295
#     4  10  19  31  48  72 105 138 169 207 251 300
#     4   9  18  34  54  74  98 133 176 213 247 295
#     4   9  18  31  51  78 105 130 163 212 261 301
#
# _framework density 17.394611999999999
#
# number of rings (size 3 to 8) (size 9 to 14) (size 15 to 20)
#    0.000    2.250    2.500    1.125    0.000    2.500 
#    0.000    3.750    0.000    0.750    0.000    5.250 
#    0.000    0.000    0.000    0.000    0.000    0.000 
#
# Total GULP energy -793635.130869 kJ/mol
# GULP energy per Si atom -12400.548920 kJ/mol
# Density = 1.735502 g / cm^3
# Si number density = 17.394612 Si / 1000 Ang^3
#
#
#
# Elastic Constant Matrix: (Units=GPa)
#
#
# Indices 1 2 3 4 5 6 
#
# 1 99.7587 64.8264 35.9407 0.0000 0.0000 0.0000
# 2 64.8264 122.9230 44.5161 0.0000 0.0000 0.0000
# 3 35.9407 44.5161 52.9250 0.0000 0.0000 0.0000
# 4 0.0000 0.0000 0.0000 30.4219 0.0000 0.0000
# 5 0.0000 0.0000 0.0000 0.0000 17.4818 0.0000
# 6 0.0000 0.0000 0.0000 0.0000 0.0000 24.4578
#
#
#
# Elastic Compliance Matrix: (Units=1/GPa)
#
#
# Indices 1 2 3 4 5 6 
#
# 1 0.016300 -0.006597 -0.005520 0.000000 0.000000 0.000000
# 2 -0.006597 0.014369 -0.007606 0.000000 0.000000 0.000000
# 3 -0.005520 -0.007606 0.029041 0.000000 0.000000 0.000000
# 4 0.000000 0.000000 0.000000 0.032871 0.000000 0.000000
# 5 0.000000 0.000000 0.000000 0.000000 0.057202 0.000000
# 6 0.000000 0.000000 0.000000 0.000000 0.000000 0.040887
#
#
# Mechanical properties :
#
#
# Convention : Reuss Voigt Hill
#
# Bulk Modulus (GPa) = 49.35031 62.90812 56.12922
# Shear Modulus (GPa) = 21.10861 23.16053 22.13457
#
# Velocity S-wave (km/s) = 3.48733 3.65290 3.57108
# Velocity P-wave (km/s) = 6.68191 7.35088 7.02436
#
# Compressibility (1/GPa) = 0.02026330
#
# Stress axis : x y z
#
# Youngs Moduli (GPa) = 61.34978 69.59570 34.43443
#
# Poissons Ratio (x) = 0.45913 0.19008
# Poissons Ratio (y) = 0.40473 0.26190
# Poissons Ratio (z) = 0.33866 0.52933
#
# Static dielectric constant tensor:
#      x y z
#    x 3.178190 0.000000 0.000000 
#    y 0.000000 3.372090 0.000000 
#    z 0.000000 0.000000 3.162420 
# 
# 
# High freq. dielectric constant tensor:
#      x y z
#    x 1.648430 0.000000 0.000000 
#    y 0.000000 1.677050 0.000000 
#    z 0.000000 0.000000 1.663520 
# 
# From -- ./inp_files/8312.got.cif
#   From: 2010.06.25/outbox.cif.g09.slc.cpg/sg58_5_cif.got.tgz:8312.got - 2010.06.26 21:38:00.
