data_PCOD8235676
_publ_section_title
;
Structure prediction by ZEFSAII (Michael W. Deem and Ramdas Pophale) SiO2 
 PCOD8235676
Probable space group: P N N M
;
_chemical_formula_sum "Si O2"
_cell_formula_units_Z 64
_cell_length_a 23.831657
_cell_length_b 15.482232
_cell_length_c 9.019262
_cell_angle_alpha 90.000000
_cell_angle_beta 90.000000
_cell_angle_gamma 90.000000
_cell_volume 3327.812231
_symmetry_space_group_name_H-M "P N N M"
_symmetry_group_IT_number 58
_symmetry_cell_setting 'orthorhombic'
loop_
_space_group_symop_operation_xyz
x,y,z
-x,-y,z
1/2+x,1/2-y,1/2-z
1/2-x,1/2+y,1/2-z
-x,-y,-z
x,y,-z
1/2-x,1/2+y,1/2+z
1/2+x,1/2-y,1/2+z
loop_
_atom_site_type_symbol
_atom_site_label
_atom_site_fract_x
_atom_site_fract_y
_atom_site_fract_z
Si Si1 0.499797 0.173466 0.169846
Si Si2 0.504233 0.349913 0.671061
Si Si3 0.115971 0.090931 0.675759
Si Si4 0.191437 0.249760 0.676230
Si Si5 0.382640 0.417285 0.671071
Si Si6 0.618885 0.904427 0.830292
Si Si7 0.384252 0.904100 0.823841
Si Si8 0.681932 0.751584 0.324078
O O1 0.488210 0.255388 0.272309
O O2 0.447641 0.109313 0.182347
O O3 0.554220 0.123884 0.231504
O O4 0.509090 0.204523 0.000000
O O5 0.522521 0.345525 0.500000
O O6 0.553948 0.390686 0.765313
O O7 0.449410 0.408930 0.690887
O O8 0.113711 0.087102 0.500000
O O9 0.158193 0.165331 0.732558
O O10 0.138525 0.000018 0.737625
O O11 0.191183 0.251387 0.500000
O O12 0.160915 0.335600 0.738069
O O13 0.254636 0.249565 0.737664
O O14 0.366611 0.431269 0.500000
O O15 0.350748 0.333004 0.734783
O O16 0.652666 0.837502 0.732362
O O17 0.631281 0.000245 0.766359
O O18 0.638701 0.894512 0.000000
O O19 0.384631 0.906330 0.000000
O O20 0.680279 0.753771 0.500000
#
# Coordination Sequence:
#
# PCOD8235676 Si02
#       8
#     8   8   8   8   8   8   8   8
#     4  10  18  32  56  84 113 143 178 223 276 329
#     4  11  21  35  56  83 114 148 183 222 276 338
#     4  11  22  37  59  86 111 144 186 232 280 325
#     4   9  19  36  58  80 106 146 191 227 269 327
#     4  10  22  38  56  81 113 150 184 222 276 336
#     4  10  20  33  57  88 112 139 179 230 278 322
#     4   9  17  33  56  83 112 141 178 223 272 327
#     4  10  21  39  58  76 108 152 189 224 272 327
#
# _framework density 19.231854999999999
#
# number of rings (size 3 to 8) (size 9 to 14) (size 15 to 20)
#    0.000    2.000    2.500    1.500    0.000    5.500 
#    0.000    3.125    0.000    1.500    0.000    0.000 
#    0.000    0.000    0.000    0.000    0.000    0.000 
#
# Total GULP energy -793712.033542 kJ/mol
# GULP energy per Si atom -12401.750524 kJ/mol
# Density = 1.918808 g / cm^3
# Si number density = 19.231855 Si / 1000 Ang^3
#
#
#
# Elastic Constant Matrix: (Units=GPa)
#
#
# Indices 1 2 3 4 5 6 
#
# 1 121.8475 55.9670 23.0227 0.0000 0.0000 0.0000
# 2 55.9670 161.9547 35.5191 0.0000 0.0000 0.0000
# 3 23.0227 35.5191 39.8281 0.0000 0.0000 0.0000
# 4 0.0000 0.0000 0.0000 23.8124 0.0000 0.0000
# 5 0.0000 0.0000 0.0000 0.0000 18.9499 0.0000
# 6 0.0000 0.0000 0.0000 0.0000 0.0000 14.4612
#
#
#
# Elastic Compliance Matrix: (Units=1/GPa)
#
#
# Indices 1 2 3 4 5 6 
#
# 1 0.010111 -0.002750 -0.003392 0.000000 0.000000 0.000000
# 2 -0.002750 0.008424 -0.005923 0.000000 0.000000 0.000000
# 3 -0.003392 -0.005923 0.032351 0.000000 0.000000 0.000000
# 4 0.000000 0.000000 0.000000 0.041995 0.000000 0.000000
# 5 0.000000 0.000000 0.000000 0.000000 0.052771 0.000000
# 6 0.000000 0.000000 0.000000 0.000000 0.000000 0.069150
#
#
# Mechanical properties :
#
#
# Convention : Reuss Voigt Hill
#
# Bulk Modulus (GPa) = 37.37540 61.40533 49.39037
# Shear Modulus (GPa) = 20.17346 25.38614 22.77980
#
# Velocity S-wave (km/s) = 3.24228 3.63713 3.44537
# Velocity P-wave (km/s) = 5.78730 7.04532 6.44707
#
# Compressibility (1/GPa) = 0.02675557
#
# Stress axis : x y z
#
# Youngs Moduli (GPa) = 98.90101 118.70989 30.91128
#
# Poissons Ratio (x) = 0.32647 0.10485
# Poissons Ratio (y) = 0.27200 0.18308
# Poissons Ratio (z) = 0.33548 0.70309
#
# Static dielectric constant tensor:
#      x y z
#    x 3.638520 0.000000 0.000000 
#    y 0.000000 3.733640 0.000000 
#    z 0.000000 0.000000 3.233280 
# 
# 
# High freq. dielectric constant tensor:
#      x y z
#    x 1.748210 0.000000 0.000000 
#    y 0.000000 1.763310 0.000000 
#    z 0.000000 0.000000 1.715080 
# 
# From -- ./inp_files/6874.got.cif
#   From: 2010.06.25/outbox.cif.g09.slc.cpg/sg58_4_cif.got.tgz:6874.got - 2010.06.26 21:38:00.
