data_PCOD8235793
_publ_section_title
;
Structure prediction by ZEFSAII (Michael W. Deem and Ramdas Pophale) SiO2 
 PCOD8235793
Probable space group: P N N M
;
_chemical_formula_sum "Si O2"
_cell_formula_units_Z 40
_cell_length_a 10.247777
_cell_length_b 8.342884
_cell_length_c 24.157505
_cell_angle_alpha 90.000000
_cell_angle_beta 90.000000
_cell_angle_gamma 90.000000
_cell_volume 2065.370404
_symmetry_space_group_name_H-M "P N N M"
_symmetry_group_IT_number 58
_symmetry_cell_setting 'orthorhombic'
loop_
_space_group_symop_operation_xyz
x,y,z
-x,-y,z
1/2+x,1/2-y,1/2-z
1/2-x,1/2+y,1/2-z
-x,-y,-z
x,y,-z
1/2-x,1/2+y,1/2+z
1/2+x,1/2-y,1/2+z
loop_
_atom_site_type_symbol
_atom_site_label
_atom_site_fract_x
_atom_site_fract_y
_atom_site_fract_z
Si Si1 0.528238 0.318568 0.842596
Si Si2 0.857311 0.928437 0.938244
Si Si3 0.604283 0.131959 0.938361
Si Si4 0.251293 0.698811 0.328826
Si Si5 0.139841 0.419882 0.739124
O O1 0.500000 0.500000 0.827210
O O2 0.596830 0.293703 0.902026
O O3 0.395353 0.222081 0.847416
O O4 0.622245 0.239826 0.797267
O O5 0.836968 0.813537 0.885131
O O6 0.751043 0.068602 0.933785
O O7 0.842838 0.846089 0.000000
O O8 0.000000 0.000000 0.932530
O O9 0.500000 0.000000 0.916576
O O10 0.566306 0.182834 0.000000
O O11 0.245438 0.537935 0.290353
O O12 0.301933 0.855953 0.296777
O O13 0.000000 0.500000 0.751168
#
# Coordination Sequence:
#
# PCOD8235793 Si02
#       5
#     8   8   8   8   8
#     4  11  21  36  57  87 120 152 200 251 295 360
#     4  10  21  37  62  90 116 155 205 246 299 365
#     4  10  18  36  63  85 113 154 198 247 297 354
#     4  11  21  39  61  86 120 157 198 251 300 362
#     4  10  22  38  57  87 120 157 201 244 307 370
#
# _framework density 19.366986000000001
#
# number of rings (size 3 to 8) (size 9 to 14) (size 15 to 20)
#    0.000    1.600    4.000    1.800    0.000    4.400 
#    3.600    0.000    0.000    0.600    0.000    0.000 
#    0.000    0.000    0.000    0.000    0.000    0.000 
#
# Total GULP energy -495702.130147 kJ/mol
# GULP energy per Si atom -12392.553254 kJ/mol
# Density = 1.932291 g / cm^3
# Si number density = 19.366986 Si / 1000 Ang^3
#
#
#
# Elastic Constant Matrix: (Units=GPa)
#
#
# Indices 1 2 3 4 5 6 
#
# 1 80.7235 9.1296 30.8599 0.0000 0.0000 0.0000
# 2 9.1296 80.0226 42.2653 0.0000 0.0000 0.0000
# 3 30.8599 42.2653 138.8788 0.0000 0.0000 0.0000
# 4 0.0000 0.0000 0.0000 59.9582 0.0000 0.0000
# 5 0.0000 0.0000 0.0000 0.0000 31.3601 0.0000
# 6 0.0000 0.0000 0.0000 0.0000 0.0000 21.2771
#
#
#
# Elastic Compliance Matrix: (Units=1/GPa)
#
#
# Indices 1 2 3 4 5 6 
#
# 1 0.013538 0.000053 -0.003024 0.000000 0.000000 0.000000
# 2 0.000053 0.014890 -0.004543 0.000000 0.000000 0.000000
# 3 -0.003024 -0.004543 0.009255 0.000000 0.000000 0.000000
# 4 0.000000 0.000000 0.000000 0.016678 0.000000 0.000000
# 5 0.000000 0.000000 0.000000 0.000000 0.031888 0.000000
# 6 0.000000 0.000000 0.000000 0.000000 0.000000 0.046999
#
#
# Mechanical properties :
#
#
# Convention : Reuss Voigt Hill
#
# Bulk Modulus (GPa) = 44.14260 51.57050 47.85655
# Shear Modulus (GPa) = 32.08644 37.01042 34.54843
#
# Velocity S-wave (km/s) = 4.07475 4.37625 4.22819
# Velocity P-wave (km/s) = 6.70673 7.22643 6.97142
#
# Compressibility (1/GPa) = 0.02265385
#
# Stress axis : x y z
#
# Youngs Moduli (GPa) = 73.86514 67.15901 108.04711
#
# Poissons Ratio (x) = -0.00355 0.32677
# Poissons Ratio (y) = -0.00390 0.49089
# Poissons Ratio (z) = 0.22340 0.30512
#
# Static dielectric constant tensor:
#      x y z
#    x 3.527960 0.000000 0.000000 
#    y 0.000000 3.342000 0.000000 
#    z 0.000000 0.000000 3.856440 
# 
# 
# High freq. dielectric constant tensor:
#      x y z
#    x 1.756230 0.000000 0.000000 
#    y 0.000000 1.718520 0.000000 
#    z 0.000000 0.000000 1.771650 
# 
# From -- ./inp_files/28738.got.cif
#   From: 2010.06.25/outbox.cif.g09.slc.cpg/sg58_15_cif.got.tgz:28738.got - 2010.06.26 21:38:00.
