data_PCOD8235680
_publ_section_title
;
Structure prediction by ZEFSAII (Michael W. Deem and Ramdas Pophale) SiO2 
 PCOD8235680
Probable space group: P N N M
;
_chemical_formula_sum "Si O2"
_cell_formula_units_Z 28
_cell_length_a 22.901415
_cell_length_b 5.138561
_cell_length_c 9.929229
_cell_angle_alpha 90.000000
_cell_angle_beta 90.000000
_cell_angle_gamma 90.000000
_cell_volume 1168.474826
_symmetry_space_group_name_H-M "P N N M"
_symmetry_group_IT_number 58
_symmetry_cell_setting 'orthorhombic'
loop_
_space_group_symop_operation_xyz
x,y,z
-x,-y,z
1/2+x,1/2-y,1/2-z
1/2-x,1/2+y,1/2-z
-x,-y,-z
x,y,-z
1/2-x,1/2+y,1/2+z
1/2+x,1/2-y,1/2+z
loop_
_atom_site_type_symbol
_atom_site_label
_atom_site_fract_x
_atom_site_fract_y
_atom_site_fract_z
Si Si1 0.039967 0.742943 0.000000
Si Si2 0.266585 0.551539 0.000000
Si Si3 0.133989 0.068622 0.289689
Si Si4 0.313722 0.551362 0.500000
Si Si5 0.433661 0.088287 0.217016
O O1 0.077665 0.702046 0.866822
O O2 0.000000 0.500000 0.000000
O O3 0.000000 0.000000 0.000000
O O4 0.304357 0.552398 0.864120
O O5 0.226958 0.299907 0.000000
O O6 0.225884 0.799521 0.000000
O O7 0.143652 0.050332 0.128929
O O8 0.106264 0.347544 0.321785
O O9 0.091137 0.847143 0.356774
O O10 0.500000 0.000000 0.184475
#
# Coordination Sequence:
#
# PCOD8235680 Si02
#       5
#     4   4   8   4   8
#     4  10  18  32  56  88 124 162 203 256 303 346
#     4  12  26  45  65  94 129 166 217 274 320 378
#     4  12  24  42  67  96 127 171 214 260 325 387
#     4  12  24  45  69  94 123 164 216 278 329 374
#     4  11  22  39  62  96 134 170 209 258 314 387
#
# _framework density 23.962862000000001
#
# number of rings (size 3 to 8) (size 9 to 14) (size 15 to 20)
#    0.000    0.571    0.000   11.143    0.000    0.000 
#    0.000    4.286    0.000    0.000    0.000    0.000 
#    0.000    0.000    0.000    0.000    0.000    0.000 
#
# Total GULP energy -346878.327671 kJ/mol
# GULP energy per Si atom -12388.511703 kJ/mol
# Density = 2.390832 g / cm^3
# Si number density = 23.962862 Si / 1000 Ang^3
#
#
#
# Elastic Constant Matrix: (Units=GPa)
#
#
# Indices 1 2 3 4 5 6 
#
# 1 101.6091 65.3718 5.1662 0.0000 0.0000 0.0000
# 2 65.3718 237.2398 5.4535 0.0000 0.0000 0.0000
# 3 5.1662 5.4535 73.3935 0.0000 0.0000 0.0000
# 4 0.0000 0.0000 0.0000 28.0647 0.0000 0.0000
# 5 0.0000 0.0000 0.0000 0.0000 825.0929 0.0000
# 6 0.0000 0.0000 0.0000 0.0000 0.0000 58.1611
#
#
#
# Elastic Compliance Matrix: (Units=1/GPa)
#
#
# Indices 1 2 3 4 5 6 
#
# 1 0.011989 -0.003290 -0.000599 0.000000 0.000000 0.000000
# 2 -0.003290 0.005125 -0.000149 0.000000 0.000000 0.000000
# 3 -0.000599 -0.000149 0.013678 0.000000 0.000000 0.000000
# 4 0.000000 0.000000 0.000000 0.035632 0.000000 0.000000
# 5 0.000000 0.000000 0.000000 0.000000 0.001212 0.000000
# 6 0.000000 0.000000 0.000000 0.000000 0.000000 0.017194
#
#
# Mechanical properties :
#
#
# Convention : Reuss Voigt Hill
#
# Bulk Modulus (GPa) = 44.02313 62.69173 53.35743
# Shear Modulus (GPa) = 49.76204 204.68047 127.22125
#
# Velocity S-wave (km/s) = 4.56195 9.25209 7.29426
# Velocity P-wave (km/s) = 6.79410 11.84710 9.65695
#
# Compressibility (1/GPa) = 0.02271533
#
# Stress axis : x y z
#
# Youngs Moduli (GPa) = 83.41263 195.11983 73.10756
#
# Poissons Ratio (x) = 0.64189 0.04382
# Poissons Ratio (y) = 0.27440 0.01091
# Poissons Ratio (z) = 0.05000 0.02912
#
# Static dielectric constant tensor:
#      x y z
#    x 4.301740 0.000000 0.000000 
#    y 0.000000 4.671190 0.000000 
#    z 0.000000 0.000000 4.451180 
# 
# 
# High freq. dielectric constant tensor:
#      x y z
#    x 1.962430 0.000000 0.000000 
#    y 0.000000 1.985700 0.000000 
#    z 0.000000 0.000000 1.940760 
# 
# From -- ./inp_files/16738.got.cif
#   From: 2010.06.25/outbox.cif.g09.slc.cpg/sg58_9_cif.got.tgz:16738.got - 2010.06.26 21:38:00.
