data_PCOD8235179
_publ_section_title
;
Structure prediction by ZEFSAII (Michael W. Deem and Ramdas Pophale) SiO2 
 PCOD8235179
Probable space group: P B C M
;
_chemical_formula_sum "Si O2"
_cell_formula_units_Z 64
_cell_length_a 8.365581
_cell_length_b 30.735795
_cell_length_c 13.998997
_cell_angle_alpha 90.000000
_cell_angle_beta 90.000000
_cell_angle_gamma 90.000000
_cell_volume 3599.461063
_symmetry_space_group_name_H-M "P B C M"
_symmetry_group_IT_number 57
_symmetry_cell_setting 'orthorhombic'
loop_
_space_group_symop_operation_xyz
x,y,z
-x,-y,1/2+z
x,1/2-y,-z
-x,1/2+y,1/2-z
-x,-y,-z
x,y,1/2-z
-x,1/2+y,z
x,1/2-y,1/2+z
loop_
_atom_site_type_symbol
_atom_site_label
_atom_site_fract_x
_atom_site_fract_y
_atom_site_fract_z
Si Si1 0.541975 0.016303 0.641916
Si Si2 0.805965 0.415820 0.141810
Si Si3 0.010420 0.266472 0.140874
Si Si4 0.897989 0.315609 0.535717
Si Si5 0.304863 0.177520 0.860348
Si Si6 0.603331 0.934180 0.527423
Si Si7 0.591725 0.146584 0.976116
Si Si8 0.902235 0.890376 0.469887
O O1 0.477418 0.019717 0.750000
O O2 0.715193 0.038438 0.631301
O O3 0.418473 0.041354 0.573932
O O4 0.557518 0.965759 0.614119
O O5 0.848843 0.404984 0.250000
O O6 0.699281 0.375800 0.104936
O O7 0.969547 0.420446 0.083504
O O8 0.960409 0.275475 0.250000
O O9 0.198867 0.278398 0.125529
O O10 0.970610 0.216646 0.114848
O O11 0.906350 0.296637 0.071881
O O12 0.708867 0.326638 0.548427
O O13 0.006747 0.358437 0.543225
O O14 0.354446 0.171861 0.750000
O O15 0.464056 0.179088 0.925868
O O16 0.200683 0.135885 0.891388
O O17 0.496141 0.890880 0.536967
O O18 0.789054 0.921076 0.533362
#
# Coordination Sequence:
#
# PCOD8235179 Si02
#       8
#     8   8   8   8   8   8   8   8
#     4   9  18  32  48  66  93 125 154 191 237 281
#     4   9  16  26  44  70  96 121 150 188 236 283
#     4   9  18  33  51  70  95 126 157 193 238 284
#     4   9  18  33  49  69  97 127 158 193 237 283
#     4   9  16  27  47  73  96 120 154 196 239 281
#     4   9  18  32  48  68  92 122 160 196 234 278
#     4   9  17  29  47  69  95 125 155 193 235 279
#     4   9  17  28  46  68  94 123 152 192 234 278
#
# _framework density 17.780439999999999
#
# number of rings (size 3 to 8) (size 9 to 14) (size 15 to 20)
#    0.000    3.000    0.000    0.750    0.000    7.500 
#    0.000    8.750    0.000    0.000    0.000    0.000 
#    0.000    0.000    0.000    0.000    0.000    0.000 
#
# Total GULP energy -793300.938791 kJ/mol
# GULP energy per Si atom -12395.327169 kJ/mol
# Density = 1.773997 g / cm^3
# Si number density = 17.780440 Si / 1000 Ang^3
#
#
#
# Elastic Constant Matrix: (Units=GPa)
#
#
# Indices 1 2 3 4 5 6 
#
# 1 99.2013 36.5170 11.1597 0.0000 0.0000 0.0000
# 2 36.5170 70.6467 17.5408 0.0000 0.0000 0.0000
# 3 11.1597 17.5408 43.1279 0.0000 0.0000 0.0000
# 4 0.0000 0.0000 0.0000 18.6259 0.0000 0.0000
# 5 0.0000 0.0000 0.0000 0.0000 17.4800 0.0000
# 6 0.0000 0.0000 0.0000 0.0000 0.0000 22.3100
#
#
#
# Elastic Compliance Matrix: (Units=1/GPa)
#
#
# Indices 1 2 3 4 5 6 
#
# 1 0.012467 -0.006277 -0.000673 0.000000 0.000000 0.000000
# 2 -0.006277 0.018905 -0.006065 0.000000 0.000000 0.000000
# 3 -0.000673 -0.006065 0.025828 0.000000 0.000000 0.000000
# 4 0.000000 0.000000 0.000000 0.053689 0.000000 0.000000
# 5 0.000000 0.000000 0.000000 0.000000 0.057208 0.000000
# 6 0.000000 0.000000 0.000000 0.000000 0.000000 0.044823
#
#
# Mechanical properties :
#
#
# Convention : Reuss Voigt Hill
#
# Bulk Modulus (GPa) = 32.08190 38.15677 35.11933
# Shear Modulus (GPa) = 20.05299 21.53374 20.79336
#
# Velocity S-wave (km/s) = 3.36193 3.48385 3.42343
# Velocity P-wave (km/s) = 5.75784 6.13918 5.95156
#
# Compressibility (1/GPa) = 0.03117022
#
# Stress axis : x y z
#
# Youngs Moduli (GPa) = 80.21285 52.89516 38.71816
#
# Poissons Ratio (x) = 0.33202 0.02606
# Poissons Ratio (y) = 0.50349 0.23482
# Poissons Ratio (z) = 0.05398 0.32080
#
# Static dielectric constant tensor:
#      x y z
#    x 3.424180 0.000000 0.000000 
#    y 0.000000 3.320430 0.000000 
#    z 0.000000 0.000000 3.008610 
# 
# 
# High freq. dielectric constant tensor:
#      x y z
#    x 1.688550 0.000000 0.000000 
#    y 0.000000 1.678400 0.000000 
#    z 0.000000 0.000000 1.655040 
# 
# From -- ./inp_files/17042.got.cif
#   From: 2010.03.12/outbox.cif.g09.slc.cpg/sg57_9_cif.got.tgz:17042.got - 2010.04.16 15:48:40.
