data_PCOD8235581
_publ_section_title
;
Structure prediction by ZEFSAII (Michael W. Deem and Ramdas Pophale) SiO2 
 PCOD8235581
Probable space group: P N N M
;
_chemical_formula_sum "Si O2"
_cell_formula_units_Z 64
_cell_length_a 16.819502
_cell_length_b 21.544646
_cell_length_c 9.273860
_cell_angle_alpha 90.000000
_cell_angle_beta 90.000000
_cell_angle_gamma 90.000000
_cell_volume 3360.570656
_symmetry_space_group_name_H-M "P N N M"
_symmetry_group_IT_number 58
_symmetry_cell_setting 'orthorhombic'
loop_
_space_group_symop_operation_xyz
x,y,z
-x,-y,z
1/2+x,1/2-y,1/2-z
1/2-x,1/2+y,1/2-z
-x,-y,-z
x,y,-z
1/2-x,1/2+y,1/2+z
1/2+x,1/2-y,1/2+z
loop_
_atom_site_type_symbol
_atom_site_label
_atom_site_fract_x
_atom_site_fract_y
_atom_site_fract_z
Si Si1 0.564412 0.872228 0.168465
Si Si2 0.194635 0.134378 0.834605
Si Si3 0.729477 0.095157 0.332867
Si Si4 0.966477 0.808529 0.167535
Si Si5 0.577247 0.171629 0.331916
Si Si6 0.192542 0.524734 0.335382
Si Si7 0.863426 0.155588 0.162642
Si Si8 0.316417 0.207268 0.337600
O O1 0.477752 0.876153 0.241302
O O2 0.608938 0.815025 0.244005
O O3 0.613287 0.935326 0.194959
O O4 0.556153 0.857991 0.000000
O O5 0.234693 0.184795 0.732053
O O6 0.100269 0.138625 0.805373
O O7 0.228691 0.065994 0.802675
O O8 0.214470 0.152807 0.000000
O O9 0.746384 0.084942 0.500000
O O10 0.668561 0.151954 0.306170
O O11 0.690500 0.032918 0.270730
O O12 0.814057 0.106907 0.257134
O O13 0.049363 0.833113 0.234748
O O14 0.936693 0.741781 0.227525
O O15 0.983987 0.798170 0.000000
O O16 0.555190 0.165722 0.500000
O O17 0.193691 0.501204 0.500000
O O18 0.814329 0.218992 0.161685
O O19 0.870945 0.128908 0.000000
O O20 0.324201 0.180958 0.500000
#
# Coordination Sequence:
#
# PCOD8235581 Si02
#       8
#     8   8   8   8   8   8   8   8
#     4  10  20  34  56  84 111 145 183 224 269 320
#     4   9  18  34  58  82 106 143 189 231 270 319
#     4  11  24  38  56  80 108 148 188 231 277 324
#     4   9  17  34  58  83 110 140 177 224 274 329
#     4  10  20  36  56  82 115 144 177 223 278 334
#     4   9  20  38  56  77 108 146 190 232 270 320
#     4  10  20  35  56  79 109 146 178 221 279 332
#     4  10  18  31  53  81 113 144 175 216 275 332
#
# _framework density 19.044384000000001
#
# number of rings (size 3 to 8) (size 9 to 14) (size 15 to 20)
#    0.000    2.250    1.250    2.625    0.000    6.000 
#    0.000    4.375    0.000    3.750    0.000    0.000 
#    0.000    0.000    0.000    0.000    0.000    0.000 
#
# Total GULP energy -793523.300438 kJ/mol
# GULP energy per Si atom -12398.801569 kJ/mol
# Density = 1.900104 g / cm^3
# Si number density = 19.044384 Si / 1000 Ang^3
#
#
#
# Elastic Constant Matrix: (Units=GPa)
#
#
# Indices 1 2 3 4 5 6 
#
# 1 103.6856 24.0821 38.8063 0.0000 0.0000 0.0000
# 2 24.0821 48.4381 26.4972 0.0000 0.0000 0.0000
# 3 38.8063 26.4972 82.8505 0.0000 0.0000 0.0000
# 4 0.0000 0.0000 0.0000 26.3558 0.0000 0.0000
# 5 0.0000 0.0000 0.0000 0.0000 28.7567 0.0000
# 6 0.0000 0.0000 0.0000 0.0000 0.0000 21.1307
#
#
#
# Elastic Compliance Matrix: (Units=1/GPa)
#
#
# Indices 1 2 3 4 5 6 
#
# 1 0.012180 -0.003557 -0.004567 0.000000 0.000000 0.000000
# 2 -0.003557 0.026061 -0.006669 0.000000 0.000000 0.000000
# 3 -0.004567 -0.006669 0.016342 0.000000 0.000000 0.000000
# 4 0.000000 0.000000 0.000000 0.037942 0.000000 0.000000
# 5 0.000000 0.000000 0.000000 0.000000 0.034775 0.000000
# 6 0.000000 0.000000 0.000000 0.000000 0.000000 0.047324
#
#
# Mechanical properties :
#
#
# Convention : Reuss Voigt Hill
#
# Bulk Modulus (GPa) = 40.00486 45.97170 42.98828
# Shear Modulus (GPa) = 23.52453 24.95455 24.23954
#
# Velocity S-wave (km/s) = 3.51842 3.62378 3.57149
# Velocity P-wave (km/s) = 6.12841 6.45761 6.29516
#
# Compressibility (1/GPa) = 0.02499696
#
# Stress axis : x y z
#
# Youngs Moduli (GPa) = 82.10074 38.37080 61.19171
#
# Poissons Ratio (x) = 0.13649 0.27949
# Poissons Ratio (y) = 0.29204 0.40808
# Poissons Ratio (z) = 0.37499 0.25589
#
# Static dielectric constant tensor:
#      x y z
#    x 3.577030 0.000000 0.000000 
#    y 0.000000 3.226320 0.000000 
#    z 0.000000 0.000000 3.437020 
# 
# 
# High freq. dielectric constant tensor:
#      x y z
#    x 1.745060 0.000000 0.000000 
#    y 0.000000 1.717650 0.000000 
#    z 0.000000 0.000000 1.728740 
# 
# From -- ./inp_files/8272.got.cif
#   From: 2010.06.25/outbox.cif.g09.slc.cpg/sg58_5_cif.got.tgz:8272.got - 2010.06.26 21:38:00.
