data_PCOD8235527
_publ_section_title
;
Structure prediction by ZEFSAII (Michael W. Deem and Ramdas Pophale) SiO2 
 PCOD8235527
Probable space group: P N N M
;
_chemical_formula_sum "Si O2"
_cell_formula_units_Z 64
_cell_length_a 14.267763
_cell_length_b 29.937939
_cell_length_c 9.328142
_cell_angle_alpha 90.000000
_cell_angle_beta 90.000000
_cell_angle_gamma 90.000000
_cell_volume 3984.491773
_symmetry_space_group_name_H-M "P N N M"
_symmetry_group_IT_number 58
_symmetry_cell_setting 'orthorhombic'
loop_
_space_group_symop_operation_xyz
x,y,z
-x,-y,z
1/2+x,1/2-y,1/2-z
1/2-x,1/2+y,1/2-z
-x,-y,-z
x,y,-z
1/2-x,1/2+y,1/2+z
1/2+x,1/2-y,1/2+z
loop_
_atom_site_type_symbol
_atom_site_label
_atom_site_fract_x
_atom_site_fract_y
_atom_site_fract_z
Si Si1 0.307351 0.875000 0.668468
Si Si2 0.010287 0.225001 0.833104
Si Si3 0.019657 0.322218 0.838908
Si Si4 0.602667 0.946457 0.833277
Si Si5 0.324397 0.131785 0.337375
Si Si6 0.835935 0.200422 0.667338
Si Si7 0.111839 0.451256 0.666104
Si Si8 0.273565 0.709947 0.333274
O O1 0.319046 0.883742 0.500000
O O2 0.394429 0.847332 0.735911
O O3 0.215398 0.846243 0.703136
O O4 0.310478 0.922823 0.746977
O O5 0.997943 0.274742 0.766326
O O6 0.115765 0.209690 0.804055
O O7 0.934620 0.195614 0.748529
O O8 0.983994 0.222438 0.000000
O O9 0.931126 0.353484 0.836255
O O10 0.053562 0.310516 0.000000
O O11 0.674964 0.915548 0.744490
O O12 0.494546 0.940391 0.783625
O O13 0.634667 0.997047 0.804927
O O14 0.611567 0.933999 0.000000
O O15 0.287282 0.125906 0.500000
O O16 0.263008 0.168510 0.257744
O O17 0.855668 0.204732 0.500000
O O18 0.773544 0.243249 0.717678
O O19 0.122676 0.439801 0.500000
O O20 0.251355 0.701807 0.500000
#
# Coordination Sequence:
#
# PCOD8235527 Si02
#       8
#     8   8   8   8   8   8   8   8
#     4  10  18  31  48  68  97 131 162 196 239 285
#     4  10  19  34  50  65  94 132 167 202 238 278
#     4   9  16  27  44  67  95 126 159 196 233 270
#     4   9  18  32  47  67  99 130 157 194 241 288
#     4  11  20  30  48  72  97 127 165 204 237 278
#     4  10  20  32  48  70  96 127 163 201 241 282
#     4   9  18  31  47  69  97 128 160 197 236 282
#     4  10  20  33  49  68  95 132 165 196 241 288
#
# _framework density 16.062273999999999
#
# number of rings (size 3 to 8) (size 9 to 14) (size 15 to 20)
#    0.000    2.250    3.750    1.125    0.000    1.500 
#    0.000    1.875    0.000    0.000    0.000    0.875 
#    0.000    7.000    0.000    0.000    0.000    0.000 
#
# Total GULP energy -793334.667947 kJ/mol
# GULP energy per Si atom -12395.854187 kJ/mol
# Density = 1.602572 g / cm^3
# Si number density = 16.062274 Si / 1000 Ang^3
#
#
#
# Elastic Constant Matrix: (Units=GPa)
#
#
# Indices 1 2 3 4 5 6 
#
# 1 60.0878 26.5908 35.2565 0.0000 0.0000 0.0000
# 2 26.5908 98.4898 50.1184 0.0000 0.0000 0.0000
# 3 35.2565 50.1184 62.3707 0.0000 0.0000 0.0000
# 4 0.0000 0.0000 0.0000 28.1549 0.0000 0.0000
# 5 0.0000 0.0000 0.0000 0.0000 20.4337 0.0000
# 6 0.0000 0.0000 0.0000 0.0000 0.0000 24.1801
#
#
#
# Elastic Compliance Matrix: (Units=1/GPa)
#
#
# Indices 1 2 3 4 5 6 
#
# 1 0.024934 0.000745 -0.014693 0.000000 0.000000 0.000000
# 2 0.000745 0.017199 -0.014242 0.000000 0.000000 0.000000
# 3 -0.014693 -0.014242 0.035783 0.000000 0.000000 0.000000
# 4 0.000000 0.000000 0.000000 0.035518 0.000000 0.000000
# 5 0.000000 0.000000 0.000000 0.000000 0.048939 0.000000
# 6 0.000000 0.000000 0.000000 0.000000 0.000000 0.041356
#
#
# Mechanical properties :
#
#
# Convention : Reuss Voigt Hill
#
# Bulk Modulus (GPa) = 46.43318 49.43108 47.93213
# Shear Modulus (GPa) = 18.70641 21.81924 20.26283
#
# Velocity S-wave (km/s) = 3.41635 3.68967 3.55564
# Velocity P-wave (km/s) = 6.67330 6.99950 6.83834
#
# Compressibility (1/GPa) = 0.02153632
#
# Stress axis : x y z
#
# Youngs Moduli (GPa) = 40.10621 58.14138 27.94616
#
# Poissons Ratio (x) = -0.04332 0.41062
# Poissons Ratio (y) = -0.02989 0.39801
# Poissons Ratio (z) = 0.58929 0.82805
#
# Static dielectric constant tensor:
#      x y z
#    x 2.818130 0.000000 0.000000 
#    y 0.000000 3.021240 0.000000 
#    z 0.000000 0.000000 2.961090 
# 
# 
# High freq. dielectric constant tensor:
#      x y z
#    x 1.590620 0.000000 0.000000 
#    y 0.000000 1.613030 0.000000 
#    z 0.000000 0.000000 1.607900 
# 
# From -- ./inp_files/7140.got.cif
#   From: 2010.06.25/outbox.cif.g09.slc.cpg/sg58_4_cif.got.tgz:7140.got - 2010.06.26 21:38:00.
