data_PCOD8235411
_publ_section_title
;
Structure prediction by ZEFSAII (Michael W. Deem and Ramdas Pophale) SiO2 
 PCOD8235411
Probable space group: P N N M
;
_chemical_formula_sum "Si O2"
_cell_formula_units_Z 64
_cell_length_a 10.899765
_cell_length_b 26.972308
_cell_length_c 13.124974
_cell_angle_alpha 90.000000
_cell_angle_beta 90.000000
_cell_angle_gamma 90.000000
_cell_volume 3858.634977
_symmetry_space_group_name_H-M "P N N M"
_symmetry_group_IT_number 58
_symmetry_cell_setting 'orthorhombic'
loop_
_space_group_symop_operation_xyz
x,y,z
-x,-y,z
1/2+x,1/2-y,1/2-z
1/2-x,1/2+y,1/2-z
-x,-y,-z
x,y,-z
1/2-x,1/2+y,1/2+z
1/2+x,1/2-y,1/2+z
loop_
_atom_site_type_symbol
_atom_site_label
_atom_site_fract_x
_atom_site_fract_y
_atom_site_fract_z
Si Si1 0.138523 0.640445 0.616271
Si Si2 0.757724 0.568877 0.618858
Si Si3 0.730717 0.259776 0.881974
Si Si4 0.872094 0.811207 0.798869
Si Si5 0.987995 0.715831 0.115710
Si Si6 0.239993 0.539579 0.380508
Si Si7 0.519705 0.405575 0.617110
Si Si8 0.883478 0.662853 0.303327
O O1 0.180464 0.639480 0.500000
O O2 0.233042 0.675583 0.673443
O O3 0.148228 0.583288 0.657698
O O4 0.003736 0.662418 0.626297
O O5 0.794349 0.577873 0.500000
O O6 0.797138 0.514682 0.662462
O O7 0.612132 0.571053 0.632909
O O8 0.820703 0.609206 0.691381
O O9 0.633623 0.293274 0.818865
O O10 0.869457 0.275778 0.857382
O O11 0.712376 0.202709 0.847793
O O12 0.698915 0.266309 0.000000
O O13 0.964104 0.857253 0.811538
O O14 0.917394 0.767328 0.871347
O O15 0.926690 0.674292 0.188078
O O16 0.972965 0.697219 0.000000
O O17 0.231622 0.532142 0.500000
O O18 0.379251 0.553894 0.350142
O O19 0.540816 0.388971 0.500000
#
# Coordination Sequence:
#
# PCOD8235411 Si02
#       8
#     8   8   8   8   8   8   8   8
#     4  10  18  30  45  70 102 128 151 189 234 281
#     4  10  18  29  46  70  99 130 157 189 230 278
#     4  10  20  34  49  67  93 124 160 198 232 275
#     4  10  18  30  49  70  91 122 159 191 233 281
#     4  10  20  35  51  66  89 124 164 200 232 272
#     4   8  16  28  45  69  98 129 159 185 225 281
#     4   9  16  28  48  71  97 125 157 194 229 275
#     4  11  21  31  47  71  96 125 158 193 237 284
#
# _framework density 16.586175999999998
#
# number of rings (size 3 to 8) (size 9 to 14) (size 15 to 20)
#    0.000    2.250    1.250    4.125    0.000    4.000 
#    0.000    1.875    0.000    0.000    0.000    5.250 
#    0.000    5.000    0.000    0.000    0.000    0.000 
#
# Total GULP energy -793314.831730 kJ/mol
# GULP energy per Si atom -12395.544246 kJ/mol
# Density = 1.654843 g / cm^3
# Si number density = 16.586176 Si / 1000 Ang^3
#
#
#
# Elastic Constant Matrix: (Units=GPa)
#
#
# Indices 1 2 3 4 5 6 
#
# 1 37.0791 16.2462 23.9449 0.0000 0.0000 0.0000
# 2 16.2462 91.9426 41.9454 0.0000 0.0000 0.0000
# 3 23.9449 41.9454 72.5465 0.0000 0.0000 0.0000
# 4 0.0000 0.0000 0.0000 20.7907 0.0000 0.0000
# 5 0.0000 0.0000 0.0000 0.0000 21.4255 0.0000
# 6 0.0000 0.0000 0.0000 0.0000 0.0000 20.5434
#
#
#
# Elastic Compliance Matrix: (Units=1/GPa)
#
#
# Indices 1 2 3 4 5 6 
#
# 1 0.034375 -0.001220 -0.010641 0.000000 0.000000 0.000000
# 2 -0.001220 0.014816 -0.008164 0.000000 0.000000 0.000000
# 3 -0.010641 -0.008164 0.022017 0.000000 0.000000 0.000000
# 4 0.000000 0.000000 0.000000 0.048098 0.000000 0.000000
# 5 0.000000 0.000000 0.000000 0.000000 0.046673 0.000000
# 6 0.000000 0.000000 0.000000 0.000000 0.000000 0.048678
#
#
# Mechanical properties :
#
#
# Convention : Reuss Voigt Hill
#
# Bulk Modulus (GPa) = 32.09304 40.64901 36.37102
# Shear Modulus (GPa) = 18.86128 20.51404 19.68766
#
# Velocity S-wave (km/s) = 3.37585 3.52065 3.44901
# Velocity P-wave (km/s) = 5.88102 6.40996 6.15118
#
# Compressibility (1/GPa) = 0.03115941
#
# Stress axis : x y z
#
# Youngs Moduli (GPa) = 29.09063 67.49265 45.41993
#
# Poissons Ratio (x) = 0.08232 0.48331
# Poissons Ratio (y) = 0.03548 0.37081
# Poissons Ratio (z) = 0.30955 0.55102
#
# Static dielectric constant tensor:
#      x y z
#    x 3.140140 0.000000 0.000000 
#    y 0.000000 3.288880 0.000000 
#    z 0.000000 0.000000 2.855290 
# 
# 
# High freq. dielectric constant tensor:
#      x y z
#    x 1.645640 0.000000 0.000000 
#    y 0.000000 1.641960 0.000000 
#    z 0.000000 0.000000 1.596130 
# 
# From -- ./inp_files/14899.got.cif
#   From: 2010.06.25/outbox.cif.g09.slc.cpg/sg58_8_cif.got.tgz:14899.got - 2010.06.26 21:38:00.
