data_PCOD8235890
_publ_section_title
;
Structure prediction by ZEFSAII (Michael W. Deem and Ramdas Pophale) SiO2 
 PCOD8235890
Probable space group: P N N M
;
_chemical_formula_sum "Si O2"
_cell_formula_units_Z 64
_cell_length_a 15.049673
_cell_length_b 25.065630
_cell_length_c 9.299093
_cell_angle_alpha 90.000000
_cell_angle_beta 90.000000
_cell_angle_gamma 90.000000
_cell_volume 3507.892529
_symmetry_space_group_name_H-M "P N N M"
_symmetry_group_IT_number 58
_symmetry_cell_setting 'orthorhombic'
loop_
_space_group_symop_operation_xyz
x,y,z
-x,-y,z
1/2+x,1/2-y,1/2-z
1/2-x,1/2+y,1/2-z
-x,-y,-z
x,y,-z
1/2-x,1/2+y,1/2+z
1/2+x,1/2-y,1/2+z
loop_
_atom_site_type_symbol
_atom_site_label
_atom_site_fract_x
_atom_site_fract_y
_atom_site_fract_z
Si Si1 0.129990 0.033001 0.670026
Si Si2 0.444315 0.422838 0.830458
Si Si3 0.604381 0.694056 0.831455
Si Si4 0.698181 0.961288 0.169709
Si Si5 0.544024 0.882061 0.835854
Si Si6 0.491819 0.780424 0.670046
Si Si7 0.698801 0.179990 0.333491
Si Si8 0.849575 0.578559 0.663898
O O1 0.146074 0.035104 0.500000
O O2 0.213116 0.058268 0.751966
O O3 0.046217 0.068923 0.716960
O O4 0.115373 0.972103 0.726360
O O5 0.408098 0.366411 0.774631
O O6 0.439560 0.425458 0.000000
O O7 0.535164 0.728986 0.742357
O O8 0.707754 0.710392 0.801988
O O9 0.581366 0.699509 0.000000
O O10 0.622357 0.920247 0.216410
O O11 0.674022 0.020429 0.225160
O O12 0.711702 0.960698 0.000000
O O13 0.543014 0.831633 0.730788
O O14 0.454984 0.916059 0.821962
O O15 0.557833 0.862106 0.000000
O O16 0.505440 0.777263 0.500000
O O17 0.386422 0.783897 0.711541
O O18 0.691743 0.165178 0.500000
O O19 0.700818 0.123776 0.252711
O O20 0.818501 0.584840 0.500000
#
# Coordination Sequence:
#
# PCOD8235890 Si02
#       8
#     8   8   8   8   8   8   8   8
#     4   9  17  32  52  74 104 136 167 206 250 297
#     4   8  16  32  54  76  98 131 174 211 243 298
#     4  10  19  35  58  78  99 136 179 210 253 316
#     4  10  19  30  47  76 107 135 168 205 250 306
#     4   9  18  34  52  69  99 141 174 203 250 309
#     4  10  21  37  53  76 106 131 166 222 270 299
#     4   9  19  35  55  78 103 131 168 216 264 306
#     4   9  17  30  51  76 102 133 172 212 248 298
#
# _framework density 18.244572000000002
#
# number of rings (size 3 to 8) (size 9 to 14) (size 15 to 20)
#    0.000    2.750    0.000    2.250    0.000    4.500 
#    2.250    2.500    0.000    3.750    0.000    0.000 
#    0.000    0.000    0.000    0.000    0.000    0.000 
#
# Total GULP energy -793447.738413 kJ/mol
# GULP energy per Si atom -12397.620913 kJ/mol
# Density = 1.820305 g / cm^3
# Si number density = 18.244572 Si / 1000 Ang^3
#
#
#
# Elastic Constant Matrix: (Units=GPa)
#
#
# Indices 1 2 3 4 5 6 
#
# 1 107.5383 49.7347 35.6848 0.0000 0.0000 0.0000
# 2 49.7347 74.4114 31.8912 0.0000 0.0000 0.0000
# 3 35.6848 31.8912 43.7520 0.0000 0.0000 0.0000
# 4 0.0000 0.0000 0.0000 23.9343 0.0000 0.0000
# 5 0.0000 0.0000 0.0000 0.0000 30.1549 0.0000
# 6 0.0000 0.0000 0.0000 0.0000 0.0000 25.7548
#
#
#
# Elastic Compliance Matrix: (Units=1/GPa)
#
#
# Indices 1 2 3 4 5 6 
#
# 1 0.014829 -0.006876 -0.007083 0.000000 0.000000 0.000000
# 2 -0.006876 0.022733 -0.010962 0.000000 0.000000 0.000000
# 3 -0.007083 -0.010962 0.036623 0.000000 0.000000 0.000000
# 4 0.000000 0.000000 0.000000 0.041781 0.000000 0.000000
# 5 0.000000 0.000000 0.000000 0.000000 0.033162 0.000000
# 6 0.000000 0.000000 0.000000 0.000000 0.000000 0.038828
#
#
# Mechanical properties :
#
#
# Convention : Reuss Voigt Hill
#
# Bulk Modulus (GPa) = 41.07869 51.14700 46.11284
# Shear Modulus (GPa) = 20.33242 23.19486 21.76364
#
# Velocity S-wave (km/s) = 3.34194 3.56944 3.45756
# Velocity P-wave (km/s) = 6.12012 6.71437 6.42412
#
# Compressibility (1/GPa) = 0.02434352
#
# Stress axis : x y z
#
# Youngs Moduli (GPa) = 67.43331 43.98988 27.30493
#
# Poissons Ratio (x) = 0.30247 0.19341
# Poissons Ratio (y) = 0.46367 0.29931
# Poissons Ratio (z) = 0.47764 0.48221
#
# Static dielectric constant tensor:
#      x y z
#    x 3.496340 0.000000 0.000000 
#    y 0.000000 3.495930 0.000000 
#    z 0.000000 0.000000 3.162600 
# 
# 
# High freq. dielectric constant tensor:
#      x y z
#    x 1.717470 0.000000 0.000000 
#    y 0.000000 1.693610 0.000000 
#    z 0.000000 0.000000 1.688550 
# 
# From -- ./inp_files/6730.got.cif
#   From: 2010.06.25/outbox.cif.g09.slc.cpg/sg58_4_cif.got.tgz:6730.got - 2010.06.26 21:38:00.
