data_PCOD8235104
_publ_section_title
;
Structure prediction by ZEFSAII (Michael W. Deem and Ramdas Pophale) SiO2 
 PCOD8235104
Probable space group: P B C M
;
_chemical_formula_sum "Si O2"
_cell_formula_units_Z 40
_cell_length_a 14.257042
_cell_length_b 8.475726
_cell_length_c 15.079761
_cell_angle_alpha 90.000000
_cell_angle_beta 90.000000
_cell_angle_gamma 90.000000
_cell_volume 1822.219945
_symmetry_space_group_name_H-M "P B C M"
_symmetry_group_IT_number 57
_symmetry_cell_setting 'orthorhombic'
loop_
_space_group_symop_operation_xyz
x,y,z
-x,-y,1/2+z
x,1/2-y,-z
-x,1/2+y,1/2-z
-x,-y,-z
x,y,1/2-z
-x,1/2+y,z
x,1/2-y,1/2+z
loop_
_atom_site_type_symbol
_atom_site_label
_atom_site_fract_x
_atom_site_fract_y
_atom_site_fract_z
Si Si1 0.570076 0.981176 0.849173
Si Si2 0.916837 0.578923 0.750000
Si Si3 0.235074 0.591185 0.902133
Si Si4 0.395124 0.343705 0.407839
Si Si5 0.880774 0.944267 0.750000
Si Si6 0.213657 0.550608 0.101717
O O1 0.570047 0.053998 0.750000
O O2 0.579190 0.792350 0.837525
O O3 0.656080 0.045107 0.907976
O O4 0.477414 0.026572 0.904479
O O5 0.907140 0.764098 0.750000
O O6 0.873241 0.508254 0.660077
O O7 0.027079 0.549871 0.750000
O O8 0.181002 0.478258 0.835810
O O9 0.234029 0.770830 0.868175
O O10 0.188022 0.559064 0.997687
O O11 0.386266 0.250000 0.500000
O O12 0.300079 0.433095 0.380472
#
# Coordination Sequence:
#
# PCOD8235104 Si02
#       6
#     8   4   8   8   4   8
#     4  12  25  40  63  98 136 190 233 287 341 410
#     4  12  28  46  77 106 139 182 232 292 358 418
#     4  11  24  46  72 101 142 185 233 290 354 417
#     4  12  25  42  65  98 142 186 242 281 347 409
#     4  12  26  50  75 104 141 178 234 294 352 432
#     4  11  26  44  71 104 141 186 232 292 352 419
#
# _framework density 21.951246999999999
#
# number of rings (size 3 to 8) (size 9 to 14) (size 15 to 20)
#    0.000    0.400    3.000    5.400    5.600    0.800 
#    0.000    0.000    0.000    0.000    0.000    0.000 
#    0.000    0.000    0.000    0.000    0.000    0.000 
#
# Total GULP energy -496074.014561 kJ/mol
# GULP energy per Si atom -12401.850364 kJ/mol
# Density = 2.190129 g / cm^3
# Si number density = 21.951247 Si / 1000 Ang^3
#
#
#
# Elastic Constant Matrix: (Units=GPa)
#
#
# Indices 1 2 3 4 5 6 
#
# 1 81.1129 1.3964 -1.8169 0.0000 0.0000 0.0000
# 2 1.3964 120.4849 -7.7610 0.0000 0.0000 0.0000
# 3 -1.8169 -7.7610 80.3029 0.0000 0.0000 0.0000
# 4 0.0000 0.0000 0.0000 33.2580 0.0000 0.0000
# 5 0.0000 0.0000 0.0000 0.0000 -40.8182 0.0000
# 6 0.0000 0.0000 0.0000 0.0000 0.0000 44.5906
#
#
#
# Elastic Compliance Matrix: (Units=1/GPa)
#
#
# Indices 1 2 3 4 5 6 
#
# 1 0.012337 -0.000126 0.000267 0.000000 0.000000 0.000000
# 2 -0.000126 0.008353 0.000804 0.000000 0.000000 0.000000
# 3 0.000267 0.000804 0.012537 0.000000 0.000000 0.000000
# 4 0.000000 0.000000 0.000000 0.030068 0.000000 0.000000
# 5 0.000000 0.000000 0.000000 0.000000 -0.024499 0.000000
# 6 0.000000 0.000000 0.000000 0.000000 0.000000 0.022426
#
#
# Mechanical properties :
#
#
# Convention : Reuss Voigt Hill
#
# Bulk Modulus (GPa) = 28.47574 29.50419 28.98997
# Shear Modulus (GPa) = 70.38656 26.74489 48.56573
#
# Velocity S-wave (km/s) = 5.66874 3.49431 4.70876
# Velocity P-wave (km/s) = 7.47305 5.45438 6.54205
#
# Compressibility (1/GPa) = 0.03511762
#
# Stress axis : x y z
#
# Youngs Moduli (GPa) = 81.05933 119.71649 79.76623
#
# Poissons Ratio (x) = 0.01506 -0.02130
# Poissons Ratio (y) = 0.01020 -0.06417
# Poissons Ratio (z) = -0.02164 -0.09631
#
# Static dielectric constant tensor:
#      x y z
#    x 3.862250 0.000000 0.000000 
#    y 0.000000 4.398950 0.000000 
#    z 0.000000 0.000000 3.979950 
# 
# 
# High freq. dielectric constant tensor:
#      x y z
#    x 1.851010 0.000000 0.000000 
#    y 0.000000 1.885910 0.000000 
#    z 0.000000 0.000000 1.876110 
# 
# From -- ./inp_files/18267.got.cif
#   From: 2010.03.12/outbox.cif.g09.slc.cpg/sg57_10_cif.got.tgz:18267.got - 2010.04.16 15:48:40.
