data_PCOD8235161
_publ_section_title
;
Structure prediction by ZEFSAII (Michael W. Deem and Ramdas Pophale) SiO2 
 PCOD8235161
Probable space group: P B C M
;
_chemical_formula_sum "Si O2"
_cell_formula_units_Z 28
_cell_length_a 4.919893
_cell_length_b 12.115252
_cell_length_c 18.385591
_cell_angle_alpha 90.000000
_cell_angle_beta 90.000000
_cell_angle_gamma 90.000000
_cell_volume 1095.886821
_symmetry_space_group_name_H-M "P B C M"
_symmetry_group_IT_number 57
_symmetry_cell_setting 'orthorhombic'
loop_
_space_group_symop_operation_xyz
x,y,z
-x,-y,1/2+z
x,1/2-y,-z
-x,1/2+y,1/2-z
-x,-y,-z
x,y,1/2-z
-x,1/2+y,z
x,1/2-y,1/2+z
loop_
_atom_site_type_symbol
_atom_site_label
_atom_site_fract_x
_atom_site_fract_y
_atom_site_fract_z
Si Si1 0.021236 0.928393 0.596190
Si Si2 0.249134 0.250000 0.500000
Si Si3 0.548462 0.324980 0.250000
Si Si4 0.521873 0.071415 0.904001
Si Si5 0.949942 0.825821 0.750000
O O1 0.950498 0.820322 0.550698
O O2 0.997167 0.902894 0.681020
O O3 0.824971 0.031394 0.575971
O O4 0.325444 0.967945 0.577393
O O5 0.448918 0.178221 0.549634
O O6 0.494316 0.400799 0.180624
O O7 0.357317 0.217726 0.250000
O O8 0.855877 0.280832 0.250000
#
# Coordination Sequence:
#
# PCOD8235161 Si02
#       5
#     8   4   4   8   4
#     4  12  27  48  75 109 147 195 248 304 370 440
#     4  12  28  48  76 108 160 196 248 302 376 454
#     4  12  24  48  78 105 143 194 246 310 370 427
#     4  12  27  48  75 109 147 195 248 304 370 440
#     4  12  24  48  78 105 143 194 246 310 370 427
#
# _framework density 25.550080999999999
#
# number of rings (size 3 to 8) (size 9 to 14) (size 15 to 20)
#    0.000    0.000    2.857    6.857    0.000    2.286 
#    0.000    0.000    0.000    0.000    0.000    0.000 
#    0.000    0.000    0.000    0.000    0.000    0.000 
#
# Total GULP energy -347573.249963 kJ/mol
# GULP energy per Si atom -12413.330356 kJ/mol
# Density = 2.549193 g / cm^3
# Si number density = 25.550081 Si / 1000 Ang^3
#
#
#
# Elastic Constant Matrix: (Units=GPa)
#
#
# Indices 1 2 3 4 5 6 
#
# 1 93.1794 17.6424 -0.7290 0.0000 0.0000 0.0000
# 2 17.6424 114.2810 39.2932 0.0000 0.0000 0.0000
# 3 -0.7290 39.2932 124.1037 0.0000 0.0000 0.0000
# 4 0.0000 0.0000 0.0000 50.0433 0.0000 0.0000
# 5 0.0000 0.0000 0.0000 0.0000 13.5572 0.0000
# 6 0.0000 0.0000 0.0000 0.0000 0.0000 36.5374
#
#
#
# Elastic Compliance Matrix: (Units=1/GPa)
#
#
# Indices 1 2 3 4 5 6 
#
# 1 0.011106 -0.001949 0.000682 0.000000 0.000000 0.000000
# 2 -0.001949 0.010161 -0.003229 0.000000 0.000000 0.000000
# 3 0.000682 -0.003229 0.009084 0.000000 0.000000 0.000000
# 4 0.000000 0.000000 0.000000 0.019983 0.000000 0.000000
# 5 0.000000 0.000000 0.000000 0.000000 0.073762 0.000000
# 6 0.000000 0.000000 0.000000 0.000000 0.000000 0.027369
#
#
# Mechanical properties :
#
#
# Convention : Reuss Voigt Hill
#
# Bulk Modulus (GPa) = 46.81477 49.33082 48.07280
# Shear Modulus (GPa) = 29.83710 38.38475 34.11092
#
# Velocity S-wave (km/s) = 3.42100 3.88020 3.65781
# Velocity P-wave (km/s) = 5.82811 6.27885 6.05768
#
# Compressibility (1/GPa) = 0.02136078
#
# Stress axis : x y z
#
# Youngs Moduli (GPa) = 90.03833 98.41163 110.08304
#
# Poissons Ratio (x) = 0.19182 -0.07512
# Poissons Ratio (y) = 0.17550 0.35543
# Poissons Ratio (z) = -0.06144 0.31774
#
# Static dielectric constant tensor:
#      x y z
#    x 4.676390 0.000000 0.000000 
#    y 0.000000 4.502180 0.000000 
#    z 0.000000 0.000000 4.965140 
# 
# 
# High freq. dielectric constant tensor:
#      x y z
#    x 2.027930 0.000000 0.000000 
#    y 0.000000 2.026410 0.000000 
#    z 0.000000 0.000000 2.051560 
# 
# From -- ./inp_files/23320.got.cif
#   From: 2010.03.12/outbox.cif.g09.slc.cpg/sg57_12_cif.got.tgz:23320.got - 2010.04.16 15:48:40.
