data_PCOD8235634
_publ_section_title
;
Structure prediction by ZEFSAII (Michael W. Deem and Ramdas Pophale) SiO2 
 PCOD8235634
Probable space group: P N N M
;
_chemical_formula_sum "Si O2"
_cell_formula_units_Z 48
_cell_length_a 14.056140
_cell_length_b 18.856724
_cell_length_c 8.755677
_cell_angle_alpha 90.000000
_cell_angle_beta 90.000000
_cell_angle_gamma 90.000000
_cell_volume 2320.716289
_symmetry_space_group_name_H-M "P N N M"
_symmetry_group_IT_number 58
_symmetry_cell_setting 'orthorhombic'
loop_
_space_group_symop_operation_xyz
x,y,z
-x,-y,z
1/2+x,1/2-y,1/2-z
1/2-x,1/2+y,1/2-z
-x,-y,-z
x,y,-z
1/2-x,1/2+y,1/2+z
1/2+x,1/2-y,1/2+z
loop_
_atom_site_type_symbol
_atom_site_label
_atom_site_fract_x
_atom_site_fract_y
_atom_site_fract_z
Si Si1 0.822932 0.280139 0.819199
Si Si2 0.864627 0.855925 0.680044
Si Si3 0.532738 0.897354 0.320783
Si Si4 0.437069 0.351719 0.680382
Si Si5 0.159476 0.993161 0.175094
Si Si6 0.373202 0.969965 0.825262
O O1 0.721553 0.307326 0.752221
O O2 0.908513 0.330036 0.761070
O O3 0.851635 0.200817 0.765342
O O4 0.815351 0.285923 0.000000
O O5 0.869405 0.849638 0.500000
O O6 0.963306 0.827449 0.747830
O O7 0.848456 0.937957 0.721522
O O8 0.512288 0.893670 0.500000
O O9 0.432021 0.900646 0.230348
O O10 0.596013 0.965999 0.283666
O O11 0.446935 0.345767 0.500000
O O12 0.414826 0.432760 0.729057
O O13 0.261787 0.955966 0.192658
O O14 0.139841 0.015632 0.000000
O O15 0.399120 0.988000 0.000000
#
# Coordination Sequence:
#
# PCOD8235634 Si02
#       6
#     8   8   8   8   8   8
#     4   9  20  38  59  81 112 154 190 228 288 348
#     4  11  22  39  62  87 114 148 190 238 287 336
#     4  10  18  32  53  79 110 150 187 227 285 341
#     4  10  22  41  60  82 114 152 193 233 283 347
#     4  10  21  37  59  84 114 154 193 233 285 340
#     4  10  19  31  51  83 113 144 186 236 279 326
#
# _framework density 20.68327
#
# number of rings (size 3 to 8) (size 9 to 14) (size 15 to 20)
#    0.000    2.000    1.667    3.000    0.000    4.667 
#    0.000    5.000    0.000    0.000    0.000    0.000 
#    0.000    0.000    0.000    0.000    0.000    0.000 
#
# Total GULP energy -595052.132683 kJ/mol
# GULP energy per Si atom -12396.919431 kJ/mol
# Density = 2.063619 g / cm^3
# Si number density = 20.683270 Si / 1000 Ang^3
#
#
#
# Elastic Constant Matrix: (Units=GPa)
#
#
# Indices 1 2 3 4 5 6 
#
# 1 126.4594 49.9010 28.8020 0.0000 0.0000 0.0000
# 2 49.9010 100.2033 21.7766 0.0000 0.0000 0.0000
# 3 28.8020 21.7766 40.7092 0.0000 0.0000 0.0000
# 4 0.0000 0.0000 0.0000 18.7897 0.0000 0.0000
# 5 0.0000 0.0000 0.0000 0.0000 32.4560 0.0000
# 6 0.0000 0.0000 0.0000 0.0000 0.0000 32.4938
#
#
#
# Elastic Compliance Matrix: (Units=1/GPa)
#
#
# Indices 1 2 3 4 5 6 
#
# 1 0.010794 -0.004204 -0.005388 0.000000 0.000000 0.000000
# 2 -0.004204 0.012930 -0.003942 0.000000 0.000000 0.000000
# 3 -0.005388 -0.003942 0.030485 0.000000 0.000000 0.000000
# 4 0.000000 0.000000 0.000000 0.053221 0.000000 0.000000
# 5 0.000000 0.000000 0.000000 0.000000 0.030811 0.000000
# 6 0.000000 0.000000 0.000000 0.000000 0.000000 0.030775
#
#
# Mechanical properties :
#
#
# Convention : Reuss Voigt Hill
#
# Bulk Modulus (GPa) = 36.84498 52.03679 44.44089
# Shear Modulus (GPa) = 24.37468 27.87405 26.12436
#
# Velocity S-wave (km/s) = 3.43661 3.67503 3.55782
# Velocity P-wave (km/s) = 5.79652 6.57429 6.19762
#
# Compressibility (1/GPa) = 0.02714074
#
# Stress axis : x y z
#
# Youngs Moduli (GPa) = 92.64561 77.33813 32.80300
#
# Poissons Ratio (x) = 0.32516 0.17673
# Poissons Ratio (y) = 0.38952 0.12931
# Poissons Ratio (z) = 0.49914 0.30488
#
# Static dielectric constant tensor:
#      x y z
#    x 4.162330 0.000000 0.000000 
#    y 0.000000 3.715970 0.000000 
#    z 0.000000 0.000000 3.480600 
# 
# 
# High freq. dielectric constant tensor:
#      x y z
#    x 1.825990 0.000000 0.000000 
#    y 0.000000 1.796710 0.000000 
#    z 0.000000 0.000000 1.785160 
# 
# From -- ./inp_files/6049.got.cif
#   From: 2010.06.25/outbox.cif.g09.slc.cpg/sg58_4_cif.got.tgz:6049.got - 2010.06.26 21:38:00.
