data_PCOD8235903
_publ_section_title
;
Structure prediction by ZEFSAII (Michael W. Deem and Ramdas Pophale) SiO2 
 PCOD8235903
Probable space group: P N N M
;
_chemical_formula_sum "Si O2"
_cell_formula_units_Z 56
_cell_length_a 9.548639
_cell_length_b 15.355016
_cell_length_c 20.463400
_cell_angle_alpha 90.000000
_cell_angle_beta 90.000000
_cell_angle_gamma 90.000000
_cell_volume 3000.333571
_symmetry_space_group_name_H-M "P N N M"
_symmetry_group_IT_number 58
_symmetry_cell_setting 'orthorhombic'
loop_
_space_group_symop_operation_xyz
x,y,z
-x,-y,z
1/2+x,1/2-y,1/2-z
1/2-x,1/2+y,1/2-z
-x,-y,-z
x,y,-z
1/2-x,1/2+y,1/2+z
1/2+x,1/2-y,1/2+z
loop_
_atom_site_type_symbol
_atom_site_label
_atom_site_fract_x
_atom_site_fract_y
_atom_site_fract_z
Si Si1 0.202667 0.954148 0.886724
Si Si2 0.300786 0.244663 0.926504
Si Si3 0.564851 0.383887 0.571378
Si Si4 0.858814 0.798669 0.704533
Si Si5 0.389556 0.801431 0.073894
Si Si6 0.664294 0.487624 0.249061
Si Si7 0.680154 0.672196 0.796208
O O1 0.333978 0.898461 0.910924
O O2 0.235631 0.006618 0.820385
O O3 0.066852 0.889173 0.878769
O O4 0.151158 0.025795 0.938508
O O5 0.172344 0.186577 0.901656
O O6 0.443220 0.188729 0.923261
O O7 0.304931 0.321355 0.874361
O O8 0.278227 0.281240 0.000000
O O9 0.508166 0.356468 0.500000
O O10 0.836535 0.767511 0.628994
O O11 0.783231 0.731796 0.753326
O O12 0.022201 0.801902 0.724019
O O13 0.795772 0.896612 0.713589
O O14 0.343606 0.771917 0.000000
O O15 0.500000 0.500000 0.256906
O O16 0.722208 0.571422 0.211070
#
# Coordination Sequence:
#
# PCOD8235903 Si02
#       7
#     8   8   8   8   8   8   8
#     4  11  18  30  50  78 102 135 172 218 264 313
#     4   9  20  35  50  73 106 141 171 211 264 320
#     4  10  19  30  48  76 105 136 170 208 261 322
#     4  10  21  36  55  79 106 144 178 222 270 314
#     4  10  20  35  52  75 108 142 177 217 265 319
#     4  10  19  33  53  77 107 137 175 222 270 310
#     4  10  20  35  56  77 104 139 179 220 268 317
#
# _framework density 18.664591999999999
#
# number of rings (size 3 to 8) (size 9 to 14) (size 15 to 20)
#    0.000    2.000    2.857    2.571    2.000    0.571 
#    0.000    3.571    0.000    4.286    0.000    0.000 
#    0.000    5.714    0.000    0.000    0.000    0.000 
#
# Total GULP energy -693765.910167 kJ/mol
# GULP energy per Si atom -12388.676967 kJ/mol
# Density = 1.862211 g / cm^3
# Si number density = 18.664592 Si / 1000 Ang^3
#
#
#
# Elastic Constant Matrix: (Units=GPa)
#
#
# Indices 1 2 3 4 5 6 
#
# 1 32.3598 7.5573 12.4288 0.0000 0.0000 0.0000
# 2 7.5573 66.6770 20.8856 0.0000 0.0000 0.0000
# 3 12.4288 20.8856 95.2856 0.0000 0.0000 0.0000
# 4 0.0000 0.0000 0.0000 30.3879 0.0000 0.0000
# 5 0.0000 0.0000 0.0000 0.0000 20.5167 0.0000
# 6 0.0000 0.0000 0.0000 0.0000 0.0000 23.5609
#
#
#
# Elastic Compliance Matrix: (Units=1/GPa)
#
#
# Indices 1 2 3 4 5 6 
#
# 1 0.032935 -0.002563 -0.003734 0.000000 0.000000 0.000000
# 2 -0.002563 0.016303 -0.003239 0.000000 0.000000 0.000000
# 3 -0.003734 -0.003239 0.011692 0.000000 0.000000 0.000000
# 4 0.000000 0.000000 0.000000 0.032908 0.000000 0.000000
# 5 0.000000 0.000000 0.000000 0.000000 0.048741 0.000000
# 6 0.000000 0.000000 0.000000 0.000000 0.000000 0.042443
#
#
# Mechanical properties :
#
#
# Convention : Reuss Voigt Hill
#
# Bulk Modulus (GPa) = 23.89090 30.67399 27.28244
# Shear Modulus (GPa) = 22.93082 25.12315 24.02699
#
# Velocity S-wave (km/s) = 3.50890 3.67281 3.59179
# Velocity P-wave (km/s) = 5.40781 5.86993 5.64360
#
# Compressibility (1/GPa) = 0.04185695
#
# Stress axis : x y z
#
# Youngs Moduli (GPa) = 30.36249 61.33918 85.53000
#
# Poissons Ratio (x) = 0.15723 0.31938
# Poissons Ratio (y) = 0.07783 0.27704
# Poissons Ratio (z) = 0.11338 0.19868
#
# Static dielectric constant tensor:
#      x y z
#    x 3.375600 0.000000 0.000000 
#    y 0.000000 3.426140 0.000000 
#    z 0.000000 0.000000 3.574520 
# 
# 
# High freq. dielectric constant tensor:
#      x y z
#    x 1.709960 0.000000 0.000000 
#    y 0.000000 1.700970 0.000000 
#    z 0.000000 0.000000 1.733150 
# 
# From -- ./inp_files/29066.got.cif
#   From: 2010.06.25/outbox.cif.g09.slc.cpg/sg58_15_cif.got.tgz:29066.got - 2010.06.26 21:38:00.
