data_PCOD8235620
_publ_section_title
;
Structure prediction by ZEFSAII (Michael W. Deem and Ramdas Pophale) SiO2 
 PCOD8235620
Probable space group: P N N M
;
_chemical_formula_sum "Si O2"
_cell_formula_units_Z 64
_cell_length_a 9.480106
_cell_length_b 19.366883
_cell_length_c 19.228150
_cell_angle_alpha 90.000000
_cell_angle_beta 90.000000
_cell_angle_gamma 90.000000
_cell_volume 3530.290335
_symmetry_space_group_name_H-M "P N N M"
_symmetry_group_IT_number 58
_symmetry_cell_setting 'orthorhombic'
loop_
_space_group_symop_operation_xyz
x,y,z
-x,-y,z
1/2+x,1/2-y,1/2-z
1/2-x,1/2+y,1/2-z
-x,-y,-z
x,y,-z
1/2-x,1/2+y,1/2+z
1/2+x,1/2-y,1/2+z
loop_
_atom_site_type_symbol
_atom_site_label
_atom_site_fract_x
_atom_site_fract_y
_atom_site_fract_z
Si Si1 0.793078 0.879210 0.791141
Si Si2 0.212055 0.922106 0.422266
Si Si3 0.725335 0.807391 0.921926
Si Si4 0.665088 0.514126 0.784301
Si Si5 0.053190 0.309277 0.921229
Si Si6 0.979791 0.196829 0.621765
Si Si7 0.284846 0.214537 0.333996
Si Si8 0.604611 0.654961 0.729878
O O1 0.719865 0.870341 0.866734
O O2 0.733104 0.821016 0.740413
O O3 0.959817 0.871349 0.804175
O O4 0.755697 0.953863 0.758034
O O5 0.208426 0.954156 0.500000
O O6 0.215798 0.983303 0.365050
O O7 0.350782 0.876319 0.411654
O O8 0.072132 0.874935 0.412267
O O9 0.583028 0.762161 0.918929
O O10 0.856662 0.758366 0.901377
O O11 0.740423 0.837289 0.000000
O O12 0.500000 0.500000 0.784664
O O13 0.699028 0.587874 0.748561
O O14 0.920742 0.317516 0.871016
O O15 0.999068 0.302885 0.000000
O O16 0.930209 0.199441 0.701639
O O17 0.149138 0.201292 0.617535
O O18 0.307340 0.296701 0.322472
#
# Coordination Sequence:
#
# PCOD8235620 Si02
#       8
#     8   8   8   8   8   8   8   8
#     4  10  19  33  53  80 104 137 183 228 264 313
#     4   9  18  35  55  76 111 152 180 210 263 330
#     4  10  18  32  52  75 107 138 170 217 273 325
#     4   9  19  34  52  78 108 140 186 230 262 308
#     4   9  19  33  53  79 111 143 169 211 269 324
#     4   9  18  29  49  84 107 133 176 220 268 311
#     4  11  19  31  57  80 109 140 176 230 269 312
#     4   9  17  31  52  75 106 138 173 224 266 314
#
# _framework density 18.128820999999999
#
# number of rings (size 3 to 8) (size 9 to 14) (size 15 to 20)
#    0.000    2.500    2.500    1.875    0.000    1.250 
#    0.000    1.250    0.000    5.625    0.000    0.875 
#    0.000    0.000    0.000    0.000    0.000    0.000 
#
# Total GULP energy -793419.715924 kJ/mol
# GULP energy per Si atom -12397.183061 kJ/mol
# Density = 1.808756 g / cm^3
# Si number density = 18.128821 Si / 1000 Ang^3
#
#
#
# Elastic Constant Matrix: (Units=GPa)
#
#
# Indices 1 2 3 4 5 6 
#
# 1 80.9631 21.4042 33.6574 0.0000 0.0000 0.0000
# 2 21.4042 84.0183 41.5594 0.0000 0.0000 0.0000
# 3 33.6574 41.5594 103.8720 0.0000 0.0000 0.0000
# 4 0.0000 0.0000 0.0000 31.2040 0.0000 0.0000
# 5 0.0000 0.0000 0.0000 0.0000 20.8401 0.0000
# 6 0.0000 0.0000 0.0000 0.0000 0.0000 14.5971
#
#
#
# Elastic Compliance Matrix: (Units=1/GPa)
#
#
# Indices 1 2 3 4 5 6 
#
# 1 0.014467 -0.001704 -0.004006 0.000000 0.000000 0.000000
# 2 -0.001704 0.015040 -0.005465 0.000000 0.000000 0.000000
# 3 -0.004006 -0.005465 0.013112 0.000000 0.000000 0.000000
# 4 0.000000 0.000000 0.000000 0.032047 0.000000 0.000000
# 5 0.000000 0.000000 0.000000 0.000000 0.047985 0.000000
# 6 0.000000 0.000000 0.000000 0.000000 0.000000 0.068507
#
#
# Mechanical properties :
#
#
# Convention : Reuss Voigt Hill
#
# Bulk Modulus (GPa) = 49.33834 51.34394 50.34114
# Shear Modulus (GPa) = 22.70004 24.81039 23.75521
#
# Velocity S-wave (km/s) = 3.54242 3.70342 3.62381
# Velocity P-wave (km/s) = 6.63371 6.83157 6.73336
#
# Compressibility (1/GPa) = 0.02026821
#
# Stress axis : x y z
#
# Youngs Moduli (GPa) = 69.12222 66.49089 76.26653
#
# Poissons Ratio (x) = 0.11331 0.30552
# Poissons Ratio (y) = 0.11779 0.41681
# Poissons Ratio (z) = 0.27690 0.36339
#
# Static dielectric constant tensor:
#      x y z
#    x 3.175450 0.000000 0.000000 
#    y 0.000000 3.267670 0.000000 
#    z 0.000000 0.000000 3.341530 
# 
# 
# High freq. dielectric constant tensor:
#      x y z
#    x 1.683220 0.000000 0.000000 
#    y 0.000000 1.676800 0.000000 
#    z 0.000000 0.000000 1.697020 
# 
# From -- ./inp_files/29200.got.cif
#   From: 2010.06.25/outbox.cif.g09.slc.cpg/sg58_15_cif.got.tgz:29200.got - 2010.06.26 21:38:00.
