data_PCOD8235898
_publ_section_title
;
Structure prediction by ZEFSAII (Michael W. Deem and Ramdas Pophale) SiO2 
 PCOD8235898
Probable space group: P N N M
;
_chemical_formula_sum "Si O2"
_cell_formula_units_Z 48
_cell_length_a 36.625187
_cell_length_b 8.857919
_cell_length_c 7.639757
_cell_angle_alpha 90.000000
_cell_angle_beta 90.000000
_cell_angle_gamma 90.000000
_cell_volume 2478.512425
_symmetry_space_group_name_H-M "P N N M"
_symmetry_group_IT_number 58
_symmetry_cell_setting 'orthorhombic'
loop_
_space_group_symop_operation_xyz
x,y,z
-x,-y,z
1/2+x,1/2-y,1/2-z
1/2-x,1/2+y,1/2-z
-x,-y,-z
x,y,-z
1/2-x,1/2+y,1/2+z
1/2+x,1/2-y,1/2+z
loop_
_atom_site_type_symbol
_atom_site_label
_atom_site_fract_x
_atom_site_fract_y
_atom_site_fract_z
Si Si1 0.349712 0.442572 0.500000
Si Si2 0.473379 0.219846 0.805437
Si Si3 0.825609 0.717334 0.000000
Si Si4 0.100900 0.437280 0.000000
Si Si5 0.297180 0.381229 0.801191
Si Si6 0.948765 0.623956 0.305433
Si Si7 0.576156 0.717730 0.500000
Si Si8 0.226873 0.218056 0.699055
O O1 0.345703 0.622073 0.500000
O O2 0.331816 0.369892 0.673549
O O3 0.392321 0.406084 0.500000
O O4 0.516477 0.229706 0.757586
O O5 0.449094 0.313154 0.669047
O O6 0.461895 0.046944 0.797598
O O7 0.466614 0.285786 0.000000
O O8 0.800859 0.695264 0.172423
O O9 0.855703 0.585902 0.000000
O O10 0.083927 0.353247 0.830979
O O11 0.093340 0.615250 0.000000
O O12 0.268440 0.252582 0.750232
O O13 0.276885 0.539794 0.774744
O O14 0.311010 0.359317 0.000000
O O15 0.934302 0.663754 0.500000
O O16 0.218245 0.267584 0.500000
#
# Coordination Sequence:
#
# PCOD8235898 Si02
#       8
#     4   8   4   4   8   8   4   8
#     4  10  22  37  49  71 106 138 162 196 253 309
#     4   8  14  26  46  72 100 128 161 206 254 290
#     4  10  22  37  49  71 106 138 162 196 253 309
#     4  10  19  30  48  74 100 128 168 208 240 289
#     4  10  20  35  56  77  97 125 164 207 251 300
#     4   8  14  26  46  72 100 128 161 206 254 290
#     4  10  19  30  48  74 100 128 168 208 240 289
#     4  10  20  35  56  77  97 125 164 207 251 300
#
# _framework density 19.366454000000001
#
# number of rings (size 3 to 8) (size 9 to 14) (size 15 to 20)
#    0.000    2.667    1.667    1.500    0.000    4.667 
#    0.000    0.000    0.000    2.000    0.000    2.333 
#    0.000    0.000    0.000    0.000    0.000    0.000 
#
# Total GULP energy -595134.238592 kJ/mol
# GULP energy per Si atom -12398.629971 kJ/mol
# Density = 1.932238 g / cm^3
# Si number density = 19.366454 Si / 1000 Ang^3
#
#
#
# Elastic Constant Matrix: (Units=GPa)
#
#
# Indices 1 2 3 4 5 6 
#
# 1 35.6238 -3.0901 16.9091 0.0000 0.0000 0.0000
# 2 -3.0901 8.7646 4.6576 0.0000 0.0000 0.0000
# 3 16.9091 4.6576 125.8277 0.0000 0.0000 0.0000
# 4 0.0000 0.0000 0.0000 15.3003 0.0000 0.0000
# 5 0.0000 0.0000 0.0000 0.0000 24.0782 0.0000
# 6 0.0000 0.0000 0.0000 0.0000 0.0000 27.1769
#
#
#
# Elastic Compliance Matrix: (Units=1/GPa)
#
#
# Indices 1 2 3 4 5 6 
#
# 1 0.031502 0.013624 -0.004738 0.000000 0.000000 0.000000
# 2 0.013624 0.122277 -0.006357 0.000000 0.000000 0.000000
# 3 -0.004738 -0.006357 0.008819 0.000000 0.000000 0.000000
# 4 0.000000 0.000000 0.000000 0.065358 0.000000 0.000000
# 5 0.000000 0.000000 0.000000 0.000000 0.041531 0.000000
# 6 0.000000 0.000000 0.000000 0.000000 0.000000 0.036796
#
#
# Mechanical properties :
#
#
# Convention : Reuss Voigt Hill
#
# Bulk Modulus (GPa) = 5.96457 23.01882 14.49169
# Shear Modulus (GPa) = 14.00127 23.42704 18.71415
#
# Velocity S-wave (km/s) = 2.69172 3.48181 3.11194
# Velocity P-wave (km/s) = 3.57029 5.29865 4.51789
#
# Compressibility (1/GPa) = 0.16765676
#
# Stress axis : x y z
#
# Youngs Moduli (GPa) = 31.74438 8.17814 113.38718
#
# Poissons Ratio (x) = -0.11142 0.53718
# Poissons Ratio (y) = -0.43248 0.72080
# Poissons Ratio (z) = 0.15039 0.05199
#
# Static dielectric constant tensor:
#      x y z
#    x 3.430060 0.000000 0.000000 
#    y 0.000000 3.030950 0.000000 
#    z 0.000000 0.000000 4.028170 
# 
# 
# High freq. dielectric constant tensor:
#      x y z
#    x 1.742590 0.000000 0.000000 
#    y 0.000000 1.708770 0.000000 
#    z 0.000000 0.000000 1.772740 
# 
# From -- ./inp_files/10825.got.cif
#   From: 2010.06.25/outbox.cif.g09.slc.cpg/sg58_6_cif.got.tgz:10825.got - 2010.06.26 21:38:00.
