data_PCOD8235766
_publ_section_title
;
Structure prediction by ZEFSAII (Michael W. Deem and Ramdas Pophale) SiO2 
 PCOD8235766
Probable space group: P N N M
;
_chemical_formula_sum "Si O2"
_cell_formula_units_Z 48
_cell_length_a 18.570031
_cell_length_b 9.234653
_cell_length_c 13.908265
_cell_angle_alpha 90.000000
_cell_angle_beta 90.000000
_cell_angle_gamma 90.000000
_cell_volume 2385.097662
_symmetry_space_group_name_H-M "P N N M"
_symmetry_group_IT_number 58
_symmetry_cell_setting 'orthorhombic'
loop_
_space_group_symop_operation_xyz
x,y,z
-x,-y,z
1/2+x,1/2-y,1/2-z
1/2-x,1/2+y,1/2-z
-x,-y,-z
x,y,-z
1/2-x,1/2+y,1/2+z
1/2+x,1/2-y,1/2+z
loop_
_atom_site_type_symbol
_atom_site_label
_atom_site_fract_x
_atom_site_fract_y
_atom_site_fract_z
Si Si1 0.829496 0.699031 0.286240
Si Si2 0.017700 0.832423 0.000000
Si Si3 0.325888 0.735727 0.000000
Si Si4 0.681126 0.613049 0.500000
Si Si5 0.557397 0.630148 0.201204
Si Si6 0.582298 0.550902 0.000000
Si Si7 0.806808 0.012969 0.795803
Si Si8 0.526115 0.156947 0.682774
O O1 0.852685 0.690639 0.399690
O O2 0.807883 0.861968 0.259259
O O3 0.763021 0.597620 0.259423
O O4 0.892483 0.644474 0.217796
O O5 0.103583 0.808833 0.000000
O O6 0.980488 0.764340 0.093268
O O7 0.000000 0.000000 0.000000
O O8 0.238521 0.752498 0.000000
O O9 0.356851 0.573403 0.000000
O O10 0.694145 0.503904 0.588748
O O11 0.500000 0.500000 0.205948
O O12 0.592408 0.646825 0.095367
O O13 0.621085 0.602594 0.275241
O O14 0.520283 0.781188 0.228284
O O15 0.500000 0.500000 0.000000
O O16 0.500000 0.000000 0.650789
#
# Coordination Sequence:
#
# PCOD8235766 Si02
#       8
#     8   4   4   4   8   4   8   8
#     4  11  24  42  64  95 130 174 218 275 339 399
#     4  12  23  43  73  97 128 176 232 273 323 402
#     4  10  20  40  64  94 128 167 219 281 325 392
#     4  10  22  37  65  95 127 167 218 264 340 404
#     4  11  20  40  66  93 122 170 223 271 326 393
#     4  10  18  34  66  94 117 159 230 268 314 395
#     4  11  22  40  65  91 128 170 220 267 335 399
#     4  12  26  42  64  98 138 170 217 281 336 390
#
# _framework density 20.124962
#
# number of rings (size 3 to 8) (size 9 to 14) (size 15 to 20)
#    0.000    1.000    5.000    2.750    2.333    0.000 
#    0.000    5.000    0.000    0.000    0.000    0.000 
#    0.000    0.000    0.000    0.000    0.000    0.000 
#
# Total GULP energy -595103.241075 kJ/mol
# GULP energy per Si atom -12397.984189 kJ/mol
# Density = 2.007916 g / cm^3
# Si number density = 20.124962 Si / 1000 Ang^3
#
#
#
# Elastic Constant Matrix: (Units=GPa)
#
#
# Indices 1 2 3 4 5 6 
#
# 1 130.9859 41.9803 47.9536 0.0000 0.0000 0.0000
# 2 41.9803 88.9580 33.2123 0.0000 0.0000 0.0000
# 3 47.9536 33.2123 127.1425 0.0000 0.0000 0.0000
# 4 0.0000 0.0000 0.0000 12.2055 0.0000 0.0000
# 5 0.0000 0.0000 0.0000 0.0000 33.1166 0.0000
# 6 0.0000 0.0000 0.0000 0.0000 0.0000 40.2868
#
#
#
# Elastic Compliance Matrix: (Units=1/GPa)
#
#
# Indices 1 2 3 4 5 6 
#
# 1 0.009795 -0.003594 -0.002756 0.000000 0.000000 0.000000
# 2 -0.003594 0.013774 -0.002243 0.000000 0.000000 0.000000
# 3 -0.002756 -0.002243 0.009490 0.000000 0.000000 0.000000
# 4 0.000000 0.000000 0.000000 0.081930 0.000000 0.000000
# 5 0.000000 0.000000 0.000000 0.000000 0.030196 0.000000
# 6 0.000000 0.000000 0.000000 0.000000 0.000000 0.024822
#
#
# Mechanical properties :
#
#
# Convention : Reuss Voigt Hill
#
# Bulk Modulus (GPa) = 62.98876 65.93096 64.45986
# Shear Modulus (GPa) = 25.97613 32.05113 29.01363
#
# Velocity S-wave (km/s) = 3.59659 3.99508 3.80106
# Velocity P-wave (km/s) = 6.97238 7.35614 7.16683
#
# Compressibility (1/GPa) = 0.01587585
#
# Stress axis : x y z
#
# Youngs Moduli (GPa) = 102.09364 72.59817 105.36995
#
# Poissons Ratio (x) = 0.26088 0.29036
# Poissons Ratio (y) = 0.36688 0.23633
# Poissons Ratio (z) = 0.28133 0.16282
#
# Static dielectric constant tensor:
#      x y z
#    x 3.858960 0.000000 0.000000 
#    y 0.000000 3.383060 0.000000 
#    z 0.000000 0.000000 4.176100 
# 
# 
# High freq. dielectric constant tensor:
#      x y z
#    x 1.795520 0.000000 0.000000 
#    y 0.000000 1.754400 0.000000 
#    z 0.000000 0.000000 1.808910 
# 
# From -- ./inp_files/22794.got.cif
#   From: 2010.06.25/outbox.cif.g09.slc.cpg/sg58_12_cif.got.tgz:22794.got - 2010.06.26 21:38:00.
