data_PCOD8235358
_publ_section_title
;
Structure prediction by ZEFSAII (Michael W. Deem and Ramdas Pophale) SiO2 
 PCOD8235358
Probable space group: P N N M
;
_chemical_formula_sum "Si O2"
_cell_formula_units_Z 56
_cell_length_a 13.728757
_cell_length_b 28.858551
_cell_length_c 9.057182
_cell_angle_alpha 90.000000
_cell_angle_beta 90.000000
_cell_angle_gamma 90.000000
_cell_volume 3588.383359
_symmetry_space_group_name_H-M "P N N M"
_symmetry_group_IT_number 58
_symmetry_cell_setting 'orthorhombic'
loop_
_space_group_symop_operation_xyz
x,y,z
-x,-y,z
1/2+x,1/2-y,1/2-z
1/2-x,1/2+y,1/2-z
-x,-y,-z
x,y,-z
1/2-x,1/2+y,1/2+z
1/2+x,1/2-y,1/2+z
loop_
_atom_site_type_symbol
_atom_site_label
_atom_site_fract_x
_atom_site_fract_y
_atom_site_fract_z
Si Si1 0.613292 0.771219 0.173362
Si Si2 0.110918 0.902660 0.174985
Si Si3 0.719847 0.318534 0.829465
Si Si4 0.607967 0.226024 0.827346
Si Si5 0.384907 0.504636 0.337775
Si Si6 0.277829 0.321334 0.174604
Si Si7 0.904359 0.906038 0.673720
O O1 0.679340 0.811392 0.243274
O O2 0.503000 0.777584 0.227449
O O3 0.651049 0.720592 0.222284
O O4 0.621270 0.776301 0.000000
O O5 0.186389 0.867450 0.246144
O O6 0.004628 0.895284 0.243892
O O7 0.153570 0.954018 0.211978
O O8 0.102716 0.895092 0.000000
O O9 0.643367 0.277971 0.793074
O O10 0.672312 0.366763 0.779973
O O11 0.747069 0.319103 0.000000
O O12 0.669416 0.189321 0.732547
O O13 0.618701 0.214223 0.000000
O O14 0.500000 0.500000 0.348196
O O15 0.343553 0.517923 0.500000
O O16 0.357208 0.544732 0.221673
O O17 0.276306 0.328993 0.000000
O O18 0.925186 0.906052 0.500000
#
# Coordination Sequence:
#
# PCOD8235358 Si02
#       7
#     8   8   8   8   8   8   8
#     4   9  18  31  46  64  88 117 149 183 214 252
#     4  10  19  30  44  63  89 120 149 178 216 261
#     4   9  18  30  44  64  90 117 145 178 216 257
#     4   9  17  31  46  61  87 119 147 178 215 252
#     4   8  16  29  42  60  87 116 146 178 213 259
#     4  10  19  30  45  67  90 113 147 184 216 255
#     4  10  18  28  44  66  91 118 147 181 219 257
#
# _framework density 15.605914
#
# number of rings (size 3 to 8) (size 9 to 14) (size 15 to 20)
#    0.000    2.714    0.000    3.000    0.000    7.714 
#    0.000    2.857    0.000    0.000    0.000    1.000 
#    0.000    8.000    0.000    0.000    0.000    0.000 
#
# Total GULP energy -694315.755844 kJ/mol
# GULP energy per Si atom -12398.495640 kJ/mol
# Density = 1.557039 g / cm^3
# Si number density = 15.605914 Si / 1000 Ang^3
#
#
#
# Elastic Constant Matrix: (Units=GPa)
#
#
# Indices 1 2 3 4 5 6 
#
# 1 103.2262 56.9716 41.0902 0.0000 0.0000 0.0000
# 2 56.9716 118.3089 50.0550 0.0000 0.0000 0.0000
# 3 41.0902 50.0550 62.1934 0.0000 0.0000 0.0000
# 4 0.0000 0.0000 0.0000 27.1915 0.0000 0.0000
# 5 0.0000 0.0000 0.0000 0.0000 25.2415 0.0000
# 6 0.0000 0.0000 0.0000 0.0000 0.0000 23.0238
#
#
#
# Elastic Compliance Matrix: (Units=1/GPa)
#
#
# Indices 1 2 3 4 5 6 
#
# 1 0.014544 -0.004455 -0.006023 0.000000 0.000000 0.000000
# 2 -0.004455 0.014182 -0.008470 0.000000 0.000000 0.000000
# 3 -0.006023 -0.008470 0.026875 0.000000 0.000000 0.000000
# 4 0.000000 0.000000 0.000000 0.036776 0.000000 0.000000
# 5 0.000000 0.000000 0.000000 0.000000 0.039617 0.000000
# 6 0.000000 0.000000 0.000000 0.000000 0.000000 0.043433
#
#
# Mechanical properties :
#
#
# Convention : Reuss Voigt Hill
#
# Bulk Modulus (GPa) = 56.48598 64.44022 60.46310
# Shear Modulus (GPa) = 22.80751 24.13215 23.46983
#
# Velocity S-wave (km/s) = 3.82706 3.93663 3.88223
# Velocity P-wave (km/s) = 7.47010 7.87684 7.67616
#
# Compressibility (1/GPa) = 0.01770351
#
# Stress axis : x y z
#
# Youngs Moduli (GPa) = 68.75689 70.51438 37.20887
#
# Poissons Ratio (x) = 0.31416 0.22412
# Poissons Ratio (y) = 0.30633 0.31516
# Poissons Ratio (z) = 0.41414 0.59727
#
# Static dielectric constant tensor:
#      x y z
#    x 2.829900 0.000000 0.000000 
#    y 0.000000 3.203590 0.000000 
#    z 0.000000 0.000000 3.015930 
# 
# 
# High freq. dielectric constant tensor:
#      x y z
#    x 1.568840 0.000000 0.000000 
#    y 0.000000 1.595710 0.000000 
#    z 0.000000 0.000000 1.606370 
# 
# From -- ./inp_files/7107.got.cif
#   From: 2010.06.25/outbox.cif.g09.slc.cpg/sg58_4_cif.got.tgz:7107.got - 2010.06.26 21:38:00.
