data_PCOD8235878
_publ_section_title
;
Structure prediction by ZEFSAII (Michael W. Deem and Ramdas Pophale) SiO2 
 PCOD8235878
Probable space group: P N N M
;
_chemical_formula_sum "Si O2"
_cell_formula_units_Z 56
_cell_length_a 19.896765
_cell_length_b 17.241300
_cell_length_c 9.579517
_cell_angle_alpha 90.000000
_cell_angle_beta 90.000000
_cell_angle_gamma 90.000000
_cell_volume 3286.215893
_symmetry_space_group_name_H-M "P N N M"
_symmetry_group_IT_number 58
_symmetry_cell_setting 'orthorhombic'
loop_
_space_group_symop_operation_xyz
x,y,z
-x,-y,z
1/2+x,1/2-y,1/2-z
1/2-x,1/2+y,1/2-z
-x,-y,-z
x,y,-z
1/2-x,1/2+y,1/2+z
1/2+x,1/2-y,1/2+z
loop_
_atom_site_type_symbol
_atom_site_label
_atom_site_fract_x
_atom_site_fract_y
_atom_site_fract_z
Si Si1 0.704320 0.442411 0.839558
Si Si2 0.893325 0.026759 0.843610
Si Si3 0.855879 0.479250 0.163457
Si Si4 0.466422 0.083414 0.847170
Si Si5 0.608568 0.127069 0.161799
Si Si6 0.485316 0.623800 0.656585
Si Si7 0.383198 0.701715 0.838484
O O1 0.670354 0.513710 0.756377
O O2 0.783336 0.441882 0.811164
O O3 0.674988 0.358650 0.792041
O O4 0.687724 0.458191 0.000000
O O5 0.938825 0.100409 0.795551
O O6 0.939756 0.951922 0.839161
O O7 0.866146 0.040944 0.000000
O O8 0.908191 0.417791 0.230571
O O9 0.858716 0.562957 0.237925
O O10 0.872234 0.489759 0.000000
O O11 0.528584 0.139478 0.807153
O O12 0.500000 0.000000 0.855261
O O13 0.436131 0.105257 0.000000
O O14 0.642545 0.210734 0.192284
O O15 0.619075 0.101590 0.000000
O O16 0.487424 0.657770 0.500000
O O17 0.453167 0.687404 0.757786
O O18 0.400705 0.691607 0.000000
#
# Coordination Sequence:
#
# PCOD8235878 Si02
#       7
#     8   8   8   8   8   8   8
#     4   9  18  30  45  68  95 123 157 193 227 273
#     4   8  14  25  42  63  88 118 151 185 221 265
#     4  10  19  30  47  71  96 121 151 192 237 276
#     4   8  15  29  48  69  89 110 145 189 227 271
#     4   9  18  32  50  70  91 119 156 195 233 279
#     4   8  14  25  41  64  91 115 146 190 228 261
#     4   9  17  30  48  68  91 123 158 191 232 278
#
# _framework density 17.040876999999998
#
# number of rings (size 3 to 8) (size 9 to 14) (size 15 to 20)
#    0.000    3.286    0.000    2.143    0.000    4.857 
#    0.000    2.857    3.143    0.000    0.000    0.000 
#    0.000    0.000    0.000    0.000    0.000    0.000 
#
# Total GULP energy -693893.115038 kJ/mol
# GULP energy per Si atom -12390.948483 kJ/mol
# Density = 1.700209 g / cm^3
# Si number density = 17.040877 Si / 1000 Ang^3
#
#
#
# Elastic Constant Matrix: (Units=GPa)
#
#
# Indices 1 2 3 4 5 6 
#
# 1 83.8473 29.8809 50.3510 0.0000 0.0000 0.0000
# 2 29.8809 59.1895 34.0378 0.0000 0.0000 0.0000
# 3 50.3510 34.0378 81.8441 0.0000 0.0000 0.0000
# 4 0.0000 0.0000 0.0000 15.1306 0.0000 0.0000
# 5 0.0000 0.0000 0.0000 0.0000 28.6029 0.0000
# 6 0.0000 0.0000 0.0000 0.0000 0.0000 17.3312
#
#
#
# Elastic Compliance Matrix: (Units=1/GPa)
#
#
# Indices 1 2 3 4 5 6 
#
# 1 0.019571 -0.003885 -0.010424 0.000000 0.000000 0.000000
# 2 -0.003885 0.022977 -0.007165 0.000000 0.000000 0.000000
# 3 -0.010424 -0.007165 0.021611 0.000000 0.000000 0.000000
# 4 0.000000 0.000000 0.000000 0.066091 0.000000 0.000000
# 5 0.000000 0.000000 0.000000 0.000000 0.034961 0.000000
# 6 0.000000 0.000000 0.000000 0.000000 0.000000 0.057700
#
#
# Mechanical properties :
#
#
# Convention : Reuss Voigt Hill
#
# Bulk Modulus (GPa) = 47.14970 50.38001 48.76485
# Shear Modulus (GPa) = 18.31959 19.58701 18.95330
#
# Velocity S-wave (km/s) = 3.28233 3.39398 3.33862
# Velocity P-wave (km/s) = 6.48796 6.70725 6.59851
#
# Compressibility (1/GPa) = 0.02120904
#
# Stress axis : x y z
#
# Youngs Moduli (GPa) = 51.09603 43.52180 46.27186
#
# Poissons Ratio (x) = 0.16910 0.48235
# Poissons Ratio (y) = 0.19853 0.33156
# Poissons Ratio (z) = 0.53264 0.31185
#
# Static dielectric constant tensor:
#      x y z
#    x 3.319380 0.000000 0.000000 
#    y 0.000000 3.203510 0.000000 
#    z 0.000000 0.000000 3.302800 
# 
# 
# High freq. dielectric constant tensor:
#      x y z
#    x 1.640780 0.000000 0.000000 
#    y 0.000000 1.628320 0.000000 
#    z 0.000000 0.000000 1.658920 
# 
# From -- ./inp_files/9179.got.cif
#   From: 2010.06.25/outbox.cif.g09.slc.cpg/sg58_5_cif.got.tgz:9179.got - 2010.06.26 21:38:00.
