data_PCOD8235282
_publ_section_title
;
Structure prediction by ZEFSAII (Michael W. Deem and Ramdas Pophale) SiO2 
 PCOD8235282
Probable space group: P N N M
;
_chemical_formula_sum "Si O2"
_cell_formula_units_Z 64
_cell_length_a 11.500571
_cell_length_b 17.308964
_cell_length_c 18.506578
_cell_angle_alpha 90.000000
_cell_angle_beta 90.000000
_cell_angle_gamma 90.000000
_cell_volume 3683.974370
_symmetry_space_group_name_H-M "P N N M"
_symmetry_group_IT_number 58
_symmetry_cell_setting 'orthorhombic'
loop_
_space_group_symop_operation_xyz
x,y,z
-x,-y,z
1/2+x,1/2-y,1/2-z
1/2-x,1/2+y,1/2-z
-x,-y,-z
x,y,-z
1/2-x,1/2+y,1/2+z
1/2+x,1/2-y,1/2+z
loop_
_atom_site_type_symbol
_atom_site_label
_atom_site_fract_x
_atom_site_fract_y
_atom_site_fract_z
Si Si1 0.929973 0.922368 0.801339
Si Si2 0.225839 0.148868 0.082587
Si Si3 0.874237 0.532021 0.920053
Si Si4 0.576428 0.853803 0.807611
Si Si5 0.090154 0.780295 0.799423
Si Si6 0.179699 0.357241 0.283616
Si Si7 0.786825 0.476363 0.774311
Si Si8 0.891060 0.700930 0.128744
O O1 0.869840 0.903699 0.877849
O O2 0.832376 0.930241 0.739302
O O3 0.012453 0.853294 0.775252
O O4 0.000000 0.000000 0.812451
O O5 0.351331 0.136267 0.119120
O O6 0.189163 0.238081 0.087548
O O7 0.234879 0.122216 0.000000
O O8 0.790142 0.496173 0.859484
O O9 0.885479 0.624169 0.918037
O O10 0.000000 0.500000 0.903211
O O11 0.829509 0.508071 0.000000
O O12 0.609290 0.772720 0.770669
O O13 0.440126 0.856049 0.828937
O O14 0.604516 0.923266 0.750836
O O15 0.216600 0.811956 0.825415
O O16 0.024335 0.732893 0.863213
O O17 0.216634 0.445529 0.272131
O O18 0.157362 0.313504 0.208624
#
# Coordination Sequence:
#
# PCOD8235282 Si02
#       8
#     8   8   8   8   8   8   8   8
#     4  10  20  34  53  79 102 132 177 224 267 307
#     4  10  20  34  52  73 104 143 176 215 264 319
#     4  10  19  32  51  78 109 143 176 211 264 329
#     4  10  20  32  52  79 106 132 179 220 266 312
#     4  10  18  31  51  81 103 130 171 226 267 305
#     4  10  17  30  53  77 103 131 169 225 264 308
#     4  10  19  33  53  78 107 134 173 225 267 307
#     4   9  18  31  49  77 106 132 177 217 265 307
#
# _framework density 17.372541999999999
#
# number of rings (size 3 to 8) (size 9 to 14) (size 15 to 20)
#    0.000    2.125    2.500    3.000    1.750    0.250 
#    0.000    0.000    0.000   10.875    0.000    0.000 
#    0.000    0.000    0.000    0.000    0.000    0.000 
#
# Total GULP energy -793450.218105 kJ/mol
# GULP energy per Si atom -12397.659658 kJ/mol
# Density = 1.733300 g / cm^3
# Si number density = 17.372542 Si / 1000 Ang^3
#
#
#
# Elastic Constant Matrix: (Units=GPa)
#
#
# Indices 1 2 3 4 5 6 
#
# 1 103.8877 32.3393 27.4652 0.0000 0.0000 0.0000
# 2 32.3393 88.1633 32.6005 0.0000 0.0000 0.0000
# 3 27.4652 32.6005 85.6469 0.0000 0.0000 0.0000
# 4 0.0000 0.0000 0.0000 17.2033 0.0000 0.0000
# 5 0.0000 0.0000 0.0000 0.0000 13.4881 0.0000
# 6 0.0000 0.0000 0.0000 0.0000 0.0000 30.3075
#
#
#
# Elastic Compliance Matrix: (Units=1/GPa)
#
#
# Indices 1 2 3 4 5 6 
#
# 1 0.011267 -0.003255 -0.002374 0.000000 0.000000 0.000000
# 2 -0.003255 0.014141 -0.004339 0.000000 0.000000 0.000000
# 3 -0.002374 -0.004339 0.014089 0.000000 0.000000 0.000000
# 4 0.000000 0.000000 0.000000 0.058128 0.000000 0.000000
# 5 0.000000 0.000000 0.000000 0.000000 0.074139 0.000000
# 6 0.000000 0.000000 0.000000 0.000000 0.000000 0.032995
#
#
# Mechanical properties :
#
#
# Convention : Reuss Voigt Hill
#
# Bulk Modulus (GPa) = 51.12280 51.38980 51.25630
# Shear Modulus (GPa) = 21.62493 24.55264 23.08879
#
# Velocity S-wave (km/s) = 3.53197 3.76347 3.64955
# Velocity P-wave (km/s) = 6.79149 6.96636 6.87948
#
# Compressibility (1/GPa) = 0.01956075
#
# Stress axis : x y z
#
# Youngs Moduli (GPa) = 88.75769 70.71696 70.97905
#
# Poissons Ratio (x) = 0.23017 0.16851
# Poissons Ratio (y) = 0.28889 0.30796
# Poissons Ratio (z) = 0.21072 0.30683
#
# Static dielectric constant tensor:
#      x y z
#    x 3.316730 0.000000 0.000000 
#    y 0.000000 3.545440 0.000000 
#    z 0.000000 0.000000 2.854950 
# 
# 
# High freq. dielectric constant tensor:
#      x y z
#    x 1.671520 0.000000 0.000000 
#    y 0.000000 1.691160 0.000000 
#    z 0.000000 0.000000 1.626760 
# 
# From -- ./inp_files/26478.got.cif
#   From: 2010.06.25/outbox.cif.g09.slc.cpg/sg58_14_cif.got.tgz:26478.got - 2010.06.26 21:38:00.
