data_PCOD8235721
_publ_section_title
;
Structure prediction by ZEFSAII (Michael W. Deem and Ramdas Pophale) SiO2 
 PCOD8235721
Probable space group: P N N M
;
_chemical_formula_sum "Si O2"
_cell_formula_units_Z 64
_cell_length_a 18.138449
_cell_length_b 9.050043
_cell_length_c 21.245091
_cell_angle_alpha 90.000000
_cell_angle_beta 90.000000
_cell_angle_gamma 90.000000
_cell_volume 3487.461217
_symmetry_space_group_name_H-M "P N N M"
_symmetry_group_IT_number 58
_symmetry_cell_setting 'orthorhombic'
loop_
_space_group_symop_operation_xyz
x,y,z
-x,-y,z
1/2+x,1/2-y,1/2-z
1/2-x,1/2+y,1/2-z
-x,-y,-z
x,y,-z
1/2-x,1/2+y,1/2+z
1/2+x,1/2-y,1/2+z
loop_
_atom_site_type_symbol
_atom_site_label
_atom_site_fract_x
_atom_site_fract_y
_atom_site_fract_z
Si Si1 0.730718 0.760640 0.649191
Si Si2 0.589581 0.262682 0.430465
Si Si3 0.714592 0.492777 0.429609
Si Si4 0.022945 0.171888 0.803581
Si Si5 0.661709 0.180604 0.253817
Si Si6 0.276230 0.952948 0.571327
Si Si7 0.711693 0.767767 0.149820
Si Si8 0.887716 0.342583 0.245748
O O1 0.706871 0.662381 0.589650
O O2 0.806439 0.712421 0.684023
O O3 0.664399 0.755592 0.698093
O O4 0.738725 0.921801 0.621363
O O5 0.552667 0.247124 0.500000
O O6 0.635613 0.413965 0.427640
O O7 0.527282 0.274749 0.376770
O O8 0.643539 0.122970 0.418594
O O9 0.748119 0.479749 0.500000
O O10 0.767127 0.429580 0.375003
O O11 0.101841 0.193143 0.770144
O O12 0.969603 0.287830 0.768548
O O13 0.000000 0.000000 0.797630
O O14 0.727110 0.197506 0.303855
O O15 0.624008 0.018990 0.258529
O O16 0.266655 0.007326 0.500000
O O17 0.211556 0.834440 0.587349
O O18 0.633471 0.784547 0.184262
#
# Coordination Sequence:
#
# PCOD8235721 Si02
#       8
#     8   8   8   8   8   8   8   8
#     4  11  21  34  57  86 115 141 189 241 293 334
#     4   9  19  38  57  78 118 159 188 226 277 336
#     4  10  18  33  58  84 113 143 184 232 281 344
#     4  12  24  36  56  82 112 155 204 231 278 337
#     4  11  22  38  55  77 117 155 182 241 293 333
#     4  10  19  34  59  85 114 147 183 230 283 342
#     4  10  19  36  58  82 108 148 190 228 298 334
#     4  11  23  35  57  80 115 152 190 241 280 339
#
# _framework density 18.351458000000001
#
# number of rings (size 3 to 8) (size 9 to 14) (size 15 to 20)
#    0.000    1.500    5.000    2.625    1.750    0.250 
#    0.000    1.250    0.000    2.250    0.000    5.250 
#    0.000    0.000    0.000    0.000    0.000    0.000 
#
# Total GULP energy -793103.172738 kJ/mol
# GULP energy per Si atom -12392.237074 kJ/mol
# Density = 1.830969 g / cm^3
# Si number density = 18.351458 Si / 1000 Ang^3
#
#
#
# Elastic Constant Matrix: (Units=GPa)
#
#
# Indices 1 2 3 4 5 6 
#
# 1 58.6363 22.5735 29.3891 0.0000 0.0000 0.0000
# 2 22.5735 89.8804 22.0517 0.0000 0.0000 0.0000
# 3 29.3891 22.0517 68.8197 0.0000 0.0000 0.0000
# 4 0.0000 0.0000 0.0000 27.9927 0.0000 0.0000
# 5 0.0000 0.0000 0.0000 0.0000 31.2630 0.0000
# 6 0.0000 0.0000 0.0000 0.0000 0.0000 18.4547
#
#
#
# Elastic Compliance Matrix: (Units=1/GPa)
#
#
# Indices 1 2 3 4 5 6 
#
# 1 0.022729 -0.003611 -0.008549 0.000000 0.000000 0.000000
# 2 -0.003611 0.012649 -0.002511 0.000000 0.000000 0.000000
# 3 -0.008549 -0.002511 0.018986 0.000000 0.000000 0.000000
# 4 0.000000 0.000000 0.000000 0.035724 0.000000 0.000000
# 5 0.000000 0.000000 0.000000 0.000000 0.031987 0.000000
# 6 0.000000 0.000000 0.000000 0.000000 0.000000 0.054187
#
#
# Mechanical properties :
#
#
# Convention : Reuss Voigt Hill
#
# Bulk Modulus (GPa) = 39.96510 40.59610 40.28060
# Shear Modulus (GPa) = 23.37048 25.09689 24.23368
#
# Velocity S-wave (km/s) = 3.57248 3.70208 3.63785
# Velocity P-wave (km/s) = 6.23231 6.35951 6.29623
#
# Compressibility (1/GPa) = 0.02502183
#
# Stress axis : x y z
#
# Youngs Moduli (GPa) = 43.99571 79.05864 52.66950
#
# Poissons Ratio (x) = 0.28548 0.45030
# Poissons Ratio (y) = 0.15887 0.13225
# Poissons Ratio (z) = 0.37614 0.19852
#
# Static dielectric constant tensor:
#      x y z
#    x 3.068420 0.000000 0.000000 
#    y 0.000000 3.405350 0.000000 
#    z 0.000000 0.000000 3.650450 
# 
# 
# High freq. dielectric constant tensor:
#      x y z
#    x 1.661940 0.000000 0.000000 
#    y 0.000000 1.725840 0.000000 
#    z 0.000000 0.000000 1.720640 
# 
# From -- ./inp_files/30274.got.cif
#   From: 2010.06.25/outbox.cif.g09.slc.cpg/sg58_16_cif.got.tgz:30274.got - 2010.06.26 21:38:00.
