data_PCOD8235469
_publ_section_title
;
Structure prediction by ZEFSAII (Michael W. Deem and Ramdas Pophale) SiO2 
 PCOD8235469
Probable space group: P N N M
;
_chemical_formula_sum "Si O2"
_cell_formula_units_Z 64
_cell_length_a 22.545646
_cell_length_b 5.273855
_cell_length_c 27.954894
_cell_angle_alpha 90.000000
_cell_angle_beta 90.000000
_cell_angle_gamma 90.000000
_cell_volume 3323.905886
_symmetry_space_group_name_H-M "P N N M"
_symmetry_group_IT_number 58
_symmetry_cell_setting 'orthorhombic'
loop_
_space_group_symop_operation_xyz
x,y,z
-x,-y,z
1/2+x,1/2-y,1/2-z
1/2-x,1/2+y,1/2-z
-x,-y,-z
x,y,-z
1/2-x,1/2+y,1/2+z
1/2+x,1/2-y,1/2+z
loop_
_atom_site_type_symbol
_atom_site_label
_atom_site_fract_x
_atom_site_fract_y
_atom_site_fract_z
Si Si1 0.928647 0.750000 0.709862
Si Si2 0.465977 0.750000 0.683673
Si Si3 0.271775 0.750002 0.946634
Si Si4 0.631797 0.249998 0.609794
Si Si5 0.868575 0.249998 0.946602
Si Si6 0.517843 0.750000 0.118992
Si Si7 0.872672 0.250000 0.678400
Si Si8 0.228084 0.750002 0.390346
O O1 0.963555 0.750000 0.759210
O O2 0.978249 0.750000 0.668220
O O3 0.886540 0.502556 0.708527
O O4 0.886540 0.997445 0.708527
O O5 0.500000 0.500000 0.665648
O O6 0.400263 0.750000 0.661034
O O7 0.500000 0.000000 0.665648
O O8 0.201662 0.750001 0.950375
O O9 0.293052 0.498497 0.919175
O O10 0.293052 0.001510 0.919176
O O11 0.299330 0.750001 0.000000
O O12 0.610669 0.497138 0.580593
O O13 0.701945 0.249997 0.619589
O O14 0.610669 0.002856 0.580594
O O15 0.896051 0.249999 0.000000
O O16 0.500000 0.500000 0.088967
O O17 0.587068 0.750000 0.130459
O O18 0.500000 0.000000 0.088967
O O19 0.804576 0.249999 0.661053
#
# Coordination Sequence:
#
# PCOD8235469 Si02
#       8
#     8   8   8   8   8   8   8   8
#     4  10  19  33  51  73  97 131 177 219 248 285
#     4  12  23  38  58  76  99 135 178 222 261 295
#     4   9  17  30  50  75 103 137 175 206 244 302
#     4  10  21  35  53  80 107 132 171 211 256 318
#     4   9  17  33  57  78 100 135 171 208 254 306
#     4   8  14  25  42  63  89 116 157 205 238 269
#     4  10  18  30  49  74 105 133 164 209 259 299
#     4  10  19  32  50  77 111 137 160 208 264 308
#
# _framework density 19.254453999999999
#
# number of rings (size 3 to 8) (size 9 to 14) (size 15 to 20)
#    0.000    2.250    0.000    5.250    0.000    3.000 
#    0.000    1.250    0.000    7.500    0.000    0.000 
#    0.000   90.000    0.000    0.000    0.000    0.000 
#
# Total GULP energy -793348.574424 kJ/mol
# GULP energy per Si atom -12396.071475 kJ/mol
# Density = 1.921063 g / cm^3
# Si number density = 19.254454 Si / 1000 Ang^3
#
#
#
# Elastic Constant Matrix: (Units=GPa)
#
#
# Indices 1 2 3 4 5 6 
#
# 1 61.6346 32.5954 29.4840 0.0000 0.0000 0.0000
# 2 32.5954 193.6180 23.8419 0.0000 0.0000 0.0000
# 3 29.4840 23.8419 46.5347 0.0000 0.0000 0.0000
# 4 0.0000 0.0000 0.0000 16.0094 0.0000 0.0000
# 5 0.0000 0.0000 0.0000 0.0000 14.5592 0.0000
# 6 0.0000 0.0000 0.0000 0.0000 0.0000 16.0876
#
#
#
# Elastic Compliance Matrix: (Units=1/GPa)
#
#
# Indices 1 2 3 4 5 6 
#
# 1 0.024232 -0.002336 -0.014156 0.000000 0.000000 0.000000
# 2 -0.002336 0.005738 -0.001460 0.000000 0.000000 0.000000
# 3 -0.014156 -0.001460 0.031206 0.000000 0.000000 0.000000
# 4 0.000000 0.000000 0.000000 0.062463 0.000000 0.000000
# 5 0.000000 0.000000 0.000000 0.000000 0.068685 0.000000
# 6 0.000000 0.000000 0.000000 0.000000 0.000000 0.062160
#
#
# Mechanical properties :
#
#
# Convention : Reuss Voigt Hill
#
# Bulk Modulus (GPa) = 39.56914 52.62554 46.09734
# Shear Modulus (GPa) = 16.73291 23.72232 20.22761
#
# Velocity S-wave (km/s) = 2.95115 3.51386 3.24472
# Velocity P-wave (km/s) = 5.67518 6.62222 6.16691
#
# Compressibility (1/GPa) = 0.02527222
#
# Stress axis : x y z
#
# Youngs Moduli (GPa) = 41.26762 174.28165 32.04475
#
# Poissons Ratio (x) = 0.40717 0.45363
# Poissons Ratio (y) = 0.09641 0.04677
# Poissons Ratio (z) = 0.58419 0.25437
#
# Static dielectric constant tensor:
#      x y z
#    x 3.163970 0.000000 0.000000 
#    y 0.000000 4.465060 0.000000 
#    z 0.000000 0.000000 3.156790 
# 
# 
# High freq. dielectric constant tensor:
#      x y z
#    x 1.719790 0.000000 0.000000 
#    y 0.000000 1.785620 0.000000 
#    z 0.000000 0.000000 1.706860 
# 
# From -- ./inp_files/33860.got.cif
#   From: 2010.06.25/outbox.cif.g09.slc.cpg/sg58_17_cif.got.tgz:33860.got - 2010.06.26 21:38:00.
