data_PCOD8235543
_publ_section_title
;
Structure prediction by ZEFSAII (Michael W. Deem and Ramdas Pophale) SiO2 
 PCOD8235543
Probable space group: P N N M
;
_chemical_formula_sum "Si O2"
_cell_formula_units_Z 64
_cell_length_a 30.367661
_cell_length_b 14.673428
_cell_length_c 8.573737
_cell_angle_alpha 90.000000
_cell_angle_beta 90.000000
_cell_angle_gamma 90.000000
_cell_volume 3820.437378
_symmetry_space_group_name_H-M "P N N M"
_symmetry_group_IT_number 58
_symmetry_cell_setting 'orthorhombic'
loop_
_space_group_symop_operation_xyz
x,y,z
-x,-y,z
1/2+x,1/2-y,1/2-z
1/2-x,1/2+y,1/2-z
-x,-y,-z
x,y,-z
1/2-x,1/2+y,1/2+z
1/2+x,1/2-y,1/2+z
loop_
_atom_site_type_symbol
_atom_site_label
_atom_site_fract_x
_atom_site_fract_y
_atom_site_fract_z
Si Si1 0.206194 0.814112 0.684639
Si Si2 0.548587 0.097273 0.317016
Si Si3 0.706779 0.294607 0.685094
Si Si4 0.822994 0.503739 0.314668
Si Si5 0.365724 0.176477 0.184547
Si Si6 0.775140 0.998619 0.184402
Si Si7 0.629157 0.182713 0.815384
Si Si8 0.044320 0.599596 0.683696
O O1 0.207970 0.811481 0.500000
O O2 0.251161 0.764607 0.748329
O O3 0.162203 0.762323 0.747571
O O4 0.198318 0.917135 0.742109
O O5 0.553330 0.081069 0.500000
O O6 0.580328 0.179669 0.259438
O O7 0.498936 0.128456 0.278123
O O8 0.559677 0.002965 0.227499
O O9 0.706206 0.288974 0.500000
O O10 0.709360 0.399403 0.742018
O O11 0.659973 0.263064 0.752863
O O12 0.823566 0.499608 0.500000
O O13 0.843811 0.413328 0.241574
O O14 0.773864 0.512803 0.252290
O O15 0.849383 0.589907 0.253330
O O16 0.417585 0.173169 0.229040
O O17 0.360903 0.172097 0.000000
O O18 0.778659 0.005537 0.000000
O O19 0.625366 0.190750 0.000000
O O20 0.034494 0.601088 0.500000
#
# Coordination Sequence:
#
# PCOD8235543 Si02
#       8
#     8   8   8   8   8   8   8   8
#     4  10  19  31  49  72  97 127 166 207 243 281
#     4  11  21  32  46  70 104 131 158 201 254 296
#     4  10  20  32  48  70  99 132 165 203 248 289
#     4   9  15  26  46  69  93 127 166 199 233 277
#     4   9  16  29  49  71  95 129 167 202 239 283
#     4  10  19  33  49  67  98 136 168 201 244 291
#     4  11  20  32  51  71  95 130 173 207 239 291
#     4  10  18  31  51  72  96 131 172 201 238 294
#
# _framework density 16.752009000000001
#
# number of rings (size 3 to 8) (size 9 to 14) (size 15 to 20)
#    0.000    2.000    3.750    2.625    0.000    0.500 
#    0.000    1.250    0.000    0.000    0.000    0.875 
#    0.000    7.000    0.000    0.000    0.000    0.000 
#
# Total GULP energy -793175.467687 kJ/mol
# GULP energy per Si atom -12393.366683 kJ/mol
# Density = 1.671388 g / cm^3
# Si number density = 16.752009 Si / 1000 Ang^3
#
#
#
# Elastic Constant Matrix: (Units=GPa)
#
#
# Indices 1 2 3 4 5 6 
#
# 1 105.8153 51.1826 17.9587 0.0000 0.0000 0.0000
# 2 51.1826 106.5363 18.4603 0.0000 0.0000 0.0000
# 3 17.9587 18.4603 35.5751 0.0000 0.0000 0.0000
# 4 0.0000 0.0000 0.0000 21.5857 0.0000 0.0000
# 5 0.0000 0.0000 0.0000 0.0000 20.0378 0.0000
# 6 0.0000 0.0000 0.0000 0.0000 0.0000 27.9095
#
#
#
# Elastic Compliance Matrix: (Units=1/GPa)
#
#
# Indices 1 2 3 4 5 6 
#
# 1 0.012711 -0.005488 -0.003569 0.000000 0.000000 0.000000
# 2 -0.005488 0.012684 -0.003811 0.000000 0.000000 0.000000
# 3 -0.003569 -0.003811 0.031889 0.000000 0.000000 0.000000
# 4 0.000000 0.000000 0.000000 0.046327 0.000000 0.000000
# 5 0.000000 0.000000 0.000000 0.000000 0.049906 0.000000
# 6 0.000000 0.000000 0.000000 0.000000 0.000000 0.035830
#
#
# Mechanical properties :
#
#
# Convention : Reuss Voigt Hill
#
# Bulk Modulus (GPa) = 31.69872 47.01445 39.35659
# Shear Modulus (GPa) = 22.16341 24.59495 23.37918
#
# Velocity S-wave (km/s) = 3.64129 3.83584 3.73983
# Velocity P-wave (km/s) = 6.05327 6.90971 6.49562
#
# Compressibility (1/GPa) = 0.03154701
#
# Stress axis : x y z
#
# Youngs Moduli (GPa) = 78.67389 78.84258 31.35914
#
# Poissons Ratio (x) = 0.43270 0.11191
# Poissons Ratio (y) = 0.43178 0.11951
# Poissons Ratio (z) = 0.28076 0.30048
#
# Static dielectric constant tensor:
#      x y z
#    x 3.336760 0.000000 0.000000 
#    y 0.000000 3.141080 0.000000 
#    z 0.000000 0.000000 2.863480 
# 
# 
# High freq. dielectric constant tensor:
#      x y z
#    x 1.644460 0.000000 0.000000 
#    y 0.000000 1.618820 0.000000 
#    z 0.000000 0.000000 1.628510 
# 
# From -- ./inp_files/11148.got.cif
#   From: 2010.06.25/outbox.cif.g09.slc.cpg/sg58_6_cif.got.tgz:11148.got - 2010.06.26 21:38:00.
