data_PCOD8235263
_publ_section_title
;
Structure prediction by ZEFSAII (Michael W. Deem and Ramdas Pophale) SiO2 
 PCOD8235263
Probable space group: P N N M
;
_chemical_formula_sum "Si O2"
_cell_formula_units_Z 40
_cell_length_a 14.861021
_cell_length_b 18.987853
_cell_length_c 8.852758
_cell_angle_alpha 90.000000
_cell_angle_beta 90.000000
_cell_angle_gamma 90.000000
_cell_volume 2498.061357
_symmetry_space_group_name_H-M "P N N M"
_symmetry_group_IT_number 58
_symmetry_cell_setting 'orthorhombic'
loop_
_space_group_symop_operation_xyz
x,y,z
-x,-y,z
1/2+x,1/2-y,1/2-z
1/2-x,1/2+y,1/2-z
-x,-y,-z
x,y,-z
1/2-x,1/2+y,1/2+z
1/2+x,1/2-y,1/2+z
loop_
_atom_site_type_symbol
_atom_site_label
_atom_site_fract_x
_atom_site_fract_y
_atom_site_fract_z
Si Si1 0.005954 0.774117 0.831098
Si Si2 0.658467 0.626802 0.332834
Si Si3 0.659595 0.335695 0.821848
Si Si4 0.322391 0.237761 0.177137
Si Si5 0.599483 0.478214 0.322911
O O1 0.912203 0.779846 0.743434
O O2 0.051662 0.852003 0.839667
O O3 0.076698 0.723494 0.742215
O O4 0.988267 0.744566 0.000000
O O5 0.700632 0.637748 0.500000
O O6 0.707734 0.681268 0.218245
O O7 0.664375 0.545239 0.285406
O O8 0.756821 0.317894 0.754806
O O9 0.635670 0.414837 0.776890
O O10 0.661383 0.328345 0.000000
O O11 0.320707 0.226123 0.000000
O O12 0.500000 0.500000 0.272232
O O13 0.603787 0.458643 0.500000
#
# Coordination Sequence:
#
# PCOD8235263 Si02
#       5
#     8   8   8   8   8
#     4   9  17  32  48  66  94 125 157 197 240 281
#     4   8  16  30  47  64  93 126 153 191 238 283
#     4  12  22  30  46  73 101 131 166 198 235 286
#     4  10  19  32  48  67  94 127 164 200 238 286
#     4  10  17  29  47  68  97 129 156 191 243 293
#
# _framework density 16.012418
#
# number of rings (size 3 to 8) (size 9 to 14) (size 15 to 20)
#    1.200    1.000    2.000    3.600    0.000    1.200 
#    0.000    0.000    0.000    0.000    0.000    1.400 
#    0.000   11.200    0.000    0.000    0.000    0.000 
#
# Total GULP energy -495578.740716 kJ/mol
# GULP energy per Si atom -12389.468518 kJ/mol
# Density = 1.597597 g / cm^3
# Si number density = 16.012418 Si / 1000 Ang^3
#
#
#
# Elastic Constant Matrix: (Units=GPa)
#
#
# Indices 1 2 3 4 5 6 
#
# 1 10.0516 5.4091 8.3845 0.0000 0.0000 0.0000
# 2 5.4091 36.3582 21.8547 0.0000 0.0000 0.0000
# 3 8.3845 21.8547 115.4907 0.0000 0.0000 0.0000
# 4 0.0000 0.0000 0.0000 25.3570 0.0000 0.0000
# 5 0.0000 0.0000 0.0000 0.0000 25.3042 0.0000
# 6 0.0000 0.0000 0.0000 0.0000 0.0000 22.3092
#
#
#
# Elastic Compliance Matrix: (Units=1/GPa)
#
#
# Indices 1 2 3 4 5 6 
#
# 1 0.111241 -0.013196 -0.005579 0.000000 0.000000 0.000000
# 2 -0.013196 0.032600 -0.005211 0.000000 0.000000 0.000000
# 3 -0.005579 -0.005211 0.010050 0.000000 0.000000 0.000000
# 4 0.000000 0.000000 0.000000 0.039437 0.000000 0.000000
# 5 0.000000 0.000000 0.000000 0.000000 0.039519 0.000000
# 6 0.000000 0.000000 0.000000 0.000000 0.000000 0.044825
#
#
# Mechanical properties :
#
#
# Convention : Reuss Voigt Hill
#
# Bulk Modulus (GPa) = 9.44119 25.91079 17.67599
# Shear Modulus (GPa) = 13.85238 23.01092 18.43165
#
# Velocity S-wave (km/s) = 2.94445 3.79498 3.39644
# Velocity P-wave (km/s) = 4.17956 5.95141 5.14237
#
# Compressibility (1/GPa) = 0.10591886
#
# Stress axis : x y z
#
# Youngs Moduli (GPa) = 8.98948 30.67528 99.50448
#
# Poissons Ratio (x) = 0.40479 0.55512
# Poissons Ratio (y) = 0.11863 0.51851
# Poissons Ratio (z) = 0.05015 0.15985
#
# Static dielectric constant tensor:
#      x y z
#    x 2.793250 0.000000 0.000000 
#    y 0.000000 2.805970 0.000000 
#    z 0.000000 0.000000 2.987770 
# 
# 
# High freq. dielectric constant tensor:
#      x y z
#    x 1.583050 0.000000 0.000000 
#    y 0.000000 1.587470 0.000000 
#    z 0.000000 0.000000 1.623660 
# 
# From -- ./inp_files/5394.got.cif
#   From: 2010.06.25/outbox.cif.g09.slc.cpg/sg58_3_cif.got.tgz:5394.got - 2010.06.26 21:38:00.
