data_PCOD8235120
_publ_section_title
;
Structure prediction by ZEFSAII (Michael W. Deem and Ramdas Pophale) SiO2 
 PCOD8235120
Probable space group: P B C M
;
_chemical_formula_sum "Si O2"
_cell_formula_units_Z 32
_cell_length_a 4.977436
_cell_length_b 11.304323
_cell_length_c 22.660403
_cell_angle_alpha 90.000000
_cell_angle_beta 90.000000
_cell_angle_gamma 90.000000
_cell_volume 1275.022568
_symmetry_space_group_name_H-M "P B C M"
_symmetry_group_IT_number 57
_symmetry_cell_setting 'orthorhombic'
loop_
_space_group_symop_operation_xyz
x,y,z
-x,-y,1/2+z
x,1/2-y,-z
-x,1/2+y,1/2-z
-x,-y,-z
x,y,1/2-z
-x,1/2+y,z
x,1/2-y,1/2+z
loop_
_atom_site_type_symbol
_atom_site_label
_atom_site_fract_x
_atom_site_fract_y
_atom_site_fract_z
Si Si1 0.477332 0.704103 0.434477
Si Si2 0.373820 0.953018 0.750000
Si Si3 0.126752 0.206849 0.250000
Si Si4 0.747703 0.623289 0.650762
Si Si5 0.975182 0.951696 0.934499
O O1 0.527944 0.750000 0.500000
O O2 0.528452 0.689382 0.610602
O O3 0.174917 0.659138 0.425360
O O4 0.675247 0.593826 0.422071
O O5 0.571546 0.842777 0.750000
O O6 0.072156 0.903114 0.750000
O O7 0.416657 0.031782 0.808314
O O8 0.085802 0.285551 0.191567
O O9 0.965732 0.557164 0.610523
O O10 0.000000 0.000000 0.000000
#
# Coordination Sequence:
#
# PCOD8235120 Si02
#       5
#     8   4   4   8   8
#     4  12  26  44  69 105 145 189 236 288 355 430
#     4  11  26  49  72 108 140 187 247 298 362 426
#     4  11  26  49  72 106 138 187 243 298 360 428
#     4  11  26  45  77 102 146 191 235 305 359 428
#     4  12  26  45  68 106 145 190 237 290 355 429
#
# _framework density 25.097593
#
# number of rings (size 3 to 8) (size 9 to 14) (size 15 to 20)
#    0.000    0.500    2.500    4.500    0.000    8.000 
#    0.000    0.000    0.000    0.000    0.000    0.000 
#    0.000    0.000    0.000    0.000    0.000    0.000 
#
# Total GULP energy -397153.714427 kJ/mol
# GULP energy per Si atom -12411.053576 kJ/mol
# Density = 2.504047 g / cm^3
# Si number density = 25.097593 Si / 1000 Ang^3
#
#
#
# Elastic Constant Matrix: (Units=GPa)
#
#
# Indices 1 2 3 4 5 6 
#
# 1 62.5099 11.6468 8.6407 0.0000 0.0000 0.0000
# 2 11.6468 121.1925 63.0888 0.0000 0.0000 0.0000
# 3 8.6407 63.0888 181.1279 0.0000 0.0000 0.0000
# 4 0.0000 0.0000 0.0000 63.8633 0.0000 0.0000
# 5 0.0000 0.0000 0.0000 0.0000 18.1462 0.0000
# 6 0.0000 0.0000 0.0000 0.0000 0.0000 28.1967
#
#
#
# Elastic Compliance Matrix: (Units=1/GPa)
#
#
# Indices 1 2 3 4 5 6 
#
# 1 0.016301 -0.001419 -0.000283 0.000000 0.000000 0.000000
# 2 -0.001419 0.010202 -0.003486 0.000000 0.000000 0.000000
# 3 -0.000283 -0.003486 0.006749 0.000000 0.000000 0.000000
# 4 0.000000 0.000000 0.000000 0.015658 0.000000 0.000000
# 5 0.000000 0.000000 0.000000 0.000000 0.055108 0.000000
# 6 0.000000 0.000000 0.000000 0.000000 0.000000 0.035465
#
#
# Mechanical properties :
#
#
# Convention : Reuss Voigt Hill
#
# Bulk Modulus (GPa) = 43.71506 59.06478 51.38992
# Shear Modulus (GPa) = 31.74898 40.80483 36.27690
#
# Velocity S-wave (km/s) = 3.56057 4.03655 3.80601
# Velocity P-wave (km/s) = 5.86169 6.73128 6.31148
#
# Compressibility (1/GPa) = 0.02287541
#
# Stress axis : x y z
#
# Youngs Moduli (GPa) = 61.34582 98.01660 148.17769
#
# Poissons Ratio (x) = 0.13909 0.04199
# Poissons Ratio (y) = 0.08705 0.51653
# Poissons Ratio (z) = 0.01738 0.34168
#
# Static dielectric constant tensor:
#      x y z
#    x 4.158520 0.000000 0.000000 
#    y 0.000000 4.721870 0.000000 
#    z 0.000000 0.000000 4.907540 
# 
# 
# High freq. dielectric constant tensor:
#      x y z
#    x 1.986350 0.000000 0.000000 
#    y 0.000000 2.019150 0.000000 
#    z 0.000000 0.000000 2.025140 
# 
# From -- ./inp_files/23376.got.cif
#   From: 2010.03.12/outbox.cif.g09.slc.cpg/sg57_12_cif.got.tgz:23376.got - 2010.04.16 15:48:40.
