data_PCOD8235951
_publ_section_title
;
Structure prediction by ZEFSAII (Michael W. Deem and Ramdas Pophale) SiO2 
 PCOD8235951
Probable space group: P N N M
;
_chemical_formula_sum "Si O2"
_cell_formula_units_Z 64
_cell_length_a 18.827974
_cell_length_b 21.563598
_cell_length_c 8.728634
_cell_angle_alpha 90.000000
_cell_angle_beta 90.000000
_cell_angle_gamma 90.000000
_cell_volume 3543.815475
_symmetry_space_group_name_H-M "P N N M"
_symmetry_group_IT_number 58
_symmetry_cell_setting 'orthorhombic'
loop_
_space_group_symop_operation_xyz
x,y,z
-x,-y,z
1/2+x,1/2-y,1/2-z
1/2-x,1/2+y,1/2-z
-x,-y,-z
x,y,-z
1/2-x,1/2+y,1/2+z
1/2+x,1/2-y,1/2+z
loop_
_atom_site_type_symbol
_atom_site_label
_atom_site_fract_x
_atom_site_fract_y
_atom_site_fract_z
Si Si1 0.318361 0.408467 0.681213
Si Si2 0.422569 0.514343 0.680029
Si Si3 0.532132 0.807911 0.322428
Si Si4 0.524606 0.065549 0.318678
Si Si5 0.429556 0.639810 0.826349
Si Si6 0.584418 0.691096 0.821278
Si Si7 0.325897 0.880337 0.681301
Si Si8 0.388987 0.771005 0.823206
O O1 0.308096 0.410618 0.500000
O O2 0.366172 0.465115 0.744864
O O3 0.354494 0.343635 0.727663
O O4 0.242935 0.417512 0.763429
O O5 0.500000 0.500000 0.752227
O O6 0.425707 0.506895 0.500000
O O7 0.400576 0.584216 0.722276
O O8 0.550906 0.799081 0.500000
O O9 0.533454 0.881037 0.274496
O O10 0.585091 0.764218 0.224835
O O11 0.451782 0.787448 0.292770
O O12 0.528173 0.059745 0.500000
O O13 0.603917 0.082830 0.260976
O O14 0.500000 0.000000 0.245279
O O15 0.508417 0.661550 0.776572
O O16 0.374573 0.697274 0.807409
O O17 0.431325 0.616004 0.000000
O O18 0.600646 0.685451 0.000000
O O19 0.324587 0.871100 0.500000
O O20 0.323075 0.812751 0.765992
O O21 0.409697 0.785689 0.000000
#
# Coordination Sequence:
#
# PCOD8235951 Si02
#       8
#     8   8   8   8   8   8   8   8
#     4  11  22  35  52  73 103 141 177 218 267 320
#     4  10  20  33  49  74 104 139 181 220 259 308
#     4   9  16  27  48  77 103 129 164 207 258 306
#     4   8  15  30  54  81 105 131 170 215 258 311
#     4   9  18  30  49  75 101 131 168 214 257 300
#     4  10  19  31  48  73 103 134 171 215 262 307
#     4  10  20  34  54  79 103 133 173 217 268 321
#     4   9  17  31  50  74 101 129 165 209 256 304
#
# _framework density 18.059632000000001
#
# number of rings (size 3 to 8) (size 9 to 14) (size 15 to 20)
#    0.000    2.500    1.250    3.375    0.000    3.750 
#    0.000    0.000    2.750   13.500    0.000    0.000 
#    0.000    0.000    0.000    0.000    0.000    0.000 
#
# Total GULP energy -793232.822166 kJ/mol
# GULP energy per Si atom -12394.262846 kJ/mol
# Density = 1.801853 g / cm^3
# Si number density = 18.059632 Si / 1000 Ang^3
#
#
#
# Elastic Constant Matrix: (Units=GPa)
#
#
# Indices 1 2 3 4 5 6 
#
# 1 76.0506 48.1490 19.6080 0.0000 0.0000 0.0000
# 2 48.1490 136.6361 29.5299 0.0000 0.0000 0.0000
# 3 19.6080 29.5299 43.0683 0.0000 0.0000 0.0000
# 4 0.0000 0.0000 0.0000 25.3802 0.0000 0.0000
# 5 0.0000 0.0000 0.0000 0.0000 23.3107 0.0000
# 6 0.0000 0.0000 0.0000 0.0000 0.0000 24.3842
#
#
#
# Elastic Compliance Matrix: (Units=1/GPa)
#
#
# Indices 1 2 3 4 5 6 
#
# 1 0.017613 -0.005252 -0.004418 0.000000 0.000000 0.000000
# 2 -0.005252 0.010158 -0.004574 0.000000 0.000000 0.000000
# 3 -0.004418 -0.004574 0.028366 0.000000 0.000000 0.000000
# 4 0.000000 0.000000 0.000000 0.039401 0.000000 0.000000
# 5 0.000000 0.000000 0.000000 0.000000 0.042899 0.000000
# 6 0.000000 0.000000 0.000000 0.000000 0.000000 0.041010
#
#
# Mechanical properties :
#
#
# Convention : Reuss Voigt Hill
#
# Bulk Modulus (GPa) = 36.16591 50.03654 43.10122
# Shear Modulus (GPa) = 23.02544 25.17956 24.10250
#
# Velocity S-wave (km/s) = 3.57454 3.73801 3.65719
# Velocity P-wave (km/s) = 6.09145 6.81152 6.46152
#
# Compressibility (1/GPa) = 0.02765035
#
# Stress axis : x y z
#
# Youngs Moduli (GPa) = 56.77531 98.44556 35.25309
#
# Poissons Ratio (x) = 0.51703 0.15575
# Poissons Ratio (y) = 0.29818 0.16124
# Poissons Ratio (z) = 0.25083 0.45026
#
# Static dielectric constant tensor:
#      x y z
#    x 3.127490 0.000000 0.000000 
#    y 0.000000 3.706420 0.000000 
#    z 0.000000 0.000000 3.191830 
# 
# 
# High freq. dielectric constant tensor:
#      x y z
#    x 1.657080 0.000000 0.000000 
#    y 0.000000 1.706010 0.000000 
#    z 0.000000 0.000000 1.694820 
# 
# From -- ./inp_files/8383.got.cif
#   From: 2010.06.25/outbox.cif.g09.slc.cpg/sg58_5_cif.got.tgz:8383.got - 2010.06.26 21:38:00.
