data_PCOD8235813
_publ_section_title
;
Structure prediction by ZEFSAII (Michael W. Deem and Ramdas Pophale) SiO2 
 PCOD8235813
Probable space group: P N N M
;
_chemical_formula_sum "Si O2"
_cell_formula_units_Z 64
_cell_length_a 22.044713
_cell_length_b 17.817839
_cell_length_c 9.720411
_cell_angle_alpha 90.000000
_cell_angle_beta 90.000000
_cell_angle_gamma 90.000000
_cell_volume 3818.071946
_symmetry_space_group_name_H-M "P N N M"
_symmetry_group_IT_number 58
_symmetry_cell_setting 'orthorhombic'
loop_
_space_group_symop_operation_xyz
x,y,z
-x,-y,z
1/2+x,1/2-y,1/2-z
1/2-x,1/2+y,1/2-z
-x,-y,-z
x,y,-z
1/2-x,1/2+y,1/2+z
1/2+x,1/2-y,1/2+z
loop_
_atom_site_type_symbol
_atom_site_label
_atom_site_fract_x
_atom_site_fract_y
_atom_site_fract_z
Si Si1 0.618345 0.767929 0.844499
Si Si2 0.143836 0.563602 0.342534
Si Si3 0.514037 0.283824 0.156675
Si Si4 0.278066 0.926426 0.840959
Si Si5 0.899935 0.652356 0.659814
Si Si6 0.522481 0.581479 0.660301
Si Si7 0.846064 0.135082 0.161338
Si Si8 0.435078 0.972511 0.351219
O O1 0.651469 0.847813 0.822266
O O2 0.545450 0.768592 0.817227
O O3 0.651140 0.714086 0.737876
O O4 0.630185 0.740100 0.000000
O O5 0.123973 0.545982 0.500000
O O6 0.203120 0.512581 0.306309
O O7 0.093557 0.539356 0.235677
O O8 0.576204 0.237004 0.184972
O O9 0.514269 0.355536 0.256015
O O10 0.513937 0.313061 0.000000
O O11 0.329924 0.865470 0.796681
O O12 0.212605 0.907871 0.774870
O O13 0.266962 0.917142 0.000000
O O14 0.909967 0.630032 0.500000
O O15 0.940460 0.601446 0.758549
O O16 0.500000 0.500000 0.708234
O O17 0.508752 0.595142 0.500000
O O18 0.594159 0.585990 0.692966
O O19 0.840886 0.152253 0.000000
O O20 0.401725 0.958005 0.500000
O O21 0.500000 0.000000 0.391306
#
# Coordination Sequence:
#
# PCOD8235813 Si02
#       8
#     8   8   8   8   8   8   8   8
#     4   9  17  29  46  69  92 114 148 191 231 271
#     4   9  17  30  47  64  86 118 155 192 224 265
#     4   9  17  29  47  70  93 117 147 187 231 272
#     4   8  15  29  48  67  87 118 157 186 215 266
#     4   9  17  30  47  65  88 120 154 184 218 267
#     4   9  18  32  49  69  92 118 150 189 233 278
#     4   9  17  31  50  67  88 121 154 186 227 274
#     4  10  19  27  38  62  94 122 148 181 220 262
#
# _framework density 16.762388000000001
#
# number of rings (size 3 to 8) (size 9 to 14) (size 15 to 20)
#    0.000    3.000    0.000    1.875    0.000    3.250 
#    0.000    6.250    0.000    1.500    0.000    0.000 
#    0.000    0.000    0.000    0.000    0.000    0.000 
#
# Total GULP energy -792840.051622 kJ/mol
# GULP energy per Si atom -12388.125807 kJ/mol
# Density = 1.672424 g / cm^3
# Si number density = 16.762388 Si / 1000 Ang^3
#
#
#
# Elastic Constant Matrix: (Units=GPa)
#
#
# Indices 1 2 3 4 5 6 
#
# 1 87.2761 64.4405 34.0664 0.0000 0.0000 0.0000
# 2 64.4405 128.5156 52.4266 0.0000 0.0000 0.0000
# 3 34.0664 52.4266 75.7587 0.0000 0.0000 0.0000
# 4 0.0000 0.0000 0.0000 38.5590 0.0000 0.0000
# 5 0.0000 0.0000 0.0000 0.0000 15.5651 0.0000
# 6 0.0000 0.0000 0.0000 0.0000 0.0000 22.5334
#
#
#
# Elastic Compliance Matrix: (Units=1/GPa)
#
#
# Indices 1 2 3 4 5 6 
#
# 1 0.018570 -0.008227 -0.002657 0.000000 0.000000 0.000000
# 2 -0.008227 0.014487 -0.006326 0.000000 0.000000 0.000000
# 3 -0.002657 -0.006326 0.018772 0.000000 0.000000 0.000000
# 4 0.000000 0.000000 0.000000 0.025934 0.000000 0.000000
# 5 0.000000 0.000000 0.000000 0.000000 0.064246 0.000000
# 6 0.000000 0.000000 0.000000 0.000000 0.000000 0.044378
#
#
# Mechanical properties :
#
#
# Convention : Reuss Voigt Hill
#
# Bulk Modulus (GPa) = 57.44146 65.93528 61.68837
# Shear Modulus (GPa) = 22.06430 24.70596 23.38513
#
# Velocity S-wave (km/s) = 3.63202 3.84330 3.73915
# Velocity P-wave (km/s) = 7.20633 7.68864 7.45139
#
# Compressibility (1/GPa) = 0.01740903
#
# Stress axis : x y z
#
# Youngs Moduli (GPa) = 53.85142 69.02690 53.27102
#
# Poissons Ratio (x) = 0.56792 0.14152
# Poissons Ratio (y) = 0.44306 0.33698
# Poissons Ratio (z) = 0.14306 0.43665
#
# Static dielectric constant tensor:
#      x y z
#    x 3.215430 0.000000 0.000000 
#    y 0.000000 3.221180 0.000000 
#    z 0.000000 0.000000 3.118950 
# 
# 
# High freq. dielectric constant tensor:
#      x y z
#    x 1.626870 0.000000 0.000000 
#    y 0.000000 1.633620 0.000000 
#    z 0.000000 0.000000 1.644050 
# 
# From -- ./inp_files/8470.got.cif
#   From: 2010.06.25/outbox.cif.g09.slc.cpg/sg58_5_cif.got.tgz:8470.got - 2010.06.26 21:38:00.
