data_PCOD8235700
_publ_section_title
;
Structure prediction by ZEFSAII (Michael W. Deem and Ramdas Pophale) SiO2 
 PCOD8235700
Probable space group: P N N M
;
_chemical_formula_sum "Si O2"
_cell_formula_units_Z 64
_cell_length_a 20.462674
_cell_length_b 19.803793
_cell_length_c 9.192194
_cell_angle_alpha 90.000000
_cell_angle_beta 90.000000
_cell_angle_gamma 90.000000
_cell_volume 3725.031461
_symmetry_space_group_name_H-M "P N N M"
_symmetry_group_IT_number 58
_symmetry_cell_setting 'orthorhombic'
loop_
_space_group_symop_operation_xyz
x,y,z
-x,-y,z
1/2+x,1/2-y,1/2-z
1/2-x,1/2+y,1/2-z
-x,-y,-z
x,y,-z
1/2-x,1/2+y,1/2+z
1/2+x,1/2-y,1/2+z
loop_
_atom_site_type_symbol
_atom_site_label
_atom_site_fract_x
_atom_site_fract_y
_atom_site_fract_z
Si Si1 0.921860 0.204957 0.171000
Si Si2 0.379282 0.427605 0.168728
Si Si3 0.069423 0.201797 0.830264
Si Si4 0.771057 0.435882 0.333447
Si Si5 0.313201 0.789714 0.673435
Si Si6 0.618957 0.439343 0.669420
Si Si7 0.274533 0.933540 0.333047
Si Si8 0.684983 0.789332 0.828220
O O1 0.912125 0.132966 0.244899
O O2 0.877254 0.261940 0.242358
O O3 0.996529 0.227507 0.200772
O O4 0.907056 0.198799 0.000000
O O5 0.405748 0.497222 0.236814
O O6 0.302057 0.422025 0.191044
O O7 0.398867 0.423726 0.000000
O O8 0.121686 0.254345 0.761646
O O9 0.079925 0.125809 0.770577
O O10 0.085266 0.197508 0.000000
O O11 0.782997 0.452933 0.500000
O O12 0.694920 0.424541 0.301448
O O13 0.799996 0.499546 0.246877
O O14 0.809036 0.368139 0.288394
O O15 0.313008 0.789943 0.500000
O O16 0.310633 0.867011 0.730178
O O17 0.249455 0.749334 0.727620
O O18 0.605227 0.454575 0.500000
O O19 0.291880 0.944302 0.500000
O O20 0.674880 0.777723 0.000000
#
# Coordination Sequence:
#
# PCOD8235700 Si02
#       8
#     8   8   8   8   8   8   8   8
#     4  11  22  33  48  74 103 132 166 210 251 289
#     4  10  19  32  48  70 102 138 169 199 242 300
#     4   9  18  32  51  73  99 131 171 210 247 294
#     4   9  17  29  51  77  99 125 161 204 248 294
#     4   9  15  30  54  75  94 126 170 207 245 292
#     4   9  16  30  51  73  97 129 169 210 243 284
#     4   9  17  29  50  75  99 126 159 203 248 290
#     4  10  18  33  55  75  97 131 168 203 249 301
#
# _framework density 17.181062000000001
#
# number of rings (size 3 to 8) (size 9 to 14) (size 15 to 20)
#    0.000    2.500    2.500    0.750    0.000    1.500 
#    0.000    3.750    0.000    4.500    0.000    5.250 
#    0.000    0.000    0.000    0.000    0.000    0.000 
#
# Total GULP energy -793502.114451 kJ/mol
# GULP energy per Si atom -12398.470538 kJ/mol
# Density = 1.714196 g / cm^3
# Si number density = 17.181062 Si / 1000 Ang^3
#
#
#
# Elastic Constant Matrix: (Units=GPa)
#
#
# Indices 1 2 3 4 5 6 
#
# 1 81.0878 66.4976 38.4707 0.0000 0.0000 0.0000
# 2 66.4976 145.7358 53.3374 0.0000 0.0000 0.0000
# 3 38.4707 53.3374 59.1397 0.0000 0.0000 0.0000
# 4 0.0000 0.0000 0.0000 29.3842 0.0000 0.0000
# 5 0.0000 0.0000 0.0000 0.0000 18.5707 0.0000
# 6 0.0000 0.0000 0.0000 0.0000 0.0000 21.8046
#
#
#
# Elastic Compliance Matrix: (Units=1/GPa)
#
#
# Indices 1 2 3 4 5 6 
#
# 1 0.021880 -0.007127 -0.007805 0.000000 0.000000 0.000000
# 2 -0.007127 0.012564 -0.006695 0.000000 0.000000 0.000000
# 3 -0.007805 -0.006695 0.028025 0.000000 0.000000 0.000000
# 4 0.000000 0.000000 0.000000 0.034032 0.000000 0.000000
# 5 0.000000 0.000000 0.000000 0.000000 0.053848 0.000000
# 6 0.000000 0.000000 0.000000 0.000000 0.000000 0.045862
#
#
# Mechanical properties :
#
#
# Convention : Reuss Voigt Hill
#
# Bulk Modulus (GPa) = 52.04575 66.95274 59.49924
# Shear Modulus (GPa) = 20.33589 22.46242 21.39916
#
# Velocity S-wave (km/s) = 3.44411 3.61971 3.53300
# Velocity P-wave (km/s) = 6.79516 7.51820 7.16580
#
# Compressibility (1/GPa) = 0.01921386
#
# Stress axis : x y z
#
# Youngs Moduli (GPa) = 45.70384 79.59213 35.68249
#
# Poissons Ratio (x) = 0.56725 0.27851
# Poissons Ratio (y) = 0.32573 0.23890
# Poissons Ratio (z) = 0.35674 0.53289
#
# Static dielectric constant tensor:
#      x y z
#    x 3.065870 0.000000 0.000000 
#    y 0.000000 3.440430 0.000000 
#    z 0.000000 0.000000 3.015980 
# 
# 
# High freq. dielectric constant tensor:
#      x y z
#    x 1.638460 0.000000 0.000000 
#    y 0.000000 1.673400 0.000000 
#    z 0.000000 0.000000 1.639210 
# 
# From -- ./inp_files/8333.got.cif
#   From: 2010.06.25/outbox.cif.g09.slc.cpg/sg58_5_cif.got.tgz:8333.got - 2010.06.26 21:38:00.
