data_PCOD8235907
_publ_section_title
;
Structure prediction by ZEFSAII (Michael W. Deem and Ramdas Pophale) SiO2 
 PCOD8235907
Probable space group: P N N M
;
_chemical_formula_sum "Si O2"
_cell_formula_units_Z 64
_cell_length_a 15.006937
_cell_length_b 24.706219
_cell_length_c 9.181413
_cell_angle_alpha 90.000000
_cell_angle_beta 90.000000
_cell_angle_gamma 90.000000
_cell_volume 3404.143580
_symmetry_space_group_name_H-M "P N N M"
_symmetry_group_IT_number 58
_symmetry_cell_setting 'orthorhombic'
loop_
_space_group_symop_operation_xyz
x,y,z
-x,-y,z
1/2+x,1/2-y,1/2-z
1/2-x,1/2+y,1/2-z
-x,-y,-z
x,y,-z
1/2-x,1/2+y,1/2+z
1/2+x,1/2-y,1/2+z
loop_
_atom_site_type_symbol
_atom_site_label
_atom_site_fract_x
_atom_site_fract_y
_atom_site_fract_z
Si Si1 0.847814 0.080070 0.832356
Si Si2 0.455776 0.616848 0.666758
Si Si3 0.485425 0.280790 0.169478
Si Si4 0.708059 0.684807 0.172305
Si Si5 0.301779 0.539699 0.327682
Si Si6 0.439346 0.918831 0.332131
Si Si7 0.371216 0.036307 0.667016
Si Si8 0.117062 0.312943 0.671268
O O1 0.799891 0.123375 0.729157
O O2 0.953742 0.083327 0.816491
O O3 0.820020 0.021279 0.774541
O O4 0.818752 0.090177 0.000000
O O5 0.436480 0.631526 0.500000
O O6 0.458580 0.672865 0.752100
O O7 0.377720 0.579642 0.732948
O O8 0.381003 0.281449 0.217085
O O9 0.531157 0.223842 0.209701
O O10 0.491725 0.293455 0.000000
O O11 0.794502 0.711070 0.249909
O O12 0.722779 0.684502 0.000000
O O13 0.300433 0.541968 0.500000
O O14 0.207701 0.559695 0.265545
O O15 0.418945 0.904068 0.500000
O O16 0.544852 0.924756 0.307657
O O17 0.401812 0.873011 0.227345
O O18 0.393127 0.974892 0.286934
O O19 0.341376 0.037613 0.500000
O O20 0.135187 0.314356 0.500000
#
# Coordination Sequence:
#
# PCOD8235907 Si02
#       8
#     8   8   8   8   8   8   8   8
#     4   9  17  31  52  77 107 140 177 219 260 308
#     4   9  18  33  52  74 104 141 178 217 261 311
#     4   9  21  40  56  75 107 141 176 223 271 312
#     4  10  20  36  57  80 106 139 177 220 268 317
#     4  10  19  30  48  78 110 141 175 212 261 317
#     4   9  19  37  57  77 103 138 177 217 261 312
#     4   9  19  35  53  75 108 142 173 213 260 313
#     4  11  22  37  58  83 107 136 177 225 270 315
#
# _framework density 18.800616999999999
#
# number of rings (size 3 to 8) (size 9 to 14) (size 15 to 20)
#    0.000    2.500    0.000    2.625    0.000    7.000 
#    2.250    1.250    0.000    3.750    0.000    0.000 
#    0.000    0.000    0.000    0.000    0.000    0.000 
#
# Total GULP energy -793648.393519 kJ/mol
# GULP energy per Si atom -12400.756149 kJ/mol
# Density = 1.875783 g / cm^3
# Si number density = 18.800617 Si / 1000 Ang^3
#
#
#
# Elastic Constant Matrix: (Units=GPa)
#
#
# Indices 1 2 3 4 5 6 
#
# 1 112.2215 42.5999 42.2387 0.0000 0.0000 0.0000
# 2 42.5999 55.6578 31.7407 0.0000 0.0000 0.0000
# 3 42.2387 31.7407 55.7332 0.0000 0.0000 0.0000
# 4 0.0000 0.0000 0.0000 21.1679 0.0000 0.0000
# 5 0.0000 0.0000 0.0000 0.0000 35.2436 0.0000
# 6 0.0000 0.0000 0.0000 0.0000 0.0000 24.8774
#
#
#
# Elastic Compliance Matrix: (Units=1/GPa)
#
#
# Indices 1 2 3 4 5 6 
#
# 1 0.014073 -0.006944 -0.006711 0.000000 0.000000 0.000000
# 2 -0.006944 0.030036 -0.011843 0.000000 0.000000 0.000000
# 3 -0.006711 -0.011843 0.029773 0.000000 0.000000 0.000000
# 4 0.000000 0.000000 0.000000 0.047241 0.000000 0.000000
# 5 0.000000 0.000000 0.000000 0.000000 0.028374 0.000000
# 6 0.000000 0.000000 0.000000 0.000000 0.000000 0.040197
#
#
# Mechanical properties :
#
#
# Convention : Reuss Voigt Hill
#
# Bulk Modulus (GPa) = 43.69434 50.75233 47.22334
# Shear Modulus (GPa) = 20.13549 23.39334 21.76441
#
# Velocity S-wave (km/s) = 3.27617 3.53127 3.40611
# Velocity P-wave (km/s) = 6.13208 6.60909 6.37505
#
# Compressibility (1/GPa) = 0.02288626
#
# Stress axis : x y z
#
# Youngs Moduli (GPa) = 71.05913 33.29370 33.58750
#
# Poissons Ratio (x) = 0.23120 0.22539
# Poissons Ratio (y) = 0.49345 0.39777
# Poissons Ratio (z) = 0.47685 0.39429
#
# Static dielectric constant tensor:
#      x y z
#    x 3.688890 0.000000 0.000000 
#    y 0.000000 3.272480 0.000000 
#    z 0.000000 0.000000 3.333730 
# 
# 
# High freq. dielectric constant tensor:
#      x y z
#    x 1.743660 0.000000 0.000000 
#    y 0.000000 1.710440 0.000000 
#    z 0.000000 0.000000 1.724350 
# 
# From -- ./inp_files/6889.got.cif
#   From: 2010.06.25/outbox.cif.g09.slc.cpg/sg58_4_cif.got.tgz:6889.got - 2010.06.26 21:38:00.
