data_PCOD8235238
_publ_section_title
;
Structure prediction by ZEFSAII (Michael W. Deem and Ramdas Pophale) SiO2 
 PCOD8235238
Probable space group: P N N M
;
_chemical_formula_sum "Si O2"
_cell_formula_units_Z 56
_cell_length_a 21.251710
_cell_length_b 8.105289
_cell_length_c 19.379469
_cell_angle_alpha 90.000000
_cell_angle_beta 90.000000
_cell_angle_gamma 90.000000
_cell_volume 3338.137785
_symmetry_space_group_name_H-M "P N N M"
_symmetry_group_IT_number 58
_symmetry_cell_setting 'orthorhombic'
loop_
_space_group_symop_operation_xyz
x,y,z
-x,-y,z
1/2+x,1/2-y,1/2-z
1/2-x,1/2+y,1/2-z
-x,-y,-z
x,y,-z
1/2-x,1/2+y,1/2+z
1/2+x,1/2-y,1/2+z
loop_
_atom_site_type_symbol
_atom_site_label
_atom_site_fract_x
_atom_site_fract_y
_atom_site_fract_z
Si Si1 0.341233 0.131811 0.694255
Si Si2 0.817494 0.512659 0.332843
Si Si3 0.196303 0.125902 0.657443
Si Si4 0.572254 0.995736 0.422938
Si Si5 0.672570 0.505774 0.297611
Si Si6 0.203564 0.797193 0.419991
Si Si7 0.155841 0.194858 0.075858
O O1 0.271435 0.117864 0.663568
O O2 0.353342 0.315494 0.722075
O O3 0.354306 0.011410 0.759788
O O4 0.390009 0.108271 0.632747
O O5 0.829240 0.693502 0.368366
O O6 0.745637 0.512080 0.312383
O O7 0.831229 0.360237 0.384589
O O8 0.162022 0.109436 0.731455
O O9 0.177178 0.972544 0.608336
O O10 0.579566 0.917782 0.500000
O O11 0.598487 0.180012 0.423985
O O12 0.500000 0.000000 0.400292
O O13 0.638387 0.438600 0.366175
O O14 0.186765 0.789541 0.500000
O O15 0.278645 0.787879 0.406179
O O16 0.161870 0.110547 0.000000
#
# Coordination Sequence:
#
# PCOD8235238 Si02
#       7
#     8   8   8   8   8   8   8
#     4  10  17  29  46  63  87 117 157 197 234 277
#     4   9  18  28  44  69  93 120 153 186 228 286
#     4  10  17  27  45  68  92 120 152 186 230 279
#     4  10  20  32  45  62  87 124 168 208 242 269
#     4   9  17  27  45  68  87 113 154 194 232 282
#     4  10  18  29  43  66  98 124 151 183 223 277
#     4   9  17  30  44  60  87 121 154 192 233 270
#
# _framework density 16.77582
#
# number of rings (size 3 to 8) (size 9 to 14) (size 15 to 20)
#    0.000    2.429    2.857    0.857    4.000    1.143 
#    0.000    3.571    0.000    2.571    0.000    0.000 
#    0.000    0.571    0.000    4.000    0.000    1.857 
#
# Total GULP energy -693814.417265 kJ/mol
# GULP energy per Si atom -12389.543165 kJ/mol
# Density = 1.673764 g / cm^3
# Si number density = 16.775820 Si / 1000 Ang^3
#
#
#
# Elastic Constant Matrix: (Units=GPa)
#
#
# Indices 1 2 3 4 5 6 
#
# 1 32.6740 7.5291 27.8594 0.0000 0.0000 0.0000
# 2 7.5291 122.9191 52.8138 0.0000 0.0000 0.0000
# 3 27.8594 52.8138 104.9641 0.0000 0.0000 0.0000
# 4 0.0000 0.0000 0.0000 30.0390 0.0000 0.0000
# 5 0.0000 0.0000 0.0000 0.0000 16.3257 0.0000
# 6 0.0000 0.0000 0.0000 0.0000 0.0000 7.9655
#
#
#
# Elastic Compliance Matrix: (Units=1/GPa)
#
#
# Indices 1 2 3 4 5 6 
#
# 1 0.040253 0.002711 -0.012048 0.000000 0.000000 0.000000
# 2 0.002711 0.010562 -0.006034 0.000000 0.000000 0.000000
# 3 -0.012048 -0.006034 0.015761 0.000000 0.000000 0.000000
# 4 0.000000 0.000000 0.000000 0.033290 0.000000 0.000000
# 5 0.000000 0.000000 0.000000 0.000000 0.061253 0.000000
# 6 0.000000 0.000000 0.000000 0.000000 0.000000 0.125541
#
#
# Mechanical properties :
#
#
# Convention : Reuss Voigt Hill
#
# Bulk Modulus (GPa) = 27.90625 48.55133 38.22879
# Shear Modulus (GPa) = 15.18155 22.35637 18.76896
#
# Velocity S-wave (km/s) = 3.01153 3.65451 3.34849
# Velocity P-wave (km/s) = 5.36315 6.84188 6.14714
#
# Compressibility (1/GPa) = 0.03583427
#
# Stress axis : x y z
#
# Youngs Moduli (GPa) = 24.84259 94.67975 63.44830
#
# Poissons Ratio (x) = -0.25668 0.76443
# Poissons Ratio (y) = -0.06735 0.38284
# Poissons Ratio (z) = 0.29931 0.57129
#
# Static dielectric constant tensor:
#      x y z
#    x 2.563270 0.000000 0.000000 
#    y 0.000000 3.452550 0.000000 
#    z 0.000000 0.000000 3.387480 
# 
# 
# High freq. dielectric constant tensor:
#      x y z
#    x 1.564840 0.000000 0.000000 
#    y 0.000000 1.655610 0.000000 
#    z 0.000000 0.000000 1.653500 
# 
# From -- ./inp_files/25686.got.cif
#   From: 2010.06.25/outbox.cif.g09.slc.cpg/sg58_13_cif.got.tgz:25686.got - 2010.06.26 21:38:00.
