data_PCOD8235486
_publ_section_title
;
Structure prediction by ZEFSAII (Michael W. Deem and Ramdas Pophale) SiO2 
 PCOD8235486
Probable space group: P N N M
;
_chemical_formula_sum "Si O2"
_cell_formula_units_Z 64
_cell_length_a 22.412727
_cell_length_b 16.833897
_cell_length_c 8.993393
_cell_angle_alpha 90.000000
_cell_angle_beta 90.000000
_cell_angle_gamma 90.000000
_cell_volume 3393.149062
_symmetry_space_group_name_H-M "P N N M"
_symmetry_group_IT_number 58
_symmetry_cell_setting 'orthorhombic'
loop_
_space_group_symop_operation_xyz
x,y,z
-x,-y,z
1/2+x,1/2-y,1/2-z
1/2-x,1/2+y,1/2-z
-x,-y,-z
x,y,-z
1/2-x,1/2+y,1/2+z
1/2+x,1/2-y,1/2+z
loop_
_atom_site_type_symbol
_atom_site_label
_atom_site_fract_x
_atom_site_fract_y
_atom_site_fract_z
Si Si1 0.831704 0.877333 0.666649
Si Si2 0.194839 0.961941 0.176129
Si Si3 0.373905 0.078905 0.828259
Si Si4 0.825345 0.586526 0.327043
Si Si5 0.033675 0.705924 0.674611
Si Si6 0.363267 0.321908 0.824345
Si Si7 0.902561 0.729678 0.322943
Si Si8 0.793085 0.305039 0.166459
O O1 0.842477 0.911473 0.500000
O O2 0.886137 0.820594 0.719165
O O3 0.777236 0.815942 0.664557
O O4 0.821174 0.948345 0.780201
O O5 0.260157 0.935964 0.240320
O O6 0.143112 0.907158 0.246473
O O7 0.192905 0.955537 0.000000
O O8 0.437010 0.120109 0.785074
O O9 0.321826 0.114313 0.727297
O O10 0.373335 0.984612 0.800516
O O11 0.358843 0.098967 0.000000
O O12 0.814326 0.600384 0.500000
O O13 0.855336 0.665300 0.255840
O O14 0.026965 0.714937 0.500000
O O15 0.076551 0.777375 0.731055
O O16 0.968116 0.712587 0.746886
O O17 0.307276 0.268779 0.772992
O O18 0.362098 0.333048 0.000000
O O19 0.903408 0.718810 0.500000
O O20 0.816801 0.287261 0.000000
#
# Coordination Sequence:
#
# PCOD8235486 Si02
#       8
#     8   8   8   8   8   8   8   8
#     4  10  20  33  51  74 104 137 173 215 260 307
#     4  11  21  34  53  78 106 135 169 211 265 314
#     4   9  16  29  49  77 107 136 167 208 254 300
#     4   9  17  29  49  77 109 134 162 209 261 309
#     4   8  16  30  50  74 102 134 172 212 254 301
#     4  10  20  34  53  77 103 132 171 214 256 304
#     4   9  17  31  50  75 103 133 170 215 259 303
#     4  10  18  30  50  76 104 136 171 205 255 310
#
# _framework density 18.861533999999999
#
# number of rings (size 3 to 8) (size 9 to 14) (size 15 to 20)
#    0.000    2.500    1.250    2.625    0.000    3.000 
#    0.000    3.125    0.000    8.250    0.000    3.500 
#    0.000    0.000    0.000    0.000    0.000    0.000 
#
# Total GULP energy -793214.757586 kJ/mol
# GULP energy per Si atom -12393.980587 kJ/mol
# Density = 1.881860 g / cm^3
# Si number density = 18.861534 Si / 1000 Ang^3
#
#
#
# Elastic Constant Matrix: (Units=GPa)
#
#
# Indices 1 2 3 4 5 6 
#
# 1 82.8141 51.5279 19.5345 0.0000 0.0000 0.0000
# 2 51.5279 113.0296 26.5742 0.0000 0.0000 0.0000
# 3 19.5345 26.5742 47.4005 0.0000 0.0000 0.0000
# 4 0.0000 0.0000 0.0000 27.4841 0.0000 0.0000
# 5 0.0000 0.0000 0.0000 0.0000 15.0948 0.0000
# 6 0.0000 0.0000 0.0000 0.0000 0.0000 25.1861
#
#
#
# Elastic Compliance Matrix: (Units=1/GPa)
#
#
# Indices 1 2 3 4 5 6 
#
# 1 0.017246 -0.007131 -0.003109 0.000000 0.000000 0.000000
# 2 -0.007131 0.013139 -0.004427 0.000000 0.000000 0.000000
# 3 -0.003109 -0.004427 0.024860 0.000000 0.000000 0.000000
# 4 0.000000 0.000000 0.000000 0.036385 0.000000 0.000000
# 5 0.000000 0.000000 0.000000 0.000000 0.066248 0.000000
# 6 0.000000 0.000000 0.000000 0.000000 0.000000 0.039704
#
#
# Mechanical properties :
#
#
# Convention : Reuss Voigt Hill
#
# Bulk Modulus (GPa) = 38.59565 48.72417 43.65991
# Shear Modulus (GPa) = 21.22654 23.26016 22.24335
#
# Velocity S-wave (km/s) = 3.35832 3.51551 3.43782
# Velocity P-wave (km/s) = 5.96195 6.50900 6.24147
#
# Compressibility (1/GPa) = 0.02590966
#
# Stress axis : x y z
#
# Youngs Moduli (GPa) = 57.98576 76.10939 40.22466
#
# Poissons Ratio (x) = 0.54273 0.12507
# Poissons Ratio (y) = 0.41349 0.17809
# Poissons Ratio (z) = 0.18030 0.33697
#
# Static dielectric constant tensor:
#      x y z
#    x 3.641540 0.000000 0.000000 
#    y 0.000000 3.509870 0.000000 
#    z 0.000000 0.000000 3.140350 
# 
# 
# High freq. dielectric constant tensor:
#      x y z
#    x 1.719580 0.000000 0.000000 
#    y 0.000000 1.738270 0.000000 
#    z 0.000000 0.000000 1.692260 
# 
# From -- ./inp_files/9328.got.cif
#   From: 2010.06.25/outbox.cif.g09.slc.cpg/sg58_5_cif.got.tgz:9328.got - 2010.06.26 21:38:00.
