data_PCOD8235847
_publ_section_title
;
Structure prediction by ZEFSAII (Michael W. Deem and Ramdas Pophale) SiO2 
 PCOD8235847
Probable space group: P N N M
;
_chemical_formula_sum "Si O2"
_cell_formula_units_Z 56
_cell_length_a 13.547844
_cell_length_b 32.586684
_cell_length_c 7.817338
_cell_angle_alpha 90.000000
_cell_angle_beta 90.000000
_cell_angle_gamma 90.000000
_cell_volume 3451.192997
_symmetry_space_group_name_H-M "P N N M"
_symmetry_group_IT_number 58
_symmetry_cell_setting 'orthorhombic'
loop_
_space_group_symop_operation_xyz
x,y,z
-x,-y,z
1/2+x,1/2-y,1/2-z
1/2-x,1/2+y,1/2-z
-x,-y,-z
x,y,-z
1/2-x,1/2+y,1/2+z
1/2+x,1/2-y,1/2+z
loop_
_atom_site_type_symbol
_atom_site_label
_atom_site_fract_x
_atom_site_fract_y
_atom_site_fract_z
Si Si1 0.625965 0.101969 0.802935
Si Si2 0.316058 0.192856 0.193721
Si Si3 0.121204 0.456245 0.000000
Si Si4 0.782008 0.686052 0.702742
Si Si5 0.606684 0.894452 0.804278
Si Si6 0.913798 0.226544 0.193500
Si Si7 0.128008 0.231411 0.305800
Si Si8 0.612623 0.952303 0.500000
O O1 0.658386 0.065602 0.674700
O O2 0.681683 0.142209 0.730002
O O3 0.510344 0.110998 0.790827
O O4 0.655128 0.091000 0.000000
O O5 0.343155 0.147611 0.258864
O O6 0.374984 0.226815 0.300982
O O7 0.197759 0.199308 0.205852
O O8 0.352548 0.197420 0.000000
O O9 0.162488 0.502694 0.000000
O O10 0.004092 0.456546 0.000000
O O11 0.784874 0.684946 0.500000
O O12 0.670801 0.696114 0.767491
O O13 0.854515 0.722480 0.768267
O O14 0.645830 0.929149 0.673734
O O15 0.636839 0.905925 0.000000
O O16 0.013706 0.219328 0.297890
O O17 0.938956 0.215261 0.000000
O O18 0.164523 0.229903 0.500000
#
# Coordination Sequence:
#
# PCOD8235847 Si02
#       8
#     8   8   4   8   8   8   8   4
#     4   9  16  30  46  63  91 121 150 187 224 265
#     4  10  19  31  45  64  88 117 158 193 224 269
#     4   9  18  30  42  72  87 119 153 187 224 280
#     4   8  16  30  44  59  85 120 153 186 223 265
#     4   9  18  29  46  67  89 122 154 183 224 274
#     4  10  19  30  44  63  89 121 154 189 231 265
#     4  10  19  31  44  62  90 121 155 191 229 265
#     4   9  18  30  46  62  99 115 149 191 228 268
#
# _framework density 16.226272000000002
#
# number of rings (size 3 to 8) (size 9 to 14) (size 15 to 20)
#    0.000    2.714    0.000    3.000    2.000    2.857 
#   10.286    2.857    0.000    0.000    0.000    0.000 
#    0.000    2.286    0.000    8.429    0.000    0.286 
#
# Total GULP energy -694129.260419 kJ/mol
# GULP energy per Si atom -12395.165365 kJ/mol
# Density = 1.618934 g / cm^3
# Si number density = 16.226272 Si / 1000 Ang^3
#
#
#
# Elastic Constant Matrix: (Units=GPa)
#
#
# Indices 1 2 3 4 5 6 
#
# 1 63.7106 31.0292 12.0114 0.0000 0.0000 0.0000
# 2 31.0292 124.6162 47.8633 0.0000 0.0000 0.0000
# 3 12.0114 47.8633 70.7988 0.0000 0.0000 0.0000
# 4 0.0000 0.0000 0.0000 24.4319 0.0000 0.0000
# 5 0.0000 0.0000 0.0000 0.0000 17.7017 0.0000
# 6 0.0000 0.0000 0.0000 0.0000 0.0000 18.0211
#
#
#
# Elastic Compliance Matrix: (Units=1/GPa)
#
#
# Indices 1 2 3 4 5 6 
#
# 1 0.017862 -0.004435 -0.000032 0.000000 0.000000 0.000000
# 2 -0.004435 0.011940 -0.007320 0.000000 0.000000 0.000000
# 3 -0.000032 -0.007320 0.019079 0.000000 0.000000 0.000000
# 4 0.000000 0.000000 0.000000 0.040930 0.000000 0.000000
# 5 0.000000 0.000000 0.000000 0.000000 0.056492 0.000000
# 6 0.000000 0.000000 0.000000 0.000000 0.000000 0.055491
#
#
# Mechanical properties :
#
#
# Convention : Reuss Voigt Hill
#
# Bulk Modulus (GPa) = 39.51487 48.99260 44.25373
# Shear Modulus (GPa) = 21.38549 23.24572 22.31560
#
# Velocity S-wave (km/s) = 3.63430 3.78907 3.71249
# Velocity P-wave (km/s) = 6.48199 7.02863 6.76084
#
# Compressibility (1/GPa) = 0.02530693
#
# Stress axis : x y z
#
# Youngs Moduli (GPa) = 55.98422 83.74863 52.41500
#
# Poissons Ratio (x) = 0.37146 0.00167
# Poissons Ratio (y) = 0.24831 0.38367
# Poissons Ratio (z) = 0.00178 0.61303
#
# Static dielectric constant tensor:
#      x y z
#    x 2.876240 0.000000 0.000000 
#    y 0.000000 3.145870 0.000000 
#    z 0.000000 0.000000 3.119720 
# 
# 
# High freq. dielectric constant tensor:
#      x y z
#    x 1.590980 0.000000 0.000000 
#    y 0.000000 1.600470 0.000000 
#    z 0.000000 0.000000 1.632550 
# 
# From -- ./inp_files/7133.got.cif
#   From: 2010.06.25/outbox.cif.g09.slc.cpg/sg58_4_cif.got.tgz:7133.got - 2010.06.26 21:38:00.
