data_PCOD8235501
_publ_section_title
;
Structure prediction by ZEFSAII (Michael W. Deem and Ramdas Pophale) SiO2 
 PCOD8235501
Probable space group: P N N M
;
_chemical_formula_sum "Si O2"
_cell_formula_units_Z 56
_cell_length_a 15.424079
_cell_length_b 15.323366
_cell_length_c 13.245794
_cell_angle_alpha 90.000000
_cell_angle_beta 90.000000
_cell_angle_gamma 90.000000
_cell_volume 3130.627619
_symmetry_space_group_name_H-M "P N N M"
_symmetry_group_IT_number 58
_symmetry_cell_setting 'orthorhombic'
loop_
_space_group_symop_operation_xyz
x,y,z
-x,-y,z
1/2+x,1/2-y,1/2-z
1/2-x,1/2+y,1/2-z
-x,-y,-z
x,y,-z
1/2-x,1/2+y,1/2+z
1/2+x,1/2-y,1/2+z
loop_
_atom_site_type_symbol
_atom_site_label
_atom_site_fract_x
_atom_site_fract_y
_atom_site_fract_z
Si Si1 0.054108 0.111377 0.381913
Si Si2 0.136234 0.650004 0.117801
Si Si3 0.306956 0.336728 0.617671
Si Si4 0.802499 0.533303 0.116928
Si Si5 0.378172 0.435603 0.199284
Si Si6 0.390045 0.801246 0.113959
Si Si7 0.968083 0.594889 0.781414
O O1 0.059911 0.083438 0.500000
O O2 0.110053 0.197929 0.361476
O O3 0.953398 0.124835 0.349496
O O4 0.093404 0.036582 0.309829
O O5 0.168597 0.741632 0.162967
O O6 0.190680 0.566564 0.159927
O O7 0.034963 0.638477 0.141298
O O8 0.151655 0.656743 0.000000
O O9 0.333736 0.349473 0.500000
O O10 0.357551 0.409255 0.684351
O O11 0.203643 0.344993 0.630728
O O12 0.709803 0.576726 0.136064
O O13 0.874446 0.594437 0.166910
O O14 0.824276 0.530321 0.000000
O O15 0.462326 0.847948 0.180872
O O16 0.421328 0.814361 0.000000
O O17 0.000000 0.500000 0.748841
#
# Coordination Sequence:
#
# PCOD8235501 Si02
#       7
#     8   8   8   8   8   8   8
#     4  10  21  35  55  80 106 134 171 216 263 311
#     4   9  18  32  51  76 103 132 169 210 254 308
#     4  10  20  34  53  75 101 140 179 209 245 303
#     4  10  18  30  51  77 105 132 165 213 263 306
#     4  11  19  33  53  79 102 134 170 217 262 302
#     4  10  20  36  53  75 105 140 178 211 250 307
#     4  10  19  32  51  79 106 134 168 210 261 304
#
# _framework density 17.887785999999998
#
# number of rings (size 3 to 8) (size 9 to 14) (size 15 to 20)
#    0.000    2.000    1.429    3.857    0.000    4.286 
#    0.000    1.429    0.000    1.714    0.000    0.000 
#    0.000    0.000    0.000    0.000    0.000    0.000 
#
# Total GULP energy -694215.112333 kJ/mol
# GULP energy per Si atom -12396.698435 kJ/mol
# Density = 1.784707 g / cm^3
# Si number density = 17.887786 Si / 1000 Ang^3
#
#
#
# Elastic Constant Matrix: (Units=GPa)
#
#
# Indices 1 2 3 4 5 6 
#
# 1 75.1599 14.5507 17.3733 0.0000 0.0000 0.0000
# 2 14.5507 51.4285 36.3757 0.0000 0.0000 0.0000
# 3 17.3733 36.3757 65.1193 0.0000 0.0000 0.0000
# 4 0.0000 0.0000 0.0000 30.6957 0.0000 0.0000
# 5 0.0000 0.0000 0.0000 0.0000 28.7954 0.0000
# 6 0.0000 0.0000 0.0000 0.0000 0.0000 24.5227
#
#
#
# Elastic Compliance Matrix: (Units=1/GPa)
#
#
# Indices 1 2 3 4 5 6 
#
# 1 0.014333 -0.002233 -0.002577 0.000000 0.000000 0.000000
# 2 -0.002233 0.032493 -0.017555 0.000000 0.000000 0.000000
# 3 -0.002577 -0.017555 0.025850 0.000000 0.000000 0.000000
# 4 0.000000 0.000000 0.000000 0.032578 0.000000 0.000000
# 5 0.000000 0.000000 0.000000 0.000000 0.034728 0.000000
# 6 0.000000 0.000000 0.000000 0.000000 0.000000 0.040779
#
#
# Mechanical properties :
#
#
# Convention : Reuss Voigt Hill
#
# Bulk Modulus (GPa) = 35.78175 36.47855 36.13015
# Shear Modulus (GPa) = 21.29437 25.02996 23.16217
#
# Velocity S-wave (km/s) = 3.45402 3.74475 3.60232
# Velocity P-wave (km/s) = 5.99616 6.25578 6.12734
#
# Compressibility (1/GPa) = 0.02794721
#
# Stress axis : x y z
#
# Youngs Moduli (GPa) = 69.76993 30.77610 38.68472
#
# Poissons Ratio (x) = 0.06871 0.09968
# Poissons Ratio (y) = 0.15577 0.67910
# Poissons Ratio (z) = 0.17978 0.54027
#
# Static dielectric constant tensor:
#      x y z
#    x 3.429930 0.000000 0.000000 
#    y 0.000000 3.347360 0.000000 
#    z 0.000000 0.000000 3.169190 
# 
# 
# High freq. dielectric constant tensor:
#      x y z
#    x 1.701600 0.000000 0.000000 
#    y 0.000000 1.683060 0.000000 
#    z 0.000000 0.000000 1.675060 
# 
# From -- ./inp_files/15691.got.cif
#   From: 2010.06.25/outbox.cif.g09.slc.cpg/sg58_8_cif.got.tgz:15691.got - 2010.06.26 21:38:00.
