data_PCOD8235226
_publ_section_title
;
Structure prediction by ZEFSAII (Michael W. Deem and Ramdas Pophale) SiO2 
 PCOD8235226
Probable space group: P N N M
;
_chemical_formula_sum "Si O2"
_cell_formula_units_Z 56
_cell_length_a 20.493022
_cell_length_b 17.292332
_cell_length_c 8.743475
_cell_angle_alpha 90.000000
_cell_angle_beta 90.000000
_cell_angle_gamma 90.000000
_cell_volume 3098.443948
_symmetry_space_group_name_H-M "P N N M"
_symmetry_group_IT_number 58
_symmetry_cell_setting 'orthorhombic'
loop_
_space_group_symop_operation_xyz
x,y,z
-x,-y,z
1/2+x,1/2-y,1/2-z
1/2-x,1/2+y,1/2-z
-x,-y,-z
x,y,-z
1/2-x,1/2+y,1/2+z
1/2+x,1/2-y,1/2+z
loop_
_atom_site_type_symbol
_atom_site_label
_atom_site_fract_x
_atom_site_fract_y
_atom_site_fract_z
Si Si1 0.524560 0.912997 0.828461
Si Si2 0.411091 0.476662 0.820994
Si Si3 0.380435 0.708327 0.818847
Si Si4 0.291002 0.569683 0.178260
Si Si5 0.850732 0.468165 0.181508
Si Si6 0.398333 0.863769 0.320563
Si Si7 0.510589 0.383001 0.319719
O O1 0.596154 0.910114 0.753135
O O2 0.474189 0.862591 0.729587
O O3 0.500000 0.000000 0.828918
O O4 0.527909 0.879303 0.000000
O O5 0.334080 0.491764 0.792458
O O6 0.447646 0.542909 0.727327
O O7 0.437643 0.394603 0.754452
O O8 0.427720 0.484076 0.000000
O O9 0.327087 0.646298 0.755838
O O10 0.360296 0.793893 0.763724
O O11 0.452239 0.691234 0.748457
O O12 0.385321 0.703391 0.000000
O O13 0.219541 0.556853 0.250489
O O14 0.281165 0.582766 0.000000
O O15 0.863822 0.556739 0.230865
O O16 0.854889 0.460782 0.000000
O O17 0.393864 0.850776 0.500000
O O18 0.503817 0.374259 0.500000
#
# Coordination Sequence:
#
# PCOD8235226 Si02
#       7
#     8   8   8   8   8   8   8
#     4   9  17  30  49  74  99 123 157 200 244 290
#     4   9  15  26  44  66  92 125 164 198 239 287
#     4  10  19  32  50  71  98 131 168 206 251 305
#     4   8  16  30  50  73  96 132 173 204 241 297
#     4   9  17  32  53  75  99 129 167 206 248 296
#     4  10  19  31  51  76 100 126 161 208 257 300
#     4  10  17  26  42  66  94 122 159 205 248 281
#
# _framework density 18.073588000000001
#
# number of rings (size 3 to 8) (size 9 to 14) (size 15 to 20)
#    0.000    2.714    0.000    4.714    0.000    2.286 
#    0.000    4.286    3.143    0.000    0.000    0.000 
#    0.000    0.000    0.000    0.000    0.000    0.000 
#
# Total GULP energy -693942.529584 kJ/mol
# GULP energy per Si atom -12391.830885 kJ/mol
# Density = 1.803245 g / cm^3
# Si number density = 18.073588 Si / 1000 Ang^3
#
#
#
# Elastic Constant Matrix: (Units=GPa)
#
#
# Indices 1 2 3 4 5 6 
#
# 1 127.7187 40.1816 31.6007 0.0000 0.0000 0.0000
# 2 40.1816 67.1791 24.8374 0.0000 0.0000 0.0000
# 3 31.6007 24.8374 66.0325 0.0000 0.0000 0.0000
# 4 0.0000 0.0000 0.0000 26.3523 0.0000 0.0000
# 5 0.0000 0.0000 0.0000 0.0000 15.1254 0.0000
# 6 0.0000 0.0000 0.0000 0.0000 0.0000 17.9434
#
#
#
# Elastic Compliance Matrix: (Units=1/GPa)
#
#
# Indices 1 2 3 4 5 6 
#
# 1 0.010126 -0.004954 -0.002983 0.000000 0.000000 0.000000
# 2 -0.004954 0.019714 -0.005044 0.000000 0.000000 0.000000
# 3 -0.002983 -0.005044 0.018469 0.000000 0.000000 0.000000
# 4 0.000000 0.000000 0.000000 0.037947 0.000000 0.000000
# 5 0.000000 0.000000 0.000000 0.000000 0.066114 0.000000
# 6 0.000000 0.000000 0.000000 0.000000 0.000000 0.055731
#
#
# Mechanical properties :
#
#
# Convention : Reuss Voigt Hill
#
# Bulk Modulus (GPa) = 44.74907 50.46330 47.60618
# Shear Modulus (GPa) = 20.70294 22.83828 21.77061
#
# Velocity S-wave (km/s) = 3.38817 3.55861 3.47443
# Velocity P-wave (km/s) = 6.33398 6.69825 6.51866
#
# Compressibility (1/GPa) = 0.02234683
#
# Stress axis : x y z
#
# Youngs Moduli (GPa) = 98.75297 50.72622 54.14540
#
# Poissons Ratio (x) = 0.25130 0.16150
# Poissons Ratio (y) = 0.48923 0.27312
# Poissons Ratio (z) = 0.29455 0.25588
#
# Static dielectric constant tensor:
#      x y z
#    x 3.736070 0.000000 0.000000 
#    y 0.000000 3.352540 0.000000 
#    z 0.000000 0.000000 3.243700 
# 
# 
# High freq. dielectric constant tensor:
#      x y z
#    x 1.688300 0.000000 0.000000 
#    y 0.000000 1.671380 0.000000 
#    z 0.000000 0.000000 1.695930 
# 
# From -- ./inp_files/9372.got.cif
#   From: 2010.06.25/outbox.cif.g09.slc.cpg/sg58_5_cif.got.tgz:9372.got - 2010.06.26 21:38:00.
