data_PCOD8235933
_publ_section_title
;
Structure prediction by ZEFSAII (Michael W. Deem and Ramdas Pophale) SiO2 
 PCOD8235933
Probable space group: P N N M
;
_chemical_formula_sum "Si O2"
_cell_formula_units_Z 64
_cell_length_a 20.917013
_cell_length_b 18.842276
_cell_length_c 8.981351
_cell_angle_alpha 90.000000
_cell_angle_beta 90.000000
_cell_angle_gamma 90.000000
_cell_volume 3539.767167
_symmetry_space_group_name_H-M "P N N M"
_symmetry_group_IT_number 58
_symmetry_cell_setting 'orthorhombic'
loop_
_space_group_symop_operation_xyz
x,y,z
-x,-y,z
1/2+x,1/2-y,1/2-z
1/2-x,1/2+y,1/2-z
-x,-y,-z
x,y,-z
1/2-x,1/2+y,1/2+z
1/2+x,1/2-y,1/2+z
loop_
_atom_site_type_symbol
_atom_site_label
_atom_site_fract_x
_atom_site_fract_y
_atom_site_fract_z
Si Si1 0.754485 0.084565 0.662659
Si Si2 0.617693 0.080340 0.321182
Si Si3 0.502913 0.667662 0.672171
Si Si4 0.381643 0.573648 0.671495
Si Si5 0.391485 0.425912 0.822010
Si Si6 0.743562 0.416388 0.836011
Si Si7 0.499812 0.171119 0.322847
Si Si8 0.117086 0.579257 0.177424
O O1 0.755263 0.120404 0.500000
O O2 0.687578 0.106798 0.742641
O O3 0.822443 0.103358 0.741187
O O4 0.753065 0.000277 0.646915
O O5 0.620919 0.080690 0.500000
O O6 0.563114 0.132451 0.259318
O O7 0.603008 0.000526 0.264397
O O8 0.523872 0.663384 0.500000
O O9 0.433253 0.634947 0.696125
O O10 0.554013 0.626783 0.770760
O O11 0.500613 0.748003 0.731357
O O12 0.375071 0.552032 0.500000
O O13 0.404931 0.504498 0.760475
O O14 0.314131 0.605643 0.727413
O O15 0.389740 0.431171 0.000000
O O16 0.812816 0.392136 0.770733
O O17 0.731342 0.382867 0.000000
O O18 0.500855 0.166777 0.500000
O O19 0.437192 0.131544 0.258401
O O20 0.115729 0.578836 0.000000
#
# Coordination Sequence:
#
# PCOD8235933 Si02
#       8
#     8   8   8   8   8   8   8   8
#     4   7  12  23  40  65  91 109 136 184 230 262
#     4   8  12  21  41  68  94 117 145 186 230 266
#     4  10  21  33  43  63  96 126 152 187 230 274
#     4  10  19  31  47  67  92 121 153 191 233 277
#     4  10  19  32  51  71  89 115 153 194 234 276
#     4   8  14  26  45  69  94 117 146 188 230 267
#     4   9  16  26  41  63  94 128 155 183 226 274
#     4   8  13  23  43  70  94 117 152 194 227 261
#
# _framework density 18.080286000000001
#
# number of rings (size 3 to 8) (size 9 to 14) (size 15 to 20)
#    0.000    3.250    0.000    3.750    0.000    4.000 
#    0.000    1.250    0.000    2.250    0.000    8.750 
#    0.000   10.000    0.000    0.000    0.000    0.000 
#
# Total GULP energy -792879.945460 kJ/mol
# GULP energy per Si atom -12388.749148 kJ/mol
# Density = 1.803913 g / cm^3
# Si number density = 18.080286 Si / 1000 Ang^3
#
#
#
# Elastic Constant Matrix: (Units=GPa)
#
#
# Indices 1 2 3 4 5 6 
#
# 1 156.6858 57.5080 39.8490 0.0000 0.0000 0.0000
# 2 57.5080 84.6484 25.8399 0.0000 0.0000 0.0000
# 3 39.8490 25.8399 40.4036 0.0000 0.0000 0.0000
# 4 0.0000 0.0000 0.0000 9.3786 0.0000 0.0000
# 5 0.0000 0.0000 0.0000 0.0000 15.4924 0.0000
# 6 0.0000 0.0000 0.0000 0.0000 0.0000 3.8129
#
#
#
# Elastic Compliance Matrix: (Units=1/GPa)
#
#
# Indices 1 2 3 4 5 6 
#
# 1 0.009772 -0.004594 -0.006700 0.000000 0.000000 0.000000
# 2 -0.004594 0.016839 -0.006239 0.000000 0.000000 0.000000
# 3 -0.006700 -0.006239 0.035348 0.000000 0.000000 0.000000
# 4 0.000000 0.000000 0.000000 0.106626 0.000000 0.000000
# 5 0.000000 0.000000 0.000000 0.000000 0.064548 0.000000
# 6 0.000000 0.000000 0.000000 0.000000 0.000000 0.262266
#
#
# Mechanical properties :
#
#
# Convention : Reuss Voigt Hill
#
# Bulk Modulus (GPa) = 37.18237 58.68129 47.93183
# Shear Modulus (GPa) = 9.26907 16.30619 12.78763
#
# Velocity S-wave (km/s) = 2.26666 3.00638 2.66234
# Velocity P-wave (km/s) = 5.24024 6.67664 6.00157
#
# Compressibility (1/GPa) = 0.02689446
#
# Stress axis : x y z
#
# Youngs Moduli (GPa) = 102.33074 59.38674 28.28993
#
# Poissons Ratio (x) = 0.27280 0.18955
# Poissons Ratio (y) = 0.47008 0.17649
# Poissons Ratio (z) = 0.68564 0.37048
#
# Static dielectric constant tensor:
#      x y z
#    x 4.021110 0.000000 0.000000 
#    y 0.000000 3.102990 0.000000 
#    z 0.000000 0.000000 2.873340 
# 
# 
# High freq. dielectric constant tensor:
#      x y z
#    x 1.728770 0.000000 0.000000 
#    y 0.000000 1.663640 0.000000 
#    z 0.000000 0.000000 1.644320 
# 
# From -- ./inp_files/9435.got.cif
#   From: 2010.06.25/outbox.cif.g09.slc.cpg/sg58_5_cif.got.tgz:9435.got - 2010.06.26 21:38:00.
