data_PCOD8235466
_publ_section_title
;
Structure prediction by ZEFSAII (Michael W. Deem and Ramdas Pophale) SiO2 
 PCOD8235466
Probable space group: P N N M
;
_chemical_formula_sum "Si O2"
_cell_formula_units_Z 56
_cell_length_a 14.678999
_cell_length_b 24.840352
_cell_length_c 8.642391
_cell_angle_alpha 90.000000
_cell_angle_beta 90.000000
_cell_angle_gamma 90.000000
_cell_volume 3151.288013
_symmetry_space_group_name_H-M "P N N M"
_symmetry_group_IT_number 58
_symmetry_cell_setting 'orthorhombic'
loop_
_space_group_symop_operation_xyz
x,y,z
-x,-y,z
1/2+x,1/2-y,1/2-z
1/2-x,1/2+y,1/2-z
-x,-y,-z
x,y,-z
1/2-x,1/2+y,1/2+z
1/2+x,1/2-y,1/2+z
loop_
_atom_site_type_symbol
_atom_site_label
_atom_site_fract_x
_atom_site_fract_y
_atom_site_fract_z
Si Si1 0.021795 0.786907 0.827416
Si Si2 0.316857 0.111464 0.178913
Si Si3 0.978402 0.337050 0.171991
Si Si4 0.105817 0.500072 0.684515
Si Si5 0.663670 0.108501 0.317902
Si Si6 0.326946 0.694222 0.314241
Si Si7 0.777150 0.202315 0.816036
O O1 0.995415 0.724683 0.828794
O O2 0.119331 0.796663 0.745374
O O3 0.931045 0.813374 0.750813
O O4 0.031565 0.810037 0.000000
O O5 0.398682 0.152939 0.206661
O O6 0.226564 0.140839 0.246003
O O7 0.343846 0.053659 0.250932
O O8 0.302225 0.102233 0.000000
O O9 0.065111 0.369857 0.229040
O O10 0.947675 0.355587 0.000000
O O11 0.109292 0.496116 0.500000
O O12 0.165688 0.452535 0.758213
O O13 0.000000 0.500000 0.740318
O O14 0.682489 0.111651 0.500000
O O15 0.738033 0.144311 0.229971
O O16 0.325942 0.698725 0.500000
O O17 0.281049 0.748725 0.252122
O O18 0.778942 0.209741 0.000000
#
# Coordination Sequence:
#
# PCOD8235466 Si02
#       7
#     8   8   8   8   8   8   8
#     4   9  18  33  50  72 104 138 167 206 251 300
#     4  10  20  32  51  77 105 138 170 209 256 302
#     4  10  18  30  49  73 105 137 169 204 246 305
#     4  10  20  34  51  76 109 137 169 216 264 308
#     4  11  22  35  52  75 104 141 177 211 254 307
#     4  10  19  34  53  75 104 136 172 209 251 306
#     4  11  21  33  52  76 103 136 170 208 259 304
#
# _framework density 17.770510999999999
#
# number of rings (size 3 to 8) (size 9 to 14) (size 15 to 20)
#    0.000    1.857    4.286    0.857    0.000    1.429 
#    0.000    1.429    0.000    0.857    0.000    6.000 
#    0.000    0.000    0.000    0.000    0.000    0.000 
#
# Total GULP energy -693960.191158 kJ/mol
# GULP energy per Si atom -12392.146271 kJ/mol
# Density = 1.773006 g / cm^3
# Si number density = 17.770511 Si / 1000 Ang^3
#
#
#
# Elastic Constant Matrix: (Units=GPa)
#
#
# Indices 1 2 3 4 5 6 
#
# 1 120.5888 52.6188 19.0106 0.0000 0.0000 0.0000
# 2 52.6188 90.9753 15.0096 0.0000 0.0000 0.0000
# 3 19.0106 15.0096 22.1551 0.0000 0.0000 0.0000
# 4 0.0000 0.0000 0.0000 22.0074 0.0000 0.0000
# 5 0.0000 0.0000 0.0000 0.0000 18.0689 0.0000
# 6 0.0000 0.0000 0.0000 0.0000 0.0000 33.2794
#
#
#
# Elastic Compliance Matrix: (Units=1/GPa)
#
#
# Indices 1 2 3 4 5 6 
#
# 1 0.011802 -0.005804 -0.006195 0.000000 0.000000 0.000000
# 2 -0.005804 0.015230 -0.005338 0.000000 0.000000 0.000000
# 3 -0.006195 -0.005338 0.054068 0.000000 0.000000 0.000000
# 4 0.000000 0.000000 0.000000 0.045439 0.000000 0.000000
# 5 0.000000 0.000000 0.000000 0.000000 0.055344 0.000000
# 6 0.000000 0.000000 0.000000 0.000000 0.000000 0.030049
#
#
# Mechanical properties :
#
#
# Convention : Reuss Voigt Hill
#
# Bulk Modulus (GPa) = 21.53922 45.22191 33.38057
# Shear Modulus (GPa) = 19.07824 24.47649 21.77736
#
# Velocity S-wave (km/s) = 3.28012 3.71531 3.50448
# Velocity P-wave (km/s) = 5.14710 6.62629 5.93298
#
# Compressibility (1/GPa) = 0.04642693
#
# Stress axis : x y z
#
# Youngs Moduli (GPa) = 84.73313 65.66196 18.49526
#
# Poissons Ratio (x) = 0.38110 0.11457
# Poissons Ratio (y) = 0.49179 0.09872
# Poissons Ratio (z) = 0.52489 0.35047
#
# Static dielectric constant tensor:
#      x y z
#    x 3.538110 0.000000 0.000000 
#    y 0.000000 3.403300 0.000000 
#    z 0.000000 0.000000 3.137820 
# 
# 
# High freq. dielectric constant tensor:
#      x y z
#    x 1.685080 0.000000 0.000000 
#    y 0.000000 1.677630 0.000000 
#    z 0.000000 0.000000 1.667020 
# 
# From -- ./inp_files/6475.got.cif
#   From: 2010.06.25/outbox.cif.g09.slc.cpg/sg58_4_cif.got.tgz:6475.got - 2010.06.26 21:38:00.
