data_PCOD8235314
_publ_section_title
;
Structure prediction by ZEFSAII (Michael W. Deem and Ramdas Pophale) SiO2 
 PCOD8235314
Probable space group: P N N M
;
_chemical_formula_sum "Si O2"
_cell_formula_units_Z 64
_cell_length_a 11.105223
_cell_length_b 18.636929
_cell_length_c 14.041486
_cell_angle_alpha 90.000000
_cell_angle_beta 90.000000
_cell_angle_gamma 90.000000
_cell_volume 2906.127780
_symmetry_space_group_name_H-M "P N N M"
_symmetry_group_IT_number 58
_symmetry_cell_setting 'orthorhombic'
loop_
_space_group_symop_operation_xyz
x,y,z
-x,-y,z
1/2+x,1/2-y,1/2-z
1/2-x,1/2+y,1/2-z
-x,-y,-z
x,y,-z
1/2-x,1/2+y,1/2+z
1/2+x,1/2-y,1/2+z
loop_
_atom_site_type_symbol
_atom_site_label
_atom_site_fract_x
_atom_site_fract_y
_atom_site_fract_z
Si Si1 0.277806 0.149530 0.709396
Si Si2 0.475166 0.392237 0.654114
Si Si3 0.107522 0.265843 0.296191
Si Si4 0.144718 0.496629 0.772285
Si Si5 0.633616 0.778607 0.107645
Si Si6 0.974713 0.267492 0.105159
Si Si7 0.311521 0.516832 0.394672
Si Si8 0.218254 0.858663 0.707866
O O1 0.141824 0.180918 0.703276
O O2 0.321154 0.160859 0.819091
O O3 0.346953 0.198844 0.633036
O O4 0.296858 0.067177 0.678606
O O5 0.470655 0.318041 0.598444
O O6 0.613882 0.420707 0.662048
O O7 0.397686 0.448414 0.593438
O O8 0.413648 0.385607 0.758810
O O9 0.063824 0.289820 0.190077
O O10 0.222053 0.319491 0.301950
O O11 0.010734 0.276159 0.378749
O O12 0.190642 0.495985 0.662987
O O13 0.198102 0.425965 0.825751
O O14 0.000000 0.500000 0.777357
O O15 0.696013 0.701246 0.126465
O O16 0.662969 0.801907 0.000000
O O17 0.014135 0.295804 0.000000
O O18 0.274651 0.543459 0.500000
#
# Coordination Sequence:
#
# PCOD8235314 Si02
#       8
#     8   8   8   8   8   8   8   8
#     4  10  22  39  57  85 126 158 210 256 309 375
#     4  10  17  36  57  88 122 154 194 244 299 364
#     4  10  19  38  59  89 124 156 204 260 310 375
#     4  11  23  39  60  83 122 172 206 255 318 380
#     4  10  21  39  64  92 124 162 210 264 317 376
#     4  11  20  33  58  84 114 153 200 252 300 357
#     4  10  21  33  56  90 122 155 199 248 305 376
#     4  10  21  40  63  87 123 167 204 248 317 372
#
# _framework density 22.022431999999998
#
# number of rings (size 3 to 8) (size 9 to 14) (size 15 to 20)
#    0.000    1.750    3.750    3.750    0.000    3.250 
#    0.000    3.750    0.000    2.250    0.000    0.000 
#    0.000    0.000    0.000    0.000    0.000    0.000 
#
# Total GULP energy -792894.231296 kJ/mol
# GULP energy per Si atom -12388.972364 kJ/mol
# Density = 2.197231 g / cm^3
# Si number density = 22.022432 Si / 1000 Ang^3
#
#
#
# Elastic Constant Matrix: (Units=GPa)
#
#
# Indices 1 2 3 4 5 6 
#
# 1 59.2804 -4.5636 5.8160 0.0000 0.0000 0.0000
# 2 -4.5636 109.2109 1.7706 0.0000 0.0000 0.0000
# 3 5.8160 1.7706 60.9653 0.0000 0.0000 0.0000
# 4 0.0000 0.0000 0.0000 10.6826 0.0000 0.0000
# 5 0.0000 0.0000 0.0000 0.0000 11.6461 0.0000
# 6 0.0000 0.0000 0.0000 0.0000 0.0000 30.9451
#
#
#
# Elastic Compliance Matrix: (Units=1/GPa)
#
#
# Indices 1 2 3 4 5 6 
#
# 1 0.017088 0.000741 -0.001652 0.000000 0.000000 0.000000
# 2 0.000741 0.009193 -0.000338 0.000000 0.000000 0.000000
# 3 -0.001652 -0.000338 0.016570 0.000000 0.000000 0.000000
# 4 0.000000 0.000000 0.000000 0.093610 0.000000 0.000000
# 5 0.000000 0.000000 0.000000 0.000000 0.085866 0.000000
# 6 0.000000 0.000000 0.000000 0.000000 0.000000 0.032315
#
#
# Mechanical properties :
#
#
# Convention : Reuss Voigt Hill
#
# Bulk Modulus (GPa) = 24.78057 26.16696 25.47377
# Shear Modulus (GPa) = 18.47811 25.75035 22.11423
#
# Velocity S-wave (km/s) = 2.89979 3.42318 3.17230
# Velocity P-wave (km/s) = 4.74221 5.24709 5.00103
#
# Compressibility (1/GPa) = 0.04035419
#
# Stress axis : x y z
#
# Youngs Moduli (GPa) = 58.52039 108.77814 60.34950
#
# Poissons Ratio (x) = -0.08059 0.09968
# Poissons Ratio (y) = -0.04335 0.02038
# Poissons Ratio (z) = 0.09666 0.03673
#
# Static dielectric constant tensor:
#      x y z
#    x 4.219860 0.000000 0.000000 
#    y 0.000000 4.170450 0.000000 
#    z 0.000000 0.000000 3.413240 
# 
# 
# High freq. dielectric constant tensor:
#      x y z
#    x 1.879060 0.000000 0.000000 
#    y 0.000000 1.877600 0.000000 
#    z 0.000000 0.000000 1.810380 
# 
# From -- ./inp_files/21524.got.cif
#   From: 2010.06.25/outbox.cif.g09.slc.cpg/sg58_11_cif.got.tgz:21524.got - 2010.06.26 21:38:00.
