data_PCOD8235534
_publ_section_title
;
Structure prediction by ZEFSAII (Michael W. Deem and Ramdas Pophale) SiO2 
 PCOD8235534
Probable space group: P N N M
;
_chemical_formula_sum "Si O2"
_cell_formula_units_Z 64
_cell_length_a 20.937082
_cell_length_b 18.281256
_cell_length_c 9.697756
_cell_angle_alpha 90.000000
_cell_angle_beta 90.000000
_cell_angle_gamma 90.000000
_cell_volume 3711.875808
_symmetry_space_group_name_H-M "P N N M"
_symmetry_group_IT_number 58
_symmetry_cell_setting 'orthorhombic'
loop_
_space_group_symop_operation_xyz
x,y,z
-x,-y,z
1/2+x,1/2-y,1/2-z
1/2-x,1/2+y,1/2-z
-x,-y,-z
x,y,-z
1/2-x,1/2+y,1/2+z
1/2+x,1/2-y,1/2+z
loop_
_atom_site_type_symbol
_atom_site_label
_atom_site_fract_x
_atom_site_fract_y
_atom_site_fract_z
Si Si1 0.834714 0.126417 0.838390
Si Si2 0.368696 0.244254 0.154506
Si Si3 0.486681 0.082141 0.350080
Si Si4 0.366058 0.081961 0.841609
Si Si5 0.086564 0.346645 0.343061
Si Si6 0.975369 0.078781 0.839533
Si Si7 0.490514 0.709058 0.155596
Si Si8 0.793730 0.559476 0.340854
O O1 0.833141 0.204120 0.762290
O O2 0.900035 0.083380 0.806130
O O3 0.775736 0.078663 0.778205
O O4 0.826707 0.142619 0.000000
O O5 0.336523 0.163669 0.165817
O O6 0.445371 0.243060 0.186046
O O7 0.358185 0.274852 0.000000
O O8 0.477203 0.122428 0.500000
O O9 0.426560 0.088867 0.253640
O O10 0.547792 0.110459 0.270224
O O11 0.500000 0.000000 0.386185
O O12 0.320407 0.017795 0.780575
O O13 0.385818 0.063377 0.000000
O O14 0.066714 0.368742 0.500000
O O15 0.072041 0.260248 0.321973
O O16 0.159871 0.370523 0.316641
O O17 0.014418 0.140383 0.757393
O O18 0.989350 0.091722 0.000000
O O19 0.000000 0.000000 0.790594
O O20 0.491890 0.678622 0.000000
O O21 0.783134 0.544224 0.500000
#
# Coordination Sequence:
#
# PCOD8235534 Si02
#       8
#     8   8   8   8   8   8   8   8
#     4   9  18  34  52  71  95 128 167 205 247 298
#     4   9  17  30  49  73  95 120 159 204 249 291
#     4  11  21  29  41  70 107 134 160 199 245 287
#     4  10  18  31  51  71  94 128 173 210 238 285
#     4  10  18  31  50  70  97 133 168 200 237 288
#     4   9  18  33  53  74  97 125 160 206 257 302
#     4   9  17  29  48  75  99 119 153 201 245 290
#     4   9  18  31  51  72  94 132 174 202 233 291
#
# _framework density 17.241955999999998
#
# number of rings (size 3 to 8) (size 9 to 14) (size 15 to 20)
#    0.000    2.500    2.500    0.375    0.000    1.750 
#    0.000    2.500    0.000    1.500    0.000    0.000 
#    0.000    0.000    0.000    0.000    0.000    0.000 
#
# Total GULP energy -793036.626867 kJ/mol
# GULP energy per Si atom -12391.197295 kJ/mol
# Density = 1.720271 g / cm^3
# Si number density = 17.241956 Si / 1000 Ang^3
#
#
#
# Elastic Constant Matrix: (Units=GPa)
#
#
# Indices 1 2 3 4 5 6 
#
# 1 72.0225 46.5090 31.3944 0.0000 0.0000 0.0000
# 2 46.5090 120.4021 40.6387 0.0000 0.0000 0.0000
# 3 31.3944 40.6387 68.1094 0.0000 0.0000 0.0000
# 4 0.0000 0.0000 0.0000 28.1457 0.0000 0.0000
# 5 0.0000 0.0000 0.0000 0.0000 12.3768 0.0000
# 6 0.0000 0.0000 0.0000 0.0000 0.0000 20.9199
#
#
#
# Elastic Compliance Matrix: (Units=1/GPa)
#
#
# Indices 1 2 3 4 5 6 
#
# 1 0.020191 -0.005833 -0.005827 0.000000 0.000000 0.000000
# 2 -0.005833 0.012085 -0.004522 0.000000 0.000000 0.000000
# 3 -0.005827 -0.004522 0.020066 0.000000 0.000000 0.000000
# 4 0.000000 0.000000 0.000000 0.035529 0.000000 0.000000
# 5 0.000000 0.000000 0.000000 0.000000 0.080796 0.000000
# 6 0.000000 0.000000 0.000000 0.000000 0.000000 0.047801
#
#
# Mechanical properties :
#
#
# Convention : Reuss Voigt Hill
#
# Bulk Modulus (GPa) = 50.05242 55.29091 52.67167
# Shear Modulus (GPa) = 19.57010 21.75460 20.66235
#
# Velocity S-wave (km/s) = 3.37267 3.55593 3.46551
# Velocity P-wave (km/s) = 6.65274 6.99977 6.82846
#
# Compressibility (1/GPa) = 0.01997905
#
# Stress axis : x y z
#
# Youngs Moduli (GPa) = 49.52735 82.74793 49.83509
#
# Poissons Ratio (x) = 0.48264 0.29037
# Poissons Ratio (y) = 0.28888 0.22536
# Poissons Ratio (z) = 0.28858 0.37420
#
# Static dielectric constant tensor:
#      x y z
#    x 3.153800 0.000000 0.000000 
#    y 0.000000 3.299410 0.000000 
#    z 0.000000 0.000000 3.228980 
# 
# 
# High freq. dielectric constant tensor:
#      x y z
#    x 1.636400 0.000000 0.000000 
#    y 0.000000 1.662310 0.000000 
#    z 0.000000 0.000000 1.660070 
# 
# From -- ./inp_files/9317.got.cif
#   From: 2010.06.25/outbox.cif.g09.slc.cpg/sg58_5_cif.got.tgz:9317.got - 2010.06.26 21:38:00.
