data_PCOD8235368
_publ_section_title
;
Structure prediction by ZEFSAII (Michael W. Deem and Ramdas Pophale) SiO2 
 PCOD8235368
Probable space group: P N N M
;
_chemical_formula_sum "Si O2"
_cell_formula_units_Z 48
_cell_length_a 16.896937
_cell_length_b 18.031353
_cell_length_c 9.208112
_cell_angle_alpha 90.000000
_cell_angle_beta 90.000000
_cell_angle_gamma 90.000000
_cell_volume 2805.478169
_symmetry_space_group_name_H-M "P N N M"
_symmetry_group_IT_number 58
_symmetry_cell_setting 'orthorhombic'
loop_
_space_group_symop_operation_xyz
x,y,z
-x,-y,z
1/2+x,1/2-y,1/2-z
1/2-x,1/2+y,1/2-z
-x,-y,-z
x,y,-z
1/2-x,1/2+y,1/2+z
1/2+x,1/2-y,1/2+z
loop_
_atom_site_type_symbol
_atom_site_label
_atom_site_fract_x
_atom_site_fract_y
_atom_site_fract_z
Si Si1 0.085830 0.019112 0.672121
Si Si2 0.166169 0.171586 0.329114
Si Si3 0.141187 0.322672 0.172537
Si Si4 0.742205 0.553875 0.172651
Si Si5 0.320871 0.093899 0.328061
Si Si6 0.006421 0.583181 0.827451
O O1 0.081184 0.013806 0.500000
O O2 0.151796 0.959376 0.728068
O O3 0.111235 0.102168 0.716798
O O4 0.000000 0.000000 0.741190
O O5 0.160184 0.186805 0.500000
O O6 0.137347 0.242647 0.243252
O O7 0.256656 0.155095 0.279985
O O8 0.219941 0.367936 0.223814
O O9 0.064188 0.366054 0.232244
O O10 0.139334 0.313846 0.000000
O O11 0.796757 0.487026 0.233645
O O12 0.743173 0.550767 0.000000
O O13 0.319475 0.087430 0.500000
O O14 0.408773 0.116270 0.274596
O O15 0.000000 0.500000 0.765245
O O16 0.000666 0.580720 0.000000
#
# Coordination Sequence:
#
# PCOD8235368 Si02
#       6
#     8   8   8   8   8   8
#     4   8  14  27  47  66  83 112 156 193 214 244
#     4   9  18  31  46  64  91 121 147 180 221 265
#     4  10  18  28  45  70  95 114 139 184 232 266
#     4   8  13  23  42  65  84 107 145 186 216 249
#     4   8  13  25  44  64  84 112 149 181 211 253
#     4   9  14  23  44  71  90 108 145 191 223 251
#
# _framework density 17.109383000000001
#
# number of rings (size 3 to 8) (size 9 to 14) (size 15 to 20)
#    0.000    3.333    1.667    2.000    0.000    0.000 
#    3.000    0.000    0.000    5.000    0.000    0.000 
#    0.000    0.000    0.000    0.000    0.000    0.000 
#
# Total GULP energy -594656.028478 kJ/mol
# GULP energy per Si atom -12388.667260 kJ/mol
# Density = 1.707044 g / cm^3
# Si number density = 17.109383 Si / 1000 Ang^3
#
#
#
# Elastic Constant Matrix: (Units=GPa)
#
#
# Indices 1 2 3 4 5 6 
#
# 1 172.1516 80.6823 16.8141 0.0000 0.0000 0.0000
# 2 80.6823 118.2768 21.8132 0.0000 0.0000 0.0000
# 3 16.8141 21.8132 12.5809 0.0000 0.0000 0.0000
# 4 0.0000 0.0000 0.0000 23.3740 0.0000 0.0000
# 5 0.0000 0.0000 0.0000 0.0000 7.0082 0.0000
# 6 0.0000 0.0000 0.0000 0.0000 0.0000 26.2191
#
#
#
# Elastic Compliance Matrix: (Units=1/GPa)
#
#
# Indices 1 2 3 4 5 6 
#
# 1 0.008571 -0.005489 -0.001937 0.000000 0.000000 0.000000
# 2 -0.005489 0.015945 -0.020310 0.000000 0.000000 0.000000
# 3 -0.001937 -0.020310 0.117288 0.000000 0.000000 0.000000
# 4 0.000000 0.000000 0.000000 0.042783 0.000000 0.000000
# 5 0.000000 0.000000 0.000000 0.000000 0.142690 0.000000
# 6 0.000000 0.000000 0.000000 0.000000 0.000000 0.038140
#
#
# Mechanical properties :
#
#
# Convention : Reuss Voigt Hill
#
# Bulk Modulus (GPa) = 11.58318 60.18094 35.88206
# Shear Modulus (GPa) = 11.11938 23.56691 17.34315
#
# Velocity S-wave (km/s) = 2.55208 3.71540 3.18726
# Velocity P-wave (km/s) = 3.93305 7.32504 5.87899
#
# Compressibility (1/GPa) = 0.08633207
#
# Stress axis : x y z
#
# Youngs Moduli (GPa) = 116.67719 62.71641 8.52600
#
# Poissons Ratio (x) = 0.34426 0.01652
# Poissons Ratio (y) = 0.64047 0.17316
# Poissons Ratio (z) = 0.22601 1.27374
#
# Static dielectric constant tensor:
#      x y z
#    x 3.882380 0.000000 0.000000 
#    y 0.000000 3.117580 0.000000 
#    z 0.000000 0.000000 2.486620 
# 
# 
# High freq. dielectric constant tensor:
#      x y z
#    x 1.677770 0.000000 0.000000 
#    y 0.000000 1.650220 0.000000 
#    z 0.000000 0.000000 1.583870 
# 
# From -- ./inp_files/7849.got.cif
#   From: 2010.06.25/outbox.cif.g09.slc.cpg/sg58_4_cif.got.tgz:7849.got - 2010.06.26 21:38:00.
