data_PCOD8235393
_publ_section_title
;
Structure prediction by ZEFSAII (Michael W. Deem and Ramdas Pophale) SiO2 
 PCOD8235393
Probable space group: P N N M
;
_chemical_formula_sum "Si O2"
_cell_formula_units_Z 56
_cell_length_a 14.857113
_cell_length_b 21.959017
_cell_length_c 9.172911
_cell_angle_alpha 90.000000
_cell_angle_beta 90.000000
_cell_angle_gamma 90.000000
_cell_volume 2992.640171
_symmetry_space_group_name_H-M "P N N M"
_symmetry_group_IT_number 58
_symmetry_cell_setting 'orthorhombic'
loop_
_space_group_symop_operation_xyz
x,y,z
-x,-y,z
1/2+x,1/2-y,1/2-z
1/2-x,1/2+y,1/2-z
-x,-y,-z
x,y,-z
1/2-x,1/2+y,1/2+z
1/2+x,1/2-y,1/2+z
loop_
_atom_site_type_symbol
_atom_site_label
_atom_site_fract_x
_atom_site_fract_y
_atom_site_fract_z
Si Si1 0.166785 0.100269 0.167843
Si Si2 0.335404 0.143138 0.327554
Si Si3 0.987898 0.570382 0.172715
Si Si4 0.810764 0.615395 0.327451
Si Si5 0.980513 0.137324 0.173315
Si Si6 0.351651 0.461892 0.332363
Si Si7 0.823283 0.220761 0.827285
O O1 0.252757 0.104732 0.268438
O O2 0.084480 0.142711 0.226647
O O3 0.130247 0.032280 0.189008
O O4 0.192887 0.113598 0.000000
O O5 0.331293 0.144253 0.500000
O O6 0.426203 0.109912 0.275790
O O7 0.322373 0.211172 0.261812
O O8 0.903992 0.604573 0.245181
O O9 0.000000 0.500000 0.224905
O O10 0.974838 0.572326 0.000000
O O11 0.829860 0.614649 0.500000
O O12 0.745239 0.560839 0.272904
O O13 0.762723 0.679601 0.279414
O O14 0.934095 0.075977 0.237690
O O15 0.918868 0.193222 0.226821
O O16 0.986980 0.133730 0.000000
O O17 0.348739 0.442089 0.500000
O O18 0.824166 0.223237 0.000000
#
# Coordination Sequence:
#
# PCOD8235393 Si02
#       7
#     8   8   8   8   8   8   8
#     4  10  18  28  48  76  97 115 148 194 235 272
#     4  10  21  35  48  63  93 133 163 194 238 286
#     4  10  21  35  50  71 100 135 171 202 239 290
#     4   9  17  31  53  74  93 123 161 201 242 286
#     4   8  14  26  47  72  95 119 149 186 228 280
#     4   8  14  26  46  74 101 119 141 182 238 289
#     4   8  16  32  50  69  93 124 161 194 236 293
#
# _framework density 18.712574
#
# number of rings (size 3 to 8) (size 9 to 14) (size 15 to 20)
#    0.000    3.000    0.000    3.000    0.000    3.714 
#    0.000    2.143    0.000    6.000    0.000    0.000 
#    0.000    0.000    0.000    0.000    0.000    0.000 
#
# Total GULP energy -693786.240989 kJ/mol
# GULP energy per Si atom -12389.040018 kJ/mol
# Density = 1.866998 g / cm^3
# Si number density = 18.712574 Si / 1000 Ang^3
#
#
#
# Elastic Constant Matrix: (Units=GPa)
#
#
# Indices 1 2 3 4 5 6 
#
# 1 151.6758 43.1941 28.5295 0.0000 0.0000 0.0000
# 2 43.1941 81.4393 17.7754 0.0000 0.0000 0.0000
# 3 28.5295 17.7754 9.5951 0.0000 0.0000 0.0000
# 4 0.0000 0.0000 0.0000 10.3416 0.0000 0.0000
# 5 0.0000 0.0000 0.0000 0.0000 9.8323 0.0000
# 6 0.0000 0.0000 0.0000 0.0000 0.0000 22.8259
#
#
#
# Elastic Compliance Matrix: (Units=1/GPa)
#
#
# Indices 1 2 3 4 5 6 
#
# 1 0.015402 0.003067 -0.051477 0.000000 0.000000 0.000000
# 2 0.003067 0.021225 -0.048438 0.000000 0.000000 0.000000
# 3 -0.051477 -0.048438 0.347011 0.000000 0.000000 0.000000
# 4 0.000000 0.000000 0.000000 0.096697 0.000000 0.000000
# 5 0.000000 0.000000 0.000000 0.000000 0.101705 0.000000
# 6 0.000000 0.000000 0.000000 0.000000 0.000000 0.043810
#
#
# Mechanical properties :
#
#
# Convention : Reuss Voigt Hill
#
# Bulk Modulus (GPa) = 5.26477 46.85646 26.06061
# Shear Modulus (GPa) = 5.66340 18.81405 12.23872
#
# Velocity S-wave (km/s) = 1.74158 3.17428 2.56019
# Velocity P-wave (km/s) = 2.61987 6.20719 4.76408
#
# Compressibility (1/GPa) = 0.18994177
#
# Stress axis : x y z
#
# Youngs Moduli (GPa) = 64.92541 47.11427 2.88175
#
# Poissons Ratio (x) = -0.14448 0.14834
# Poissons Ratio (y) = -0.19909 0.13959
# Poissons Ratio (z) = 3.34216 2.28212
#
# Static dielectric constant tensor:
#      x y z
#    x 3.615000 0.000000 0.000000 
#    y 0.000000 3.670330 0.000000 
#    z 0.000000 0.000000 2.889820 
# 
# 
# High freq. dielectric constant tensor:
#      x y z
#    x 1.741390 0.000000 0.000000 
#    y 0.000000 1.729610 0.000000 
#    z 0.000000 0.000000 1.666540 
# 
# From -- ./inp_files/6328.got.cif
#   From: 2010.06.25/outbox.cif.g09.slc.cpg/sg58_4_cif.got.tgz:6328.got - 2010.06.26 21:38:00.
