data_PCOD8235976
_publ_section_title
;
Structure prediction by ZEFSAII (Michael W. Deem and Ramdas Pophale) SiO2 
 PCOD8235976
Probable space group: P N N M
;
_chemical_formula_sum "Si O2"
_cell_formula_units_Z 56
_cell_length_a 18.805725
_cell_length_b 7.544361
_cell_length_c 21.971200
_cell_angle_alpha 90.000000
_cell_angle_beta 90.000000
_cell_angle_gamma 90.000000
_cell_volume 3117.211859
_symmetry_space_group_name_H-M "P N N M"
_symmetry_group_IT_number 58
_symmetry_cell_setting 'orthorhombic'
loop_
_space_group_symop_operation_xyz
x,y,z
-x,-y,z
1/2+x,1/2-y,1/2-z
1/2-x,1/2+y,1/2-z
-x,-y,-z
x,y,-z
1/2-x,1/2+y,1/2+z
1/2+x,1/2-y,1/2+z
loop_
_atom_site_type_symbol
_atom_site_label
_atom_site_fract_x
_atom_site_fract_y
_atom_site_fract_z
Si Si1 0.986665 0.208466 0.309393
Si Si2 0.656370 0.666116 0.757292
Si Si3 0.275727 0.740330 0.349396
Si Si4 0.439540 0.358669 0.066202
Si Si5 0.712610 0.476395 0.929098
Si Si6 0.136259 0.245929 0.261617
Si Si7 0.749423 0.646568 0.350586
O O1 0.921660 0.251545 0.264341
O O2 0.964695 0.271591 0.378585
O O3 0.056061 0.301092 0.280885
O O4 0.000000 0.000000 0.314201
O O5 0.710785 0.756904 0.802590
O O6 0.654594 0.458679 0.775390
O O7 0.679846 0.705850 0.687964
O O8 0.348391 0.775604 0.310656
O O9 0.270034 0.544679 0.379643
O O10 0.269593 0.885788 0.401891
O O11 0.500000 0.500000 0.054766
O O12 0.367150 0.459038 0.086609
O O13 0.427940 0.260361 0.000000
O O14 0.728410 0.281967 0.902973
O O15 0.725936 0.464346 0.000000
O O16 0.186322 0.371059 0.302127
#
# Coordination Sequence:
#
# PCOD8235976 Si02
#       7
#     8   8   8   8   8   8   8
#     4   9  14  26  47  70 102 131 167 201 246 298
#     4   9  16  29  49  72 100 131 162 206 258 297
#     4  10  19  32  49  74 100 131 168 210 253 297
#     4   9  16  26  47  72  96 135 176 198 230 295
#     4  11  21  35  53  71 100 139 173 206 251 300
#     4   9  17  29  50  74 102 132 165 207 256 297
#     4  10  19  31  50  72  98 129 165 208 252 299
#
# _framework density 17.964772
#
# number of rings (size 3 to 8) (size 9 to 14) (size 15 to 20)
#    0.000    2.429    2.857    1.714    2.000    0.571 
#    0.000    0.714    0.000    0.000    0.000    8.000 
#    0.000    5.714    0.000    0.000    0.000    0.000 
#
# Total GULP energy -693835.579287 kJ/mol
# GULP energy per Si atom -12389.921059 kJ/mol
# Density = 1.792388 g / cm^3
# Si number density = 17.964772 Si / 1000 Ang^3
#
#
#
# Elastic Constant Matrix: (Units=GPa)
#
#
# Indices 1 2 3 4 5 6 
#
# 1 80.4796 -4.2136 41.7390 0.0000 0.0000 0.0000
# 2 -4.2136 30.0587 21.3339 0.0000 0.0000 0.0000
# 3 41.7390 21.3339 89.6766 0.0000 0.0000 0.0000
# 4 0.0000 0.0000 0.0000 26.1311 0.0000 0.0000
# 5 0.0000 0.0000 0.0000 0.0000 34.3031 0.0000
# 6 0.0000 0.0000 0.0000 0.0000 0.0000 12.7959
#
#
#
# Elastic Compliance Matrix: (Units=1/GPa)
#
#
# Indices 1 2 3 4 5 6 
#
# 1 0.018852 0.010672 -0.011313 0.000000 0.000000 0.000000
# 2 0.010672 0.046068 -0.015927 0.000000 0.000000 0.000000
# 3 -0.011313 -0.015927 0.020206 0.000000 0.000000 0.000000
# 4 0.000000 0.000000 0.000000 0.038269 0.000000 0.000000
# 5 0.000000 0.000000 0.000000 0.000000 0.029152 0.000000
# 6 0.000000 0.000000 0.000000 0.000000 0.000000 0.078150
#
#
# Mechanical properties :
#
#
# Convention : Reuss Voigt Hill
#
# Bulk Modulus (GPa) = 19.23463 35.32595 27.28029
# Shear Modulus (GPa) = 17.78341 24.06973 20.92657
#
# Velocity S-wave (km/s) = 3.14969 3.66434 3.41672
# Velocity P-wave (km/s) = 4.89464 6.13269 5.54830
#
# Compressibility (1/GPa) = 0.05198957
#
# Stress axis : x y z
#
# Youngs Moduli (GPa) = 53.04607 21.70711 49.49120
#
# Poissons Ratio (x) = -0.23166 0.55990
# Poissons Ratio (y) = -0.56610 0.78822
# Poissons Ratio (z) = 0.60011 0.34572
#
# Static dielectric constant tensor:
#      x y z
#    x 3.509220 0.000000 0.000000 
#    y 0.000000 3.061260 0.000000 
#    z 0.000000 0.000000 3.451070 
# 
# 
# High freq. dielectric constant tensor:
#      x y z
#    x 1.681940 0.000000 0.000000 
#    y 0.000000 1.673920 0.000000 
#    z 0.000000 0.000000 1.677040 
# 
# From -- ./inp_files/30426.got.cif
#   From: 2010.06.25/outbox.cif.g09.slc.cpg/sg58_16_cif.got.tgz:30426.got - 2010.06.26 21:38:00.
