data_PCOD8235213
_publ_section_title
;
Structure prediction by ZEFSAII (Michael W. Deem and Ramdas Pophale) SiO2 
 PCOD8235213
Probable space group: P N N M
;
_chemical_formula_sum "Si O2"
_cell_formula_units_Z 52
_cell_length_a 7.642652
_cell_length_b 28.605231
_cell_length_c 11.374264
_cell_angle_alpha 90.000000
_cell_angle_beta 90.000000
_cell_angle_gamma 90.000000
_cell_volume 2486.639616
_symmetry_space_group_name_H-M "P N N M"
_symmetry_group_IT_number 58
_symmetry_cell_setting 'orthorhombic'
loop_
_space_group_symop_operation_xyz
x,y,z
-x,-y,z
1/2+x,1/2-y,1/2-z
1/2-x,1/2+y,1/2-z
-x,-y,-z
x,y,-z
1/2-x,1/2+y,1/2+z
1/2+x,1/2-y,1/2+z
loop_
_atom_site_type_symbol
_atom_site_label
_atom_site_fract_x
_atom_site_fract_y
_atom_site_fract_z
Si Si1 0.762175 0.605704 0.249415
Si Si2 0.062781 0.188133 0.500000
Si Si3 0.723912 0.613036 0.000000
Si Si4 0.151525 0.608675 0.258016
Si Si5 0.897105 0.361787 0.000000
Si Si6 0.877266 0.207457 0.270954
Si Si7 0.955344 0.947877 0.863118
Si Si8 0.796578 0.795536 0.862995
O O1 0.742524 0.661303 0.224278
O O2 0.618598 0.586052 0.337864
O O3 0.738656 0.582008 0.119244
O O4 0.954890 0.596509 0.302064
O O5 0.963549 0.138130 0.500000
O O6 0.007206 0.214038 0.381880
O O7 0.274279 0.184102 0.500000
O O8 0.894470 0.648998 0.000000
O O9 0.154994 0.609624 0.116902
O O10 0.281543 0.567621 0.295539
O O11 0.210200 0.656899 0.317701
O O12 0.760647 0.253556 0.276777
O O13 0.993253 0.202884 0.152810
O O14 0.913500 0.945394 0.000000
O O15 0.000000 0.000000 0.821697
O O16 0.751442 0.787477 0.000000
#
# Coordination Sequence:
#
# PCOD8235213 Si02
#       8
#     8   4   4   8   4   8   8   8
#     4  10  21  41  67  92 128 168 212 267 333 381
#     4  10  16  36  58  78 123 166 213 258 307 374
#     4   8  18  32  62  96 117 158 206 257 315 385
#     4  11  22  41  68  96 131 172 214 270 327 390
#     4  10  18  36  66  92 123 172 206 256 326 379
#     4  11  22  40  58  90 127 173 217 265 320 381
#     4  11  25  45  69  96 129 172 222 273 328 392
#     4  12  24  40  60  91 132 174 222 269 319 383
#
# _framework density 20.911756
#
# number of rings (size 3 to 8) (size 9 to 14) (size 15 to 20)
#    0.000    1.385    3.846    2.308    0.000    1.846 
#    5.538    3.077    0.000    2.769    0.000    0.000 
#    0.000    0.000    0.000    0.000    0.000    0.000 
#
# Total GULP energy -644485.732746 kJ/mol
# GULP energy per Si atom -12393.956399 kJ/mol
# Density = 2.086416 g / cm^3
# Si number density = 20.911756 Si / 1000 Ang^3
#
#
#
# Elastic Constant Matrix: (Units=GPa)
#
#
# Indices 1 2 3 4 5 6 
#
# 1 109.9423 11.3285 21.6304 0.0000 0.0000 0.0000
# 2 11.3285 66.8879 18.5211 0.0000 0.0000 0.0000
# 3 21.6304 18.5211 73.4938 0.0000 0.0000 0.0000
# 4 0.0000 0.0000 0.0000 22.9874 0.0000 0.0000
# 5 0.0000 0.0000 0.0000 0.0000 27.6048 0.0000
# 6 0.0000 0.0000 0.0000 0.0000 0.0000 24.1179
#
#
#
# Elastic Compliance Matrix: (Units=1/GPa)
#
#
# Indices 1 2 3 4 5 6 
#
# 1 0.009707 -0.000917 -0.002626 0.000000 0.000000 0.000000
# 2 -0.000917 0.016159 -0.003802 0.000000 0.000000 0.000000
# 3 -0.002626 -0.003802 0.015338 0.000000 0.000000 0.000000
# 4 0.000000 0.000000 0.000000 0.043502 0.000000 0.000000
# 5 0.000000 0.000000 0.000000 0.000000 0.036226 0.000000
# 6 0.000000 0.000000 0.000000 0.000000 0.000000 0.041463
#
#
# Mechanical properties :
#
#
# Convention : Reuss Voigt Hill
#
# Bulk Modulus (GPa) = 37.71732 39.25377 38.48554
# Shear Modulus (GPa) = 26.89314 28.19829 27.54572
#
# Velocity S-wave (km/s) = 3.59002 3.67610 3.63331
# Velocity P-wave (km/s) = 5.93800 6.06879 6.00375
#
# Compressibility (1/GPa) = 0.02651302
#
# Stress axis : x y z
#
# Youngs Moduli (GPa) = 103.02097 61.88685 65.19928
#
# Poissons Ratio (x) = 0.05674 0.17120
# Poissons Ratio (y) = 0.09446 0.24790
# Poissons Ratio (z) = 0.27051 0.23531
#
# Static dielectric constant tensor:
#      x y z
#    x 3.962150 0.000000 0.000000 
#    y 0.000000 3.405580 0.000000 
#    z 0.000000 0.000000 3.963550 
# 
# 
# High freq. dielectric constant tensor:
#      x y z
#    x 1.834610 0.000000 0.000000 
#    y 0.000000 1.773100 0.000000 
#    z 0.000000 0.000000 1.829820 
# 
# From -- ./inp_files/13364.got.cif
#   From: 2010.06.25/outbox.cif.g09.slc.cpg/sg58_7_cif.got.tgz:13364.got - 2010.06.26 21:38:00.
