data_PCOD8235164
_publ_section_title
;
Structure prediction by ZEFSAII (Michael W. Deem and Ramdas Pophale) SiO2 
 PCOD8235164
Probable space group: P B C M
;
_chemical_formula_sum "Si O2"
_cell_formula_units_Z 32
_cell_length_a 7.420029
_cell_length_b 8.735283
_cell_length_c 22.257107
_cell_angle_alpha 90.000000
_cell_angle_beta 90.000000
_cell_angle_gamma 90.000000
_cell_volume 1442.617831
_symmetry_space_group_name_H-M "P B C M"
_symmetry_group_IT_number 57
_symmetry_cell_setting 'orthorhombic'
loop_
_space_group_symop_operation_xyz
x,y,z
-x,-y,1/2+z
x,1/2-y,-z
-x,1/2+y,1/2-z
-x,-y,-z
x,y,1/2-z
-x,1/2+y,z
x,1/2-y,1/2+z
loop_
_atom_site_type_symbol
_atom_site_label
_atom_site_fract_x
_atom_site_fract_y
_atom_site_fract_z
Si Si1 0.779448 0.674244 0.630034
Si Si2 0.444719 0.872820 0.454725
Si Si3 0.739725 0.341091 0.250000
Si Si4 0.131805 0.977658 0.368459
Si Si5 0.639684 0.516731 0.750000
O O1 0.616510 0.687257 0.582887
O O2 0.717844 0.594961 0.691108
O O3 0.939164 0.568381 0.602235
O O4 0.856353 0.842371 0.643985
O O5 0.361588 0.750000 0.500000
O O6 0.293354 0.927273 0.410128
O O7 0.500000 0.000000 0.500000
O O8 0.860808 0.378879 0.192527
O O9 0.573762 0.459255 0.250000
O O10 0.677287 0.164688 0.250000
#
# Coordination Sequence:
#
# PCOD8235164 Si02
#       5
#     8   8   4   8   4
#     4  12  27  47  75 108 143 187 236 295 356 423
#     4  12  28  49  72 102 143 190 242 290 350 418
#     4  12  25  44  75 107 145 185 230 294 357 430
#     4  12  27  47  75 107 145 185 237 293 358 421
#     4  12  25  44  75 107 145 183 234 288 365 422
#
# _framework density 22.181895999999998
#
# number of rings (size 3 to 8) (size 9 to 14) (size 15 to 20)
#    0.000    0.000    5.000    4.500    7.000    2.000 
#    0.000    0.000    0.000    0.000    0.000    0.000 
#    0.000    0.000    0.000    0.000    0.000    0.000 
#
# Total GULP energy -396832.981269 kJ/mol
# GULP energy per Si atom -12401.030665 kJ/mol
# Density = 2.213141 g / cm^3
# Si number density = 22.181896 Si / 1000 Ang^3
#
#
#
# Elastic Constant Matrix: (Units=GPa)
#
#
# Indices 1 2 3 4 5 6 
#
# 1 98.4878 -6.4987 19.2264 0.0000 0.0000 0.0000
# 2 -6.4987 107.7875 29.3104 0.0000 0.0000 0.0000
# 3 19.2264 29.3104 111.4047 0.0000 0.0000 0.0000
# 4 0.0000 0.0000 0.0000 28.8545 0.0000 0.0000
# 5 0.0000 0.0000 0.0000 0.0000 57.2767 0.0000
# 6 0.0000 0.0000 0.0000 0.0000 0.0000 41.1935
#
#
#
# Elastic Compliance Matrix: (Units=1/GPa)
#
#
# Indices 1 2 3 4 5 6 
#
# 1 0.010657 0.001231 -0.002163 0.000000 0.000000 0.000000
# 2 0.001231 0.010135 -0.002879 0.000000 0.000000 0.000000
# 3 -0.002163 -0.002879 0.010107 0.000000 0.000000 0.000000
# 4 0.000000 0.000000 0.000000 0.034657 0.000000 0.000000
# 5 0.000000 0.000000 0.000000 0.000000 0.017459 0.000000
# 6 0.000000 0.000000 0.000000 0.000000 0.000000 0.024276
#
#
# Mechanical properties :
#
#
# Convention : Reuss Voigt Hill
#
# Bulk Modulus (GPa) = 42.96202 44.63958 43.80080
# Shear Modulus (GPa) = 40.75948 43.84106 42.30027
#
# Velocity S-wave (km/s) = 4.29127 4.45053 4.37163
# Velocity P-wave (km/s) = 6.63049 6.82478 6.72834
#
# Compressibility (1/GPa) = 0.02327637
#
# Stress axis : x y z
#
# Youngs Moduli (GPa) = 93.83501 98.67246 98.94146
#
# Poissons Ratio (x) = -0.12144 0.21401
# Poissons Ratio (y) = -0.11548 0.28483
# Poissons Ratio (z) = 0.20297 0.28406
#
# Static dielectric constant tensor:
#      x y z
#    x 3.943860 0.000000 0.000000 
#    y 0.000000 4.161850 0.000000 
#    z 0.000000 0.000000 4.071410 
# 
# 
# High freq. dielectric constant tensor:
#      x y z
#    x 1.888360 0.000000 0.000000 
#    y 0.000000 1.894130 0.000000 
#    z 0.000000 0.000000 1.878690 
# 
# From -- ./inp_files/23964.got.cif
#   From: 2010.03.12/outbox.cif.g09.slc.cpg/sg57_12_cif.got.tgz:23964.got - 2010.04.16 15:48:40.
