data_PCOD8235843
_publ_section_title
;
Structure prediction by ZEFSAII (Michael W. Deem and Ramdas Pophale) SiO2 
 PCOD8235843
Probable space group: P N N M
;
_chemical_formula_sum "Si O2"
_cell_formula_units_Z 64
_cell_length_a 20.807831
_cell_length_b 19.389121
_cell_length_c 9.097299
_cell_angle_alpha 90.000000
_cell_angle_beta 90.000000
_cell_angle_gamma 90.000000
_cell_volume 3670.264826
_symmetry_space_group_name_H-M "P N N M"
_symmetry_group_IT_number 58
_symmetry_cell_setting 'orthorhombic'
loop_
_space_group_symop_operation_xyz
x,y,z
-x,-y,z
1/2+x,1/2-y,1/2-z
1/2-x,1/2+y,1/2-z
-x,-y,-z
x,y,-z
1/2-x,1/2+y,1/2+z
1/2+x,1/2-y,1/2+z
loop_
_atom_site_type_symbol
_atom_site_label
_atom_site_fract_x
_atom_site_fract_y
_atom_site_fract_z
Si Si1 0.440468 0.715985 0.329640
Si Si2 0.190648 0.711809 0.673858
Si Si3 0.375996 0.424960 0.329528
Si Si4 0.237451 0.585426 0.170353
Si Si5 0.567963 0.699995 0.173658
Si Si6 0.368414 0.579683 0.333029
Si Si7 0.255954 0.930650 0.669349
Si Si8 0.684358 0.208439 0.671408
O O1 0.453623 0.733278 0.500000
O O2 0.503369 0.734396 0.236398
O O3 0.424212 0.635234 0.307922
O O4 0.382059 0.762056 0.263059
O O5 0.192322 0.704156 0.500000
O O6 0.188757 0.635725 0.744675
O O7 0.127449 0.752752 0.724099
O O8 0.253182 0.752303 0.735757
O O9 0.378957 0.404836 0.500000
O O10 0.424314 0.376201 0.241110
O O11 0.397670 0.504036 0.302214
O O12 0.303764 0.414587 0.273186
O O13 0.309850 0.596434 0.225646
O O14 0.215229 0.506457 0.199953
O O15 0.235263 0.603935 0.000000
O O16 0.563208 0.693590 0.000000
O O17 0.341764 0.584061 0.500000
O O18 0.232379 0.924032 0.500000
O O19 0.310465 0.873491 0.703225
O O20 0.682961 0.225075 0.500000
#
# Coordination Sequence:
#
# PCOD8235843 Si02
#       8
#     8   8   8   8   8   8   8   8
#     4  10  20  35  54  74  99 134 175 215 250 300
#     4  10  19  35  56  73  98 139 177 206 252 315
#     4  10  19  31  50  76 105 138 176 213 245 296
#     4  10  19  29  50  82 110 130 163 220 260 293
#     4  11  23  37  52  72 103 140 173 213 262 310
#     4   9  18  33  51  73 105 143 176 202 247 310
#     4   9  17  32  52  78 108 136 167 206 262 310
#     4   9  16  32  57  76  96 134 175 207 248 308
#
# _framework density 17.437434
#
# number of rings (size 3 to 8) (size 9 to 14) (size 15 to 20)
#    0.000    2.250    2.500    1.125    0.000    3.000 
#    0.000    3.125    0.000    0.750    0.000    5.250 
#    0.000    0.000    0.000    0.000    0.000    0.000 
#
# Total GULP energy -793573.752217 kJ/mol
# GULP energy per Si atom -12399.589878 kJ/mol
# Density = 1.739775 g / cm^3
# Si number density = 17.437434 Si / 1000 Ang^3
#
#
#
# Elastic Constant Matrix: (Units=GPa)
#
#
# Indices 1 2 3 4 5 6 
#
# 1 110.6123 56.0503 39.7149 0.0000 0.0000 0.0000
# 2 56.0503 101.8754 35.0007 0.0000 0.0000 0.0000
# 3 39.7149 35.0007 53.5539 0.0000 0.0000 0.0000
# 4 0.0000 0.0000 0.0000 23.7695 0.0000 0.0000
# 5 0.0000 0.0000 0.0000 0.0000 27.0415 0.0000
# 6 0.0000 0.0000 0.0000 0.0000 0.0000 23.4205
#
#
#
# Elastic Compliance Matrix: (Units=1/GPa)
#
#
# Indices 1 2 3 4 5 6 
#
# 1 0.014348 -0.005466 -0.007068 0.000000 0.000000 0.000000
# 2 -0.005466 0.014740 -0.005580 0.000000 0.000000 0.000000
# 3 -0.007068 -0.005580 0.027562 0.000000 0.000000 0.000000
# 4 0.000000 0.000000 0.000000 0.042071 0.000000 0.000000
# 5 0.000000 0.000000 0.000000 0.000000 0.036980 0.000000
# 6 0.000000 0.000000 0.000000 0.000000 0.000000 0.042698
#
#
# Mechanical properties :
#
#
# Convention : Reuss Voigt Hill
#
# Bulk Modulus (GPa) = 48.96823 58.61928 53.79375
# Shear Modulus (GPa) = 22.58011 23.86468 23.22240
#
# Velocity S-wave (km/s) = 3.60241 3.70346 3.65328
# Velocity P-wave (km/s) = 6.74139 7.20953 6.97939
#
# Compressibility (1/GPa) = 0.02042141
#
# Stress axis : x y z
#
# Youngs Moduli (GPa) = 69.69620 67.84134 36.28242
#
# Poissons Ratio (x) = 0.37080 0.25645
# Poissons Ratio (y) = 0.38094 0.20247
# Poissons Ratio (z) = 0.49262 0.37858
#
# Static dielectric constant tensor:
#      x y z
#    x 3.054960 0.000000 0.000000 
#    y 0.000000 3.439730 0.000000 
#    z 0.000000 0.000000 3.150980 
# 
# 
# High freq. dielectric constant tensor:
#      x y z
#    x 1.645150 0.000000 0.000000 
#    y 0.000000 1.679190 0.000000 
#    z 0.000000 0.000000 1.664540 
# 
# From -- ./inp_files/8251.got.cif
#   From: 2010.06.25/outbox.cif.g09.slc.cpg/sg58_5_cif.got.tgz:8251.got - 2010.06.26 21:38:00.
