data_PCOD8235842
_publ_section_title
;
Structure prediction by ZEFSAII (Michael W. Deem and Ramdas Pophale) SiO2 
 PCOD8235842
Probable space group: P N N M
;
_chemical_formula_sum "Si O2"
_cell_formula_units_Z 64
_cell_length_a 21.267143
_cell_length_b 18.689869
_cell_length_c 8.916435
_cell_angle_alpha 90.000000
_cell_angle_beta 90.000000
_cell_angle_gamma 90.000000
_cell_volume 3544.105624
_symmetry_space_group_name_H-M "P N N M"
_symmetry_group_IT_number 58
_symmetry_cell_setting 'orthorhombic'
loop_
_space_group_symop_operation_xyz
x,y,z
-x,-y,z
1/2+x,1/2-y,1/2-z
1/2-x,1/2+y,1/2-z
-x,-y,-z
x,y,-z
1/2-x,1/2+y,1/2+z
1/2+x,1/2-y,1/2+z
loop_
_atom_site_type_symbol
_atom_site_label
_atom_site_fract_x
_atom_site_fract_y
_atom_site_fract_z
Si Si1 0.569991 0.472090 0.325996
Si Si2 0.891479 0.826510 0.322591
Si Si3 0.303710 0.918085 0.822265
Si Si4 0.816617 0.035037 0.331475
Si Si5 0.982026 0.422319 0.176434
Si Si6 0.354193 0.072977 0.825812
Si Si7 0.595282 0.179372 0.677637
Si Si8 0.239950 0.122055 0.334854
O O1 0.500000 0.500000 0.303163
O O2 0.587277 0.461672 0.500000
O O3 0.574972 0.396342 0.242930
O O4 0.617105 0.531475 0.256193
O O5 0.904087 0.823893 0.500000
O O6 0.919800 0.757717 0.240478
O O7 0.816523 0.825363 0.287342
O O8 0.233132 0.914773 0.755691
O O9 0.342445 0.852592 0.753614
O O10 0.337860 0.992101 0.774844
O O11 0.299566 0.910181 0.000000
O O12 0.827252 0.064838 0.500000
O O13 0.789567 0.956033 0.337911
O O14 0.916071 0.398074 0.245172
O O15 0.000000 0.500000 0.241435
O O16 0.035494 0.367410 0.225904
O O17 0.973595 0.425495 0.000000
O O18 0.297152 0.126081 0.781935
O O19 0.365727 0.077836 0.000000
O O20 0.604919 0.180730 0.500000
O O21 0.265780 0.141819 0.500000
#
# Coordination Sequence:
#
# PCOD8235842 Si02
#       8
#     8   8   8   8   8   8   8   8
#     4  10  20  35  58  86 113 142 179 225 276 332
#     4  10  21  37  57  81 108 141 180 226 277 332
#     4  10  19  31  49  76 108 140 176 221 271 319
#     4   9  17  30  51  79 107 135 171 216 264 314
#     4  10  20  34  51  74 107 148 189 224 266 322
#     4  10  19  29  49  78 105 134 173 224 266 302
#     4  11  22  35  54  77 106 147 186 227 277 332
#     4   8  16  31  51  73  99 131 166 207 259 315
#
# _framework density 18.058152
#
# number of rings (size 3 to 8) (size 9 to 14) (size 15 to 20)
#    0.000    2.250    1.250    3.000    0.000    6.750 
#    0.000    0.000    2.750    0.000    0.000    0.000 
#    0.000    0.000    0.000    0.000    0.000    0.000 
#
# Total GULP energy -793610.777779 kJ/mol
# GULP energy per Si atom -12400.168403 kJ/mol
# Density = 1.801705 g / cm^3
# Si number density = 18.058152 Si / 1000 Ang^3
#
#
#
# Elastic Constant Matrix: (Units=GPa)
#
#
# Indices 1 2 3 4 5 6 
#
# 1 114.0361 33.5453 47.6010 0.0000 0.0000 0.0000
# 2 33.5453 65.2527 30.7742 0.0000 0.0000 0.0000
# 3 47.6010 30.7742 80.5109 0.0000 0.0000 0.0000
# 4 0.0000 0.0000 0.0000 23.1502 0.0000 0.0000
# 5 0.0000 0.0000 0.0000 0.0000 33.2761 0.0000
# 6 0.0000 0.0000 0.0000 0.0000 0.0000 22.9353
#
#
#
# Elastic Compliance Matrix: (Units=1/GPa)
#
#
# Indices 1 2 3 4 5 6 
#
# 1 0.012272 -0.003522 -0.005909 0.000000 0.000000 0.000000
# 2 -0.003522 0.019706 -0.005450 0.000000 0.000000 0.000000
# 3 -0.005909 -0.005450 0.017998 0.000000 0.000000 0.000000
# 4 0.000000 0.000000 0.000000 0.043196 0.000000 0.000000
# 5 0.000000 0.000000 0.000000 0.000000 0.030052 0.000000
# 6 0.000000 0.000000 0.000000 0.000000 0.000000 0.043601
#
#
# Mechanical properties :
#
#
# Convention : Reuss Voigt Hill
#
# Bulk Modulus (GPa) = 49.47331 53.73783 51.60557
# Shear Modulus (GPa) = 24.59126 25.73094 25.16110
#
# Velocity S-wave (km/s) = 3.69424 3.77887 3.73679
# Velocity P-wave (km/s) = 6.75667 6.99018 6.87442
#
# Compressibility (1/GPa) = 0.02021292
#
# Stress axis : x y z
#
# Youngs Moduli (GPa) = 81.48738 50.74626 55.56249
#
# Poissons Ratio (x) = 0.17872 0.32834
# Poissons Ratio (y) = 0.28698 0.30282
# Poissons Ratio (z) = 0.48154 0.27657
#
# Static dielectric constant tensor:
#      x y z
#    x 3.454390 0.000000 0.000000 
#    y 0.000000 3.082160 0.000000 
#    z 0.000000 0.000000 3.426590 
# 
# 
# High freq. dielectric constant tensor:
#      x y z
#    x 1.701970 0.000000 0.000000 
#    y 0.000000 1.661430 0.000000 
#    z 0.000000 0.000000 1.711600 
# 
# From -- ./inp_files/9220.got.cif
#   From: 2010.06.25/outbox.cif.g09.slc.cpg/sg58_5_cif.got.tgz:9220.got - 2010.06.26 21:38:00.
