data_PCOD8235386
_publ_section_title
;
Structure prediction by ZEFSAII (Michael W. Deem and Ramdas Pophale) SiO2 
 PCOD8235386
Probable space group: P N N M
;
_chemical_formula_sum "Si O2"
_cell_formula_units_Z 56
_cell_length_a 18.962123
_cell_length_b 18.319568
_cell_length_c 9.005205
_cell_angle_alpha 90.000000
_cell_angle_beta 90.000000
_cell_angle_gamma 90.000000
_cell_volume 3128.209217
_symmetry_space_group_name_H-M "P N N M"
_symmetry_group_IT_number 58
_symmetry_cell_setting 'orthorhombic'
loop_
_space_group_symop_operation_xyz
x,y,z
-x,-y,z
1/2+x,1/2-y,1/2-z
1/2-x,1/2+y,1/2-z
-x,-y,-z
x,y,-z
1/2-x,1/2+y,1/2+z
1/2+x,1/2-y,1/2+z
loop_
_atom_site_type_symbol
_atom_site_label
_atom_site_fract_x
_atom_site_fract_y
_atom_site_fract_z
Si Si1 0.212364 0.505823 0.825517
Si Si2 0.924448 0.527289 0.326355
Si Si3 0.347564 0.546699 0.323670
Si Si4 0.894640 0.694870 0.668561
Si Si5 0.399329 0.389701 0.328682
Si Si6 0.044363 0.169410 0.824270
Si Si7 0.748983 0.139380 0.169873
O O1 0.134618 0.520493 0.758839
O O2 0.271126 0.558596 0.751833
O O3 0.232959 0.423214 0.787568
O O4 0.211064 0.519295 0.000000
O O5 0.914757 0.512475 0.500000
O O6 0.917203 0.612920 0.289189
O O7 0.000000 0.500000 0.269087
O O8 0.337706 0.546245 0.500000
O O9 0.382174 0.470579 0.266590
O O10 0.397509 0.611905 0.268543
O O11 0.915067 0.713123 0.500000
O O12 0.936242 0.749938 0.772245
O O13 0.809161 0.703050 0.692563
O O14 0.417945 0.399286 0.500000
O O15 0.468462 0.353871 0.253801
O O16 0.330647 0.336587 0.305502
O O17 0.040992 0.171091 0.000000
O O18 0.740871 0.108329 0.000000
#
# Coordination Sequence:
#
# PCOD8235386 Si02
#       7
#     8   8   8   8   8   8   8
#     4  10  18  28  47  75 100 119 150 200 247 281
#     4   9  18  35  57  74  92 126 168 203 240 294
#     4   9  17  31  49  68  95 132 169 198 232 290
#     4   9  18  32  49  70  96 126 157 193 243 297
#     4   8  14  28  51  73  89 116 166 212 235 267
#     4  10  19  30  48  73  99 128 161 202 247 289
#     4   8  15  31  52  67  86 123 164 195 231 290
#
# _framework density 17.901616000000001
#
# number of rings (size 3 to 8) (size 9 to 14) (size 15 to 20)
#    0.000    3.000    0.000    3.429    0.000    4.857 
#    0.000    4.286    0.000    7.714    0.000    0.000 
#    0.000    0.000    0.000    0.000    0.000    0.000 
#
# Total GULP energy -693904.126753 kJ/mol
# GULP energy per Si atom -12391.145121 kJ/mol
# Density = 1.786087 g / cm^3
# Si number density = 17.901616 Si / 1000 Ang^3
#
#
#
# Elastic Constant Matrix: (Units=GPa)
#
#
# Indices 1 2 3 4 5 6 
#
# 1 183.0807 53.3927 45.3692 0.0000 0.0000 0.0000
# 2 53.3927 54.4847 16.7758 0.0000 0.0000 0.0000
# 3 45.3692 16.7758 45.1526 0.0000 0.0000 0.0000
# 4 0.0000 0.0000 0.0000 22.4062 0.0000 0.0000
# 5 0.0000 0.0000 0.0000 0.0000 18.8024 0.0000
# 6 0.0000 0.0000 0.0000 0.0000 0.0000 22.1033
#
#
#
# Elastic Compliance Matrix: (Units=1/GPa)
#
#
# Indices 1 2 3 4 5 6 
#
# 1 0.009105 -0.006894 -0.006587 0.000000 0.000000 0.000000
# 2 -0.006894 0.025945 -0.002712 0.000000 0.000000 0.000000
# 3 -0.006587 -0.002712 0.029774 0.000000 0.000000 0.000000
# 4 0.000000 0.000000 0.000000 0.044631 0.000000 0.000000
# 5 0.000000 0.000000 0.000000 0.000000 0.053185 0.000000
# 6 0.000000 0.000000 0.000000 0.000000 0.000000 0.045242
#
#
# Mechanical properties :
#
#
# Convention : Reuss Voigt Hill
#
# Bulk Modulus (GPa) = 30.82961 57.08815 43.95888
# Shear Modulus (GPa) = 19.91392 23.80773 21.86082
#
# Velocity S-wave (km/s) = 3.33890 3.65076 3.49831
# Velocity P-wave (km/s) = 5.66775 7.05195 6.39740
#
# Compressibility (1/GPa) = 0.03243635
#
# Stress axis : x y z
#
# Youngs Moduli (GPa) = 109.82838 38.54299 33.58687
#
# Poissons Ratio (x) = 0.26573 0.22125
# Poissons Ratio (y) = 0.75720 0.09109
# Poissons Ratio (z) = 0.72347 0.10453
#
# Static dielectric constant tensor:
#      x y z
#    x 3.869740 0.000000 0.000000 
#    y 0.000000 2.963310 0.000000 
#    z 0.000000 0.000000 2.985980 
# 
# 
# High freq. dielectric constant tensor:
#      x y z
#    x 1.715720 0.000000 0.000000 
#    y 0.000000 1.648870 0.000000 
#    z 0.000000 0.000000 1.665370 
# 
# From -- ./inp_files/8107.got.cif
#   From: 2010.06.25/outbox.cif.g09.slc.cpg/sg58_5_cif.got.tgz:8107.got - 2010.06.26 21:38:00.
