data_PCOD8235724
_publ_section_title
;
Structure prediction by ZEFSAII (Michael W. Deem and Ramdas Pophale) SiO2 
 PCOD8235724
Probable space group: P N N M
;
_chemical_formula_sum "Si O2"
_cell_formula_units_Z 48
_cell_length_a 18.660378
_cell_length_b 9.480325
_cell_length_c 13.423184
_cell_angle_alpha 90.000000
_cell_angle_beta 90.000000
_cell_angle_gamma 90.000000
_cell_volume 2374.647803
_symmetry_space_group_name_H-M "P N N M"
_symmetry_group_IT_number 58
_symmetry_cell_setting 'orthorhombic'
loop_
_space_group_symop_operation_xyz
x,y,z
-x,-y,z
1/2+x,1/2-y,1/2-z
1/2-x,1/2+y,1/2-z
-x,-y,-z
x,y,-z
1/2-x,1/2+y,1/2+z
1/2+x,1/2-y,1/2+z
loop_
_atom_site_type_symbol
_atom_site_label
_atom_site_fract_x
_atom_site_fract_y
_atom_site_fract_z
Si Si1 0.837379 0.180730 0.608118
Si Si2 0.355827 0.129155 0.279914
Si Si3 0.391705 0.816425 0.230824
Si Si4 0.000415 0.847486 0.390953
Si Si5 0.002318 0.667654 0.888684
Si Si6 0.713915 0.369847 0.885852
O O1 0.801882 0.218553 0.500000
O O2 0.811639 0.278893 0.698310
O O3 0.920968 0.214373 0.601909
O O4 0.824467 0.018207 0.632841
O O5 0.426733 0.208086 0.323779
O O6 0.298865 0.109741 0.368991
O O7 0.375545 0.981749 0.228489
O O8 0.453725 0.777143 0.154223
O O9 0.427877 0.776567 0.338451
O O10 0.320091 0.734324 0.197299
O O11 0.966713 0.876661 0.500000
O O12 0.000000 0.000000 0.333500
O O13 0.000000 0.500000 0.895011
O O14 0.007408 0.732654 0.000000
O O15 0.702573 0.317284 0.000000
#
# Coordination Sequence:
#
# PCOD8235724 Si02
#       6
#     8   8   8   8   8   8
#     4  10  21  36  57  85 117 154 194 239 298 360
#     4  11  22  38  58  89 123 153 198 256 303 351
#     4  11  21  36  62  92 115 151 207 253 293 346
#     4  10  18  33  58  86 117 153 193 238 291 355
#     4   9  19  36  58  84 115 153 196 241 291 349
#     4  11  23  40  61  84 118 165 202 238 302 377
#
# _framework density 20.213522999999999
#
# number of rings (size 3 to 8) (size 9 to 14) (size 15 to 20)
#    0.000    1.667    3.333    2.000    0.000    2.000 
#    0.000    2.500    0.000    5.500    0.000    0.000 
#    0.000    0.000    0.000    0.000    0.000    0.000 
#
# Total GULP energy -594687.142253 kJ/mol
# GULP energy per Si atom -12389.315464 kJ/mol
# Density = 2.016752 g / cm^3
# Si number density = 20.213523 Si / 1000 Ang^3
#
#
#
# Elastic Constant Matrix: (Units=GPa)
#
#
# Indices 1 2 3 4 5 6 
#
# 1 82.0611 20.1256 26.8502 0.0000 0.0000 0.0000
# 2 20.1256 68.5275 50.7802 0.0000 0.0000 0.0000
# 3 26.8502 50.7802 122.8193 0.0000 0.0000 0.0000
# 4 0.0000 0.0000 0.0000 19.0217 0.0000 0.0000
# 5 0.0000 0.0000 0.0000 0.0000 21.7349 0.0000
# 6 0.0000 0.0000 0.0000 0.0000 0.0000 16.2296
#
#
#
# Elastic Compliance Matrix: (Units=1/GPa)
#
#
# Indices 1 2 3 4 5 6 
#
# 1 0.013427 -0.002549 -0.001881 0.000000 0.000000 0.000000
# 2 -0.002549 0.021522 -0.008341 0.000000 0.000000 0.000000
# 3 -0.001881 -0.008341 0.012002 0.000000 0.000000 0.000000
# 4 0.000000 0.000000 0.000000 0.052572 0.000000 0.000000
# 5 0.000000 0.000000 0.000000 0.000000 0.046009 0.000000
# 6 0.000000 0.000000 0.000000 0.000000 0.000000 0.061616
#
#
# Mechanical properties :
#
#
# Convention : Reuss Voigt Hill
#
# Bulk Modulus (GPa) = 46.71210 52.10223 49.40716
# Shear Modulus (GPa) = 20.84839 23.10738 21.97789
#
# Velocity S-wave (km/s) = 3.21504 3.38474 3.30098
# Velocity P-wave (km/s) = 6.07795 6.41149 6.24694
#
# Compressibility (1/GPa) = 0.02140773
#
# Stress axis : x y z
#
# Youngs Moduli (GPa) = 74.47792 46.46332 83.31900
#
# Poissons Ratio (x) = 0.11844 0.15675
# Poissons Ratio (y) = 0.18986 0.69498
# Poissons Ratio (z) = 0.14012 0.38756
#
# Static dielectric constant tensor:
#      x y z
#    x 3.822460 0.000000 0.000000 
#    y 0.000000 3.407510 0.000000 
#    z 0.000000 0.000000 4.020640 
# 
# 
# High freq. dielectric constant tensor:
#      x y z
#    x 1.794000 0.000000 0.000000 
#    y 0.000000 1.758770 0.000000 
#    z 0.000000 0.000000 1.790100 
# 
# From -- ./inp_files/22753.got.cif
#   From: 2010.06.25/outbox.cif.g09.slc.cpg/sg58_12_cif.got.tgz:22753.got - 2010.06.26 21:38:00.
