data_PCOD8235448
_publ_section_title
;
Structure prediction by ZEFSAII (Michael W. Deem and Ramdas Pophale) SiO2 
 PCOD8235448
Probable space group: P N N M
;
_chemical_formula_sum "Si O2"
_cell_formula_units_Z 48
_cell_length_a 9.653929
_cell_length_b 16.536665
_cell_length_c 13.830261
_cell_angle_alpha 90.000000
_cell_angle_beta 90.000000
_cell_angle_gamma 90.000000
_cell_volume 2207.915280
_symmetry_space_group_name_H-M "P N N M"
_symmetry_group_IT_number 58
_symmetry_cell_setting 'orthorhombic'
loop_
_space_group_symop_operation_xyz
x,y,z
-x,-y,z
1/2+x,1/2-y,1/2-z
1/2-x,1/2+y,1/2-z
-x,-y,-z
x,y,-z
1/2-x,1/2+y,1/2+z
1/2+x,1/2-y,1/2+z
loop_
_atom_site_type_symbol
_atom_site_label
_atom_site_fract_x
_atom_site_fract_y
_atom_site_fract_z
Si Si1 0.269208 0.382423 0.887621
Si Si2 0.466897 0.158446 0.385277
Si Si3 0.218955 0.804130 0.887553
Si Si4 0.162001 0.981935 0.889614
Si Si5 0.753507 0.946749 0.294613
Si Si6 0.944193 0.816907 0.387825
O O1 0.127195 0.339484 0.854005
O O2 0.295846 0.466869 0.836517
O O3 0.392062 0.318302 0.863949
O O4 0.262005 0.402260 0.000000
O O5 0.445849 0.147448 0.500000
O O6 0.395645 0.240912 0.347473
O O7 0.396188 0.081848 0.332286
O O8 0.195487 0.892943 0.843561
O O9 0.374223 0.770472 0.865134
O O10 0.191083 0.814173 0.000000
O O11 0.244836 0.045617 0.822587
O O12 0.215383 0.991070 0.000000
O O13 0.000000 0.000000 0.883654
O O14 0.871689 0.884774 0.324576
O O15 0.916532 0.838178 0.500000
#
# Coordination Sequence:
#
# PCOD8235448 Si02
#       6
#     8   8   8   8   8   8
#     4  10  18  29  51  86 121 147 175 219 284 358
#     4   9  18  33  56  85 116 147 178 224 288 352
#     4   8  16  34  56  78 108 147 191 237 284 334
#     4  10  21  37  58  81 108 151 206 252 287 333
#     4  11  19  31  52  80 113 148 190 236 285 339
#     4   9  17  30  54  87 118 146 177 223 286 351
#
# _framework density 21.739964000000001
#
# number of rings (size 3 to 8) (size 9 to 14) (size 15 to 20)
#    0.000    2.500    0.000    4.500    0.000    2.667 
#    0.000    5.000    0.000    6.000    0.000   16.333 
#    0.000    0.000    0.000    0.000    0.000    0.000 
#
# Total GULP energy -595050.975661 kJ/mol
# GULP energy per Si atom -12396.895326 kJ/mol
# Density = 2.169048 g / cm^3
# Si number density = 21.739964 Si / 1000 Ang^3
#
#
#
# Elastic Constant Matrix: (Units=GPa)
#
#
# Indices 1 2 3 4 5 6 
#
# 1 161.7477 55.8323 37.4162 0.0000 0.0000 0.0000
# 2 55.8323 102.5048 51.8369 0.0000 0.0000 0.0000
# 3 37.4162 51.8369 72.7609 0.0000 0.0000 0.0000
# 4 0.0000 0.0000 0.0000 29.0915 0.0000 0.0000
# 5 0.0000 0.0000 0.0000 0.0000 0.3892 0.0000
# 6 0.0000 0.0000 0.0000 0.0000 0.0000 24.9676
#
#
#
# Elastic Compliance Matrix: (Units=1/GPa)
#
#
# Indices 1 2 3 4 5 6 
#
# 1 0.007720 -0.003435 -0.001523 0.000000 0.000000 0.000000
# 2 -0.003435 0.016778 -0.010187 0.000000 0.000000 0.000000
# 3 -0.001523 -0.010187 0.021784 0.000000 0.000000 0.000000
# 4 0.000000 0.000000 0.000000 0.034374 0.000000 0.000000
# 5 0.000000 0.000000 0.000000 0.000000 2.569509 0.000000
# 6 0.000000 0.000000 0.000000 0.000000 0.000000 0.040052
#
#
# Mechanical properties :
#
#
# Convention : Reuss Voigt Hill
#
# Bulk Modulus (GPa) = 62.52643 69.68712 66.10678
# Shear Modulus (GPa) = 1.83430 23.68487 12.75958
#
# Velocity S-wave (km/s) = 0.91955 3.30428 2.42527
# Velocity P-wave (km/s) = 5.47274 6.83243 6.19003
#
# Compressibility (1/GPa) = 0.01599324
#
# Stress axis : x y z
#
# Youngs Moduli (GPa) = 129.52591 59.60145 45.90503
#
# Poissons Ratio (x) = 0.20473 0.06991
# Poissons Ratio (y) = 0.44493 0.46762
# Poissons Ratio (z) = 0.19726 0.60715
#
# Static dielectric constant tensor:
#      x y z
#    x 4.049450 0.000000 0.000000 
#    y 0.000000 3.949310 0.000000 
#    z 0.000000 0.000000 3.923530 
# 
# 
# High freq. dielectric constant tensor:
#      x y z
#    x 1.847950 0.000000 0.000000 
#    y 0.000000 1.839800 0.000000 
#    z 0.000000 0.000000 1.854750 
# 
# From -- ./inp_files/19808.got.cif
#   From: 2010.06.25/outbox.cif.g09.slc.cpg/sg58_10_cif.got.tgz:19808.got - 2010.06.26 21:38:00.
