data_PCOD8235088
_publ_section_title
;
Structure prediction by ZEFSAII (Michael W. Deem and Ramdas Pophale) SiO2 
 PCOD8235088
Probable space group: P B C M
;
_chemical_formula_sum "Si O2"
_cell_formula_units_Z 32
_cell_length_a 11.862181
_cell_length_b 15.395437
_cell_length_c 8.587139
_cell_angle_alpha 90.000000
_cell_angle_beta 90.000000
_cell_angle_gamma 90.000000
_cell_volume 1568.213038
_symmetry_space_group_name_H-M "P B C M"
_symmetry_group_IT_number 57
_symmetry_cell_setting 'orthorhombic'
loop_
_space_group_symop_operation_xyz
x,y,z
-x,-y,1/2+z
x,1/2-y,-z
-x,1/2+y,1/2-z
-x,-y,-z
x,y,1/2-z
-x,1/2+y,z
x,1/2-y,1/2+z
loop_
_atom_site_type_symbol
_atom_site_label
_atom_site_fract_x
_atom_site_fract_y
_atom_site_fract_z
Si Si1 0.501804 0.096005 0.933529
Si Si2 0.727534 0.839106 0.932767
Si Si3 0.123785 0.994967 0.067418
Si Si4 0.268738 0.839970 0.933764
O O1 0.515637 0.090385 0.750000
O O2 0.388886 0.145748 0.978061
O O3 0.605847 0.148646 0.002131
O O4 0.500000 0.000000 0.000000
O O5 0.703868 0.832408 0.750000
O O6 0.814753 0.915050 0.971882
O O7 0.780200 0.750000 0.000000
O O8 0.120706 0.976610 0.250000
O O9 0.189074 0.917800 0.984741
O O10 0.000000 0.000000 0.000000
O O11 0.272547 0.835973 0.750000
O O12 0.218703 0.750000 0.000000
#
# Coordination Sequence:
#
# PCOD8235088 Si02
#       4
#     8   8   8   8
#     4  12  23  39  65  97 133 171 212 260 322 389
#     4  11  24  42  66  96 131 170 214 264 320 384
#     4  11  25  45  68  94 129 171 221 271 324 383
#     4  12  25  43  68  97 132 172 216 267 325 387
#
# _framework density 20.405390000000001
#
# number of rings (size 3 to 8) (size 9 to 14) (size 15 to 20)
#    0.000    0.500    2.500    6.750    0.000    4.000 
#    0.000    2.500    0.000    0.000    0.000    0.000 
#    0.000    0.000    0.000    0.000    0.000    0.000 
#
# Total GULP energy -397041.434708 kJ/mol
# GULP energy per Si atom -12407.544835 kJ/mol
# Density = 2.035895 g / cm^3
# Si number density = 20.405390 Si / 1000 Ang^3
#
#
#
# Elastic Constant Matrix: (Units=GPa)
#
#
# Indices 1 2 3 4 5 6 
#
# 1 132.5743 52.1246 70.0784 0.0000 0.0000 0.0000
# 2 52.1246 165.2497 86.6420 0.0000 0.0000 0.0000
# 3 70.0784 86.6420 186.0593 0.0000 0.0000 0.0000
# 4 0.0000 0.0000 0.0000 41.2085 0.0000 0.0000
# 5 0.0000 0.0000 0.0000 0.0000 32.0457 0.0000
# 6 0.0000 0.0000 0.0000 0.0000 0.0000 0.7902
#
#
#
# Elastic Compliance Matrix: (Units=1/GPa)
#
#
# Indices 1 2 3 4 5 6 
#
# 1 0.009696 -0.001513 -0.002947 0.000000 0.000000 0.000000
# 2 -0.001513 0.008242 -0.003268 0.000000 0.000000 0.000000
# 3 -0.002947 -0.003268 0.008007 0.000000 0.000000 0.000000
# 4 0.000000 0.000000 0.000000 0.024267 0.000000 0.000000
# 5 0.000000 0.000000 0.000000 0.000000 0.031205 0.000000
# 6 0.000000 0.000000 0.000000 0.000000 0.000000 1.265463
#
#
# Mechanical properties :
#
#
# Convention : Reuss Voigt Hill
#
# Bulk Modulus (GPa) = 95.35193 100.17480 97.76336
# Shear Modulus (GPa) = 3.66077 33.14478 18.40278
#
# Velocity S-wave (km/s) = 1.34086 4.03465 3.00635
# Velocity P-wave (km/s) = 7.01623 8.42042 7.75019
#
# Compressibility (1/GPa) = 0.01048746
#
# Stress axis : x y z
#
# Youngs Moduli (GPa) = 103.13799 121.32521 124.89599
#
# Poissons Ratio (x) = 0.18357 0.36810
# Poissons Ratio (y) = 0.15605 0.40820
# Poissons Ratio (z) = 0.30398 0.39653
#
# Static dielectric constant tensor:
#      x y z
#    x 3.742390 0.000000 0.000000 
#    y 0.000000 4.069670 0.000000 
#    z 0.000000 0.000000 3.912710 
# 
# 
# High freq. dielectric constant tensor:
#      x y z
#    x 1.794670 0.000000 0.000000 
#    y 0.000000 1.821360 0.000000 
#    z 0.000000 0.000000 1.819870 
# 
# From -- ./inp_files/2368.got.cif
#   From: 2010.03.12/outbox.cif.g09.slc.cpg/sg57_2_cif.got.tgz:2368.got - 2010.04.16 15:48:40.
