data_PCOD8235594
_publ_section_title
;
Structure prediction by ZEFSAII (Michael W. Deem and Ramdas Pophale) SiO2 
 PCOD8235594
Probable space group: P N N M
;
_chemical_formula_sum "Si O2"
_cell_formula_units_Z 64
_cell_length_a 21.348270
_cell_length_b 16.825525
_cell_length_c 9.263734
_cell_angle_alpha 90.000000
_cell_angle_beta 90.000000
_cell_angle_gamma 90.000000
_cell_volume 3327.494814
_symmetry_space_group_name_H-M "P N N M"
_symmetry_group_IT_number 58
_symmetry_cell_setting 'orthorhombic'
loop_
_space_group_symop_operation_xyz
x,y,z
-x,-y,z
1/2+x,1/2-y,1/2-z
1/2-x,1/2+y,1/2-z
-x,-y,-z
x,y,-z
1/2-x,1/2+y,1/2+z
1/2+x,1/2-y,1/2+z
loop_
_atom_site_type_symbol
_atom_site_label
_atom_site_fract_x
_atom_site_fract_y
_atom_site_fract_z
Si Si1 0.317412 0.578513 0.669897
Si Si2 0.601298 0.564146 0.339483
Si Si3 0.820879 0.463935 0.333146
Si Si4 0.976944 0.181538 0.669242
Si Si5 0.101078 0.224267 0.833425
Si Si6 0.328279 0.882633 0.331737
Si Si7 0.785941 0.185222 0.839823
Si Si8 0.135137 0.704647 0.335658
O O1 0.313812 0.565864 0.500000
O O2 0.369284 0.516103 0.730098
O O3 0.247725 0.560973 0.729784
O O4 0.340044 0.667665 0.708909
O O5 0.573569 0.548086 0.500000
O O6 0.546461 0.598442 0.238003
O O7 0.655249 0.628432 0.350974
O O8 0.815731 0.490824 0.500000
O O9 0.850828 0.534944 0.239662
O O10 0.868889 0.390295 0.316435
O O11 0.983336 0.168123 0.500000
O O12 0.930396 0.254557 0.707028
O O13 0.043499 0.204008 0.732685
O O14 0.119752 0.315287 0.805187
O O15 0.082233 0.210350 0.000000
O O16 0.315483 0.895328 0.500000
O O17 0.264435 0.858846 0.256030
O O18 0.807594 0.266121 0.763277
O O19 0.759649 0.204305 0.000000
O O20 0.152950 0.726687 0.500000
#
# Coordination Sequence:
#
# PCOD8235594 Si02
#       8
#     8   8   8   8   8   8   8   8
#     4   9  17  33  57  82 107 138 183 222 260 325
#     4   9  17  32  55  81 107 141 180 218 260 322
#     4  10  19  36  59  83 110 141 180 226 277 337
#     4  10  21  37  55  79 110 144 185 230 275 320
#     4  10  22  39  57  76 104 149 191 226 268 323
#     4  11  22  35  53  80 113 144 181 228 282 332
#     4  10  18  31  54  82 111 143 180 218 270 332
#     4   9  19  35  57  81 108 144 184 229 278 327
#
# _framework density 19.233688999999998
#
# number of rings (size 3 to 8) (size 9 to 14) (size 15 to 20)
#    0.000    2.250    1.250    1.875    0.000    5.000 
#    0.000    4.375    0.000    3.750    0.000    0.000 
#    0.000    0.000    0.000    0.000    0.000    0.000 
#
# Total GULP energy -793512.224346 kJ/mol
# GULP energy per Si atom -12398.628505 kJ/mol
# Density = 1.918991 g / cm^3
# Si number density = 19.233689 Si / 1000 Ang^3
#
#
#
# Elastic Constant Matrix: (Units=GPa)
#
#
# Indices 1 2 3 4 5 6 
#
# 1 40.8095 11.4789 14.9354 0.0000 0.0000 0.0000
# 2 11.4789 95.2658 26.8929 0.0000 0.0000 0.0000
# 3 14.9354 26.8929 70.8770 0.0000 0.0000 0.0000
# 4 0.0000 0.0000 0.0000 30.3236 0.0000 0.0000
# 5 0.0000 0.0000 0.0000 0.0000 20.6241 0.0000
# 6 0.0000 0.0000 0.0000 0.0000 0.0000 18.2406
#
#
#
# Elastic Compliance Matrix: (Units=1/GPa)
#
#
# Indices 1 2 3 4 5 6 
#
# 1 0.026835 -0.001834 -0.004959 0.000000 0.000000 0.000000
# 2 -0.001834 0.011881 -0.004122 0.000000 0.000000 0.000000
# 3 -0.004959 -0.004122 0.016718 0.000000 0.000000 0.000000
# 4 0.000000 0.000000 0.000000 0.032978 0.000000 0.000000
# 5 0.000000 0.000000 0.000000 0.000000 0.048487 0.000000
# 6 0.000000 0.000000 0.000000 0.000000 0.000000 0.054823
#
#
# Mechanical properties :
#
#
# Convention : Reuss Voigt Hill
#
# Bulk Modulus (GPa) = 29.75716 34.84075 32.29896
# Shear Modulus (GPa) = 22.24678 24.08067 23.16372
#
# Velocity S-wave (km/s) = 3.40466 3.54221 3.47411
# Velocity P-wave (km/s) = 5.56422 5.90622 5.73777
#
# Compressibility (1/GPa) = 0.03360536
#
# Stress axis : x y z
#
# Youngs Moduli (GPa) = 37.26514 84.16486 59.81622
#
# Poissons Ratio (x) = 0.15432 0.29663
# Poissons Ratio (y) = 0.06833 0.24655
# Poissons Ratio (z) = 0.18480 0.34691
#
# Static dielectric constant tensor:
#      x y z
#    x 3.266300 0.000000 0.000000 
#    y 0.000000 3.713140 0.000000 
#    z 0.000000 0.000000 3.612980 
# 
# 
# High freq. dielectric constant tensor:
#      x y z
#    x 1.726310 0.000000 0.000000 
#    y 0.000000 1.755500 0.000000 
#    z 0.000000 0.000000 1.736620 
# 
# From -- ./inp_files/10009.got.cif
#   From: 2010.06.25/outbox.cif.g09.slc.cpg/sg58_6_cif.got.tgz:10009.got - 2010.06.26 21:38:00.
