data_PCOD8235147
_publ_section_title
;
Structure prediction by ZEFSAII (Michael W. Deem and Ramdas Pophale) SiO2 
 PCOD8235147
Probable space group: P B C M
;
_chemical_formula_sum "Si O2"
_cell_formula_units_Z 40
_cell_length_a 13.406452
_cell_length_b 9.581859
_cell_length_c 14.580810
_cell_angle_alpha 90.000000
_cell_angle_beta 90.000000
_cell_angle_gamma 90.000000
_cell_volume 1873.032375
_symmetry_space_group_name_H-M "P B C M"
_symmetry_group_IT_number 57
_symmetry_cell_setting 'orthorhombic'
loop_
_space_group_symop_operation_xyz
x,y,z
-x,-y,1/2+z
x,1/2-y,-z
-x,1/2+y,1/2-z
-x,-y,-z
x,y,1/2-z
-x,1/2+y,z
x,1/2-y,1/2+z
loop_
_atom_site_type_symbol
_atom_site_label
_atom_site_fract_x
_atom_site_fract_y
_atom_site_fract_z
Si Si1 0.695969 0.858392 0.569339
Si Si2 0.104366 0.268532 0.649934
Si Si3 0.936663 0.037682 0.087192
Si Si4 0.584943 0.779530 0.750000
Si Si5 0.383402 0.554267 0.250000
Si Si6 0.717046 0.114040 0.053281
O O1 0.646457 0.750000 0.500000
O O2 0.814583 0.826240 0.578422
O O3 0.639438 0.848108 0.664141
O O4 0.678396 0.003262 0.520011
O O5 0.151324 0.291968 0.750000
O O6 0.000606 0.351637 0.645192
O O7 0.086179 0.103672 0.641367
O O8 0.836027 0.116040 0.059939
O O9 0.000000 0.000000 0.000000
O O10 0.587210 0.610218 0.750000
O O11 0.473765 0.837606 0.750000
O O12 0.322995 0.588936 0.343303
O O13 0.678620 0.250000 0.000000
#
# Coordination Sequence:
#
# PCOD8235147 Si02
#       6
#     8   8   8   4   4   8
#     4  12  23  47  76 101 141 191 238 294 361 427
#     4  12  24  40  66 102 139 190 240 289 357 428
#     4  12  23  42  65 100 144 187 239 288 347 430
#     4  12  28  50  77 110 140 185 242 299 365 435
#     4  12  30  52  77 108 148 183 242 307 365 441
#     4  12  28  48  74 108 149 192 238 301 364 424
#
# _framework density 21.355744000000001
#
# number of rings (size 3 to 8) (size 9 to 14) (size 15 to 20)
#    0.000    0.000    7.000    2.400    5.600    1.600 
#    0.000    0.000    0.000    0.000    0.000    0.000 
#    0.000    0.000    0.000    0.000    0.000    0.000 
#
# Total GULP energy -495832.038637 kJ/mol
# GULP energy per Si atom -12395.800966 kJ/mol
# Density = 2.130714 g / cm^3
# Si number density = 21.355744 Si / 1000 Ang^3
#
#
#
# Elastic Constant Matrix: (Units=GPa)
#
#
# Indices 1 2 3 4 5 6 
#
# 1 99.9898 31.1724 47.8536 0.0000 0.0000 0.0000
# 2 31.1724 156.9343 62.7812 0.0000 0.0000 0.0000
# 3 47.8536 62.7812 179.9336 0.0000 0.0000 0.0000
# 4 0.0000 0.0000 0.0000 41.3199 0.0000 0.0000
# 5 0.0000 0.0000 0.0000 0.0000 47.7045 0.0000
# 6 0.0000 0.0000 0.0000 0.0000 0.0000 44.8999
#
#
#
# Elastic Compliance Matrix: (Units=1/GPa)
#
#
# Indices 1 2 3 4 5 6 
#
# 1 0.011667 -0.001251 -0.002666 0.000000 0.000000 0.000000
# 2 -0.001251 0.007540 -0.002298 0.000000 0.000000 0.000000
# 3 -0.002666 -0.002298 0.007069 0.000000 0.000000 0.000000
# 4 0.000000 0.000000 0.000000 0.024201 0.000000 0.000000
# 5 0.000000 0.000000 0.000000 0.000000 0.020962 0.000000
# 6 0.000000 0.000000 0.000000 0.000000 0.000000 0.022272
#
#
# Mechanical properties :
#
#
# Convention : Reuss Voigt Hill
#
# Bulk Modulus (GPa) = 72.22895 80.05249 76.14072
# Shear Modulus (GPa) = 45.14394 46.45488 45.79941
#
# Velocity S-wave (km/s) = 4.60271 4.66906 4.63600
# Velocity P-wave (km/s) = 7.88300 8.16293 8.02419
#
# Compressibility (1/GPa) = 0.01384486
#
# Stress axis : x y z
#
# Youngs Moduli (GPa) = 85.71122 132.62780 141.47063
#
# Poissons Ratio (x) = 0.16589 0.37723
# Poissons Ratio (y) = 0.10720 0.32512
# Poissons Ratio (z) = 0.22855 0.30480
#
# Static dielectric constant tensor:
#      x y z
#    x 3.889780 0.000000 0.000000 
#    y 0.000000 3.501070 0.000000 
#    z 0.000000 0.000000 4.021900 
# 
# 
# High freq. dielectric constant tensor:
#      x y z
#    x 1.830850 0.000000 0.000000 
#    y 0.000000 1.849070 0.000000 
#    z 0.000000 0.000000 1.862110 
# 
# From -- ./inp_files/18255.got.cif
#   From: 2010.03.12/outbox.cif.g09.slc.cpg/sg57_10_cif.got.tgz:18255.got - 2010.04.16 15:48:40.
