data_PCOD8235931
_publ_section_title
;
Structure prediction by ZEFSAII (Michael W. Deem and Ramdas Pophale) SiO2 
 PCOD8235931
Probable space group: P N N M
;
_chemical_formula_sum "Si O2"
_cell_formula_units_Z 64
_cell_length_a 14.224132
_cell_length_b 30.140052
_cell_length_c 9.075713
_cell_angle_alpha 90.000000
_cell_angle_beta 90.000000
_cell_angle_gamma 90.000000
_cell_volume 3890.904084
_symmetry_space_group_name_H-M "P N N M"
_symmetry_group_IT_number 58
_symmetry_cell_setting 'orthorhombic'
loop_
_space_group_symop_operation_xyz
x,y,z
-x,-y,z
1/2+x,1/2-y,1/2-z
1/2-x,1/2+y,1/2-z
-x,-y,-z
x,y,-z
1/2-x,1/2+y,1/2+z
1/2+x,1/2-y,1/2+z
loop_
_atom_site_type_symbol
_atom_site_label
_atom_site_fract_x
_atom_site_fract_y
_atom_site_fract_z
Si Si1 0.302306 0.363701 0.673543
Si Si2 0.604103 0.547978 0.326305
Si Si3 0.267351 0.212913 0.826390
Si Si4 0.834888 0.866878 0.331348
Si Si5 0.469191 0.323497 0.164525
Si Si6 0.337896 0.802573 0.326067
Si Si7 0.108381 0.050425 0.174205
Si Si8 0.017052 0.723040 0.331838
O O1 0.284869 0.361522 0.500000
O O2 0.324696 0.413843 0.730047
O O3 0.391231 0.333175 0.713580
O O4 0.210797 0.345800 0.756264
O O5 0.595294 0.551000 0.500000
O O6 0.642598 0.499309 0.282142
O O7 0.498552 0.555882 0.266164
O O8 0.226606 0.169903 0.748442
O O9 0.215692 0.257886 0.772644
O O10 0.376279 0.215197 0.780982
O O11 0.253715 0.207593 0.000000
O O12 0.802172 0.869477 0.500000
O O13 0.822386 0.914838 0.254661
O O14 0.944572 0.856363 0.315529
O O15 0.508760 0.274421 0.187737
O O16 0.424372 0.327535 0.000000
O O17 0.335226 0.807032 0.500000
O O18 0.445489 0.803643 0.271640
O O19 0.115051 0.058495 0.000000
O O20 0.002575 0.707551 0.500000
#
# Coordination Sequence:
#
# PCOD8235931 Si02
#       8
#     8   8   8   8   8   8   8   8
#     4  11  20  31  50  74  98 133 174 203 241 293
#     4   8  16  29  48  72  97 129 167 205 238 287
#     4  10  21  35  51  69  96 133 172 204 240 290
#     4  11  21  31  47  73 103 132 166 204 249 294
#     4  10  19  31  46  69 103 134 163 207 247 281
#     4  11  22  35  50  73 101 131 166 205 249 294
#     4   9  16  31  50  69  98 131 166 203 242 288
#     4  10  20  37  52  68  97 133 171 211 244 282
#
# _framework density 16.448620999999999
#
# number of rings (size 3 to 8) (size 9 to 14) (size 15 to 20)
#    0.000    2.000    3.750    1.875    0.000    2.000 
#    0.000    2.500    0.000    0.000    0.000    0.875 
#    0.000    7.000    0.000    0.000    0.000    0.000 
#
# Total GULP energy -793484.245981 kJ/mol
# GULP energy per Si atom -12398.191343 kJ/mol
# Density = 1.641118 g / cm^3
# Si number density = 16.448621 Si / 1000 Ang^3
#
#
#
# Elastic Constant Matrix: (Units=GPa)
#
#
# Indices 1 2 3 4 5 6 
#
# 1 55.2413 31.2378 30.7995 0.0000 0.0000 0.0000
# 2 31.2378 104.1548 36.5298 0.0000 0.0000 0.0000
# 3 30.7995 36.5298 52.2622 0.0000 0.0000 0.0000
# 4 0.0000 0.0000 0.0000 23.3200 0.0000 0.0000
# 5 0.0000 0.0000 0.0000 0.0000 26.1368 0.0000
# 6 0.0000 0.0000 0.0000 0.0000 0.0000 26.0331
#
#
#
# Elastic Compliance Matrix: (Units=1/GPa)
#
#
# Indices 1 2 3 4 5 6 
#
# 1 0.027862 -0.003441 -0.014015 0.000000 0.000000 0.000000
# 2 -0.003441 0.013144 -0.007160 0.000000 0.000000 0.000000
# 3 -0.014015 -0.007160 0.032398 0.000000 0.000000 0.000000
# 4 0.000000 0.000000 0.000000 0.042882 0.000000 0.000000
# 5 0.000000 0.000000 0.000000 0.000000 0.038260 0.000000
# 6 0.000000 0.000000 0.000000 0.000000 0.000000 0.038413
#
#
# Mechanical properties :
#
#
# Convention : Reuss Voigt Hill
#
# Bulk Modulus (GPa) = 41.36742 45.42138 43.39440
# Shear Modulus (GPa) = 19.98030 22.63740 21.30885
#
# Velocity S-wave (km/s) = 3.48905 3.71381 3.60318
# Velocity P-wave (km/s) = 6.43703 6.78704 6.61435
#
# Compressibility (1/GPa) = 0.02417362
#
# Stress axis : x y z
#
# Youngs Moduli (GPa) = 35.89122 76.07950 30.86633
#
# Poissons Ratio (x) = 0.26179 0.43258
# Poissons Ratio (y) = 0.12350 0.22099
# Poissons Ratio (z) = 0.50300 0.54469
#
# Static dielectric constant tensor:
#      x y z
#    x 2.893970 0.000000 0.000000 
#    y 0.000000 3.268370 0.000000 
#    z 0.000000 0.000000 3.016380 
# 
# 
# High freq. dielectric constant tensor:
#      x y z
#    x 1.603950 0.000000 0.000000 
#    y 0.000000 1.628830 0.000000 
#    z 0.000000 0.000000 1.627870 
# 
# From -- ./inp_files/7141.got.cif
#   From: 2010.06.25/outbox.cif.g09.slc.cpg/sg58_4_cif.got.tgz:7141.got - 2010.06.26 21:38:00.
