data_PCOD8235609
_publ_section_title
;
Structure prediction by ZEFSAII (Michael W. Deem and Ramdas Pophale) SiO2 
 PCOD8235609
Probable space group: P N N M
;
_chemical_formula_sum "Si O2"
_cell_formula_units_Z 64
_cell_length_a 27.987115
_cell_length_b 9.081314
_cell_length_c 13.153947
_cell_angle_alpha 90.000000
_cell_angle_beta 90.000000
_cell_angle_gamma 90.000000
_cell_volume 3343.204266
_symmetry_space_group_name_H-M "P N N M"
_symmetry_group_IT_number 58
_symmetry_cell_setting 'orthorhombic'
loop_
_space_group_symop_operation_xyz
x,y,z
-x,-y,z
1/2+x,1/2-y,1/2-z
1/2-x,1/2+y,1/2-z
-x,-y,-z
x,y,-z
1/2-x,1/2+y,1/2+z
1/2+x,1/2-y,1/2+z
loop_
_atom_site_type_symbol
_atom_site_label
_atom_site_fract_x
_atom_site_fract_y
_atom_site_fract_z
Si Si1 0.455086 0.918072 0.613941
Si Si2 0.722050 0.083518 0.121869
Si Si3 0.788447 0.297696 0.245074
Si Si4 0.654417 0.587353 0.882257
Si Si5 0.381365 0.166731 0.616695
Si Si6 0.563368 0.647748 0.773965
Si Si7 0.541631 0.310676 0.771229
Si Si8 0.132638 0.232195 0.383619
O O1 0.470165 0.883926 0.500000
O O2 0.447700 0.760457 0.663044
O O3 0.500000 0.000000 0.667565
O O4 0.406277 0.008608 0.622173
O O5 0.750461 0.222827 0.168686
O O6 0.666311 0.127090 0.135954
O O7 0.731883 0.934646 0.187105
O O8 0.733786 0.062991 0.000000
O O9 0.804246 0.172475 0.323531
O O10 0.831448 0.352259 0.174240
O O11 0.602675 0.664606 0.863156
O O12 0.653459 0.420797 0.836751
O O13 0.667338 0.597169 0.000000
O O14 0.373026 0.216203 0.500000
O O15 0.415857 0.285640 0.669726
O O16 0.552406 0.479236 0.753278
O O17 0.512964 0.720902 0.807911
O O18 0.578832 0.233563 0.847973
O O19 0.128374 0.192947 0.500000
#
# Coordination Sequence:
#
# PCOD8235609 Si02
#       8
#     8   8   8   8   8   8   8   8
#     4  10  19  31  49  71 101 142 184 221 265 323
#     4  11  23  40  61  88 115 146 188 238 289 347
#     4  11  22  38  62  85 113 148 186 235 294 350
#     4   9  18  35  56  81 110 146 185 227 279 342
#     4  10  20  36  54  78 109 145 186 230 280 337
#     4   9  19  30  50  78 108 142 181 227 275 326
#     4  10  18  32  50  76 107 142 184 226 273 326
#     4   9  19  35  56  78 108 144 183 228 279 332
#
# _framework density 19.143312000000002
#
# number of rings (size 3 to 8) (size 9 to 14) (size 15 to 20)
#    0.000    2.125    1.250    2.250    0.000    1.000 
#    0.000    5.625    0.000    6.375    0.000    0.000 
#    0.000    0.000    0.000    0.000    0.000    0.000 
#
# Total GULP energy -793091.585720 kJ/mol
# GULP energy per Si atom -12392.056027 kJ/mol
# Density = 1.909974 g / cm^3
# Si number density = 19.143312 Si / 1000 Ang^3
#
#
#
# Elastic Constant Matrix: (Units=GPa)
#
#
# Indices 1 2 3 4 5 6 
#
# 1 86.0099 22.1525 34.5433 0.0000 0.0000 0.0000
# 2 22.1525 46.8748 24.6778 0.0000 0.0000 0.0000
# 3 34.5433 24.6778 72.3153 0.0000 0.0000 0.0000
# 4 0.0000 0.0000 0.0000 33.1500 0.0000 0.0000
# 5 0.0000 0.0000 0.0000 0.0000 23.3972 0.0000
# 6 0.0000 0.0000 0.0000 0.0000 0.0000 25.9925
#
#
#
# Elastic Compliance Matrix: (Units=1/GPa)
#
#
# Indices 1 2 3 4 5 6 
#
# 1 0.014989 -0.004040 -0.005781 0.000000 0.000000 0.000000
# 2 -0.004040 0.027094 -0.007316 0.000000 0.000000 0.000000
# 3 -0.005781 -0.007316 0.019087 0.000000 0.000000 0.000000
# 4 0.000000 0.000000 0.000000 0.030166 0.000000 0.000000
# 5 0.000000 0.000000 0.000000 0.000000 0.042740 0.000000
# 6 0.000000 0.000000 0.000000 0.000000 0.000000 0.038473
#
#
# Mechanical properties :
#
#
# Convention : Reuss Voigt Hill
#
# Bulk Modulus (GPa) = 37.18160 40.88303 39.03232
# Shear Modulus (GPa) = 23.17084 24.76303 23.96694
#
# Velocity S-wave (km/s) = 3.48284 3.60051 3.54216
# Velocity P-wave (km/s) = 5.96980 6.21993 6.09615
#
# Compressibility (1/GPa) = 0.02689502
#
# Stress axis : x y z
#
# Youngs Moduli (GPa) = 66.71577 36.90797 52.39293
#
# Poissons Ratio (x) = 0.14911 0.30289
# Poissons Ratio (y) = 0.26953 0.38332
# Poissons Ratio (z) = 0.38570 0.27003
#
# Static dielectric constant tensor:
#      x y z
#    x 3.758200 0.000000 0.000000 
#    y 0.000000 3.569850 0.000000 
#    z 0.000000 0.000000 3.457240 
# 
# 
# High freq. dielectric constant tensor:
#      x y z
#    x 1.749180 0.000000 0.000000 
#    y 0.000000 1.739670 0.000000 
#    z 0.000000 0.000000 1.736050 
# 
# From -- ./inp_files/18004.got.cif
#   From: 2010.06.25/outbox.cif.g09.slc.cpg/sg58_10_cif.got.tgz:18004.got - 2010.06.26 21:38:00.
