data_PCOD8235893
_publ_section_title
;
Structure prediction by ZEFSAII (Michael W. Deem and Ramdas Pophale) SiO2 
 PCOD8235893
Probable space group: P N N M
;
_chemical_formula_sum "Si O2"
_cell_formula_units_Z 40
_cell_length_a 35.814608
_cell_length_b 5.204474
_cell_length_c 12.484150
_cell_angle_alpha 90.000000
_cell_angle_beta 90.000000
_cell_angle_gamma 90.000000
_cell_volume 2326.998072
_symmetry_space_group_name_H-M "P N N M"
_symmetry_group_IT_number 58
_symmetry_cell_setting 'orthorhombic'
loop_
_space_group_symop_operation_xyz
x,y,z
-x,-y,z
1/2+x,1/2-y,1/2-z
1/2-x,1/2+y,1/2-z
-x,-y,-z
x,y,-z
1/2-x,1/2+y,1/2+z
1/2+x,1/2-y,1/2+z
loop_
_atom_site_type_symbol
_atom_site_label
_atom_site_fract_x
_atom_site_fract_y
_atom_site_fract_z
Si Si1 0.286637 0.314491 0.619832
Si Si2 0.830839 0.984743 0.299812
Si Si3 0.413755 0.504964 0.127099
Si Si4 0.210408 0.525758 0.677072
Si Si5 0.541731 0.996682 0.873116
O O1 0.298260 0.232522 0.500000
O O2 0.319787 0.483915 0.673914
O O3 0.248845 0.482427 0.614748
O O4 0.279996 0.062304 0.695200
O O5 0.874860 0.005345 0.311391
O O6 0.810339 0.216319 0.365697
O O7 0.817145 0.712025 0.344195
O O8 0.437414 0.259651 0.164653
O O9 0.435752 0.755568 0.167435
O O10 0.406763 0.508118 0.000000
O O11 0.500000 0.000000 0.823987
O O12 0.538959 0.004186 0.000000
#
# Coordination Sequence:
#
# PCOD8235893 Si02
#       5
#     8   8   8   8   8
#     4  10  21  37  55  70  99 135 171 217 261 292
#     4  10  20  35  48  72 103 127 169 212 247 303
#     4  10  19  30  48  72 104 137 161 203 251 290
#     4  10  20  37  48  74  96 127 176 215 243 305
#     4   9  17  30  48  71  99 135 170 194 235 302
#
# _framework density 17.189527999999999
#
# number of rings (size 3 to 8) (size 9 to 14) (size 15 to 20)
#    1.200    1.000    2.000    1.800    0.000    4.800 
#    0.000    0.000    0.000    0.000    0.000    0.000 
#    0.000    4.800    0.000    0.000    0.000    0.000 
#
# Total GULP energy -495704.484339 kJ/mol
# GULP energy per Si atom -12392.612108 kJ/mol
# Density = 1.715040 g / cm^3
# Si number density = 17.189528 Si / 1000 Ang^3
#
#
#
# Elastic Constant Matrix: (Units=GPa)
#
#
# Indices 1 2 3 4 5 6 
#
# 1 148.3376 52.1083 22.3357 0.0000 0.0000 0.0000
# 2 52.1083 132.1263 9.1538 0.0000 0.0000 0.0000
# 3 22.3357 9.1538 45.3285 0.0000 0.0000 0.0000
# 4 0.0000 0.0000 0.0000 6.6777 0.0000 0.0000
# 5 0.0000 0.0000 0.0000 0.0000 16.2655 0.0000
# 6 0.0000 0.0000 0.0000 0.0000 0.0000 28.9140
#
#
#
# Elastic Compliance Matrix: (Units=1/GPa)
#
#
# Indices 1 2 3 4 5 6 
#
# 1 0.008337 -0.003046 -0.003493 0.000000 0.000000 0.000000
# 2 -0.003046 0.008789 -0.000274 0.000000 0.000000 0.000000
# 3 -0.003493 -0.000274 0.023838 0.000000 0.000000 0.000000
# 4 0.000000 0.000000 0.000000 0.149753 0.000000 0.000000
# 5 0.000000 0.000000 0.000000 0.000000 0.061480 0.000000
# 6 0.000000 0.000000 0.000000 0.000000 0.000000 0.034585
#
#
# Mechanical properties :
#
#
# Convention : Reuss Voigt Hill
#
# Bulk Modulus (GPa) = 36.57949 54.77642 45.67796
# Shear Modulus (GPa) = 16.15401 26.51776 21.33588
#
# Velocity S-wave (km/s) = 3.06887 3.93194 3.52691
# Velocity P-wave (km/s) = 5.82096 7.24906 6.57391
#
# Compressibility (1/GPa) = 0.02733772
#
# Stress axis : x y z
#
# Youngs Moduli (GPa) = 119.94158 113.78087 41.95036
#
# Poissons Ratio (x) = 0.34659 0.14654
# Poissons Ratio (y) = 0.36536 0.01149
# Poissons Ratio (z) = 0.41897 0.03116
#
# Static dielectric constant tensor:
#      x y z
#    x 3.167440 0.000000 0.000000 
#    y 0.000000 3.386150 0.000000 
#    z 0.000000 0.000000 2.680220 
# 
# 
# High freq. dielectric constant tensor:
#      x y z
#    x 1.662300 0.000000 0.000000 
#    y 0.000000 1.680060 0.000000 
#    z 0.000000 0.000000 1.599660 
# 
# From -- ./inp_files/23713.got.cif
#   From: 2010.06.25/outbox.cif.g09.slc.cpg/sg58_12_cif.got.tgz:23713.got - 2010.06.26 21:38:00.
