data_PCOD8235757
_publ_section_title
;
Structure prediction by ZEFSAII (Michael W. Deem and Ramdas Pophale) SiO2 
 PCOD8235757
Probable space group: P N N M
;
_chemical_formula_sum "Si O2"
_cell_formula_units_Z 64
_cell_length_a 30.655619
_cell_length_b 12.181196
_cell_length_c 8.760764
_cell_angle_alpha 90.000000
_cell_angle_beta 90.000000
_cell_angle_gamma 90.000000
_cell_volume 3271.462922
_symmetry_space_group_name_H-M "P N N M"
_symmetry_group_IT_number 58
_symmetry_cell_setting 'orthorhombic'
loop_
_space_group_symop_operation_xyz
x,y,z
-x,-y,z
1/2+x,1/2-y,1/2-z
1/2-x,1/2+y,1/2-z
-x,-y,-z
x,y,-z
1/2-x,1/2+y,1/2+z
1/2+x,1/2-y,1/2+z
loop_
_atom_site_type_symbol
_atom_site_label
_atom_site_fract_x
_atom_site_fract_y
_atom_site_fract_z
Si Si1 0.207907 0.464187 0.681834
Si Si2 0.046897 0.462383 0.682439
Si Si3 0.949065 0.997423 0.679229
Si Si4 0.872671 0.389656 0.318263
Si Si5 0.196551 0.011766 0.820989
Si Si6 0.076004 0.235306 0.330311
Si Si7 0.676111 0.266177 0.829950
Si Si8 0.121092 0.851112 0.181345
O O1 0.206467 0.466491 0.500000
O O2 0.170687 0.547477 0.742047
O O3 0.255167 0.495962 0.749384
O O4 0.200382 0.339793 0.738243
O O5 0.048898 0.456971 0.500000
O O6 0.084650 0.544471 0.740107
O O7 0.053111 0.339380 0.750972
O O8 0.000000 0.500000 0.743328
O O9 0.938752 0.008313 0.500000
O O10 0.924489 0.096953 0.762511
O O11 0.931794 0.881901 0.750929
O O12 0.000000 0.000000 0.715266
O O13 0.872674 0.378579 0.500000
O O14 0.873312 0.269918 0.246082
O O15 0.181779 0.133973 0.784206
O O16 0.161507 0.924719 0.755131
O O17 0.199098 0.995840 0.000000
O O18 0.055949 0.221755 0.500000
O O19 0.126108 0.267390 0.339162
O O20 0.693183 0.297328 0.000000
O O21 0.120862 0.846929 0.000000
#
# Coordination Sequence:
#
# PCOD8235757 Si02
#       8
#     8   8   8   8   8   8   8   8
#     4   9  19  36  57  81 109 142 181 232 284 326
#     4   9  17  29  52  85 112 134 167 219 280 327
#     4  10  21  36  59  88 112 140 186 235 273 320
#     4  10  20  36  58  81 108 143 185 230 275 327
#     4  10  22  38  54  77 111 148 184 223 275 333
#     4   9  16  30  52  81 110 134 170 224 274 317
#     4  10  18  34  60  82 104 138 185 232 276 325
#     4  11  24  39  54  77 116 155 184 221 277 340
#
# _framework density 19.563112
#
# number of rings (size 3 to 8) (size 9 to 14) (size 15 to 20)
#    0.000    2.250    2.500    0.375    3.500    0.750 
#    0.000    1.250    0.000    1.125    0.000    0.000 
#    0.000    0.000    0.000    0.000    0.000    0.000 
#
# Total GULP energy -793387.734959 kJ/mol
# GULP energy per Si atom -12396.683359 kJ/mol
# Density = 1.951859 g / cm^3
# Si number density = 19.563112 Si / 1000 Ang^3
#
#
#
# Elastic Constant Matrix: (Units=GPa)
#
#
# Indices 1 2 3 4 5 6 
#
# 1 124.9872 51.7770 20.9163 0.0000 0.0000 0.0000
# 2 51.7770 146.6092 18.0347 0.0000 0.0000 0.0000
# 3 20.9163 18.0347 20.9946 0.0000 0.0000 0.0000
# 4 0.0000 0.0000 0.0000 9.2578 0.0000 0.0000
# 5 0.0000 0.0000 0.0000 0.0000 11.6621 0.0000
# 6 0.0000 0.0000 0.0000 0.0000 0.0000 35.0326
#
#
#
# Elastic Compliance Matrix: (Units=1/GPa)
#
#
# Indices 1 2 3 4 5 6 
#
# 1 0.010479 -0.002702 -0.008119 0.000000 0.000000 0.000000
# 2 -0.002702 0.008324 -0.004458 0.000000 0.000000 0.000000
# 3 -0.008119 -0.004458 0.059549 0.000000 0.000000 0.000000
# 4 0.000000 0.000000 0.000000 0.108018 0.000000 0.000000
# 5 0.000000 0.000000 0.000000 0.000000 0.085748 0.000000
# 6 0.000000 0.000000 0.000000 0.000000 0.000000 0.028545
#
#
# Mechanical properties :
#
#
# Convention : Reuss Voigt Hill
#
# Bulk Modulus (GPa) = 20.92314 52.67190 36.79752
# Shear Modulus (GPa) = 14.40298 24.64804 19.52551
#
# Velocity S-wave (km/s) = 2.71630 3.55339 3.16266
# Velocity P-wave (km/s) = 4.53389 6.61952 5.67337
#
# Compressibility (1/GPa) = 0.04779398
#
# Stress axis : x y z
#
# Youngs Moduli (GPa) = 95.43094 120.14163 16.79288
#
# Poissons Ratio (x) = 0.32463 0.13633
# Poissons Ratio (y) = 0.25786 0.07486
# Poissons Ratio (z) = 0.77476 0.53560
#
# Static dielectric constant tensor:
#      x y z
#    x 3.836000 0.000000 0.000000 
#    y 0.000000 3.703540 0.000000 
#    z 0.000000 0.000000 3.036680 
# 
# 
# High freq. dielectric constant tensor:
#      x y z
#    x 1.772720 0.000000 0.000000 
#    y 0.000000 1.780170 0.000000 
#    z 0.000000 0.000000 1.705440 
# 
# From -- ./inp_files/11038.got.cif
#   From: 2010.06.25/outbox.cif.g09.slc.cpg/sg58_6_cif.got.tgz:11038.got - 2010.06.26 21:38:00.
