data_PCOD8235990
_publ_section_title
;
Structure prediction by ZEFSAII (Michael W. Deem and Ramdas Pophale) SiO2 
 PCOD8235990
Probable space group: P N N M
;
_chemical_formula_sum "Si O2"
_cell_formula_units_Z 56
_cell_length_a 9.336017
_cell_length_b 13.445116
_cell_length_c 22.320714
_cell_angle_alpha 90.000000
_cell_angle_beta 90.000000
_cell_angle_gamma 90.000000
_cell_volume 2801.781544
_symmetry_space_group_name_H-M "P N N M"
_symmetry_group_IT_number 58
_symmetry_cell_setting 'orthorhombic'
loop_
_space_group_symop_operation_xyz
x,y,z
-x,-y,z
1/2+x,1/2-y,1/2-z
1/2-x,1/2+y,1/2-z
-x,-y,-z
x,y,-z
1/2-x,1/2+y,1/2+z
1/2+x,1/2-y,1/2+z
loop_
_atom_site_type_symbol
_atom_site_label
_atom_site_fract_x
_atom_site_fract_y
_atom_site_fract_z
Si Si1 0.250343 0.868241 0.247168
Si Si2 0.766058 0.826150 0.930703
Si Si3 0.423089 0.280937 0.156342
Si Si4 0.097149 0.786973 0.068631
Si Si5 0.253842 0.184307 0.665173
Si Si6 0.057478 0.604799 0.742914
Si Si7 0.334810 0.479967 0.637175
O O1 0.150435 0.870016 0.305941
O O2 0.198593 0.778306 0.205008
O O3 0.411195 0.847573 0.270676
O O4 0.235196 0.965759 0.203786
O O5 0.656307 0.740654 0.906782
O O6 0.927293 0.787793 0.922730
O O7 0.751994 0.930101 0.895030
O O8 0.729386 0.845582 0.000000
O O9 0.586046 0.317382 0.149735
O O10 0.397443 0.174943 0.188425
O O11 0.160658 0.690612 0.102684
O O12 0.177836 0.884452 0.094157
O O13 0.140687 0.777843 0.000000
O O14 0.318123 0.093048 0.705519
O O15 0.000000 0.500000 0.718210
O O16 0.500000 0.500000 0.648751
#
# Coordination Sequence:
#
# PCOD8235990 Si02
#       7
#     8   8   8   8   8   8   8
#     4   9  18  31  48  69  98 134 168 210 257 308
#     4  10  19  31  50  76 107 142 178 216 258 312
#     4  10  20  33  49  73 104 137 176 215 261 314
#     4   9  17  31  50  71  99 138 175 205 247 309
#     4   9  19  32  47  69  97 130 169 216 262 308
#     4  10  19  32  51  72  98 130 169 215 265 315
#     4   9  17  29  49  77 107 136 173 214 259 310
#
# _framework density 19.987283999999999
#
# number of rings (size 3 to 8) (size 9 to 14) (size 15 to 20)
#    0.000    2.571    0.000    2.143    0.000   10.286 
#    0.000    0.000    0.000    9.429    0.000    0.000 
#    0.000    5.143    0.000    0.000    0.000    0.000 
#
# Total GULP energy -693810.128912 kJ/mol
# GULP energy per Si atom -12389.466588 kJ/mol
# Density = 1.994179 g / cm^3
# Si number density = 19.987284 Si / 1000 Ang^3
#
#
#
# Elastic Constant Matrix: (Units=GPa)
#
#
# Indices 1 2 3 4 5 6 
#
# 1 92.9000 12.0804 57.3408 0.0000 0.0000 0.0000
# 2 12.0804 22.4933 30.6247 0.0000 0.0000 0.0000
# 3 57.3408 30.6247 111.5576 0.0000 0.0000 0.0000
# 4 0.0000 0.0000 0.0000 29.5646 0.0000 0.0000
# 5 0.0000 0.0000 0.0000 0.0000 34.3370 0.0000
# 6 0.0000 0.0000 0.0000 0.0000 0.0000 21.1981
#
#
#
# Elastic Compliance Matrix: (Units=1/GPa)
#
#
# Indices 1 2 3 4 5 6 
#
# 1 0.016006 0.004160 -0.009369 0.000000 0.000000 0.000000
# 2 0.004160 0.072072 -0.021923 0.000000 0.000000 0.000000
# 3 -0.009369 -0.021923 0.019798 0.000000 0.000000 0.000000
# 4 0.000000 0.000000 0.000000 0.033824 0.000000 0.000000
# 5 0.000000 0.000000 0.000000 0.000000 0.029123 0.000000
# 6 0.000000 0.000000 0.000000 0.000000 0.000000 0.047174
#
#
# Mechanical properties :
#
#
# Convention : Reuss Voigt Hill
#
# Bulk Modulus (GPa) = 18.65285 47.44919 33.05102
# Shear Modulus (GPa) = 17.23342 25.48027 21.35685
#
# Velocity S-wave (km/s) = 2.93954 3.57434 3.27237
# Velocity P-wave (km/s) = 4.56879 6.38951 5.55426
#
# Compressibility (1/GPa) = 0.05361110
#
# Stress axis : x y z
#
# Youngs Moduli (GPa) = 62.47538 13.87496 50.50988
#
# Poissons Ratio (x) = -0.05772 0.47324
# Poissons Ratio (y) = -0.25988 1.10734
# Poissons Ratio (z) = 0.58534 0.30418
#
# Static dielectric constant tensor:
#      x y z
#    x 3.744020 0.000000 0.000000 
#    y 0.000000 3.438630 0.000000 
#    z 0.000000 0.000000 3.602960 
# 
# 
# High freq. dielectric constant tensor:
#      x y z
#    x 1.791430 0.000000 0.000000 
#    y 0.000000 1.742270 0.000000 
#    z 0.000000 0.000000 1.763790 
# 
# From -- ./inp_files/28949.got.cif
#   From: 2010.06.25/outbox.cif.g09.slc.cpg/sg58_15_cif.got.tgz:28949.got - 2010.06.26 21:38:00.
