data_PCOD8235168
_publ_section_title
;
Structure prediction by ZEFSAII (Michael W. Deem and Ramdas Pophale) SiO2 
 PCOD8235168
Probable space group: P B C M
;
_chemical_formula_sum "Si O2"
_cell_formula_units_Z 40
_cell_length_a 5.339108
_cell_length_b 17.629876
_cell_length_c 17.525803
_cell_angle_alpha 90.000000
_cell_angle_beta 90.000000
_cell_angle_gamma 90.000000
_cell_volume 1649.665490
_symmetry_space_group_name_H-M "P B C M"
_symmetry_group_IT_number 57
_symmetry_cell_setting 'orthorhombic'
loop_
_space_group_symop_operation_xyz
x,y,z
-x,-y,1/2+z
x,1/2-y,-z
-x,1/2+y,1/2-z
-x,-y,-z
x,y,1/2-z
-x,1/2+y,z
x,1/2-y,1/2+z
loop_
_atom_site_type_symbol
_atom_site_label
_atom_site_fract_x
_atom_site_fract_y
_atom_site_fract_z
Si Si1 0.395426 0.665704 0.837280
Si Si2 0.756205 0.199888 0.434182
Si Si3 0.957702 0.921386 0.660562
Si Si4 0.381228 0.075748 0.030314
Si Si5 0.891914 0.918415 0.114962
O O1 0.354607 0.686366 0.750000
O O2 0.409292 0.744519 0.882163
O O3 0.658436 0.622998 0.846120
O O4 0.160170 0.614567 0.863011
O O5 0.898100 0.250000 0.500000
O O6 0.571631 0.144632 0.480641
O O7 0.939104 0.155244 0.377803
O O8 0.915364 0.908779 0.750000
O O9 0.690780 0.934642 0.619090
O O10 0.130365 0.994126 0.643084
O O11 0.134571 0.089297 0.977270
O O12 0.500000 0.000000 0.000000
#
# Coordination Sequence:
#
# PCOD8235168 Si02
#       5
#     8   8   8   8   8
#     4  12  27  49  78 117 163 206 258 327 403 470
#     4  12  27  48  76 110 155 210 261 323 396 477
#     4  12  28  48  79 115 156 204 267 336 398 470
#     4  12  26  50  79 110 153 207 269 324 388 482
#     4  12  26  51  81 116 156 212 264 321 394 480
#
# _framework density 24.247340000000001
#
# number of rings (size 3 to 8) (size 9 to 14) (size 15 to 20)
#    0.000    0.000    4.000    5.400    2.800    2.400 
#    0.000    0.000    0.000    0.000    0.000    0.000 
#    0.000    0.000    0.000    0.000    0.000    0.000 
#
# Total GULP energy -496030.688278 kJ/mol
# GULP energy per Si atom -12400.767207 kJ/mol
# Density = 2.419215 g / cm^3
# Si number density = 24.247340 Si / 1000 Ang^3
#
#
#
# Elastic Constant Matrix: (Units=GPa)
#
#
# Indices 1 2 3 4 5 6 
#
# 1 96.8976 49.4562 29.4029 0.0000 0.0000 0.0000
# 2 49.4562 168.5734 65.1068 0.0000 0.0000 0.0000
# 3 29.4029 65.1068 191.4030 0.0000 0.0000 0.0000
# 4 0.0000 0.0000 0.0000 27.8228 0.0000 0.0000
# 5 0.0000 0.0000 0.0000 0.0000 38.2561 0.0000
# 6 0.0000 0.0000 0.0000 0.0000 0.0000 24.7218
#
#
#
# Elastic Compliance Matrix: (Units=1/GPa)
#
#
# Indices 1 2 3 4 5 6 
#
# 1 0.012232 -0.003296 -0.000758 0.000000 0.000000 0.000000
# 2 -0.003296 0.007717 -0.002119 0.000000 0.000000 0.000000
# 3 -0.000758 -0.002119 0.006062 0.000000 0.000000 0.000000
# 4 0.000000 0.000000 0.000000 0.035942 0.000000 0.000000
# 5 0.000000 0.000000 0.000000 0.000000 0.026140 0.000000
# 6 0.000000 0.000000 0.000000 0.000000 0.000000 0.040450
#
#
# Mechanical properties :
#
#
# Convention : Reuss Voigt Hill
#
# Bulk Modulus (GPa) = 73.17398 82.75620 77.96509
# Shear Modulus (GPa) = 34.37743 39.02065 36.69904
#
# Velocity S-wave (km/s) = 3.76943 4.01593 3.89463
# Velocity P-wave (km/s) = 7.01345 7.46376 7.24210
#
# Compressibility (1/GPa) = 0.01366606
#
# Stress axis : x y z
#
# Youngs Moduli (GPa) = 81.74974 129.57637 164.96919
#
# Poissons Ratio (x) = 0.42709 0.12504
# Poissons Ratio (y) = 0.26945 0.34954
# Poissons Ratio (z) = 0.06196 0.27455
#
# Static dielectric constant tensor:
#      x y z
#    x 4.186680 0.000000 0.000000 
#    y 0.000000 4.721900 0.000000 
#    z 0.000000 0.000000 4.982230 
# 
# 
# High freq. dielectric constant tensor:
#      x y z
#    x 1.952790 0.000000 0.000000 
#    y 0.000000 1.984290 0.000000 
#    z 0.000000 0.000000 1.980320 
# 
# From -- ./inp_files/19991.got.cif
#   From: 2010.03.12/outbox.cif.g09.slc.cpg/sg57_10_cif.got.tgz:19991.got - 2010.04.16 15:48:40.
