data_PCOD8235061
_publ_section_title
;
Structure prediction by ZEFSAII (Michael W. Deem and Ramdas Pophale) SiO2 
 PCOD8235061
Probable space group: P B C M
;
_chemical_formula_sum "Si O2"
_cell_formula_units_Z 40
_cell_length_a 5.291244
_cell_length_b 17.970234
_cell_length_c 18.681303
_cell_angle_alpha 90.000000
_cell_angle_beta 90.000000
_cell_angle_gamma 90.000000
_cell_volume 1776.309694
_symmetry_space_group_name_H-M "P B C M"
_symmetry_group_IT_number 57
_symmetry_cell_setting 'orthorhombic'
loop_
_space_group_symop_operation_xyz
x,y,z
-x,-y,1/2+z
x,1/2-y,-z
-x,1/2+y,1/2-z
-x,-y,-z
x,y,1/2-z
-x,1/2+y,z
x,1/2-y,1/2+z
loop_
_atom_site_type_symbol
_atom_site_label
_atom_site_fract_x
_atom_site_fract_y
_atom_site_fract_z
Si Si1 0.688787 0.083698 0.250000
Si Si2 0.620622 0.310888 0.882213
Si Si3 0.295192 0.947645 0.532080
Si Si4 0.868469 0.729655 0.916999
Si Si5 0.976354 0.566537 0.607382
Si Si6 0.813822 0.012277 0.750000
O O1 0.666676 0.137912 0.184331
O O2 0.466084 0.021958 0.250000
O O3 0.965771 0.048223 0.250000
O O4 0.598064 0.366505 0.949639
O O5 0.852986 0.254053 0.891642
O O6 0.353940 0.269991 0.873379
O O7 0.098406 0.932080 0.470393
O O8 0.500000 0.000000 0.500000
O O9 0.192107 0.990663 0.603788
O O10 0.824169 0.643921 0.893745
O O11 0.831990 0.750000 0.000000
O O12 0.155720 0.561999 0.677535
#
# Coordination Sequence:
#
# PCOD8235061 Si02
#       6
#     4   8   8   8   8   4
#     4  12  26  48  72 104 144 193 243 296 358 436
#     4  12  26  45  73 101 145 192 238 290 366 430
#     4  11  23  43  73 102 134 192 243 297 344 431
#     4  12  26  46  71 108 147 189 235 306 359 429
#     4  11  26  43  71 107 143 186 245 295 368 419
#     4  12  26  46  72 106 144 185 241 312 350 430
#
# _framework density 22.518595000000001
#
# number of rings (size 3 to 8) (size 9 to 14) (size 15 to 20)
#    0.000    0.400    4.000    4.200    5.600    1.600 
#    0.000    0.000    0.000    0.000    0.000    0.000 
#    0.000    0.000    0.000    0.000    0.000    0.000 
#
# Total GULP energy -495759.510986 kJ/mol
# GULP energy per Si atom -12393.987775 kJ/mol
# Density = 2.246734 g / cm^3
# Si number density = 22.518595 Si / 1000 Ang^3
#
#
#
# Elastic Constant Matrix: (Units=GPa)
#
#
# Indices 1 2 3 4 5 6 
#
# 1 86.5987 27.5401 -13.0682 0.0000 0.0000 0.0000
# 2 27.5401 127.2706 23.9144 0.0000 0.0000 0.0000
# 3 -13.0682 23.9144 69.0318 0.0000 0.0000 0.0000
# 4 0.0000 0.0000 0.0000 35.6407 0.0000 0.0000
# 5 0.0000 0.0000 0.0000 0.0000 29.0393 0.0000
# 6 0.0000 0.0000 0.0000 0.0000 0.0000 45.6004
#
#
#
# Elastic Compliance Matrix: (Units=1/GPa)
#
#
# Indices 1 2 3 4 5 6 
#
# 1 0.013248 -0.003570 0.003745 0.000000 0.000000 0.000000
# 2 -0.003570 0.009367 -0.003921 0.000000 0.000000 0.000000
# 3 0.003745 -0.003921 0.016553 0.000000 0.000000 0.000000
# 4 0.000000 0.000000 0.000000 0.028058 0.000000 0.000000
# 5 0.000000 0.000000 0.000000 0.000000 0.034436 0.000000
# 6 0.000000 0.000000 0.000000 0.000000 0.000000 0.021930
#
#
# Mechanical properties :
#
#
# Convention : Reuss Voigt Hill
#
# Bulk Modulus (GPa) = 31.57032 39.96373 35.76703
# Shear Modulus (GPa) = 35.30013 38.35707 36.82860
#
# Velocity S-wave (km/s) = 3.96359 4.13164 4.04849
# Velocity P-wave (km/s) = 5.91581 6.36759 6.14585
#
# Compressibility (1/GPa) = 0.03167532
#
# Stress axis : x y z
#
# Youngs Moduli (GPa) = 75.48250 106.76237 60.41112
#
# Poissons Ratio (x) = 0.38119 -0.22623
# Poissons Ratio (y) = 0.26950 0.23686
# Poissons Ratio (z) = -0.28267 0.41859
#
# Static dielectric constant tensor:
#      x y z
#    x 3.983870 0.000000 0.000000 
#    y 0.000000 3.948350 0.000000 
#    z 0.000000 0.000000 4.066800 
# 
# 
# High freq. dielectric constant tensor:
#      x y z
#    x 1.885210 0.000000 0.000000 
#    y 0.000000 1.904020 0.000000 
#    z 0.000000 0.000000 1.895610 
# 
# From -- ./inp_files/20038.got.cif
#   From: 2010.03.12/outbox.cif.g09.slc.cpg/sg57_11_cif.got.tgz:20038.got - 2010.04.16 15:48:40.
