data_PCOD8235845
_publ_section_title
;
Structure prediction by ZEFSAII (Michael W. Deem and Ramdas Pophale) SiO2 
 PCOD8235845
Probable space group: P N N M
;
_chemical_formula_sum "Si O2"
_cell_formula_units_Z 64
_cell_length_a 21.485811
_cell_length_b 19.019533
_cell_length_c 9.124092
_cell_angle_alpha 90.000000
_cell_angle_beta 90.000000
_cell_angle_gamma 90.000000
_cell_volume 3728.561029
_symmetry_space_group_name_H-M "P N N M"
_symmetry_group_IT_number 58
_symmetry_cell_setting 'orthorhombic'
loop_
_space_group_symop_operation_xyz
x,y,z
-x,-y,z
1/2+x,1/2-y,1/2-z
1/2-x,1/2+y,1/2-z
-x,-y,-z
x,y,-z
1/2-x,1/2+y,1/2+z
1/2+x,1/2-y,1/2+z
loop_
_atom_site_type_symbol
_atom_site_label
_atom_site_fract_x
_atom_site_fract_y
_atom_site_fract_z
Si Si1 0.821110 0.027266 0.660927
Si Si2 0.433139 0.532483 0.328463
Si Si3 0.017110 0.578959 0.671270
Si Si4 0.391955 0.669445 0.825927
Si Si5 0.807775 0.580158 0.826366
Si Si6 0.235164 0.125885 0.340640
Si Si7 0.097063 0.327368 0.328341
Si Si8 0.358161 0.069563 0.675192
O O1 0.844472 0.052946 0.500000
O O2 0.765639 0.078373 0.720820
O O3 0.880193 0.021066 0.768786
O O4 0.788237 0.953210 0.640753
O O5 0.500000 0.500000 0.293049
O O6 0.421939 0.542439 0.500000
O O7 0.431918 0.609117 0.252561
O O8 0.029518 0.588535 0.500000
O O9 0.079091 0.600086 0.757149
O O10 0.000000 0.500000 0.713009
O O11 0.962193 0.629020 0.727916
O O12 0.320562 0.668374 0.761367
O O13 0.418527 0.746296 0.790736
O O14 0.391525 0.653173 0.000000
O O15 0.840346 0.647099 0.751707
O O16 0.844781 0.510299 0.772975
O O17 0.812485 0.587683 0.000000
O O18 0.245203 0.160560 0.500000
O O19 0.302674 0.120873 0.262752
O O20 0.107995 0.338474 0.500000
O O21 0.360457 0.073037 0.500000
#
# Coordination Sequence:
#
# PCOD8235845 Si02
#       8
#     8   8   8   8   8   8   8   8
#     4   8  15  29  49  73  97 123 156 195 239 291
#     4  10  20  33  52  79 105 126 157 209 262 304
#     4  10  19  30  43  66 102 134 165 204 240 281
#     4   9  18  34  54  72  94 129 171 207 246 306
#     4   9  17  29  47  72  99 126 160 206 246 285
#     4   7  12  26  47  68  87 108 148 202 238 274
#     4  10  20  32  48  70  97 136 174 205 249 300
#     4   9  16  27  46  69  91 119 159 200 241 284
#
# _framework density 17.164798999999999
#
# number of rings (size 3 to 8) (size 9 to 14) (size 15 to 20)
#    0.000    3.000    1.250    2.625    0.000    2.750 
#    0.000    5.000    2.750    0.000    0.000    0.000 
#    0.000    0.000    0.000    0.000    0.000    0.000 
#
# Total GULP energy -792925.829358 kJ/mol
# GULP energy per Si atom -12389.466084 kJ/mol
# Density = 1.712573 g / cm^3
# Si number density = 17.164799 Si / 1000 Ang^3
#
#
#
# Elastic Constant Matrix: (Units=GPa)
#
#
# Indices 1 2 3 4 5 6 
#
# 1 140.7701 58.5609 51.9507 0.0000 0.0000 0.0000
# 2 58.5609 82.3777 33.7660 0.0000 0.0000 0.0000
# 3 51.9507 33.7660 49.7320 0.0000 0.0000 0.0000
# 4 0.0000 0.0000 0.0000 11.1471 0.0000 0.0000
# 5 0.0000 0.0000 0.0000 0.0000 25.2177 0.0000
# 6 0.0000 0.0000 0.0000 0.0000 0.0000 23.9791
#
#
#
# Elastic Compliance Matrix: (Units=1/GPa)
#
#
# Indices 1 2 3 4 5 6 
#
# 1 0.012923 -0.005062 -0.010063 0.000000 0.000000 0.000000
# 2 -0.005062 0.018803 -0.007479 0.000000 0.000000 0.000000
# 3 -0.010063 -0.007479 0.035697 0.000000 0.000000 0.000000
# 4 0.000000 0.000000 0.000000 0.089709 0.000000 0.000000
# 5 0.000000 0.000000 0.000000 0.000000 0.039655 0.000000
# 6 0.000000 0.000000 0.000000 0.000000 0.000000 0.041703
#
#
# Mechanical properties :
#
#
# Convention : Reuss Voigt Hill
#
# Bulk Modulus (GPa) = 45.01155 62.38167 53.69661
# Shear Modulus (GPa) = 17.17600 20.64225 18.90912
#
# Velocity S-wave (km/s) = 3.16674 3.47160 3.32267
# Velocity P-wave (km/s) = 6.29691 7.24507 6.78757
#
# Compressibility (1/GPa) = 0.02221652
#
# Stress axis : x y z
#
# Youngs Moduli (GPa) = 77.37909 53.18207 28.01342
#
# Poissons Ratio (x) = 0.26923 0.28189
# Poissons Ratio (y) = 0.39172 0.20950
# Poissons Ratio (z) = 0.77865 0.39772
#
# Static dielectric constant tensor:
#      x y z
#    x 3.481100 0.000000 0.000000 
#    y 0.000000 3.020970 0.000000 
#    z 0.000000 0.000000 2.965150 
# 
# 
# High freq. dielectric constant tensor:
#      x y z
#    x 1.670980 0.000000 0.000000 
#    y 0.000000 1.627580 0.000000 
#    z 0.000000 0.000000 1.641960 
# 
# From -- ./inp_files/9425.got.cif
#   From: 2010.06.25/outbox.cif.g09.slc.cpg/sg58_5_cif.got.tgz:9425.got - 2010.06.26 21:38:00.
