data_PCOD8235565
_publ_section_title
;
Structure prediction by ZEFSAII (Michael W. Deem and Ramdas Pophale) SiO2 
 PCOD8235565
Probable space group: P N N M
;
_chemical_formula_sum "Si O2"
_cell_formula_units_Z 56
_cell_length_a 19.873838
_cell_length_b 15.574677
_cell_length_c 9.006743
_cell_angle_alpha 90.000000
_cell_angle_beta 90.000000
_cell_angle_gamma 90.000000
_cell_volume 2787.844620
_symmetry_space_group_name_H-M "P N N M"
_symmetry_group_IT_number 58
_symmetry_cell_setting 'orthorhombic'
loop_
_space_group_symop_operation_xyz
x,y,z
-x,-y,z
1/2+x,1/2-y,1/2-z
1/2-x,1/2+y,1/2-z
-x,-y,-z
x,y,-z
1/2-x,1/2+y,1/2+z
1/2+x,1/2-y,1/2+z
loop_
_atom_site_type_symbol
_atom_site_label
_atom_site_fract_x
_atom_site_fract_y
_atom_site_fract_z
Si Si1 0.574883 0.822837 0.177034
Si Si2 0.420966 0.822834 0.824018
Si Si3 0.139791 0.843796 0.336353
Si Si4 0.789707 0.999812 0.176117
Si Si5 0.627100 0.334973 0.673241
Si Si6 0.991300 0.905813 0.336392
Si Si7 0.862653 0.497479 0.323635
O O1 0.497893 0.804078 0.229060
O O2 0.632028 0.753107 0.231027
O O3 0.598239 0.914954 0.241102
O O4 0.575798 0.824529 0.000000
O O5 0.365197 0.757347 0.754194
O O6 0.400937 0.917585 0.768571
O O7 0.415182 0.814024 0.000000
O O8 0.174646 0.844108 0.500000
O O9 0.176270 0.912354 0.232705
O O10 0.062285 0.863735 0.357289
O O11 0.713785 0.997672 0.235389
O O12 0.825616 0.912289 0.234840
O O13 0.794936 0.002794 0.000000
O O14 0.638977 0.321638 0.500000
O O15 0.550557 0.357944 0.711009
O O16 0.955104 0.905480 0.500000
O O17 0.000000 0.000000 0.272847
O O18 0.862048 0.494109 0.500000
#
# Coordination Sequence:
#
# PCOD8235565 Si02
#       7
#     8   8   8   8   8   8   8
#     4   9  17  32  57  86 105 127 175 232 276 308
#     4  10  19  35  60  84 103 132 182 234 273 311
#     4  10  19  32  55  84 109 136 173 223 271 315
#     4  10  22  37  51  76 113 149 180 208 257 331
#     4  11  22  33  51  80 114 147 175 213 271 330
#     4  10  18  31  52  79 109 138 178 225 266 309
#     4   9  19  36  57  78 105 141 181 226 267 312
#
# _framework density 20.087202999999999
#
# number of rings (size 3 to 8) (size 9 to 14) (size 15 to 20)
#    0.000    2.143    2.857    0.857    0.000    4.286 
#    0.000    2.143    0.000    4.286    0.000    0.000 
#    0.000    0.000    0.000    0.000    0.000    0.000 
#
# Total GULP energy -693746.822303 kJ/mol
# GULP energy per Si atom -12388.336113 kJ/mol
# Density = 2.004148 g / cm^3
# Si number density = 20.087203 Si / 1000 Ang^3
#
#
#
# Elastic Constant Matrix: (Units=GPa)
#
#
# Indices 1 2 3 4 5 6 
#
# 1 84.3641 44.1471 16.8527 0.0000 0.0000 0.0000
# 2 44.1471 176.6164 25.0873 0.0000 0.0000 0.0000
# 3 16.8527 25.0873 29.0670 0.0000 0.0000 0.0000
# 4 0.0000 0.0000 0.0000 25.3117 0.0000 0.0000
# 5 0.0000 0.0000 0.0000 0.0000 19.4429 0.0000
# 6 0.0000 0.0000 0.0000 0.0000 0.0000 21.8697
#
#
#
# Elastic Compliance Matrix: (Units=1/GPa)
#
#
# Indices 1 2 3 4 5 6 
#
# 1 0.014506 -0.002771 -0.006019 0.000000 0.000000 0.000000
# 2 -0.002771 0.006982 -0.004420 0.000000 0.000000 0.000000
# 3 -0.006019 -0.004420 0.041707 0.000000 0.000000 0.000000
# 4 0.000000 0.000000 0.000000 0.039507 0.000000 0.000000
# 5 0.000000 0.000000 0.000000 0.000000 0.051433 0.000000
# 6 0.000000 0.000000 0.000000 0.000000 0.000000 0.045725
#
#
# Mechanical properties :
#
#
# Convention : Reuss Voigt Hill
#
# Bulk Modulus (GPa) = 27.19114 51.35798 39.27456
# Shear Modulus (GPa) = 20.96096 26.92223 23.94160
#
# Velocity S-wave (km/s) = 3.23383 3.66494 3.45611
# Velocity P-wave (km/s) = 5.24494 6.59788 5.95993
#
# Compressibility (1/GPa) = 0.03677669
#
# Stress axis : x y z
#
# Youngs Moduli (GPa) = 68.93849 143.21658 23.97650
#
# Poissons Ratio (x) = 0.39684 0.14431
# Poissons Ratio (y) = 0.19102 0.10597
# Poissons Ratio (z) = 0.41492 0.63300
#
# Static dielectric constant tensor:
#      x y z
#    x 3.593820 0.000000 0.000000 
#    y 0.000000 4.151330 0.000000 
#    z 0.000000 0.000000 3.228760 
# 
# 
# High freq. dielectric constant tensor:
#      x y z
#    x 1.767770 0.000000 0.000000 
#    y 0.000000 1.814740 0.000000 
#    z 0.000000 0.000000 1.730970 
# 
# From -- ./inp_files/8985.got.cif
#   From: 2010.06.25/outbox.cif.g09.slc.cpg/sg58_5_cif.got.tgz:8985.got - 2010.06.26 21:38:00.
