data_PCOD8235305
_publ_section_title
;
Structure prediction by ZEFSAII (Michael W. Deem and Ramdas Pophale) SiO2 
 PCOD8235305
Probable space group: P N N M
;
_chemical_formula_sum "Si O2"
_cell_formula_units_Z 64
_cell_length_a 7.590966
_cell_length_b 18.599295
_cell_length_c 18.734694
_cell_angle_alpha 90.000000
_cell_angle_beta 90.000000
_cell_angle_gamma 90.000000
_cell_volume 2645.088047
_symmetry_space_group_name_H-M "P N N M"
_symmetry_group_IT_number 58
_symmetry_cell_setting 'orthorhombic'
loop_
_space_group_symop_operation_xyz
x,y,z
-x,-y,z
1/2+x,1/2-y,1/2-z
1/2-x,1/2+y,1/2-z
-x,-y,-z
x,y,-z
1/2-x,1/2+y,1/2+z
1/2+x,1/2-y,1/2+z
loop_
_atom_site_type_symbol
_atom_site_label
_atom_site_fract_x
_atom_site_fract_y
_atom_site_fract_z
Si Si1 0.195832 0.148666 0.181661
Si Si2 0.008361 0.148481 0.418734
Si Si3 0.005354 0.715920 0.199570
Si Si4 0.188535 0.589676 0.166386
Si Si5 0.870181 0.714009 0.350842
Si Si6 0.170890 0.948502 0.689229
Si Si7 0.326038 0.046287 0.080345
Si Si8 0.334783 0.416515 0.349337
O O1 0.208362 0.120451 0.262738
O O2 0.350822 0.119343 0.128624
O O3 0.159457 0.234834 0.176824
O O4 0.031135 0.111554 0.141392
O O5 0.954277 0.134024 0.500000
O O6 0.193496 0.109196 0.402206
O O7 0.033757 0.234108 0.407270
O O8 0.855479 0.114796 0.368579
O O9 0.002431 0.634767 0.163888
O O10 0.192456 0.750295 0.180453
O O11 0.010077 0.703514 0.285580
O O12 0.167053 0.503218 0.169476
O O13 0.806852 0.638662 0.385814
O O14 0.214441 0.913889 0.765110
O O15 0.000000 0.000000 0.693321
O O16 0.500000 0.000000 0.082445
O O17 0.178465 0.995156 0.116525
O O18 0.272012 0.067258 0.000000
#
# Coordination Sequence:
#
# PCOD8235305 Si02
#       8
#     8   8   8   8   8   8   8   8
#     4  11  19  39  63  86 127 171 219 271 324 399
#     4  10  19  34  55  88 130 170 213 275 339 385
#     4  10  19  36  57  91 122 167 213 273 323 384
#     4  10  19  33  60  90 124 164 218 278 326 390
#     4  10  21  33  57  89 125 164 221 271 327 398
#     4  10  17  33  56  86 122 164 216 271 326 389
#     4  11  26  42  59  93 134 170 214 274 344 409
#     4  11  20  34  63  92 123 173 219 274 324 404
#
# _framework density 24.195789999999999
#
# number of rings (size 3 to 8) (size 9 to 14) (size 15 to 20)
#    0.000    1.625    6.250    1.125    1.750    3.750 
#    0.000    5.000    0.000    0.000    0.000    3.500 
#    0.000   21.000    0.000    0.000    0.000    0.000 
#
# Total GULP energy -793058.615426 kJ/mol
# GULP energy per Si atom -12391.540866 kJ/mol
# Density = 2.414072 g / cm^3
# Si number density = 24.195790 Si / 1000 Ang^3
#
#
#
# Elastic Constant Matrix: (Units=GPa)
#
#
# Indices 1 2 3 4 5 6 
#
# 1 36.8984 0.1409 11.1177 0.0000 0.0000 0.0000
# 2 0.1409 153.6248 47.3275 0.0000 0.0000 0.0000
# 3 11.1177 47.3275 119.0858 0.0000 0.0000 0.0000
# 4 0.0000 0.0000 0.0000 26.9633 0.0000 0.0000
# 5 0.0000 0.0000 0.0000 0.0000 23.1238 0.0000
# 6 0.0000 0.0000 0.0000 0.0000 0.0000 32.3927
#
#
#
# Elastic Compliance Matrix: (Units=1/GPa)
#
#
# Indices 1 2 3 4 5 6 
#
# 1 0.027992 0.000888 -0.002966 0.000000 0.000000 0.000000
# 2 0.000888 0.007446 -0.003042 0.000000 0.000000 0.000000
# 3 -0.002966 -0.003042 0.009883 0.000000 0.000000 0.000000
# 4 0.000000 0.000000 0.000000 0.037087 0.000000 0.000000
# 5 0.000000 0.000000 0.000000 0.000000 0.043245 0.000000
# 6 0.000000 0.000000 0.000000 0.000000 0.000000 0.030871
#
#
# Mechanical properties :
#
#
# Convention : Reuss Voigt Hill
#
# Bulk Modulus (GPa) = 28.50589 47.42015 37.96302
# Shear Modulus (GPa) = 28.01771 33.23081 30.62426
#
# Velocity S-wave (km/s) = 3.40657 3.70998 3.56151
# Velocity P-wave (km/s) = 5.22301 6.16384 5.71283
#
# Compressibility (1/GPa) = 0.03508046
#
# Stress axis : x y z
#
# Youngs Moduli (GPa) = 35.72475 134.30550 101.18181
#
# Poissons Ratio (x) = -0.11928 0.30013
# Poissons Ratio (y) = -0.03173 0.30780
# Poissons Ratio (z) = 0.10597 0.40856
#
# Static dielectric constant tensor:
#      x y z
#    x 4.454250 0.000000 0.000000 
#    y 0.000000 5.379510 0.000000 
#    z 0.000000 0.000000 3.843420 
# 
# 
# High freq. dielectric constant tensor:
#      x y z
#    x 1.968480 0.000000 0.000000 
#    y 0.000000 1.991430 0.000000 
#    z 0.000000 0.000000 1.899210 
# 
# From -- ./inp_files/25663.got.cif
#   From: 2010.06.25/outbox.cif.g09.slc.cpg/sg58_13_cif.got.tgz:25663.got - 2010.06.26 21:38:00.
