data_PCOD8235019
_publ_section_title
;
Structure prediction by ZEFSAII (Michael W. Deem and Ramdas Pophale) SiO2 
 PCOD8235019
Probable space group: P B C M
;
_chemical_formula_sum "Si O2"
_cell_formula_units_Z 48
_cell_length_a 14.494465
_cell_length_b 9.439978
_cell_length_c 16.664012
_cell_angle_alpha 90.000000
_cell_angle_beta 90.000000
_cell_angle_gamma 90.000000
_cell_volume 2280.093947
_symmetry_space_group_name_H-M "P B C M"
_symmetry_group_IT_number 57
_symmetry_cell_setting 'orthorhombic'
loop_
_space_group_symop_operation_xyz
x,y,z
-x,-y,1/2+z
x,1/2-y,-z
-x,1/2+y,1/2-z
-x,-y,-z
x,y,1/2-z
-x,1/2+y,z
x,1/2-y,1/2+z
loop_
_atom_site_type_symbol
_atom_site_label
_atom_site_fract_x
_atom_site_fract_y
_atom_site_fract_z
Si Si1 0.469051 0.512415 0.591682
Si Si2 0.220931 0.867494 0.561262
Si Si3 0.093534 0.291493 0.908347
Si Si4 0.286520 0.381089 0.550079
Si Si5 0.600073 0.205909 0.157436
Si Si6 0.945100 0.009279 0.342890
O O1 0.500000 0.500000 0.500000
O O2 0.367945 0.443259 0.604940
O O3 0.464491 0.674709 0.618158
O O4 0.544100 0.439998 0.648976
O O5 0.181861 0.750000 0.500000
O O6 0.305008 0.798775 0.609387
O O7 0.142928 0.908115 0.623981
O O8 0.251095 0.005969 0.514117
O O9 0.201235 0.330397 0.894231
O O10 0.035628 0.431514 0.887350
O O11 0.063316 0.159459 0.853782
O O12 0.076815 0.250000 0.000000
O O13 0.327681 0.250000 0.500000
O O14 0.621225 0.237480 0.250000
O O15 0.953920 0.044493 0.250000
#
# Coordination Sequence:
#
# PCOD8235019 Si02
#       6
#     8   8   8   8   8   8
#     4  12  23  44  70  98 130 180 228 273 324 414
#     4  12  23  44  70  98 129 178 230 271 327 407
#     4  11  24  44  68  99 130 178 231 272 329 412
#     4  11  22  42  71  99 122 169 234 272 319 389
#     4  12  26  43  64 101 140 173 218 283 344 392
#     4  12  26  44  67 100 139 177 219 288 348 390
#
# _framework density 21.051765
#
# number of rings (size 3 to 8) (size 9 to 14) (size 15 to 20)
#    0.000    0.333    6.667    4.000    2.333    0.000 
#    0.000    3.333    0.000    0.000    0.000    0.000 
#    0.000    0.000    0.000    0.000    0.000    0.000 
#
# Total GULP energy -595510.759000 kJ/mol
# GULP energy per Si atom -12406.474146 kJ/mol
# Density = 2.100385 g / cm^3
# Si number density = 21.051765 Si / 1000 Ang^3
#
#
#
# Elastic Constant Matrix: (Units=GPa)
#
#
# Indices 1 2 3 4 5 6 
#
# 1 92.5109 12.7212 12.9115 0.0000 0.0000 0.0000
# 2 12.7212 91.8081 13.8445 0.0000 0.0000 0.0000
# 3 12.9115 13.8445 76.2409 0.0000 0.0000 0.0000
# 4 0.0000 0.0000 0.0000 32.1133 0.0000 0.0000
# 5 0.0000 0.0000 0.0000 0.0000 9.4258 0.0000
# 6 0.0000 0.0000 0.0000 0.0000 0.0000 43.1541
#
#
#
# Elastic Compliance Matrix: (Units=1/GPa)
#
#
# Indices 1 2 3 4 5 6 
#
# 1 0.011221 -0.001304 -0.001664 0.000000 0.000000 0.000000
# 2 -0.001304 0.011350 -0.001840 0.000000 0.000000 0.000000
# 3 -0.001664 -0.001840 0.013732 0.000000 0.000000 0.000000
# 4 0.000000 0.000000 0.000000 0.031140 0.000000 0.000000
# 5 0.000000 0.000000 0.000000 0.000000 0.106092 0.000000
# 6 0.000000 0.000000 0.000000 0.000000 0.000000 0.023173
#
#
# Mechanical properties :
#
#
# Convention : Reuss Voigt Hill
#
# Bulk Modulus (GPa) = 37.46976 37.72380 37.59678
# Shear Modulus (GPa) = 23.23207 31.67749 27.45478
#
# Velocity S-wave (km/s) = 3.32560 3.88331 3.61523
# Velocity P-wave (km/s) = 5.70821 6.16970 5.94344
#
# Compressibility (1/GPa) = 0.02668819
#
# Stress axis : x y z
#
# Youngs Moduli (GPa) = 89.11851 88.10207 72.82147
#
# Poissons Ratio (x) = 0.11488 0.12114
# Poissons Ratio (y) = 0.11621 0.13401
# Poissons Ratio (z) = 0.14825 0.16213
#
# Static dielectric constant tensor:
#      x y z
#    x 4.105930 0.000000 0.000000 
#    y 0.000000 4.175320 0.000000 
#    z 0.000000 0.000000 3.595080 
# 
# 
# High freq. dielectric constant tensor:
#      x y z
#    x 1.835480 0.000000 0.000000 
#    y 0.000000 1.844200 0.000000 
#    z 0.000000 0.000000 1.806900 
# 
# From -- ./inp_files/22412.got.cif
#   From: 2010.03.12/outbox.cif.g09.slc.cpg/sg57_12_cif.got.tgz:22412.got - 2010.04.16 15:48:40.
