data_PCOD8235980
_publ_section_title
;
Structure prediction by ZEFSAII (Michael W. Deem and Ramdas Pophale) SiO2 
 PCOD8235980
Probable space group: P N N M
;
_chemical_formula_sum "Si O2"
_cell_formula_units_Z 64
_cell_length_a 18.539338
_cell_length_b 21.411480
_cell_length_c 9.212757
_cell_angle_alpha 90.000000
_cell_angle_beta 90.000000
_cell_angle_gamma 90.000000
_cell_volume 3657.046867
_symmetry_space_group_name_H-M "P N N M"
_symmetry_group_IT_number 58
_symmetry_cell_setting 'orthorhombic'
loop_
_space_group_symop_operation_xyz
x,y,z
-x,-y,z
1/2+x,1/2-y,1/2-z
1/2-x,1/2+y,1/2-z
-x,-y,-z
x,y,-z
1/2-x,1/2+y,1/2+z
1/2+x,1/2-y,1/2+z
loop_
_atom_site_type_symbol
_atom_site_label
_atom_site_fract_x
_atom_site_fract_y
_atom_site_fract_z
Si Si1 0.874825 0.734397 0.336771
Si Si2 0.576939 0.345754 0.667010
Si Si3 0.674339 0.120391 0.329845
Si Si4 0.080847 0.798784 0.832331
Si Si5 0.035923 0.683731 0.663560
Si Si6 0.517272 0.070046 0.330669
Si Si7 0.577898 0.486843 0.670111
Si Si8 0.313957 0.409395 0.671173
O O1 0.843939 0.737114 0.500000
O O2 0.872346 0.802873 0.266521
O O3 0.825717 0.688886 0.241469
O O4 0.955948 0.710426 0.334231
O O5 0.591474 0.328424 0.500000
O O6 0.492458 0.336532 0.702936
O O7 0.600800 0.416043 0.702592
O O8 0.687121 0.127640 0.500000
O O9 0.600768 0.083553 0.295000
O O10 0.739555 0.082940 0.257256
O O11 0.147370 0.843670 0.792224
O O12 0.087270 0.734621 0.741184
O O13 0.082557 0.779374 0.000000
O O14 0.063840 0.673217 0.500000
O O15 0.035848 0.617425 0.746366
O O16 0.501109 0.079025 0.500000
O O17 0.500000 0.000000 0.278683
O O18 0.500000 0.500000 0.742558
O O19 0.571267 0.500424 0.500000
O O20 0.637253 0.534067 0.732673
O O21 0.299104 0.415427 0.500000
#
# Coordination Sequence:
#
# PCOD8235980 Si02
#       8
#     8   8   8   8   8   8   8   8
#     4   9  17  30  48  70  96 124 158 201 249 296
#     4   9  15  26  48  74  98 126 167 210 243 279
#     4  10  20  34  52  74  99 127 164 210 259 310
#     4   9  16  27  46  71  98 130 166 202 240 287
#     4   9  17  28  46  74 102 123 151 200 252 293
#     4   9  18  34  56  77  96 125 168 212 255 309
#     4   9  15  27  48  75 103 135 177 214 240 284
#     4  10  19  31  50  74 102 137 172 207 251 301
#
# _framework density 17.50046
#
# number of rings (size 3 to 8) (size 9 to 14) (size 15 to 20)
#    0.000    2.750    1.250    1.125    0.000    4.250 
#    0.000    0.625    2.750    0.750    0.000    0.000 
#    0.000    0.000    0.000    0.000    0.000    0.000 
#
# Total GULP energy -793526.237852 kJ/mol
# GULP energy per Si atom -12398.847466 kJ/mol
# Density = 1.746063 g / cm^3
# Si number density = 17.500460 Si / 1000 Ang^3
#
#
#
# Elastic Constant Matrix: (Units=GPa)
#
#
# Indices 1 2 3 4 5 6 
#
# 1 60.6993 39.9560 33.9743 0.0000 0.0000 0.0000
# 2 39.9560 119.6992 56.7860 0.0000 0.0000 0.0000
# 3 33.9743 56.7860 83.4510 0.0000 0.0000 0.0000
# 4 0.0000 0.0000 0.0000 21.0402 0.0000 0.0000
# 5 0.0000 0.0000 0.0000 0.0000 23.3451 0.0000
# 6 0.0000 0.0000 0.0000 0.0000 0.0000 22.1621
#
#
#
# Elastic Compliance Matrix: (Units=1/GPa)
#
#
# Indices 1 2 3 4 5 6 
#
# 1 0.023057 -0.004789 -0.006128 0.000000 0.000000 0.000000
# 2 -0.004789 0.013332 -0.007122 0.000000 0.000000 0.000000
# 3 -0.006128 -0.007122 0.019324 0.000000 0.000000 0.000000
# 4 0.000000 0.000000 0.000000 0.047528 0.000000 0.000000
# 5 0.000000 0.000000 0.000000 0.000000 0.042836 0.000000
# 6 0.000000 0.000000 0.000000 0.000000 0.000000 0.045122
#
#
# Mechanical properties :
#
#
# Convention : Reuss Voigt Hill
#
# Bulk Modulus (GPa) = 50.93094 58.36467 54.64780
# Shear Modulus (GPa) = 21.38377 22.18504 21.78441
#
# Velocity S-wave (km/s) = 3.49936 3.56432 3.53199
# Velocity P-wave (km/s) = 6.74486 7.09661 6.92297
#
# Compressibility (1/GPa) = 0.01963443
#
# Stress axis : x y z
#
# Youngs Moduli (GPa) = 43.37030 75.00903 51.74877
#
# Poissons Ratio (x) = 0.35926 0.31711
# Poissons Ratio (y) = 0.20772 0.36855
# Poissons Ratio (z) = 0.26577 0.53421
#
# Static dielectric constant tensor:
#      x y z
#    x 2.979000 0.000000 0.000000 
#    y 0.000000 3.329560 0.000000 
#    z 0.000000 0.000000 3.190150 
# 
# 
# High freq. dielectric constant tensor:
#      x y z
#    x 1.641890 0.000000 0.000000 
#    y 0.000000 1.679780 0.000000 
#    z 0.000000 0.000000 1.664600 
# 
# From -- ./inp_files/9417.got.cif
#   From: 2010.06.25/outbox.cif.g09.slc.cpg/sg58_5_cif.got.tgz:9417.got - 2010.06.26 21:38:00.
