data_PCOD8235275
_publ_section_title
;
Structure prediction by ZEFSAII (Michael W. Deem and Ramdas Pophale) SiO2 
 PCOD8235275
Probable space group: P N N M
;
_chemical_formula_sum "Si O2"
_cell_formula_units_Z 56
_cell_length_a 17.570117
_cell_length_b 5.088584
_cell_length_c 32.897960
_cell_angle_alpha 90.000000
_cell_angle_beta 90.000000
_cell_angle_gamma 90.000000
_cell_volume 2941.308444
_symmetry_space_group_name_H-M "P N N M"
_symmetry_group_IT_number 58
_symmetry_cell_setting 'orthorhombic'
loop_
_space_group_symop_operation_xyz
x,y,z
-x,-y,z
1/2+x,1/2-y,1/2-z
1/2-x,1/2+y,1/2-z
-x,-y,-z
x,y,-z
1/2-x,1/2+y,1/2+z
1/2+x,1/2-y,1/2+z
loop_
_atom_site_type_symbol
_atom_site_label
_atom_site_fract_x
_atom_site_fract_y
_atom_site_fract_z
Si Si1 0.145813 0.962334 0.177358
Si Si2 0.676143 0.498178 0.951638
Si Si3 0.588393 0.533593 0.411369
Si Si4 0.276970 0.062587 0.229182
Si Si5 0.348851 0.966056 0.547694
Si Si6 0.414092 0.003051 0.951481
Si Si7 0.087237 0.462534 0.777414
O O1 0.134668 0.007476 0.129922
O O2 0.116080 0.674558 0.189589
O O3 0.237141 0.992970 0.186053
O O4 0.099272 0.175372 0.203597
O O5 0.762611 0.507950 0.935938
O O6 0.633469 0.242780 0.934677
O O7 0.629053 0.743296 0.934399
O O8 0.676129 0.503226 0.000000
O O9 0.500000 0.500000 0.401977
O O10 0.618928 0.323287 0.443787
O O11 0.599712 0.823067 0.429211
O O12 0.265226 0.371393 0.238062
O O13 0.366578 0.995724 0.234573
O O14 0.353525 0.020545 0.500000
O O15 0.500000 0.000000 0.934355
O O16 0.415933 0.000309 0.000000
O O17 0.000000 0.500000 0.766338
#
# Coordination Sequence:
#
# PCOD8235275 Si02
#       7
#     8   8   8   8   8   8   8
#     4  10  20  34  50  75 109 140 171 214 260 309
#     4   9  17  30  46  65  93 124 153 192 248 311
#     4  12  24  37  55  76  98 133 179 227 283 330
#     4   8  16  29  47  72 105 140 169 198 239 291
#     4  11  24  40  55  72  98 134 178 229 281 337
#     4   9  15  24  43  72  98 116 138 176 231 296
#     4  10  17  29  51  79 110 141 173 209 247 292
#
# _framework density 19.039148000000001
#
# number of rings (size 3 to 8) (size 9 to 14) (size 15 to 20)
#    0.000    2.143    0.000    4.286    0.000    5.714 
#    0.000    0.000    0.000    0.000    0.000    6.000 
#    0.000    0.000    0.000    0.000    0.000    0.000 
#
# Total GULP energy -694220.054837 kJ/mol
# GULP energy per Si atom -12396.786694 kJ/mol
# Density = 1.899581 g / cm^3
# Si number density = 19.039148 Si / 1000 Ang^3
#
#
#
# Elastic Constant Matrix: (Units=GPa)
#
#
# Indices 1 2 3 4 5 6 
#
# 1 92.5295 23.3542 47.7889 0.0000 0.0000 0.0000
# 2 23.3542 105.4251 7.8626 0.0000 0.0000 0.0000
# 3 47.7889 7.8626 56.6231 0.0000 0.0000 0.0000
# 4 0.0000 0.0000 0.0000 15.6034 0.0000 0.0000
# 5 0.0000 0.0000 0.0000 0.0000 22.2819 0.0000
# 6 0.0000 0.0000 0.0000 0.0000 0.0000 33.3180
#
#
#
# Elastic Compliance Matrix: (Units=1/GPa)
#
#
# Indices 1 2 3 4 5 6 
#
# 1 0.020195 -0.003236 -0.016595 0.000000 0.000000 0.000000
# 2 -0.003236 0.010103 0.001328 0.000000 0.000000 0.000000
# 3 -0.016595 0.001328 0.031482 0.000000 0.000000 0.000000
# 4 0.000000 0.000000 0.000000 0.064088 0.000000 0.000000
# 5 0.000000 0.000000 0.000000 0.000000 0.044879 0.000000
# 6 0.000000 0.000000 0.000000 0.000000 0.000000 0.030014
#
#
# Mechanical properties :
#
#
# Convention : Reuss Voigt Hill
#
# Bulk Modulus (GPa) = 40.36354 45.84324 43.10339
# Shear Modulus (GPa) = 20.32315 25.94547 23.13431
#
# Velocity S-wave (km/s) = 3.27071 3.69554 3.48960
# Velocity P-wave (km/s) = 5.95901 6.50692 6.23898
#
# Compressibility (1/GPa) = 0.02477483
#
# Stress axis : x y z
#
# Youngs Moduli (GPa) = 49.51757 98.97855 31.76433
#
# Poissons Ratio (x) = 0.32029 0.52712
# Poissons Ratio (y) = 0.16024 -0.04219
# Poissons Ratio (z) = 0.82173 -0.13146
#
# Static dielectric constant tensor:
#      x y z
#    x 3.726330 0.000000 0.000000 
#    y 0.000000 3.701490 0.000000 
#    z 0.000000 0.000000 2.987870 
# 
# 
# High freq. dielectric constant tensor:
#      x y z
#    x 1.749280 0.000000 0.000000 
#    y 0.000000 1.764750 0.000000 
#    z 0.000000 0.000000 1.677620 
# 
# From -- ./inp_files/35023.got.cif
#   From: 2010.06.25/outbox.cif.g09.slc.cpg/sg58_18_cif.got.tgz:35023.got - 2010.06.26 21:38:00.
