data_PCOD8235026
_publ_section_title
;
Structure prediction by ZEFSAII (Michael W. Deem and Ramdas Pophale) SiO2 
 PCOD8235026
Probable space group: P B C M
;
_chemical_formula_sum "Si O2"
_cell_formula_units_Z 32
_cell_length_a 10.179799
_cell_length_b 18.173769
_cell_length_c 9.199787
_cell_angle_alpha 90.000000
_cell_angle_beta 90.000000
_cell_angle_gamma 90.000000
_cell_volume 1702.009496
_symmetry_space_group_name_H-M "P B C M"
_symmetry_group_IT_number 57
_symmetry_cell_setting 'orthorhombic'
loop_
_space_group_symop_operation_xyz
x,y,z
-x,-y,1/2+z
x,1/2-y,-z
-x,1/2+y,1/2-z
-x,-y,-z
x,y,1/2-z
-x,1/2+y,z
x,1/2-y,1/2+z
loop_
_atom_site_type_symbol
_atom_site_label
_atom_site_fract_x
_atom_site_fract_y
_atom_site_fract_z
Si Si1 0.486710 0.824527 0.420582
Si Si2 0.023648 0.425018 0.582736
Si Si3 0.264672 0.595811 0.084213
Si Si4 0.730274 0.925285 0.081572
O O1 0.528018 0.750000 0.500000
O O2 0.475305 0.809752 0.250000
O O3 0.347093 0.852674 0.478129
O O4 0.595718 0.885155 0.458852
O O5 0.056156 0.441246 0.750000
O O6 0.150497 0.386762 0.508525
O O7 0.000000 0.500000 0.500000
O O8 0.888117 0.378961 0.568812
O O9 0.312571 0.606904 0.250000
O O10 0.284238 0.510755 0.038130
O O11 0.766098 0.917079 0.250000
#
# Coordination Sequence:
#
# PCOD8235026 Si02
#       4
#     8   8   8   8
#     4  11  23  37  53  75 105 141 178 216 260 309
#     4   9  17  30  52  81 109 135 167 211 260 308
#     4   9  18  34  55  80 107 134 171 215 257 307
#     4   9  19  35  55  80 107 136 173 214 258 310
#
# _framework density 18.801304999999999
#
# number of rings (size 3 to 8) (size 9 to 14) (size 15 to 20)
#    0.000    2.500    0.000    3.750    0.000    7.000 
#    0.000    1.250    0.000    3.000    0.000    0.000 
#    0.000    0.000    0.000    0.000    0.000    0.000 
#
# Total GULP energy -396712.474410 kJ/mol
# GULP energy per Si atom -12397.264825 kJ/mol
# Density = 1.875851 g / cm^3
# Si number density = 18.801305 Si / 1000 Ang^3
#
#
#
# Elastic Constant Matrix: (Units=GPa)
#
#
# Indices 1 2 3 4 5 6 
#
# 1 95.2518 14.9382 50.3849 0.0000 0.0000 0.0000
# 2 14.9382 43.4484 22.1182 0.0000 0.0000 0.0000
# 3 50.3849 22.1182 93.1964 0.0000 0.0000 0.0000
# 4 0.0000 0.0000 0.0000 26.9034 0.0000 0.0000
# 5 0.0000 0.0000 0.0000 0.0000 39.5150 0.0000
# 6 0.0000 0.0000 0.0000 0.0000 0.0000 6.9968
#
#
#
# Elastic Compliance Matrix: (Units=1/GPa)
#
#
# Indices 1 2 3 4 5 6 
#
# 1 0.014754 -0.001151 -0.007703 0.000000 0.000000 0.000000
# 2 -0.001151 0.026268 -0.005612 0.000000 0.000000 0.000000
# 3 -0.007703 -0.005612 0.016226 0.000000 0.000000 0.000000
# 4 0.000000 0.000000 0.000000 0.037170 0.000000 0.000000
# 5 0.000000 0.000000 0.000000 0.000000 0.025307 0.000000
# 6 0.000000 0.000000 0.000000 0.000000 0.000000 0.142923
#
#
# Mechanical properties :
#
#
# Convention : Reuss Voigt Hill
#
# Bulk Modulus (GPa) = 35.31543 45.19771 40.25657
# Shear Modulus (GPa) = 16.61022 24.31338 20.46180
#
# Velocity S-wave (km/s) = 2.97553 3.59998 3.30255
# Velocity P-wave (km/s) = 5.53438 6.43208 6.00004
#
# Compressibility (1/GPa) = 0.02831624
#
# Stress axis : x y z
#
# Youngs Moduli (GPa) = 67.77957 38.06851 61.62777
#
# Poissons Ratio (x) = 0.04382 0.47473
# Poissons Ratio (y) = 0.07802 0.34585
# Poissons Ratio (z) = 0.52211 0.21364
#
# Static dielectric constant tensor:
#      x y z
#    x 4.136320 0.000000 0.000000 
#    y 0.000000 3.154090 0.000000 
#    z 0.000000 0.000000 3.601740 
# 
# 
# High freq. dielectric constant tensor:
#      x y z
#    x 1.746440 0.000000 0.000000 
#    y 0.000000 1.686760 0.000000 
#    z 0.000000 0.000000 1.738950 
# 
# From -- ./inp_files/1250.got.cif
#   From: 2010.03.12/outbox.cif.g09.slc.cpg/sg57_1_cif.got.tgz:1250.got - 2010.04.16 15:48:40.
