data_PCOD8235464
_publ_section_title
;
Structure prediction by ZEFSAII (Michael W. Deem and Ramdas Pophale) SiO2 
 PCOD8235464
Probable space group: P N N M
;
_chemical_formula_sum "Si O2"
_cell_formula_units_Z 44
_cell_length_a 15.402872
_cell_length_b 19.153622
_cell_length_c 7.888179
_cell_angle_alpha 90.000000
_cell_angle_beta 90.000000
_cell_angle_gamma 90.000000
_cell_volume 2327.176784
_symmetry_space_group_name_H-M "P N N M"
_symmetry_group_IT_number 58
_symmetry_cell_setting 'orthorhombic'
loop_
_space_group_symop_operation_xyz
x,y,z
-x,-y,z
1/2+x,1/2-y,1/2-z
1/2-x,1/2+y,1/2-z
-x,-y,-z
x,y,-z
1/2-x,1/2+y,1/2+z
1/2+x,1/2-y,1/2+z
loop_
_atom_site_type_symbol
_atom_site_label
_atom_site_fract_x
_atom_site_fract_y
_atom_site_fract_z
Si Si1 0.443010 0.431962 0.500000
Si Si2 0.749799 0.669190 0.809015
Si Si3 0.471835 0.080397 0.318828
Si Si4 0.054622 0.826482 0.303653
Si Si5 0.421936 0.794594 0.199559
Si Si6 0.594167 0.960580 0.000000
Si Si7 0.746627 0.068020 0.000000
O O1 0.500000 0.500000 0.500000
O O2 0.462826 0.389068 0.327602
O O3 0.344654 0.459618 0.500000
O O4 0.653712 0.701174 0.779970
O O5 0.826795 0.725912 0.776162
O O6 0.769764 0.609748 0.672402
O O7 0.755453 0.638841 0.000000
O O8 0.429640 0.100629 0.500000
O O9 0.552701 0.131387 0.283251
O O10 0.402118 0.088846 0.166736
O O11 0.500000 0.000000 0.325236
O O12 0.038507 0.850340 0.500000
O O13 0.991158 0.764141 0.250742
O O14 0.416027 0.804645 0.000000
O O15 0.500000 0.000000 0.000000
O O16 0.678892 0.006286 0.000000
#
# Coordination Sequence:
#
# PCOD8235464 Si02
#       7
#     4   8   8   8   8   4   4
#     4  10  22  42  66  86 107 147 198 245 289 337
#     4  10  19  34  55  82 111 149 194 235 277 342
#     4  10  20  31  47  76 113 153 188 221 265 333
#     4   9  22  39  58  87 117 146 191 241 287 341
#     4  11  20  35  58  83 115 158 190 231 287 335
#     4  10  18  30  48  74 112 144 179 228 269 324
#     4  10  20  36  58  82 114 151 193 235 280 345
#
# _framework density 18.907029999999999
#
# number of rings (size 3 to 8) (size 9 to 14) (size 15 to 20)
#    0.000    2.000    1.818    2.727    2.545    2.545 
#    0.000    1.818    0.000    2.182    0.000    0.000 
#    0.000    0.000    0.000    0.000    0.000    0.000 
#
# Total GULP energy -545076.480874 kJ/mol
# GULP energy per Si atom -12388.101838 kJ/mol
# Density = 1.886400 g / cm^3
# Si number density = 18.907030 Si / 1000 Ang^3
#
#
#
# Elastic Constant Matrix: (Units=GPa)
#
#
# Indices 1 2 3 4 5 6 
#
# 1 138.5111 67.8467 57.5107 0.0000 0.0000 0.0000
# 2 67.8467 75.2228 39.7899 0.0000 0.0000 0.0000
# 3 57.5107 39.7899 164.0333 0.0000 0.0000 0.0000
# 4 0.0000 0.0000 0.0000 19.0105 0.0000 0.0000
# 5 0.0000 0.0000 0.0000 0.0000 21.6122 0.0000
# 6 0.0000 0.0000 0.0000 0.0000 0.0000 31.8104
#
#
#
# Elastic Compliance Matrix: (Units=1/GPa)
#
#
# Indices 1 2 3 4 5 6 
#
# 1 0.013505 -0.011100 -0.002042 0.000000 0.000000 0.000000
# 2 -0.011100 0.024375 -0.002021 0.000000 0.000000 0.000000
# 3 -0.002042 -0.002021 0.007303 0.000000 0.000000 0.000000
# 4 0.000000 0.000000 0.000000 0.052602 0.000000 0.000000
# 5 0.000000 0.000000 0.000000 0.000000 0.046270 0.000000
# 6 0.000000 0.000000 0.000000 0.000000 0.000000 0.031436
#
#
# Mechanical properties :
#
#
# Convention : Reuss Voigt Hill
#
# Bulk Modulus (GPa) = 67.31600 78.67352 72.99476
# Shear Modulus (GPa) = 23.72261 28.66128 26.19194
#
# Velocity S-wave (km/s) = 3.54601 3.89769 3.72600
# Velocity P-wave (km/s) = 7.24200 7.87128 7.56319
#
# Compressibility (1/GPa) = 0.01485531
#
# Stress axis : x y z
#
# Youngs Moduli (GPa) = 74.04747 41.02624 136.93908
#
# Poissons Ratio (x) = 0.45541 0.27966
# Poissons Ratio (y) = 0.82195 0.27672
# Poissons Ratio (z) = 0.15122 0.08290
#
# Static dielectric constant tensor:
#      x y z
#    x 3.679020 0.000000 0.000000 
#    y 0.000000 3.039370 0.000000 
#    z 0.000000 0.000000 4.698540 
# 
# 
# High freq. dielectric constant tensor:
#      x y z
#    x 1.728600 0.000000 0.000000 
#    y 0.000000 1.684240 0.000000 
#    z 0.000000 0.000000 1.771770 
# 
# From -- ./inp_files/5721.got.cif
#   From: 2010.06.25/outbox.cif.g09.slc.cpg/sg58_3_cif.got.tgz:5721.got - 2010.06.26 21:38:00.
