data_PCOD8235614
_publ_section_title
;
Structure prediction by ZEFSAII (Michael W. Deem and Ramdas Pophale) SiO2 
 PCOD8235614
Probable space group: P N N M
;
_chemical_formula_sum "Si O2"
_cell_formula_units_Z 64
_cell_length_a 18.896370
_cell_length_b 22.997939
_cell_length_c 8.988336
_cell_angle_alpha 90.000000
_cell_angle_beta 90.000000
_cell_angle_gamma 90.000000
_cell_volume 3906.129169
_symmetry_space_group_name_H-M "P N N M"
_symmetry_group_IT_number 58
_symmetry_cell_setting 'orthorhombic'
loop_
_space_group_symop_operation_xyz
x,y,z
-x,-y,z
1/2+x,1/2-y,1/2-z
1/2-x,1/2+y,1/2-z
-x,-y,-z
x,y,-z
1/2-x,1/2+y,1/2+z
1/2+x,1/2-y,1/2+z
loop_
_atom_site_type_symbol
_atom_site_label
_atom_site_fract_x
_atom_site_fract_y
_atom_site_fract_z
Si Si1 0.335026 0.767801 0.327008
Si Si2 0.373209 0.439102 0.322894
Si Si3 0.753364 0.848094 0.825354
Si Si4 0.989868 0.762441 0.172702
Si Si5 0.281839 0.331001 0.672403
Si Si6 0.863340 0.285396 0.829608
Si Si7 0.504757 0.384415 0.174261
Si Si8 0.345534 0.559415 0.825194
O O1 0.324765 0.777349 0.500000
O O2 0.302864 0.705884 0.278007
O O3 0.417181 0.768929 0.279764
O O4 0.294203 0.820797 0.248740
O O5 0.379348 0.441200 0.500000
O O6 0.318579 0.389497 0.268503
O O7 0.450577 0.426919 0.257001
O O8 0.343620 0.498870 0.260173
O O9 0.672978 0.833502 0.775676
O O10 0.779410 0.904023 0.735654
O O11 0.756013 0.860964 0.000000
O O12 0.052432 0.715868 0.199577
O O13 0.003911 0.818875 0.270822
O O14 0.987425 0.782258 0.000000
O O15 0.266307 0.336187 0.500000
O O16 0.334592 0.278463 0.710563
O O17 0.845875 0.301195 0.000000
O O18 0.582889 0.406401 0.213359
O O19 0.488910 0.387313 0.000000
O O20 0.337036 0.548692 0.000000
#
# Coordination Sequence:
#
# PCOD8235614 Si02
#       8
#     8   8   8   8   8   8   8   8
#     4   9  18  30  49  73  98 126 162 203 243 288
#     4  11  22  36  52  70  95 134 174 207 243 290
#     4  10  19  32  50  72  97 128 166 205 243 290
#     4  10  18  32  51  73 100 133 167 198 242 294
#     4   9  18  32  49  69  95 128 163 199 245 290
#     4   9  17  31  50  70  98 129 160 201 245 290
#     4  11  22  33  47  70 101 133 168 206 242 284
#     4  11  23  36  49  70  99 133 170 208 248 289
#
# _framework density 16.384506999999999
#
# number of rings (size 3 to 8) (size 9 to 14) (size 15 to 20)
#    0.000    2.000    2.500    1.875    0.000    5.500 
#    0.000    0.000    0.000    0.000    0.000    0.875 
#    0.000    7.000    0.000    0.000    0.000    0.000 
#
# Total GULP energy -793755.791421 kJ/mol
# GULP energy per Si atom -12402.434241 kJ/mol
# Density = 1.634722 g / cm^3
# Si number density = 16.384507 Si / 1000 Ang^3
#
#
#
# Elastic Constant Matrix: (Units=GPa)
#
#
# Indices 1 2 3 4 5 6 
#
# 1 85.6296 23.1063 26.0635 0.0000 0.0000 0.0000
# 2 23.1063 50.3605 27.6300 0.0000 0.0000 0.0000
# 3 26.0635 27.6300 54.4726 0.0000 0.0000 0.0000
# 4 0.0000 0.0000 0.0000 27.8737 0.0000 0.0000
# 5 0.0000 0.0000 0.0000 0.0000 26.7030 0.0000
# 6 0.0000 0.0000 0.0000 0.0000 0.0000 21.8228
#
#
#
# Elastic Compliance Matrix: (Units=1/GPa)
#
#
# Indices 1 2 3 4 5 6 
#
# 1 0.014190 -0.003860 -0.004832 0.000000 0.000000 0.000000
# 2 -0.003860 0.028563 -0.012641 0.000000 0.000000 0.000000
# 3 -0.004832 -0.012641 0.027082 0.000000 0.000000 0.000000
# 4 0.000000 0.000000 0.000000 0.035876 0.000000 0.000000
# 5 0.000000 0.000000 0.000000 0.000000 0.037449 0.000000
# 6 0.000000 0.000000 0.000000 0.000000 0.000000 0.045824
#
#
# Mechanical properties :
#
#
# Convention : Reuss Voigt Hill
#
# Bulk Modulus (GPa) = 36.80593 38.22913 37.51753
# Shear Modulus (GPa) = 20.77217 22.85745 21.81481
#
# Velocity S-wave (km/s) = 3.56447 3.73911 3.65283
# Velocity P-wave (km/s) = 6.28118 6.48262 6.38270
#
# Compressibility (1/GPa) = 0.02716953
#
# Stress axis : x y z
#
# Youngs Moduli (GPa) = 70.46997 35.00990 36.92520
#
# Poissons Ratio (x) = 0.13513 0.17842
# Poissons Ratio (y) = 0.27200 0.46678
# Poissons Ratio (z) = 0.34050 0.44257
#
# Static dielectric constant tensor:
#      x y z
#    x 3.238920 0.000000 0.000000 
#    y 0.000000 2.926720 0.000000 
#    z 0.000000 0.000000 3.111370 
# 
# 
# High freq. dielectric constant tensor:
#      x y z
#    x 1.626640 0.000000 0.000000 
#    y 0.000000 1.602000 0.000000 
#    z 0.000000 0.000000 1.637860 
# 
# From -- ./inp_files/8276.got.cif
#   From: 2010.06.25/outbox.cif.g09.slc.cpg/sg58_5_cif.got.tgz:8276.got - 2010.06.26 21:38:00.
