data_PCOD8235367
_publ_section_title
;
Structure prediction by ZEFSAII (Michael W. Deem and Ramdas Pophale) SiO2 
 PCOD8235367
Probable space group: P N N M
;
_chemical_formula_sum "Si O2"
_cell_formula_units_Z 64
_cell_length_a 19.184098
_cell_length_b 22.956981
_cell_length_c 9.101912
_cell_angle_alpha 90.000000
_cell_angle_beta 90.000000
_cell_angle_gamma 90.000000
_cell_volume 4008.563719
_symmetry_space_group_name_H-M "P N N M"
_symmetry_group_IT_number 58
_symmetry_cell_setting 'orthorhombic'
loop_
_space_group_symop_operation_xyz
x,y,z
-x,-y,z
1/2+x,1/2-y,1/2-z
1/2-x,1/2+y,1/2-z
-x,-y,-z
x,y,-z
1/2-x,1/2+y,1/2+z
1/2+x,1/2-y,1/2+z
loop_
_atom_site_type_symbol
_atom_site_label
_atom_site_fract_x
_atom_site_fract_y
_atom_site_fract_z
Si Si1 0.842140 0.266328 0.325699
Si Si2 0.991217 0.116550 0.673070
Si Si3 0.372244 0.780030 0.328980
Si Si4 0.644399 0.569020 0.328289
Si Si5 0.004813 0.748818 0.327681
Si Si6 0.261389 0.348760 0.171071
Si Si7 0.621133 0.435988 0.328454
Si Si8 0.788004 0.830540 0.174194
O O1 0.846076 0.266389 0.500000
O O2 0.809245 0.205022 0.276506
O O3 0.791376 0.318720 0.268874
O O4 0.920406 0.272513 0.262979
O O5 0.987258 0.106212 0.500000
O O6 0.006711 0.183515 0.711980
O O7 0.050774 0.075715 0.739907
O O8 0.918099 0.098942 0.741857
O O9 0.388433 0.773950 0.500000
O O10 0.445105 0.790396 0.246434
O O11 0.319775 0.833762 0.298992
O O12 0.338119 0.720579 0.266465
O O13 0.635663 0.581621 0.500000
O O14 0.716907 0.595603 0.268273
O O15 0.647098 0.500538 0.295241
O O16 0.001109 0.738343 0.500000
O O17 0.273601 0.362578 0.000000
O O18 0.604743 0.426176 0.500000
O O19 0.682718 0.392774 0.273174
O O20 0.786652 0.826033 0.000000
#
# Coordination Sequence:
#
# PCOD8235367 Si02
#       8
#     8   8   8   8   8   8   8   8
#     4   8  14  27  46  66  87 114 148 185 228 270
#     4  11  21  32  45  64  94 129 161 190 220 265
#     4   9  17  29  49  69  88 119 153 184 226 276
#     4  11  22  32  45  66  93 124 157 195 232 264
#     4  10  18  28  45  69  95 119 146 185 226 269
#     4   9  17  32  49  66  89 119 156 190 222 273
#     4  10  20  33  47  66  91 121 160 197 228 269
#     4   8  14  27  47  65  84 114 150 188 226 267
#
# _framework density 15.965819
#
# number of rings (size 3 to 8) (size 9 to 14) (size 15 to 20)
#    0.000    2.500    2.500    2.625    0.000    3.500 
#    0.000    0.000    0.000    0.750    0.000    0.875 
#    0.000    7.000    0.000    0.000    0.000    0.000 
#
# Total GULP energy -793337.085736 kJ/mol
# GULP energy per Si atom -12395.891965 kJ/mol
# Density = 1.592948 g / cm^3
# Si number density = 15.965819 Si / 1000 Ang^3
#
#
#
# Elastic Constant Matrix: (Units=GPa)
#
#
# Indices 1 2 3 4 5 6 
#
# 1 102.6433 25.4382 24.9080 0.0000 0.0000 0.0000
# 2 25.4382 45.2911 23.5265 0.0000 0.0000 0.0000
# 3 24.9080 23.5265 38.7463 0.0000 0.0000 0.0000
# 4 0.0000 0.0000 0.0000 13.7136 0.0000 0.0000
# 5 0.0000 0.0000 0.0000 0.0000 25.1177 0.0000
# 6 0.0000 0.0000 0.0000 0.0000 0.0000 21.8409
#
#
#
# Elastic Compliance Matrix: (Units=1/GPa)
#
#
# Indices 1 2 3 4 5 6 
#
# 1 0.012019 -0.003998 -0.005299 0.000000 0.000000 0.000000
# 2 -0.003998 0.033582 -0.017820 0.000000 0.000000 0.000000
# 3 -0.005299 -0.017820 0.040036 0.000000 0.000000 0.000000
# 4 0.000000 0.000000 0.000000 0.072920 0.000000 0.000000
# 5 0.000000 0.000000 0.000000 0.000000 0.039813 0.000000
# 6 0.000000 0.000000 0.000000 0.000000 0.000000 0.045786
#
#
# Mechanical properties :
#
#
# Convention : Reuss Voigt Hill
#
# Bulk Modulus (GPa) = 31.84530 37.15845 34.50187
# Shear Modulus (GPa) = 16.18868 19.65496 17.92182
#
# Velocity S-wave (km/s) = 3.18773 3.51246 3.35403
# Velocity P-wave (km/s) = 5.79120 6.30667 6.05443
#
# Compressibility (1/GPa) = 0.03140181
#
# Stress axis : x y z
#
# Youngs Moduli (GPa) = 83.20013 29.77795 24.97765
#
# Poissons Ratio (x) = 0.11906 0.13235
# Poissons Ratio (y) = 0.33265 0.44511
# Poissons Ratio (z) = 0.44086 0.53066
#
# Static dielectric constant tensor:
#      x y z
#    x 3.312350 0.000000 0.000000 
#    y 0.000000 2.960160 0.000000 
#    z 0.000000 0.000000 2.808780 
# 
# 
# High freq. dielectric constant tensor:
#      x y z
#    x 1.615690 0.000000 0.000000 
#    y 0.000000 1.584910 0.000000 
#    z 0.000000 0.000000 1.594460 
# 
# From -- ./inp_files/8488.got.cif
#   From: 2010.06.25/outbox.cif.g09.slc.cpg/sg58_5_cif.got.tgz:8488.got - 2010.06.26 21:38:00.
