data_PCOD8235430
_publ_section_title
;
Structure prediction by ZEFSAII (Michael W. Deem and Ramdas Pophale) SiO2 
 PCOD8235430
Probable space group: P N N M
;
_chemical_formula_sum "Si O2"
_cell_formula_units_Z 64
_cell_length_a 8.769962
_cell_length_b 23.928830
_cell_length_c 18.669287
_cell_angle_alpha 90.000000
_cell_angle_beta 90.000000
_cell_angle_gamma 90.000000
_cell_volume 3917.841913
_symmetry_space_group_name_H-M "P N N M"
_symmetry_group_IT_number 58
_symmetry_cell_setting 'orthorhombic'
loop_
_space_group_symop_operation_xyz
x,y,z
-x,-y,z
1/2+x,1/2-y,1/2-z
1/2-x,1/2+y,1/2-z
-x,-y,-z
x,y,-z
1/2-x,1/2+y,1/2+z
1/2+x,1/2-y,1/2+z
loop_
_atom_site_type_symbol
_atom_site_label
_atom_site_fract_x
_atom_site_fract_y
_atom_site_fract_z
Si Si1 0.343169 0.475090 0.582757
Si Si2 0.860495 0.420132 0.581993
Si Si3 0.660471 0.118814 0.150139
Si Si4 0.356479 0.289898 0.920350
Si Si5 0.284916 0.819226 0.283843
Si Si6 0.180005 0.258562 0.582812
Si Si7 0.936568 0.243121 0.181626
Si Si8 0.349132 0.682079 0.419121
O O1 0.500000 0.500000 0.615084
O O2 0.369418 0.460512 0.500000
O O3 0.204422 0.518077 0.593230
O O4 0.302057 0.417512 0.621988
O O5 0.916422 0.411247 0.500000
O O6 0.727229 0.376662 0.600623
O O7 0.002506 0.412565 0.634719
O O8 0.685386 0.125788 0.235987
O O9 0.655797 0.179648 0.114481
O O10 0.280614 0.332937 0.863307
O O11 0.534235 0.280591 0.904983
O O12 0.277677 0.229852 0.912719
O O13 0.331210 0.314733 0.000000
O O14 0.446418 0.788215 0.289026
O O15 0.156276 0.779945 0.248915
O O16 0.221283 0.263872 0.500000
O O17 0.318647 0.228744 0.625142
O O18 0.018050 0.192560 0.138437
O O19 0.416418 0.680372 0.500000
#
# Coordination Sequence:
#
# PCOD8235430 Si02
#       8
#     8   8   8   8   8   8   8   8
#     4  10  22  35  48  69  97 128 167 211 244 272
#     4  10  19  32  50  68  92 129 168 200 236 275
#     4  11  20  32  48  67  97 130 168 202 236 290
#     4   9  17  33  50  68  95 124 161 199 238 289
#     4  10  21  32  45  68  93 129 161 200 247 289
#     4  10  18  29  49  71  93 128 167 199 232 282
#     4  10  20  29  43  63  99 123 161 203 237 283
#     4   9  17  29  47  69  91 125 166 198 230 277
#
# _framework density 16.335523999999999
#
# number of rings (size 3 to 8) (size 9 to 14) (size 15 to 20)
#    0.000    2.125    1.250    3.375    5.250    1.500 
#    0.000    0.000    0.000    0.000    0.000    0.000 
#    0.000    2.500    0.000    0.000    0.000    0.125 
#
# Total GULP energy -793458.648360 kJ/mol
# GULP energy per Si atom -12397.791381 kJ/mol
# Density = 1.629834 g / cm^3
# Si number density = 16.335524 Si / 1000 Ang^3
#
#
#
# Elastic Constant Matrix: (Units=GPa)
#
#
# Indices 1 2 3 4 5 6 
#
# 1 93.5254 18.6848 48.5583 0.0000 0.0000 0.0000
# 2 18.6848 41.3714 31.3922 0.0000 0.0000 0.0000
# 3 48.5583 31.3922 104.7702 0.0000 0.0000 0.0000
# 4 0.0000 0.0000 0.0000 22.5011 0.0000 0.0000
# 5 0.0000 0.0000 0.0000 0.0000 34.0021 0.0000
# 6 0.0000 0.0000 0.0000 0.0000 0.0000 19.7911
#
#
#
# Elastic Compliance Matrix: (Units=1/GPa)
#
#
# Indices 1 2 3 4 5 6 
#
# 1 0.014187 -0.001835 -0.006026 0.000000 0.000000 0.000000
# 2 -0.001835 0.031521 -0.008594 0.000000 0.000000 0.000000
# 3 -0.006026 -0.008594 0.014912 0.000000 0.000000 0.000000
# 4 0.000000 0.000000 0.000000 0.044442 0.000000 0.000000
# 5 0.000000 0.000000 0.000000 0.000000 0.029410 0.000000
# 6 0.000000 0.000000 0.000000 0.000000 0.000000 0.050528
#
#
# Mechanical properties :
#
#
# Convention : Reuss Voigt Hill
#
# Bulk Modulus (GPa) = 36.08659 48.54863 42.31761
# Shear Modulus (GPa) = 22.01205 24.66097 23.33651
#
# Velocity S-wave (km/s) = 3.67481 3.88964 3.78375
# Velocity P-wave (km/s) = 6.33596 7.06800 6.71197
#
# Compressibility (1/GPa) = 0.02771112
#
# Stress axis : x y z
#
# Youngs Moduli (GPa) = 70.48486 31.72458 67.05813
#
# Poissons Ratio (x) = 0.05823 0.40406
# Poissons Ratio (y) = 0.12937 0.57630
# Poissons Ratio (z) = 0.42471 0.27264
#
# Static dielectric constant tensor:
#      x y z
#    x 3.307030 0.000000 0.000000 
#    y 0.000000 2.726670 0.000000 
#    z 0.000000 0.000000 3.316030 
# 
# 
# High freq. dielectric constant tensor:
#      x y z
#    x 1.652130 0.000000 0.000000 
#    y 0.000000 1.574370 0.000000 
#    z 0.000000 0.000000 1.620110 
# 
# From -- ./inp_files/27669.got.cif
#   From: 2010.06.25/outbox.cif.g09.slc.cpg/sg58_14_cif.got.tgz:27669.got - 2010.06.26 21:38:00.
