data_PCOD8235152
_publ_section_title
;
Structure prediction by ZEFSAII (Michael W. Deem and Ramdas Pophale) SiO2 
 PCOD8235152
Probable space group: P B C M
;
_chemical_formula_sum "Si O2"
_cell_formula_units_Z 32
_cell_length_a 15.349103
_cell_length_b 9.540491
_cell_length_c 9.929335
_cell_angle_alpha 90.000000
_cell_angle_beta 90.000000
_cell_angle_gamma 90.000000
_cell_volume 1454.031751
_symmetry_space_group_name_H-M "P B C M"
_symmetry_group_IT_number 57
_symmetry_cell_setting 'orthorhombic'
loop_
_space_group_symop_operation_xyz
x,y,z
-x,-y,1/2+z
x,1/2-y,-z
-x,1/2+y,1/2-z
-x,-y,-z
x,y,1/2-z
-x,1/2+y,z
x,1/2-y,1/2+z
loop_
_atom_site_type_symbol
_atom_site_label
_atom_site_fract_x
_atom_site_fract_y
_atom_site_fract_z
Si Si1 0.103943 0.822632 0.750000
Si Si2 0.219942 0.750000 0.000000
Si Si3 0.691881 0.970176 0.970058
Si Si4 0.395380 0.436009 0.250000
Si Si5 0.439861 0.121701 0.250000
Si Si6 0.167926 0.250000 0.000000
Si Si7 0.060662 0.363005 0.250000
O O1 0.162320 0.816633 0.882802
O O2 0.037192 0.694220 0.750000
O O3 0.052442 0.969153 0.750000
O O4 0.281361 0.629329 0.938890
O O5 0.608026 0.932281 0.882859
O O6 0.772233 0.869630 0.932547
O O7 0.669220 0.947337 0.125185
O O8 0.447047 0.289556 0.250000
O O9 0.462510 0.564120 0.250000
O O10 0.108450 0.313147 0.116045
#
# Coordination Sequence:
#
# PCOD8235152 Si02
#       7
#     4   4   8   4   4   4   4
#     4  12  28  48  66 107 139 181 227 283 341 414
#     4  12  27  46  73 100 140 176 234 284 337 404
#     4  12  25  45  71  98 133 179 228 279 337 402
#     4  12  26  45  68  99 141 174 227 279 339 408
#     4  12  26  44  68 101 135 181 223 277 345 404
#     4  12  23  48  73  98 134 186 226 288 337 404
#     4  12  28  45  72 101 143 178 229 281 347 408
#
# _framework density 22.007771999999999
#
# number of rings (size 3 to 8) (size 9 to 14) (size 15 to 20)
#    0.000    0.000    5.000    4.500    7.000    2.000 
#    0.000    0.000    0.000    0.000    0.000    0.000 
#    0.000    0.000    0.000    0.000    0.000    0.000 
#
# Total GULP energy -397136.984937 kJ/mol
# GULP energy per Si atom -12410.530779 kJ/mol
# Density = 2.195768 g / cm^3
# Si number density = 22.007772 Si / 1000 Ang^3
#
#
#
# Elastic Constant Matrix: (Units=GPa)
#
#
# Indices 1 2 3 4 5 6 
#
# 1 62.5018 21.2142 8.1111 0.0000 0.0000 0.0000
# 2 21.2142 155.2047 2.0364 0.0000 0.0000 0.0000
# 3 8.1111 2.0364 108.9473 0.0000 0.0000 0.0000
# 4 0.0000 0.0000 0.0000 35.6153 0.0000 0.0000
# 5 0.0000 0.0000 0.0000 0.0000 18.8679 0.0000
# 6 0.0000 0.0000 0.0000 0.0000 0.0000 48.5135
#
#
#
# Elastic Compliance Matrix: (Units=1/GPa)
#
#
# Indices 1 2 3 4 5 6 
#
# 1 0.016938 -0.002299 -0.001218 0.000000 0.000000 0.000000
# 2 -0.002299 0.006757 0.000045 0.000000 0.000000 0.000000
# 3 -0.001218 0.000045 0.009269 0.000000 0.000000 0.000000
# 4 0.000000 0.000000 0.000000 0.028078 0.000000 0.000000
# 5 0.000000 0.000000 0.000000 0.000000 0.053000 0.000000
# 6 0.000000 0.000000 0.000000 0.000000 0.000000 0.020613
#
#
# Mechanical properties :
#
#
# Convention : Reuss Voigt Hill
#
# Bulk Modulus (GPa) = 38.43401 43.26415 40.84908
# Shear Modulus (GPa) = 33.27307 40.28547 36.77927
#
# Velocity S-wave (km/s) = 3.89251 4.28309 4.09246
# Velocity P-wave (km/s) = 6.14035 6.64538 6.39785
#
# Compressibility (1/GPa) = 0.02601862
#
# Stress axis : x y z
#
# Youngs Moduli (GPa) = 59.03890 147.99948 107.89118
#
# Poissons Ratio (x) = 0.34028 0.13142
# Poissons Ratio (y) = 0.13574 -0.00484
# Poissons Ratio (z) = 0.07191 -0.00664
#
# Static dielectric constant tensor:
#      x y z
#    x 3.876460 0.000000 0.000000 
#    y 0.000000 4.324080 0.000000 
#    z 0.000000 0.000000 4.028760 
# 
# 
# High freq. dielectric constant tensor:
#      x y z
#    x 1.867360 0.000000 0.000000 
#    y 0.000000 1.884580 0.000000 
#    z 0.000000 0.000000 1.878500 
# 
# From -- ./inp_files/13489.got.cif
#   From: 2010.03.12/outbox.cif.g09.slc.cpg/sg57_7_cif.got.tgz:13489.got - 2010.04.16 15:48:40.
