data_PCOD8235840
_publ_section_title
;
Structure prediction by ZEFSAII (Michael W. Deem and Ramdas Pophale) SiO2 
 PCOD8235840
Probable space group: P N N M
;
_chemical_formula_sum "Si O2"
_cell_formula_units_Z 64
_cell_length_a 21.371924
_cell_length_b 18.641182
_cell_length_c 9.220131
_cell_angle_alpha 90.000000
_cell_angle_beta 90.000000
_cell_angle_gamma 90.000000
_cell_volume 3673.281058
_symmetry_space_group_name_H-M "P N N M"
_symmetry_group_IT_number 58
_symmetry_cell_setting 'orthorhombic'
loop_
_space_group_symop_operation_xyz
x,y,z
-x,-y,z
1/2+x,1/2-y,1/2-z
1/2-x,1/2+y,1/2-z
-x,-y,-z
x,y,-z
1/2-x,1/2+y,1/2+z
1/2+x,1/2-y,1/2+z
loop_
_atom_site_type_symbol
_atom_site_label
_atom_site_fract_x
_atom_site_fract_y
_atom_site_fract_z
Si Si1 0.255843 0.626451 0.659254
Si Si2 0.355339 0.080118 0.668234
Si Si3 0.112638 0.180903 0.170675
Si Si4 0.192968 0.421567 0.169833
Si Si5 0.020692 0.577604 0.331935
Si Si6 0.903045 0.676849 0.330384
Si Si7 0.433987 0.527419 0.672725
Si Si8 0.692700 0.533173 0.338439
O O1 0.230245 0.648013 0.500000
O O2 0.199747 0.631893 0.774131
O O3 0.312960 0.678114 0.704128
O O4 0.282307 0.546914 0.651580
O O5 0.362700 0.094547 0.500000
O O6 0.418969 0.103662 0.744922
O O7 0.339990 0.997380 0.703408
O O8 0.084133 0.245215 0.263949
O O9 0.078782 0.108425 0.226478
O O10 0.100634 0.193277 0.000000
O O11 0.155034 0.359765 0.250079
O O12 0.264060 0.420758 0.230184
O O13 0.195061 0.404815 0.000000
O O14 0.039060 0.572836 0.500000
O O15 0.000000 0.500000 0.273272
O O16 0.965662 0.632758 0.301035
O O17 0.887434 0.681619 0.500000
O O18 0.500000 0.500000 0.737082
O O19 0.434458 0.527770 0.500000
O O20 0.378591 0.472680 0.722533
O O21 0.694423 0.567797 0.500000
#
# Coordination Sequence:
#
# PCOD8235840 Si02
#       8
#     8   8   8   8   8   8   8   8
#     4   8  15  29  49  70  95 127 159 195 244 302
#     4  10  19  29  48  76 101 125 162 215 257 290
#     4   9  18  33  53  77 103 132 167 210 260 309
#     4  10  19  30  46  71 101 130 163 207 258 300
#     4  10  20  34  50  70  99 138 180 214 252 309
#     4  11  22  34  51  72  98 136 176 215 257 309
#     4   8  14  28  54  83 105 130 168 210 252 304
#     4   8  14  26  47  74  99 124 159 199 241 293
#
# _framework density 17.423117000000001
#
# number of rings (size 3 to 8) (size 9 to 14) (size 15 to 20)
#    0.000    2.750    1.250    2.625    0.000    2.750 
#    0.000    1.875    2.750    1.500    0.000    0.000 
#    0.000    0.000    0.000    0.000    0.000    0.000 
#
# Total GULP energy -793438.842126 kJ/mol
# GULP energy per Si atom -12397.481908 kJ/mol
# Density = 1.738346 g / cm^3
# Si number density = 17.423117 Si / 1000 Ang^3
#
#
#
# Elastic Constant Matrix: (Units=GPa)
#
#
# Indices 1 2 3 4 5 6 
#
# 1 135.3433 43.6440 59.8553 0.0000 0.0000 0.0000
# 2 43.6440 69.0897 39.1758 0.0000 0.0000 0.0000
# 3 59.8553 39.1758 75.5974 0.0000 0.0000 0.0000
# 4 0.0000 0.0000 0.0000 21.8894 0.0000 0.0000
# 5 0.0000 0.0000 0.0000 0.0000 15.3309 0.0000
# 6 0.0000 0.0000 0.0000 0.0000 0.0000 21.7907
#
#
#
# Elastic Compliance Matrix: (Units=1/GPa)
#
#
# Indices 1 2 3 4 5 6 
#
# 1 0.011809 -0.003056 -0.007766 0.000000 0.000000 0.000000
# 2 -0.003056 0.021288 -0.008612 0.000000 0.000000 0.000000
# 3 -0.007766 -0.008612 0.023840 0.000000 0.000000 0.000000
# 4 0.000000 0.000000 0.000000 0.045684 0.000000 0.000000
# 5 0.000000 0.000000 0.000000 0.000000 0.065228 0.000000
# 6 0.000000 0.000000 0.000000 0.000000 0.000000 0.045891
#
#
# Mechanical properties :
#
#
# Convention : Reuss Voigt Hill
#
# Bulk Modulus (GPa) = 55.34639 62.82007 59.08323
# Shear Modulus (GPa) = 19.33268 20.95922 20.14595
#
# Velocity S-wave (km/s) = 3.33468 3.47213 3.40410
# Velocity P-wave (km/s) = 6.83095 7.22552 7.03100
#
# Compressibility (1/GPa) = 0.01806802
#
# Stress axis : x y z
#
# Youngs Moduli (GPa) = 84.68451 46.97565 41.94702
#
# Poissons Ratio (x) = 0.14356 0.32576
# Poissons Ratio (y) = 0.25879 0.36125
# Poissons Ratio (z) = 0.65765 0.40455
#
# Static dielectric constant tensor:
#      x y z
#    x 3.499470 0.000000 0.000000 
#    y 0.000000 2.977590 0.000000 
#    z 0.000000 0.000000 3.154080 
# 
# 
# High freq. dielectric constant tensor:
#      x y z
#    x 1.677460 0.000000 0.000000 
#    y 0.000000 1.638180 0.000000 
#    z 0.000000 0.000000 1.662430 
# 
# From -- ./inp_files/9433.got.cif
#   From: 2010.06.25/outbox.cif.g09.slc.cpg/sg58_5_cif.got.tgz:9433.got - 2010.06.26 21:38:00.
