data_PCOD8235694
_publ_section_title
;
Structure prediction by ZEFSAII (Michael W. Deem and Ramdas Pophale) SiO2 
 PCOD8235694
Probable space group: P N N M
;
_chemical_formula_sum "Si O2"
_cell_formula_units_Z 64
_cell_length_a 12.334516
_cell_length_b 29.810608
_cell_length_c 9.023083
_cell_angle_alpha 90.000000
_cell_angle_beta 90.000000
_cell_angle_gamma 90.000000
_cell_volume 3317.782398
_symmetry_space_group_name_H-M "P N N M"
_symmetry_group_IT_number 58
_symmetry_cell_setting 'orthorhombic'
loop_
_space_group_symop_operation_xyz
x,y,z
-x,-y,z
1/2+x,1/2-y,1/2-z
1/2-x,1/2+y,1/2-z
-x,-y,-z
x,y,-z
1/2-x,1/2+y,1/2+z
1/2+x,1/2-y,1/2+z
loop_
_atom_site_type_symbol
_atom_site_label
_atom_site_fract_x
_atom_site_fract_y
_atom_site_fract_z
Si Si1 0.388210 0.848918 0.169164
Si Si2 0.551216 0.774483 0.171163
Si Si3 0.014604 0.185709 0.176693
Si Si4 0.531481 0.067779 0.674657
Si Si5 0.748398 0.836719 0.824154
Si Si6 0.763406 0.529869 0.327840
Si Si7 0.812310 0.434633 0.672040
Si Si8 0.656176 0.617321 0.672286
O O1 0.435480 0.799220 0.192574
O O2 0.454770 0.880616 0.278771
O O3 0.260929 0.851486 0.207085
O O4 0.409608 0.864652 0.000000
O O5 0.546524 0.729437 0.264725
O O6 0.649405 0.805751 0.232339
O O7 0.571783 0.762507 0.000000
O O8 0.948686 0.142302 0.240214
O O9 0.137667 0.182614 0.236794
O O10 0.011692 0.187512 0.000000
O O11 0.533870 0.062473 0.500000
O O12 0.624904 0.037341 0.743073
O O13 0.417052 0.051130 0.735594
O O14 0.737663 0.888157 0.766685
O O15 0.749506 0.837289 0.000000
O O16 0.784157 0.541140 0.500000
O O17 0.729389 0.477369 0.307758
O O18 0.674432 0.566175 0.266630
O O19 0.843978 0.429050 0.500000
O O20 0.634182 0.614007 0.500000
#
# Coordination Sequence:
#
# PCOD8235694 Si02
#       8
#     8   8   8   8   8   8   8   8
#     4   9  17  33  54  72  99 139 175 208 251 310
#     4  10  20  35  55  76 103 137 175 213 256 317
#     4  10  21  36  55  77 106 137 170 219 270 308
#     4  11  20  29  46  77 113 138 164 214 267 305
#     4   9  19  36  55  77 105 137 172 217 265 308
#     4   9  18  32  53  75 100 141 185 212 249 318
#     4  10  18  33  54  73 100 143 183 211 254 316
#     4   8  16  32  52  76 103 133 171 215 257 300
#
# _framework density 19.289994
#
# number of rings (size 3 to 8) (size 9 to 14) (size 15 to 20)
#    0.000    2.500    1.250    2.250    1.750    2.500 
#    0.000    3.750    0.000    3.750    0.000    0.000 
#    0.000    6.000    0.000    0.000    0.000    0.000 
#
# Total GULP energy -793041.643782 kJ/mol
# GULP energy per Si atom -12391.275684 kJ/mol
# Density = 1.924609 g / cm^3
# Si number density = 19.289994 Si / 1000 Ang^3
#
#
#
# Elastic Constant Matrix: (Units=GPa)
#
#
# Indices 1 2 3 4 5 6 
#
# 1 84.6108 49.5499 12.0463 0.0000 0.0000 0.0000
# 2 49.5499 138.2338 20.0128 0.0000 0.0000 0.0000
# 3 12.0463 20.0128 43.9050 0.0000 0.0000 0.0000
# 4 0.0000 0.0000 0.0000 20.0654 0.0000 0.0000
# 5 0.0000 0.0000 0.0000 0.0000 9.0232 0.0000
# 6 0.0000 0.0000 0.0000 0.0000 0.0000 20.2396
#
#
#
# Elastic Compliance Matrix: (Units=1/GPa)
#
#
# Indices 1 2 3 4 5 6 
#
# 1 0.015090 -0.005149 -0.001793 0.000000 0.000000 0.000000
# 2 -0.005149 0.009502 -0.002919 0.000000 0.000000 0.000000
# 3 -0.001793 -0.002919 0.024599 0.000000 0.000000 0.000000
# 4 0.000000 0.000000 0.000000 0.049837 0.000000 0.000000
# 5 0.000000 0.000000 0.000000 0.000000 0.110825 0.000000
# 6 0.000000 0.000000 0.000000 0.000000 0.000000 0.049408
#
#
# Mechanical properties :
#
#
# Convention : Reuss Voigt Hill
#
# Bulk Modulus (GPa) = 33.93392 47.77417 40.85405
# Shear Modulus (GPa) = 17.31268 22.20835 19.76051
#
# Velocity S-wave (km/s) = 2.99907 3.39675 3.20408
# Velocity P-wave (km/s) = 5.44263 6.34065 5.90873
#
# Compressibility (1/GPa) = 0.02946904
#
# Stress axis : x y z
#
# Youngs Moduli (GPa) = 66.27068 105.23627 40.65246
#
# Poissons Ratio (x) = 0.54189 0.07289
# Poissons Ratio (y) = 0.34125 0.11865
# Poissons Ratio (z) = 0.11882 0.30714
#
# Static dielectric constant tensor:
#      x y z
#    x 3.607050 0.000000 0.000000 
#    y 0.000000 3.743450 0.000000 
#    z 0.000000 0.000000 3.107230 
# 
# 
# High freq. dielectric constant tensor:
#      x y z
#    x 1.731120 0.000000 0.000000 
#    y 0.000000 1.763860 0.000000 
#    z 0.000000 0.000000 1.706090 
# 
# From -- ./inp_files/4723.got.cif
#   From: 2010.06.25/outbox.cif.g09.slc.cpg/sg58_3_cif.got.tgz:4723.got - 2010.06.26 21:38:00.
