data_PCOD8235550
_publ_section_title
;
Structure prediction by ZEFSAII (Michael W. Deem and Ramdas Pophale) SiO2 
 PCOD8235550
Probable space group: P N N M
;
_chemical_formula_sum "Si O2"
_cell_formula_units_Z 40
_cell_length_a 9.387465
_cell_length_b 29.182631
_cell_length_c 7.864216
_cell_angle_alpha 90.000000
_cell_angle_beta 90.000000
_cell_angle_gamma 90.000000
_cell_volume 2154.409264
_symmetry_space_group_name_H-M "P N N M"
_symmetry_group_IT_number 58
_symmetry_cell_setting 'orthorhombic'
loop_
_space_group_symop_operation_xyz
x,y,z
-x,-y,z
1/2+x,1/2-y,1/2-z
1/2-x,1/2+y,1/2-z
-x,-y,-z
x,y,-z
1/2-x,1/2+y,1/2+z
1/2+x,1/2-y,1/2+z
loop_
_atom_site_type_symbol
_atom_site_label
_atom_site_fract_x
_atom_site_fract_y
_atom_site_fract_z
Si Si1 0.574082 0.294362 0.806315
Si Si2 0.420151 0.608107 0.314609
Si Si3 0.918045 0.390443 0.689163
Si Si4 0.420162 0.547614 0.000000
Si Si5 0.610956 0.789509 0.199086
Si Si6 0.579490 0.952238 0.500000
O O1 0.524442 0.339942 0.707388
O O2 0.492149 0.250290 0.731492
O O3 0.741815 0.285227 0.798511
O O4 0.530343 0.302165 0.000000
O O5 0.472656 0.590225 0.500000
O O6 0.251221 0.609555 0.307918
O O7 0.475092 0.574733 0.166531
O O8 0.973404 0.404934 0.500000
O O9 0.965806 0.338522 0.734392
O O10 0.974636 0.425226 0.832214
O O11 0.500000 0.500000 0.000000
O O12 0.249774 0.540885 0.000000
O O13 0.644314 0.785072 0.000000
O O14 0.500000 0.000000 0.500000
#
# Coordination Sequence:
#
# PCOD8235550 Si02
#       6
#     8   8   8   4   8   4
#     4  10  18  31  51  75 105 138 173 215 256 303
#     4   9  17  32  53  75 101 136 173 207 252 310
#     4   8  16  32  51  71 100 133 168 207 246 303
#     4  10  20  36  56  76 102 132 172 220 257 304
#     4   9  19  32  48  75 105 135 175 214 252 306
#     4  10  20  34  54  78  96 128 174 210 257 308
#
# _framework density 18.566575
#
# number of rings (size 3 to 8) (size 9 to 14) (size 15 to 20)
#    0.000    2.800    1.000    1.800    4.200    2.400 
#    0.000    2.000    0.000    2.400    0.000    0.000 
#    0.000    0.000    0.000    0.000    0.000    0.000 
#
# Total GULP energy -495793.222941 kJ/mol
# GULP energy per Si atom -12394.830574 kJ/mol
# Density = 1.852432 g / cm^3
# Si number density = 18.566575 Si / 1000 Ang^3
#
#
#
# Elastic Constant Matrix: (Units=GPa)
#
#
# Indices 1 2 3 4 5 6 
#
# 1 28.0232 36.1950 20.4156 0.0000 0.0000 0.0000
# 2 36.1950 164.0613 84.7442 0.0000 0.0000 0.0000
# 3 20.4156 84.7442 135.7119 0.0000 0.0000 0.0000
# 4 0.0000 0.0000 0.0000 28.1610 0.0000 0.0000
# 5 0.0000 0.0000 0.0000 0.0000 13.0443 0.0000
# 6 0.0000 0.0000 0.0000 0.0000 0.0000 34.5885
#
#
#
# Elastic Compliance Matrix: (Units=1/GPa)
#
#
# Indices 1 2 3 4 5 6 
#
# 1 0.049986 -0.010545 -0.000935 0.000000 0.000000 0.000000
# 2 -0.010545 0.011222 -0.005421 0.000000 0.000000 0.000000
# 3 -0.000935 -0.005421 0.010894 0.000000 0.000000 0.000000
# 4 0.000000 0.000000 0.000000 0.035510 0.000000 0.000000
# 5 0.000000 0.000000 0.000000 0.000000 0.076662 0.000000
# 6 0.000000 0.000000 0.000000 0.000000 0.000000 0.028911
#
#
# Mechanical properties :
#
#
# Convention : Reuss Voigt Hill
#
# Bulk Modulus (GPa) = 26.10951 67.83401 46.97176
# Shear Modulus (GPa) = 19.24902 27.58821 23.41861
#
# Velocity S-wave (km/s) = 3.22336 3.85893 3.55538
# Velocity P-wave (km/s) = 5.28645 7.51465 6.49679
#
# Compressibility (1/GPa) = 0.03830023
#
# Stress axis : x y z
#
# Youngs Moduli (GPa) = 20.00573 89.11131 91.79060
#
# Poissons Ratio (x) = 0.93967 0.08581
# Poissons Ratio (y) = 0.21096 0.49761
# Poissons Ratio (z) = 0.01870 0.48308
#
# Static dielectric constant tensor:
#      x y z
#    x 3.027240 0.000000 0.000000 
#    y 0.000000 3.560510 0.000000 
#    z 0.000000 0.000000 3.788970 
# 
# 
# High freq. dielectric constant tensor:
#      x y z
#    x 1.662070 0.000000 0.000000 
#    y 0.000000 1.723710 0.000000 
#    z 0.000000 0.000000 1.735630 
# 
# From -- ./inp_files/2660.got.cif
#   From: 2010.06.25/outbox.cif.g09.slc.cpg/sg58_2_cif.got.tgz:2660.got - 2010.06.26 21:38:00.
