data_PCOD8235160
_publ_section_title
;
Structure prediction by ZEFSAII (Michael W. Deem and Ramdas Pophale) SiO2 
 PCOD8235160
Probable space group: P B C M
;
_chemical_formula_sum "Si O2"
_cell_formula_units_Z 32
_cell_length_a 18.450239
_cell_length_b 8.503352
_cell_length_c 9.093488
_cell_angle_alpha 90.000000
_cell_angle_beta 90.000000
_cell_angle_gamma 90.000000
_cell_volume 1426.667118
_symmetry_space_group_name_H-M "P B C M"
_symmetry_group_IT_number 57
_symmetry_cell_setting 'orthorhombic'
loop_
_space_group_symop_operation_xyz
x,y,z
-x,-y,1/2+z
x,1/2-y,-z
-x,1/2+y,1/2-z
-x,-y,-z
x,y,1/2-z
-x,1/2+y,z
x,1/2-y,1/2+z
loop_
_atom_site_type_symbol
_atom_site_label
_atom_site_fract_x
_atom_site_fract_y
_atom_site_fract_z
Si Si1 0.430762 0.919464 0.571710
Si Si2 0.947023 0.564925 0.250000
Si Si3 0.302191 0.406069 0.583994
Si Si4 0.900023 0.575044 0.750000
Si Si5 0.158846 0.565672 0.974752
O O1 0.423079 0.750000 0.500000
O O2 0.436100 0.911815 0.750000
O O3 0.500000 0.000000 0.500000
O O4 0.361317 0.017179 0.522245
O O5 0.928133 0.748155 0.250000
O O6 0.914094 0.477063 0.389158
O O7 0.033344 0.547488 0.250000
O O8 0.277348 0.250000 0.500000
O O9 0.332550 0.374056 0.750000
O O10 0.232835 0.518590 0.606060
O O11 0.845647 0.539684 0.618775
O O12 0.159806 0.750000 0.000000
#
# Coordination Sequence:
#
# PCOD8235160 Si02
#       5
#     8   4   8   4   8
#     4  12  26  47  75 108 149 193 244 298 361 428
#     4  12  24  48  64 104 131 186 231 296 360 434
#     4  12  26  46  72 104 144 187 241 296 364 436
#     4  12  26  42  74  94 141 178 237 292 362 434
#     4  12  26  44  69 100 139 182 236 294 360 432
#
# _framework density 22.429898999999999
#
# number of rings (size 3 to 8) (size 9 to 14) (size 15 to 20)
#    0.000    0.000    1.250    9.750    3.500    0.000 
#    0.000    0.000    0.000    0.000    0.000    0.000 
#    0.000    0.000    0.000    0.000    0.000    0.000 
#
# Total GULP energy -396820.791256 kJ/mol
# GULP energy per Si atom -12400.649727 kJ/mol
# Density = 2.237885 g / cm^3
# Si number density = 22.429899 Si / 1000 Ang^3
#
#
#
# Elastic Constant Matrix: (Units=GPa)
#
#
# Indices 1 2 3 4 5 6 
#
# 1 102.2874 25.5213 26.5024 0.0000 0.0000 0.0000
# 2 25.5213 163.8966 41.5156 0.0000 0.0000 0.0000
# 3 26.5024 41.5156 185.8115 0.0000 0.0000 0.0000
# 4 0.0000 0.0000 0.0000 33.4819 0.0000 0.0000
# 5 0.0000 0.0000 0.0000 0.0000 39.6807 0.0000
# 6 0.0000 0.0000 0.0000 0.0000 0.0000 33.3742
#
#
#
# Elastic Compliance Matrix: (Units=1/GPa)
#
#
# Indices 1 2 3 4 5 6 
#
# 1 0.010414 -0.001320 -0.001190 0.000000 0.000000 0.000000
# 2 -0.001320 0.006635 -0.001294 0.000000 0.000000 0.000000
# 3 -0.001190 -0.001294 0.005841 0.000000 0.000000 0.000000
# 4 0.000000 0.000000 0.000000 0.029867 0.000000 0.000000
# 5 0.000000 0.000000 0.000000 0.000000 0.025201 0.000000
# 6 0.000000 0.000000 0.000000 0.000000 0.000000 0.029963
#
#
# Mechanical properties :
#
#
# Convention : Reuss Voigt Hill
#
# Bulk Modulus (GPa) = 65.44337 71.00823 68.22580
# Shear Modulus (GPa) = 41.45118 45.20443 43.32781
#
# Velocity S-wave (km/s) = 4.30354 4.49415 4.39988
# Velocity P-wave (km/s) = 7.34398 7.65875 7.50302
#
# Compressibility (1/GPa) = 0.01528039
#
# Stress axis : x y z
#
# Youngs Moduli (GPa) = 96.02284 150.72102 171.21146
#
# Poissons Ratio (x) = 0.19897 0.20381
# Poissons Ratio (y) = 0.12676 0.22157
# Poissons Ratio (z) = 0.11431 0.19505
#
# Static dielectric constant tensor:
#      x y z
#    x 4.075240 0.000000 0.000000 
#    y 0.000000 4.377690 0.000000 
#    z 0.000000 0.000000 4.390780 
# 
# 
# High freq. dielectric constant tensor:
#      x y z
#    x 1.892970 0.000000 0.000000 
#    y 0.000000 1.899400 0.000000 
#    z 0.000000 0.000000 1.906920 
# 
# From -- ./inp_files/7561.got.cif
#   From: 2010.03.12/outbox.cif.g09.slc.cpg/sg57_4_cif.got.tgz:7561.got - 2010.04.16 15:48:40.
