data_PCOD8235255
_publ_section_title
;
Structure prediction by ZEFSAII (Michael W. Deem and Ramdas Pophale) SiO2 
 PCOD8235255
Probable space group: P N N M
;
_chemical_formula_sum "Si O2"
_cell_formula_units_Z 64
_cell_length_a 21.928621
_cell_length_b 17.003107
_cell_length_c 8.387553
_cell_angle_alpha 90.000000
_cell_angle_beta 90.000000
_cell_angle_gamma 90.000000
_cell_volume 3127.338467
_symmetry_space_group_name_H-M "P N N M"
_symmetry_group_IT_number 58
_symmetry_cell_setting 'orthorhombic'
loop_
_space_group_symop_operation_xyz
x,y,z
-x,-y,z
1/2+x,1/2-y,1/2-z
1/2-x,1/2+y,1/2-z
-x,-y,-z
x,y,-z
1/2-x,1/2+y,1/2+z
1/2+x,1/2-y,1/2+z
loop_
_atom_site_type_symbol
_atom_site_label
_atom_site_fract_x
_atom_site_fract_y
_atom_site_fract_z
Si Si1 0.399546 0.868162 0.814165
Si Si2 0.054340 0.104524 0.310984
Si Si3 0.755076 0.920334 0.690470
Si Si4 0.070079 0.824326 0.311055
Si Si5 0.340143 0.713878 0.188875
Si Si6 0.861693 0.029736 0.688798
Si Si7 0.470275 0.164646 0.686595
Si Si8 0.123697 0.537598 0.186081
O O1 0.347192 0.805288 0.758295
O O2 0.466352 0.831990 0.781630
O O3 0.389640 0.946742 0.715492
O O4 0.393572 0.887358 0.000000
O O5 0.052915 0.106848 0.500000
O O6 0.101015 0.169254 0.242490
O O7 0.987605 0.125498 0.247756
O O8 0.078671 0.019390 0.252989
O O9 0.753618 0.923705 0.500000
O O10 0.779603 0.833662 0.747250
O O11 0.688157 0.935643 0.764102
O O12 0.799743 0.989969 0.756411
O O13 0.067882 0.808732 0.500000
O O14 0.128906 0.878376 0.262309
O O15 0.070957 0.741519 0.220268
O O16 0.342174 0.710439 0.000000
O O17 0.858960 0.023732 0.500000
O O18 0.484235 0.156456 0.500000
O O19 0.431563 0.090388 0.753032
O O20 0.128168 0.553162 0.000000
#
# Coordination Sequence:
#
# PCOD8235255 Si02
#       8
#     8   8   8   8   8   8   8   8
#     4  11  21  36  60  87 106 129 175 233 280 310
#     4   8  12  22  43  75 108 130 162 211 262 310
#     4   8  15  32  54  76 105 139 178 214 251 311
#     4  10  17  28  49  79 110 135 169 220 270 311
#     4   8  14  27  51  81 105 130 169 216 259 307
#     4   8  14  24  47  80 105 133 173 218 261 309
#     4  11  23  37  52  75 108 147 182 215 266 330
#     4  10  22  39  56  75 105 145 182 215 260 323
#
# _framework density 20.464686
#
# number of rings (size 3 to 8) (size 9 to 14) (size 15 to 20)
#    0.000    2.750    1.250    3.000    0.000    4.000 
#    2.250    0.000    0.000    3.000    0.000    0.000 
#    0.000    0.000    0.000    0.000    0.000    0.000 
#
# Total GULP energy -792854.511082 kJ/mol
# GULP energy per Si atom -12388.351736 kJ/mol
# Density = 2.041811 g / cm^3
# Si number density = 20.464686 Si / 1000 Ang^3
#
#
#
# Elastic Constant Matrix: (Units=GPa)
#
#
# Indices 1 2 3 4 5 6 
#
# 1 77.2549 39.1001 5.7308 0.0000 0.0000 0.0000
# 2 39.1001 131.4050 1.7496 0.0000 0.0000 0.0000
# 3 5.7308 1.7496 11.7297 0.0000 0.0000 0.0000
# 4 0.0000 0.0000 0.0000 14.6659 0.0000 0.0000
# 5 0.0000 0.0000 0.0000 0.0000 12.1685 0.0000
# 6 0.0000 0.0000 0.0000 0.0000 0.0000 21.4782
#
#
#
# Elastic Compliance Matrix: (Units=1/GPa)
#
#
# Indices 1 2 3 4 5 6 
#
# 1 0.015797 -0.004607 -0.007031 0.000000 0.000000 0.000000
# 2 -0.004607 0.008969 0.000913 0.000000 0.000000 0.000000
# 3 -0.007031 0.000913 0.088552 0.000000 0.000000 0.000000
# 4 0.000000 0.000000 0.000000 0.068185 0.000000 0.000000
# 5 0.000000 0.000000 0.000000 0.000000 0.082180 0.000000
# 6 0.000000 0.000000 0.000000 0.000000 0.000000 0.046559
#
#
# Mechanical properties :
#
#
# Convention : Reuss Voigt Hill
#
# Bulk Modulus (GPa) = 10.88510 34.83899 22.86204
# Shear Modulus (GPa) = 13.80014 21.24979 17.52497
#
# Velocity S-wave (km/s) = 2.59962 3.22586 2.92952
# Velocity P-wave (km/s) = 3.78698 5.56200 4.75800
#
# Compressibility (1/GPa) = 0.09186873
#
# Stress axis : x y z
#
# Youngs Moduli (GPa) = 63.30159 111.49858 11.29274
#
# Poissons Ratio (x) = 0.51367 0.07940
# Poissons Ratio (y) = 0.29163 -0.01031
# Poissons Ratio (z) = 0.44507 -0.10180
#
# Static dielectric constant tensor:
#      x y z
#    x 3.934790 0.000000 0.000000 
#    y 0.000000 3.926390 0.000000 
#    z 0.000000 0.000000 3.040810 
# 
# 
# High freq. dielectric constant tensor:
#      x y z
#    x 1.787870 0.000000 0.000000 
#    y 0.000000 1.811150 0.000000 
#    z 0.000000 0.000000 1.737600 
# 
# From -- ./inp_files/9262.got.cif
#   From: 2010.06.25/outbox.cif.g09.slc.cpg/sg58_5_cif.got.tgz:9262.got - 2010.06.26 21:38:00.
