data_PCOD8235171
_publ_section_title
;
Structure prediction by ZEFSAII (Michael W. Deem and Ramdas Pophale) SiO2 
 PCOD8235171
Probable space group: P B C M
;
_chemical_formula_sum "Si O2"
_cell_formula_units_Z 56
_cell_length_a 16.215509
_cell_length_b 24.605307
_cell_length_c 9.603328
_cell_angle_alpha 90.000000
_cell_angle_beta 90.000000
_cell_angle_gamma 90.000000
_cell_volume 3831.608571
_symmetry_space_group_name_H-M "P B C M"
_symmetry_group_IT_number 57
_symmetry_cell_setting 'orthorhombic'
loop_
_space_group_symop_operation_xyz
x,y,z
-x,-y,1/2+z
x,1/2-y,-z
-x,1/2+y,1/2-z
-x,-y,-z
x,y,1/2-z
-x,1/2+y,z
x,1/2-y,1/2+z
loop_
_atom_site_type_symbol
_atom_site_label
_atom_site_fract_x
_atom_site_fract_y
_atom_site_fract_z
Si Si1 0.030710 0.048271 0.092299
Si Si2 0.581205 0.301286 0.910461
Si Si3 0.803848 0.993711 0.910475
Si Si4 0.133255 0.906031 0.588216
Si Si5 0.380517 0.493132 0.589037
Si Si6 0.468524 0.580319 0.412296
Si Si7 0.227181 0.699499 0.089147
O O1 0.019101 0.028919 0.250000
O O2 0.967189 0.098259 0.064720
O O3 0.129413 0.055834 0.063319
O O4 0.000000 0.000000 0.000000
O O5 0.564402 0.286943 0.750000
O O6 0.533260 0.356208 0.955533
O O7 0.677135 0.312784 0.938772
O O8 0.549139 0.250000 0.000000
O O9 0.806744 0.012562 0.750000
O O10 0.712014 0.973214 0.947696
O O11 0.826890 0.044894 0.003884
O O12 0.155133 0.915110 0.750000
O O13 0.173782 0.850876 0.534279
O O14 0.389665 0.509944 0.750000
O O15 0.401430 0.546247 0.498616
O O16 0.440633 0.442841 0.553463
O O17 0.445411 0.574339 0.250000
O O18 0.210094 0.712211 0.250000
O O19 0.196063 0.750000 0.000000
#
# Coordination Sequence:
#
# PCOD8235171 Si02
#       7
#     8   8   8   8   8   8   8
#     4   8  14  24  37  54  76  99 123 150 178 213
#     4   9  17  28  41  56  75  99 127 160 194 228
#     4   9  16  25  38  58  81 102 125 153 186 222
#     4   9  16  26  40  56  76 103 130 154 183 221
#     4   9  17  27  40  59  82 106 130 158 192 232
#     4   9  17  29  42  57  79 105 132 160 193 233
#     4   9  17  27  38  54  74  96 124 155 186 221
#
# _framework density 14.615271999999999
#
# number of rings (size 3 to 8) (size 9 to 14) (size 15 to 20)
#    0.000    3.143    0.000    0.857    0.000    2.857 
#    0.000    2.857    0.000    0.000    0.000    1.000 
#    0.000    0.000    0.000    0.000    0.000    0.000 
#
# Total GULP energy -693781.843172 kJ/mol
# GULP energy per Si atom -12388.961485 kJ/mol
# Density = 1.458201 g / cm^3
# Si number density = 14.615272 Si / 1000 Ang^3
#
#
#
# Elastic Constant Matrix: (Units=GPa)
#
#
# Indices 1 2 3 4 5 6 
#
# 1 98.7737 46.4124 27.5768 0.0000 0.0000 0.0000
# 2 46.4124 94.6428 34.2495 0.0000 0.0000 0.0000
# 3 27.5768 34.2495 37.6665 0.0000 0.0000 0.0000
# 4 0.0000 0.0000 0.0000 22.2770 0.0000 0.0000
# 5 0.0000 0.0000 0.0000 0.0000 16.2119 0.0000
# 6 0.0000 0.0000 0.0000 0.0000 0.0000 22.1836
#
#
#
# Elastic Compliance Matrix: (Units=1/GPa)
#
#
# Indices 1 2 3 4 5 6 
#
# 1 0.014003 -0.004705 -0.005974 0.000000 0.000000 0.000000
# 2 -0.004705 0.017329 -0.012312 0.000000 0.000000 0.000000
# 3 -0.005974 -0.012312 0.042117 0.000000 0.000000 0.000000
# 4 0.000000 0.000000 0.000000 0.044889 0.000000 0.000000
# 5 0.000000 0.000000 0.000000 0.000000 0.061683 0.000000
# 6 0.000000 0.000000 0.000000 0.000000 0.000000 0.045078
#
#
# Mechanical properties :
#
#
# Convention : Reuss Voigt Hill
#
# Bulk Modulus (GPa) = 36.40668 49.72895 43.06781
# Shear Modulus (GPa) = 17.84201 20.32412 19.08306
#
# Velocity S-wave (km/s) = 3.49775 3.73313 3.61736
# Velocity P-wave (km/s) = 6.42468 7.25816 6.85410
#
# Compressibility (1/GPa) = 0.02746749
#
# Stress axis : x y z
#
# Youngs Moduli (GPa) = 71.41415 57.70673 23.74315
#
# Poissons Ratio (x) = 0.27152 0.14183
# Poissons Ratio (y) = 0.33602 0.29233
# Poissons Ratio (z) = 0.42659 0.71049
#
# Static dielectric constant tensor:
#      x y z
#    x 3.233120 0.000000 0.000000 
#    y 0.000000 2.766880 0.000000 
#    z 0.000000 0.000000 2.884080 
# 
# 
# High freq. dielectric constant tensor:
#      x y z
#    x 1.558510 0.000000 0.000000 
#    y 0.000000 1.525210 0.000000 
#    z 0.000000 0.000000 1.564680 
# 
# From -- ./inp_files/7321.got.cif
#   From: 2010.03.12/outbox.cif.g09.slc.cpg/sg57_4_cif.got.tgz:7321.got - 2010.04.16 15:48:40.
