data_PCOD8235455
_publ_section_title
;
Structure prediction by ZEFSAII (Michael W. Deem and Ramdas Pophale) SiO2 
 PCOD8235455
Probable space group: P N N M
;
_chemical_formula_sum "Si O2"
_cell_formula_units_Z 48
_cell_length_a 23.925821
_cell_length_b 13.870264
_cell_length_c 8.780307
_cell_angle_alpha 90.000000
_cell_angle_beta 90.000000
_cell_angle_gamma 90.000000
_cell_volume 2913.810324
_symmetry_space_group_name_H-M "P N N M"
_symmetry_group_IT_number 58
_symmetry_cell_setting 'orthorhombic'
loop_
_space_group_symop_operation_xyz
x,y,z
-x,-y,z
1/2+x,1/2-y,1/2-z
1/2-x,1/2+y,1/2-z
-x,-y,-z
x,y,-z
1/2-x,1/2+y,1/2+z
1/2+x,1/2-y,1/2+z
loop_
_atom_site_type_symbol
_atom_site_label
_atom_site_fract_x
_atom_site_fract_y
_atom_site_fract_z
Si Si1 0.064521 0.390626 0.819703
Si Si2 0.226241 0.894078 0.680727
Si Si3 0.439474 0.107846 0.319895
Si Si4 0.228981 0.108051 0.321964
Si Si5 0.165161 0.724062 0.818628
Si Si6 0.331854 0.795411 0.178487
O O1 0.075030 0.500052 0.762712
O O2 0.106048 0.319532 0.732724
O O3 0.001666 0.360212 0.770586
O O4 0.073510 0.380618 0.000000
O O5 0.223160 0.888794 0.500000
O O6 0.176565 0.829350 0.749646
O O7 0.287398 0.860852 0.733311
O O8 0.216490 0.002396 0.745779
O O9 0.436701 0.103630 0.500000
O O10 0.394225 0.184196 0.257130
O O11 0.237020 0.095190 0.500000
O O12 0.287014 0.151442 0.257622
O O13 0.178970 0.182484 0.283743
O O14 0.166405 0.732893 0.000000
O O15 0.324505 0.815088 0.000000
#
# Coordination Sequence:
#
# PCOD8235455 Si02
#       6
#     8   8   8   8   8   8
#     4   9  16  29  48  69  88 116 153 181 207 258
#     4  10  18  30  47  66  86 115 151 183 211 259
#     4   8  15  28  48  68  91 120 147 174 216 267
#     4   8  16  29  45  62  86 117 146 173 214 263
#     4   9  16  29  46  66  90 116 141 176 223 262
#     4  10  19  31  45  65  91 118 143 179 226 263
#
# _framework density 16.473275999999998
#
# number of rings (size 3 to 8) (size 9 to 14) (size 15 to 20)
#    0.000    3.000    0.000    4.000    0.000    2.667 
#    0.000   15.000    0.000    1.000    0.000    7.000 
#    0.000    0.000    0.000    0.000    0.000    0.000 
#
# Total GULP energy -594939.620529 kJ/mol
# GULP energy per Si atom -12394.575428 kJ/mol
# Density = 1.643578 g / cm^3
# Si number density = 16.473276 Si / 1000 Ang^3
#
#
#
# Elastic Constant Matrix: (Units=GPa)
#
#
# Indices 1 2 3 4 5 6 
#
# 1 123.6911 72.0076 23.1652 0.0000 0.0000 0.0000
# 2 72.0076 139.5891 27.7409 0.0000 0.0000 0.0000
# 3 23.1652 27.7409 34.5917 0.0000 0.0000 0.0000
# 4 0.0000 0.0000 0.0000 21.9923 0.0000 0.0000
# 5 0.0000 0.0000 0.0000 0.0000 -3.3660 0.0000
# 6 0.0000 0.0000 0.0000 0.0000 0.0000 30.0233
#
#
#
# Elastic Compliance Matrix: (Units=1/GPa)
#
#
# Indices 1 2 3 4 5 6 
#
# 1 0.011926 -0.005430 -0.003632 0.000000 0.000000 0.000000
# 2 -0.005430 0.010995 -0.005181 0.000000 0.000000 0.000000
# 3 -0.003632 -0.005181 0.035495 0.000000 0.000000 0.000000
# 4 0.000000 0.000000 0.000000 0.045470 0.000000 0.000000
# 5 0.000000 0.000000 0.000000 0.000000 -0.297091 0.000000
# 6 0.000000 0.000000 0.000000 0.000000 0.000000 0.033308
#
#
# Mechanical properties :
#
#
# Convention : Reuss Voigt Hill
#
# Bulk Modulus (GPa) = 33.41046 60.41101 46.91074
# Shear Modulus (GPa) = -41.17442 21.39380 -9.89031
#
# Velocity S-wave (km/s) = -5.00489 3.60765 -2.45293
# Velocity P-wave (km/s) = 3.61565 7.35563 4.52948
#
# Compressibility (1/GPa) = 0.02993075
#
# Stress axis : x y z
#
# Youngs Moduli (GPa) = 83.84916 90.95250 28.17265
#
# Poissons Ratio (x) = 0.49391 0.10232
# Poissons Ratio (y) = 0.45534 0.14595
# Poissons Ratio (z) = 0.30452 0.47119
#
# Static dielectric constant tensor:
#      x y z
#    x 3.237570 0.000000 0.000000 
#    y 0.000000 3.318190 0.000000 
#    z 0.000000 0.000000 2.819170 
# 
# 
# High freq. dielectric constant tensor:
#      x y z
#    x 1.626370 0.000000 0.000000 
#    y 0.000000 1.628610 0.000000 
#    z 0.000000 0.000000 1.610010 
# 
# From -- ./inp_files/6538.got.cif
#   From: 2010.06.25/outbox.cif.g09.slc.cpg/sg58_4_cif.got.tgz:6538.got - 2010.06.26 21:38:00.
