data_PCOD8235221
_publ_section_title
;
Structure prediction by ZEFSAII (Michael W. Deem and Ramdas Pophale) SiO2 
 PCOD8235221
Probable space group: P N N M
;
_chemical_formula_sum "Si O2"
_cell_formula_units_Z 56
_cell_length_a 17.528422
_cell_length_b 22.794805
_cell_length_c 9.002702
_cell_angle_alpha 90.000000
_cell_angle_beta 90.000000
_cell_angle_gamma 90.000000
_cell_volume 3597.092256
_symmetry_space_group_name_H-M "P N N M"
_symmetry_group_IT_number 58
_symmetry_cell_setting 'orthorhombic'
loop_
_space_group_symop_operation_xyz
x,y,z
-x,-y,z
1/2+x,1/2-y,1/2-z
1/2-x,1/2+y,1/2-z
-x,-y,-z
x,y,-z
1/2-x,1/2+y,1/2+z
1/2+x,1/2-y,1/2+z
loop_
_atom_site_type_symbol
_atom_site_label
_atom_site_fract_x
_atom_site_fract_y
_atom_site_fract_z
Si Si1 0.918761 0.276063 0.323823
Si Si2 0.376084 0.344074 0.325543
Si Si3 0.499489 0.565256 0.324056
Si Si4 0.927043 0.719279 0.828264
Si Si5 0.275689 0.183630 0.666845
Si Si6 0.631119 0.349300 0.326797
Si Si7 0.214009 0.314947 0.664627
O O1 0.915360 0.277307 0.500000
O O2 0.908255 0.209975 0.267534
O O3 0.853789 0.319484 0.260323
O O4 0.000063 0.299857 0.267350
O O5 0.388072 0.328962 0.500000
O O6 0.422535 0.401900 0.277854
O O7 0.286282 0.356037 0.291320
O O8 0.500000 0.500000 0.254109
O O9 0.493819 0.561739 0.500000
O O10 0.426139 0.601007 0.265200
O O11 0.907944 0.786855 0.794818
O O12 0.855463 0.678526 0.779660
O O13 0.944225 0.708042 0.000000
O O14 0.291059 0.161210 0.500000
O O15 0.210984 0.143094 0.741279
O O16 0.246888 0.249784 0.666843
O O17 0.648378 0.356491 0.500000
O O18 0.183880 0.330710 0.500000
#
# Coordination Sequence:
#
# PCOD8235221 Si02
#       7
#     8   8   8   8   8   8   8
#     4  11  19  26  40  61  84 110 141 172 209 255
#     4   9  16  29  43  58  82 112 144 179 214 247
#     4   9  16  27  45  66  86 113 150 186 216 246
#     4  10  17  26  40  58  83 111 140 172 208 251
#     4   9  17  28  41  57  80 109 140 172 211 255
#     4   9  16  27  42  59  82 111 145 180 212 247
#     4   8  15  25  38  56  79 106 138 172 207 249
#
# _framework density 15.568129000000001
#
# number of rings (size 3 to 8) (size 9 to 14) (size 15 to 20)
#    0.000    2.714    1.429    3.000    0.000    4.000 
#    0.000    0.000    0.000    1.714    0.000    0.000 
#    0.000    1.143    0.000   13.429    0.000    2.571 
#
# Total GULP energy -694176.261261 kJ/mol
# GULP energy per Si atom -12396.004665 kJ/mol
# Density = 1.553270 g / cm^3
# Si number density = 15.568129 Si / 1000 Ang^3
#
#
#
# Elastic Constant Matrix: (Units=GPa)
#
#
# Indices 1 2 3 4 5 6 
#
# 1 146.2786 48.0246 61.8499 0.0000 0.0000 0.0000
# 2 48.0246 52.1976 18.2106 0.0000 0.0000 0.0000
# 3 61.8499 18.2106 84.8831 0.0000 0.0000 0.0000
# 4 0.0000 0.0000 0.0000 8.5596 0.0000 0.0000
# 5 0.0000 0.0000 0.0000 0.0000 29.4326 0.0000
# 6 0.0000 0.0000 0.0000 0.0000 0.0000 16.4208
#
#
#
# Elastic Compliance Matrix: (Units=1/GPa)
#
#
# Indices 1 2 3 4 5 6 
#
# 1 0.013124 -0.009445 -0.007536 0.000000 0.000000 0.000000
# 2 -0.009445 0.027506 0.000981 0.000000 0.000000 0.000000
# 3 -0.007536 0.000981 0.017062 0.000000 0.000000 0.000000
# 4 0.000000 0.000000 0.000000 0.116828 0.000000 0.000000
# 5 0.000000 0.000000 0.000000 0.000000 0.033976 0.000000
# 6 0.000000 0.000000 0.000000 0.000000 0.000000 0.060898
#
#
# Mechanical properties :
#
#
# Convention : Reuss Voigt Hill
#
# Bulk Modulus (GPa) = 38.92460 59.94773 49.43616
# Shear Modulus (GPa) = 16.13124 21.23422 18.68273
#
# Velocity S-wave (km/s) = 3.22245 3.69718 3.46795
# Velocity P-wave (km/s) = 6.23720 7.53763 6.91804
#
# Compressibility (1/GPa) = 0.02569070
#
# Stress axis : x y z
#
# Youngs Moduli (GPa) = 76.19786 36.35596 58.61107
#
# Poissons Ratio (x) = 0.34339 0.44171
# Poissons Ratio (y) = 0.71971 -0.05751
# Poissons Ratio (z) = 0.57424 -0.03568
#
# Static dielectric constant tensor:
#      x y z
#    x 3.315200 0.000000 0.000000 
#    y 0.000000 2.636580 0.000000 
#    z 0.000000 0.000000 2.928240 
# 
# 
# High freq. dielectric constant tensor:
#      x y z
#    x 1.613970 0.000000 0.000000 
#    y 0.000000 1.524500 0.000000 
#    z 0.000000 0.000000 1.591550 
# 
# From -- ./inp_files/8156.got.cif
#   From: 2010.06.25/outbox.cif.g09.slc.cpg/sg58_5_cif.got.tgz:8156.got - 2010.06.26 21:38:00.
