data_PCOD8235236
_publ_section_title
;
Structure prediction by ZEFSAII (Michael W. Deem and Ramdas Pophale) SiO2 
 PCOD8235236
Probable space group: P N N M
;
_chemical_formula_sum "Si O2"
_cell_formula_units_Z 64
_cell_length_a 20.339236
_cell_length_b 24.644838
_cell_length_c 9.014151
_cell_angle_alpha 90.000000
_cell_angle_beta 90.000000
_cell_angle_gamma 90.000000
_cell_volume 4518.407877
_symmetry_space_group_name_H-M "P N N M"
_symmetry_group_IT_number 58
_symmetry_cell_setting 'orthorhombic'
loop_
_space_group_symop_operation_xyz
x,y,z
-x,-y,z
1/2+x,1/2-y,1/2-z
1/2-x,1/2+y,1/2-z
-x,-y,-z
x,y,-z
1/2-x,1/2+y,1/2+z
1/2+x,1/2-y,1/2+z
loop_
_atom_site_type_symbol
_atom_site_label
_atom_site_fract_x
_atom_site_fract_y
_atom_site_fract_z
Si Si1 0.393345 0.780240 0.330339
Si Si2 0.752563 0.746324 0.831586
Si Si3 0.618339 0.936184 0.326068
Si Si4 0.353559 0.185912 0.324809
Si Si5 0.298547 0.850766 0.174059
Si Si6 0.349024 0.962000 0.827795
Si Si7 0.010962 0.416069 0.328658
Si Si8 0.516765 0.791087 0.827957
O O1 0.409013 0.797004 0.500000
O O2 0.330894 0.738471 0.326641
O O3 0.370673 0.832692 0.233867
O O4 0.459289 0.755750 0.253404
O O5 0.714698 0.790133 0.733903
O O6 0.743717 0.685125 0.761855
O O7 0.725969 0.746050 0.000000
O O8 0.615499 0.941354 0.500000
O O9 0.645291 0.877201 0.277713
O O10 0.545878 0.947066 0.261294
O O11 0.666689 0.983047 0.262592
O O12 0.359055 0.193439 0.500000
O O13 0.412809 0.219351 0.248055
O O14 0.293439 0.915633 0.203890
O O15 0.293903 0.837966 0.000000
O O16 0.418957 0.937979 0.775791
O O17 0.349707 0.976821 0.000000
O O18 0.998826 0.429006 0.500000
O O19 0.004155 0.352527 0.296882
O O20 0.521054 0.775244 0.000000
#
# Coordination Sequence:
#
# PCOD8235236 Si02
#       8
#     8   8   8   8   8   8   8   8
#     4   9  17  27  41  62  82 100 132 171 209 247
#     4   9  18  30  45  63  79 102 137 173 211 253
#     4  10  21  29  35  53  76 104 138 171 207 238
#     4  10  20  32  43  57  82 113 143 175 211 250
#     4   9  16  28  44  60  76  99 133 168 207 246
#     4  10  18  28  40  55  75 103 136 169 204 243
#     4   9  16  27  38  50  71 103 139 170 200 238
#     4  10  17  27  43  60  81 108 139 174 210 246
#
# _framework density 14.164282
#
# number of rings (size 3 to 8) (size 9 to 14) (size 15 to 20)
#    0.750    1.750    1.250    2.250    0.000    5.000 
#    0.000    0.000    0.000    0.000    0.000    0.000 
#    0.000    0.000    0.000    1.125    0.000   21.000 
#
# Total GULP energy -792897.030809 kJ/mol
# GULP energy per Si atom -12389.016106 kJ/mol
# Density = 1.413204 g / cm^3
# Si number density = 14.164282 Si / 1000 Ang^3
#
#
#
# Elastic Constant Matrix: (Units=GPa)
#
#
# Indices 1 2 3 4 5 6 
#
# 1 36.2465 34.9615 26.2482 0.0000 0.0000 0.0000
# 2 34.9615 47.2861 27.4862 0.0000 0.0000 0.0000
# 3 26.2482 27.4862 68.2928 0.0000 0.0000 0.0000
# 4 0.0000 0.0000 0.0000 20.8947 0.0000 0.0000
# 5 0.0000 0.0000 0.0000 0.0000 21.8729 0.0000
# 6 0.0000 0.0000 0.0000 0.0000 0.0000 16.8262
#
#
#
# Elastic Compliance Matrix: (Units=1/GPa)
#
#
# Indices 1 2 3 4 5 6 
#
# 1 0.102816 -0.069248 -0.011646 0.000000 0.000000 0.000000
# 2 -0.069248 0.074246 -0.003267 0.000000 0.000000 0.000000
# 3 -0.011646 -0.003267 0.020434 0.000000 0.000000 0.000000
# 4 0.000000 0.000000 0.000000 0.047859 0.000000 0.000000
# 5 0.000000 0.000000 0.000000 0.000000 0.045719 0.000000
# 6 0.000000 0.000000 0.000000 0.000000 0.000000 0.059431
#
#
# Mechanical properties :
#
#
# Convention : Reuss Voigt Hill
#
# Bulk Modulus (GPa) = 34.27819 36.57968 35.42894
# Shear Modulus (GPa) = 9.45981 16.12739 12.79360
#
# Velocity S-wave (km/s) = 2.58711 3.37797 3.00864
# Velocity P-wave (km/s) = 5.75996 6.41058 6.09396
#
# Compressibility (1/GPa) = 0.02917307
#
# Stress axis : x y z
#
# Youngs Moduli (GPa) = 9.72614 13.46870 48.93827
#
# Poissons Ratio (x) = 0.93268 0.56995
# Poissons Ratio (y) = 0.67352 0.15988
# Poissons Ratio (z) = 0.11327 0.04400
#
# Static dielectric constant tensor:
#      x y z
#    x 2.579310 0.000000 0.000000 
#    y 0.000000 2.610930 0.000000 
#    z 0.000000 0.000000 2.828710 
# 
# 
# High freq. dielectric constant tensor:
#      x y z
#    x 1.505300 0.000000 0.000000 
#    y 0.000000 1.505750 0.000000 
#    z 0.000000 0.000000 1.557720 
# 
# From -- ./inp_files/9515.got.cif
#   From: 2010.06.25/outbox.cif.g09.slc.cpg/sg58_5_cif.got.tgz:9515.got - 2010.06.26 21:38:00.
