data_PCOD8235588
_publ_section_title
;
Structure prediction by ZEFSAII (Michael W. Deem and Ramdas Pophale) SiO2 
 PCOD8235588
Probable space group: P N N M
;
_chemical_formula_sum "Si O2"
_cell_formula_units_Z 64
_cell_length_a 15.434262
_cell_length_b 23.714620
_cell_length_c 9.488610
_cell_angle_alpha 90.000000
_cell_angle_beta 90.000000
_cell_angle_gamma 90.000000
_cell_volume 3472.998813
_symmetry_space_group_name_H-M "P N N M"
_symmetry_group_IT_number 58
_symmetry_cell_setting 'orthorhombic'
loop_
_space_group_symop_operation_xyz
x,y,z
-x,-y,z
1/2+x,1/2-y,1/2-z
1/2-x,1/2+y,1/2-z
-x,-y,-z
x,y,-z
1/2-x,1/2+y,1/2+z
1/2+x,1/2-y,1/2+z
loop_
_atom_site_type_symbol
_atom_site_label
_atom_site_fract_x
_atom_site_fract_y
_atom_site_fract_z
Si Si1 0.604344 0.124276 0.665108
Si Si2 0.244054 0.441337 0.663818
Si Si3 0.666069 0.752706 0.662653
Si Si4 0.166654 0.253467 0.161113
Si Si5 0.743223 0.927338 0.835571
Si Si6 0.902374 0.134031 0.167653
Si Si7 0.090674 0.136396 0.838070
Si Si8 0.593011 0.872038 0.338459
O O1 0.622554 0.116686 0.500000
O O2 0.661508 0.079976 0.750369
O O3 0.626682 0.187768 0.714269
O O4 0.504755 0.111147 0.701336
O O5 0.228369 0.427492 0.500000
O O6 0.257061 0.506925 0.691158
O O7 0.330990 0.410607 0.719848
O O8 0.691285 0.744677 0.500000
O O9 0.752796 0.765657 0.746589
O O10 0.622794 0.696046 0.723556
O O11 0.601491 0.804940 0.684992
O O12 0.095865 0.204106 0.177577
O O13 0.197504 0.258573 0.000000
O O14 0.827079 0.895495 0.768556
O O15 0.656689 0.907463 0.758876
O O16 0.731642 0.912944 0.000000
O O17 0.997856 0.117952 0.228763
O O18 0.908624 0.135180 0.000000
O O19 0.092006 0.117733 0.000000
O O20 0.613734 0.887484 0.500000
#
# Coordination Sequence:
#
# PCOD8235588 Si02
#       8
#     8   8   8   8   8   8   8   8
#     4  10  21  36  55  79 106 138 176 216 260 313
#     4  10  21  36  54  78 106 137 177 221 261 304
#     4  10  18  31  54  80 106 135 168 209 259 313
#     4  10  18  31  54  80 106 135 168 209 259 313
#     4  10  21  36  54  78 106 137 177 221 261 304
#     4   9  17  31  53  79 106 135 167 208 259 311
#     4   9  17  31  53  79 106 135 167 208 259 311
#     4  10  21  36  55  79 106 138 176 216 260 313
#
# _framework density 18.427878
#
# number of rings (size 3 to 8) (size 9 to 14) (size 15 to 20)
#    0.000    2.250    2.500    0.750    0.000    5.000 
#    0.000    5.000    0.000    4.500    0.000    1.750 
#    0.000    0.000    0.000    0.000    0.000    0.000 
#
# Total GULP energy -793538.002609 kJ/mol
# GULP energy per Si atom -12399.031291 kJ/mol
# Density = 1.838594 g / cm^3
# Si number density = 18.427878 Si / 1000 Ang^3
#
#
#
# Elastic Constant Matrix: (Units=GPa)
#
#
# Indices 1 2 3 4 5 6 
#
# 1 141.3665 43.7095 39.3831 0.0000 0.0000 0.0000
# 2 43.7095 86.1774 25.6326 0.0000 0.0000 0.0000
# 3 39.3831 25.6326 36.3308 0.0000 0.0000 0.0000
# 4 0.0000 0.0000 0.0000 24.5508 0.0000 0.0000
# 5 0.0000 0.0000 0.0000 0.0000 24.0846 0.0000
# 6 0.0000 0.0000 0.0000 0.0000 0.0000 18.1300
#
#
#
# Elastic Compliance Matrix: (Units=1/GPa)
#
#
# Indices 1 2 3 4 5 6 
#
# 1 0.010532 -0.002463 -0.009679 0.000000 0.000000 0.000000
# 2 -0.002463 0.015262 -0.008098 0.000000 0.000000 0.000000
# 3 -0.009679 -0.008098 0.043730 0.000000 0.000000 0.000000
# 4 0.000000 0.000000 0.000000 0.040732 0.000000 0.000000
# 5 0.000000 0.000000 0.000000 0.000000 0.041520 0.000000
# 6 0.000000 0.000000 0.000000 0.000000 0.000000 0.055157
#
#
# Mechanical properties :
#
#
# Convention : Reuss Voigt Hill
#
# Bulk Modulus (GPa) = 34.43001 53.48056 43.95529
# Shear Modulus (GPa) = 19.44811 23.69637 21.57224
#
# Velocity S-wave (km/s) = 3.25216 3.58983 3.42516
# Velocity P-wave (km/s) = 5.72942 6.80199 6.28862
#
# Compressibility (1/GPa) = 0.02904443
#
# Stress axis : x y z
#
# Youngs Moduli (GPa) = 94.95106 65.52309 22.86738
#
# Poissons Ratio (x) = 0.16137 0.22133
# Poissons Ratio (y) = 0.23385 0.18518
# Poissons Ratio (z) = 0.91903 0.53060
#
# Static dielectric constant tensor:
#      x y z
#    x 3.607310 0.000000 0.000000 
#    y 0.000000 3.409560 0.000000 
#    z 0.000000 0.000000 3.104770 
# 
# 
# High freq. dielectric constant tensor:
#      x y z
#    x 1.725320 0.000000 0.000000 
#    y 0.000000 1.718340 0.000000 
#    z 0.000000 0.000000 1.676390 
# 
# From -- ./inp_files/6832.got.cif
#   From: 2010.06.25/outbox.cif.g09.slc.cpg/sg58_4_cif.got.tgz:6832.got - 2010.06.26 21:38:00.
