data_PCOD8235531
_publ_section_title
;
Structure prediction by ZEFSAII (Michael W. Deem and Ramdas Pophale) SiO2 
 PCOD8235531
Probable space group: P N N M
;
_chemical_formula_sum "Si O2"
_cell_formula_units_Z 40
_cell_length_a 9.720655
_cell_length_b 25.968349
_cell_length_c 8.364879
_cell_angle_alpha 90.000000
_cell_angle_beta 90.000000
_cell_angle_gamma 90.000000
_cell_volume 2111.541065
_symmetry_space_group_name_H-M "P N N M"
_symmetry_group_IT_number 58
_symmetry_cell_setting 'orthorhombic'
loop_
_space_group_symop_operation_xyz
x,y,z
-x,-y,z
1/2+x,1/2-y,1/2-z
1/2-x,1/2+y,1/2-z
-x,-y,-z
x,y,-z
1/2-x,1/2+y,1/2+z
1/2+x,1/2-y,1/2+z
loop_
_atom_site_type_symbol
_atom_site_label
_atom_site_fract_x
_atom_site_fract_y
_atom_site_fract_z
Si Si1 0.508706 0.058198 0.813637
Si Si2 0.502235 0.330804 0.811540
Si Si3 0.290680 0.132594 0.313396
Si Si4 0.795886 0.640615 0.813798
Si Si5 0.511888 0.784976 0.813150
O O1 0.364069 0.086464 0.781602
O O2 0.633785 0.085889 0.721800
O O3 0.500000 0.000000 0.749879
O O4 0.542748 0.059857 0.000000
O O5 0.635056 0.361676 0.746107
O O6 0.364319 0.361517 0.762833
O O7 0.497599 0.272701 0.743580
O O8 0.519809 0.326319 0.000000
O O9 0.294648 0.118986 0.500000
O O10 0.368734 0.186300 0.284465
O O11 0.867430 0.686146 0.714326
O O12 0.810748 0.653819 0.000000
O O13 0.549138 0.786070 0.000000
#
# Coordination Sequence:
#
# PCOD8235531 Si02
#       5
#     8   8   8   8   8
#     4  10  21  38  56  73  95 124 161 206 254 301
#     4   9  19  32  48  74 107 136 162 201 243 284
#     4  10  19  33  52  75 101 130 168 205 241 287
#     4  10  19  33  52  75 101 130 168 205 241 287
#     4  10  18  31  49  72 105 140 170 197 235 284
#
# _framework density 18.94351
#
# number of rings (size 3 to 8) (size 9 to 14) (size 15 to 20)
#    0.000    2.200    0.000    6.000    0.000    1.600 
#    0.000   11.000    0.000    6.000    0.000    0.000 
#    0.000    0.000    0.000    0.000    0.000    0.000 
#
# Total GULP energy -496006.956808 kJ/mol
# GULP energy per Si atom -12400.173920 kJ/mol
# Density = 1.890039 g / cm^3
# Si number density = 18.943510 Si / 1000 Ang^3
#
#
#
# Elastic Constant Matrix: (Units=GPa)
#
#
# Indices 1 2 3 4 5 6 
#
# 1 164.6191 63.9213 4.1558 0.0000 0.0000 0.0000
# 2 63.9213 132.3283 5.2320 0.0000 0.0000 0.0000
# 3 4.1558 5.2320 31.9432 0.0000 0.0000 0.0000
# 4 0.0000 0.0000 0.0000 24.4491 0.0000 0.0000
# 5 0.0000 0.0000 0.0000 0.0000 17.3834 0.0000
# 6 0.0000 0.0000 0.0000 0.0000 0.0000 11.7994
#
#
#
# Elastic Compliance Matrix: (Units=1/GPa)
#
#
# Indices 1 2 3 4 5 6 
#
# 1 0.007482 -0.003599 -0.000384 0.000000 0.000000 0.000000
# 2 -0.003599 0.009337 -0.001061 0.000000 0.000000 0.000000
# 3 -0.000384 -0.001061 0.031529 0.000000 0.000000 0.000000
# 4 0.000000 0.000000 0.000000 0.040901 0.000000 0.000000
# 5 0.000000 0.000000 0.000000 0.000000 0.057526 0.000000
# 6 0.000000 0.000000 0.000000 0.000000 0.000000 0.084750
#
#
# Mechanical properties :
#
#
# Convention : Reuss Voigt Hill
#
# Bulk Modulus (GPa) = 26.13661 52.83431 39.48546
# Shear Modulus (GPa) = 19.65659 27.76514 23.71087
#
# Velocity S-wave (km/s) = 3.22474 3.83257 3.54172
# Velocity P-wave (km/s) = 5.26235 6.89462 6.13303
#
# Compressibility (1/GPa) = 0.03826051
#
# Stress axis : x y z
#
# Youngs Moduli (GPa) = 133.65829 107.09660 31.71652
#
# Poissons Ratio (x) = 0.38543 0.01218
# Poissons Ratio (y) = 0.48102 0.03366
# Poissons Ratio (z) = 0.05131 0.11365
#
# Static dielectric constant tensor:
#      x y z
#    x 3.694740 0.000000 0.000000 
#    y 0.000000 3.428150 0.000000 
#    z 0.000000 0.000000 3.316950 
# 
# 
# High freq. dielectric constant tensor:
#      x y z
#    x 1.741100 0.000000 0.000000 
#    y 0.000000 1.718330 0.000000 
#    z 0.000000 0.000000 1.727810 
# 
# From -- ./inp_files/2738.got.cif
#   From: 2010.06.25/outbox.cif.g09.slc.cpg/sg58_2_cif.got.tgz:2738.got - 2010.06.26 21:38:00.
