data_PCOD8235123
_publ_section_title
;
Structure prediction by ZEFSAII (Michael W. Deem and Ramdas Pophale) SiO2 
 PCOD8235123
Probable space group: P B C M
;
_chemical_formula_sum "Si O2"
_cell_formula_units_Z 56
_cell_length_a 10.323960
_cell_length_b 16.829954
_cell_length_c 14.615162
_cell_angle_alpha 90.000000
_cell_angle_beta 90.000000
_cell_angle_gamma 90.000000
_cell_volume 2539.410294
_symmetry_space_group_name_H-M "P B C M"
_symmetry_group_IT_number 57
_symmetry_cell_setting 'orthorhombic'
loop_
_space_group_symop_operation_xyz
x,y,z
-x,-y,1/2+z
x,1/2-y,-z
-x,1/2+y,1/2-z
-x,-y,-z
x,y,1/2-z
-x,1/2+y,z
x,1/2-y,1/2+z
loop_
_atom_site_type_symbol
_atom_site_label
_atom_site_fract_x
_atom_site_fract_y
_atom_site_fract_z
Si Si1 0.318062 0.237889 0.858169
Si Si2 0.395054 0.761933 0.356930
Si Si3 0.902345 0.882795 0.354878
Si Si4 0.703537 0.584873 0.354719
Si Si5 0.144254 0.673751 0.555560
Si Si6 0.801232 0.488773 0.978856
Si Si7 0.598444 0.079094 0.146808
O O1 0.328568 0.244697 0.750000
O O2 0.461753 0.214983 0.895097
O O3 0.214345 0.173483 0.890661
O O4 0.275476 0.325380 0.892315
O O5 0.386531 0.778704 0.250000
O O6 0.289418 0.816778 0.405874
O O7 0.366681 0.669910 0.379600
O O8 0.880308 0.906859 0.250000
O O9 0.039631 0.838001 0.363536
O O10 0.902426 0.960259 0.419155
O O11 0.754494 0.574520 0.250000
O O12 0.780849 0.525752 0.420679
O O13 0.553211 0.563010 0.358928
O O14 0.098245 0.750000 0.500000
O O15 0.138395 0.598313 0.488757
O O16 0.667563 0.482155 0.921739
O O17 0.647198 0.062093 0.250000
#
# Coordination Sequence:
#
# PCOD8235123 Si02
#       7
#     8   8   8   8   8   8   8
#     4   8  18  40  68  97 126 170 223 265 317 383
#     4   9  18  39  69  94 125 170 220 268 314 382
#     4  11  26  47  68  95 130 172 221 272 329 393
#     4   9  20  37  62  98 139 175 215 267 330 389
#     4  12  26  44  63  94 132 170 224 268 325 395
#     4  12  24  40  64  96 129 173 217 277 326 389
#     4   9  18  37  62  95 135 174 217 270 327 388
#
# _framework density 22.052365999999999
#
# number of rings (size 3 to 8) (size 9 to 14) (size 15 to 20)
#    0.000    2.000    1.429    3.429    2.000    3.429 
#    0.000    2.857    0.000    0.000    0.000    0.000 
#    0.000    0.000    0.000    0.000    0.000    0.000 
#
# Total GULP energy -694469.528667 kJ/mol
# GULP energy per Si atom -12401.241583 kJ/mol
# Density = 2.200217 g / cm^3
# Si number density = 22.052366 Si / 1000 Ang^3
#
#
#
# Elastic Constant Matrix: (Units=GPa)
#
#
# Indices 1 2 3 4 5 6 
#
# 1 91.4708 44.9238 36.8815 0.0000 0.0000 0.0000
# 2 44.9238 115.4305 51.3008 0.0000 0.0000 0.0000
# 3 36.8815 51.3008 99.8491 0.0000 0.0000 0.0000
# 4 0.0000 0.0000 0.0000 36.2842 0.0000 0.0000
# 5 0.0000 0.0000 0.0000 0.0000 29.2144 0.0000
# 6 0.0000 0.0000 0.0000 0.0000 0.0000 13.8475
#
#
#
# Elastic Compliance Matrix: (Units=1/GPa)
#
#
# Indices 1 2 3 4 5 6 
#
# 1 0.014230 -0.004150 -0.003124 0.000000 0.000000 0.000000
# 2 -0.004150 0.012437 -0.004857 0.000000 0.000000 0.000000
# 3 -0.003124 -0.004857 0.013665 0.000000 0.000000 0.000000
# 4 0.000000 0.000000 0.000000 0.027560 0.000000 0.000000
# 5 0.000000 0.000000 0.000000 0.000000 0.034230 0.000000
# 6 0.000000 0.000000 0.000000 0.000000 0.000000 0.072215
#
#
# Mechanical properties :
#
#
# Convention : Reuss Voigt Hill
#
# Bulk Modulus (GPa) = 62.22887 63.66251 62.94569
# Shear Modulus (GPa) = 24.51518 27.44550 25.98034
#
# Velocity S-wave (km/s) = 3.33780 3.53166 3.43610
# Velocity P-wave (km/s) = 6.56769 6.74993 6.65943
#
# Compressibility (1/GPa) = 0.01606971
#
# Stress axis : x y z
#
# Youngs Moduli (GPa) = 70.27328 80.40634 73.18200
#
# Poissons Ratio (x) = 0.33366 0.22863
# Poissons Ratio (y) = 0.29161 0.35545
# Poissons Ratio (z) = 0.21955 0.39054
#
# Static dielectric constant tensor:
#      x y z
#    x 3.893130 0.000000 0.000000 
#    y 0.000000 3.932630 0.000000 
#    z 0.000000 0.000000 3.887770 
# 
# 
# High freq. dielectric constant tensor:
#      x y z
#    x 1.860830 0.000000 0.000000 
#    y 0.000000 1.861900 0.000000 
#    z 0.000000 0.000000 1.868590 
# 
# From -- ./inp_files/17767.got.cif
#   From: 2010.03.12/outbox.cif.g09.slc.cpg/sg57_9_cif.got.tgz:17767.got - 2010.04.16 15:48:40.
