data_PCOD8235344
_publ_section_title
;
Structure prediction by ZEFSAII (Michael W. Deem and Ramdas Pophale) SiO2 
 PCOD8235344
Probable space group: P N N M
;
_chemical_formula_sum "Si O2"
_cell_formula_units_Z 64
_cell_length_a 9.637459
_cell_length_b 29.792297
_cell_length_c 14.198113
_cell_angle_alpha 90.000000
_cell_angle_beta 90.000000
_cell_angle_gamma 90.000000
_cell_volume 4076.591181
_symmetry_space_group_name_H-M "P N N M"
_symmetry_group_IT_number 58
_symmetry_cell_setting 'orthorhombic'
loop_
_space_group_symop_operation_xyz
x,y,z
-x,-y,z
1/2+x,1/2-y,1/2-z
1/2-x,1/2+y,1/2-z
-x,-y,-z
x,y,-z
1/2-x,1/2+y,1/2+z
1/2+x,1/2-y,1/2+z
loop_
_atom_site_type_symbol
_atom_site_label
_atom_site_fract_x
_atom_site_fract_y
_atom_site_fract_z
Si Si1 0.077514 0.704870 0.737391
Si Si2 0.655873 0.505688 0.887526
Si Si3 0.154938 0.415619 0.108607
Si Si4 0.273384 0.669963 0.888559
Si Si5 0.987412 0.195226 0.258473
Si Si6 0.687349 0.279843 0.609461
Si Si7 0.849598 0.426709 0.889496
Si Si8 0.693120 0.178764 0.687766
O O1 0.017869 0.753182 0.714425
O O2 0.942312 0.673027 0.745210
O O3 0.168465 0.703978 0.834553
O O4 0.176414 0.694272 0.648850
O O5 0.500000 0.500000 0.846462
O O6 0.723142 0.552482 0.850124
O O7 0.753068 0.465838 0.846918
O O8 0.648657 0.503944 0.000000
O O9 0.192658 0.363202 0.117330
O O10 0.004923 0.427488 0.155037
O O11 0.142314 0.427178 0.000000
O O12 0.426646 0.672449 0.843694
O O13 0.220509 0.620454 0.866708
O O14 0.276455 0.681377 0.000000
O O15 0.059876 0.193023 0.156445
O O16 0.833432 0.174649 0.251196
O O17 0.677491 0.287416 0.500000
O O18 0.686283 0.226371 0.632669
O O19 0.861367 0.433908 0.000000
#
# Coordination Sequence:
#
# PCOD8235344 Si02
#       8
#     8   8   8   8   8   8   8   8
#     4   9  18  33  45  63  90 117 153 200 235 268
#     4   9  18  29  40  59  90 118 149 192 225 257
#     4  10  18  27  43  63  86 124 161 186 220 265
#     4  10  19  31  48  66  88 124 164 193 224 268
#     4   9  20  31  43  65  94 118 148 200 239 270
#     4   9  18  33  49  63  87 124 160 195 232 276
#     4   9  17  29  43  61  84 118 160 190 216 260
#     4  10  18  30  45  67  92 116 155 196 231 265
#
# _framework density 15.699391
#
# number of rings (size 3 to 8) (size 9 to 14) (size 15 to 20)
#    0.000    2.625    1.250    1.500    1.750    6.000 
#    0.000    0.625    0.000    0.000    0.000    0.000 
#    0.000    0.000    0.000   18.000    0.500    5.750 
#
# Total GULP energy -792875.805461 kJ/mol
# GULP energy per Si atom -12388.684460 kJ/mol
# Density = 1.566366 g / cm^3
# Si number density = 15.699391 Si / 1000 Ang^3
#
#
#
# Elastic Constant Matrix: (Units=GPa)
#
#
# Indices 1 2 3 4 5 6 
#
# 1 141.3644 31.2192 43.6301 0.0000 0.0000 0.0000
# 2 31.2192 55.9111 13.4349 0.0000 0.0000 0.0000
# 3 43.6301 13.4349 70.5729 0.0000 0.0000 0.0000
# 4 0.0000 0.0000 0.0000 13.2790 0.0000 0.0000
# 5 0.0000 0.0000 0.0000 0.0000 13.6343 0.0000
# 6 0.0000 0.0000 0.0000 0.0000 0.0000 23.5481
#
#
#
# Elastic Compliance Matrix: (Units=1/GPa)
#
#
# Indices 1 2 3 4 5 6 
#
# 1 0.009565 -0.004108 -0.005131 0.000000 0.000000 0.000000
# 2 -0.004108 0.020507 -0.001364 0.000000 0.000000 0.000000
# 3 -0.005131 -0.001364 0.017602 0.000000 0.000000 0.000000
# 4 0.000000 0.000000 0.000000 0.075307 0.000000 0.000000
# 5 0.000000 0.000000 0.000000 0.000000 0.073345 0.000000
# 6 0.000000 0.000000 0.000000 0.000000 0.000000 0.042466
#
#
# Mechanical properties :
#
#
# Convention : Reuss Voigt Hill
#
# Bulk Modulus (GPa) = 37.78313 49.37967 43.58140
# Shear Modulus (GPa) = 18.59978 22.06322 20.33150
#
# Velocity S-wave (km/s) = 3.44575 3.75287 3.60258
# Velocity P-wave (km/s) = 6.32058 7.09227 6.71752
#
# Compressibility (1/GPa) = 0.02646684
#
# Stress axis : x y z
#
# Youngs Moduli (GPa) = 104.55063 48.76382 56.81255
#
# Poissons Ratio (x) = 0.20031 0.29152
# Poissons Ratio (y) = 0.42946 0.07752
# Poissons Ratio (z) = 0.53647 0.06653
#
# Static dielectric constant tensor:
#      x y z
#    x 3.605510 0.000000 0.000000 
#    y 0.000000 2.971960 0.000000 
#    z 0.000000 0.000000 2.596330 
# 
# 
# High freq. dielectric constant tensor:
#      x y z
#    x 1.631340 0.000000 0.000000 
#    y 0.000000 1.587470 0.000000 
#    z 0.000000 0.000000 1.538400 
# 
# From -- ./inp_files/20402.got.cif
#   From: 2010.06.25/outbox.cif.g09.slc.cpg/sg58_11_cif.got.tgz:20402.got - 2010.06.26 21:38:00.
