data_PCOD8235775
_publ_section_title
;
Structure prediction by ZEFSAII (Michael W. Deem and Ramdas Pophale) SiO2 
 PCOD8235775
Probable space group: P N N M
;
_chemical_formula_sum "Si O2"
_cell_formula_units_Z 64
_cell_length_a 11.005531
_cell_length_b 18.584631
_cell_length_c 15.866490
_cell_angle_alpha 90.000000
_cell_angle_beta 90.000000
_cell_angle_gamma 90.000000
_cell_volume 3245.232423
_symmetry_space_group_name_H-M "P N N M"
_symmetry_group_IT_number 58
_symmetry_cell_setting 'orthorhombic'
loop_
_space_group_symop_operation_xyz
x,y,z
-x,-y,z
1/2+x,1/2-y,1/2-z
1/2-x,1/2+y,1/2-z
-x,-y,-z
x,y,-z
1/2-x,1/2+y,1/2+z
1/2+x,1/2-y,1/2+z
loop_
_atom_site_type_symbol
_atom_site_label
_atom_site_fract_x
_atom_site_fract_y
_atom_site_fract_z
Si Si1 0.956318 0.923983 0.858980
Si Si2 0.236803 0.188850 0.904007
Si Si3 0.830117 0.771340 0.402913
Si Si4 0.528865 0.799977 0.200705
Si Si5 0.663082 0.560358 0.097264
Si Si6 0.856489 0.187915 0.814402
Si Si7 0.592083 0.414731 0.830416
Si Si8 0.837733 0.662526 0.181118
O O1 0.852389 0.880123 0.908808
O O2 0.903634 0.938797 0.766166
O O3 0.076985 0.876561 0.860676
O O4 0.000000 0.000000 0.900172
O O5 0.350557 0.167962 0.843339
O O6 0.170844 0.260250 0.866890
O O7 0.279435 0.205098 0.000000
O O8 0.849691 0.790825 0.500000
O O9 0.695023 0.740606 0.387239
O O10 0.835104 0.842069 0.345204
O O11 0.933324 0.715189 0.373930
O O12 0.554159 0.724611 0.247186
O O13 0.472471 0.849187 0.277402
O O14 0.548812 0.597227 0.143832
O O15 0.661739 0.475701 0.116276
O O16 0.792001 0.597266 0.122132
O O17 0.642495 0.573966 0.000000
O O18 0.742730 0.158495 0.764040
#
# Coordination Sequence:
#
# PCOD8235775 Si02
#       8
#     8   8   8   8   8   8   8   8
#     4  12  21  39  64  87 117 157 199 249 306 358
#     4  11  23  37  58  90 122 154 205 262 302 344
#     4  11  21  33  58  86 118 154 191 246 298 345
#     4  10  19  37  60  82 116 158 207 239 285 364
#     4  11  20  30  55  94 130 154 190 245 298 357
#     4  10  19  36  54  86 113 149 199 242 289 359
#     4  11  18  35  55  89 125 157 196 233 295 368
#     4  10  18  35  58  84 121 163 195 236 296 366
#
# _framework density 19.721236999999999
#
# number of rings (size 3 to 8) (size 9 to 14) (size 15 to 20)
#    0.000    1.250    5.000    4.500    0.000    0.750 
#    0.000    0.000    0.000   12.000    0.000   13.125 
#    0.000    0.000    0.000    0.000    0.000    0.000 
#
# Total GULP energy -793124.651007 kJ/mol
# GULP energy per Si atom -12392.572672 kJ/mol
# Density = 1.967635 g / cm^3
# Si number density = 19.721237 Si / 1000 Ang^3
#
#
#
# Elastic Constant Matrix: (Units=GPa)
#
#
# Indices 1 2 3 4 5 6 
#
# 1 76.4870 46.6009 28.6084 0.0000 0.0000 0.0000
# 2 46.6009 97.9146 11.6818 0.0000 0.0000 0.0000
# 3 28.6084 11.6818 70.9065 0.0000 0.0000 0.0000
# 4 0.0000 0.0000 0.0000 18.6973 0.0000 0.0000
# 5 0.0000 0.0000 0.0000 0.0000 25.3947 0.0000
# 6 0.0000 0.0000 0.0000 0.0000 0.0000 34.8042
#
#
#
# Elastic Compliance Matrix: (Units=1/GPa)
#
#
# Indices 1 2 3 4 5 6 
#
# 1 0.021429 -0.009351 -0.007105 0.000000 0.000000 0.000000
# 2 -0.009351 0.014498 0.001384 0.000000 0.000000 0.000000
# 3 -0.007105 0.001384 0.016742 0.000000 0.000000 0.000000
# 4 0.000000 0.000000 0.000000 0.053484 0.000000 0.000000
# 5 0.000000 0.000000 0.000000 0.000000 0.039378 0.000000
# 6 0.000000 0.000000 0.000000 0.000000 0.000000 0.028732
#
#
# Mechanical properties :
#
#
# Convention : Reuss Voigt Hill
#
# Bulk Modulus (GPa) = 44.39540 46.56559 45.48049
# Shear Modulus (GPa) = 23.59425 26.34036 24.96730
#
# Velocity S-wave (km/s) = 3.46264 3.65860 3.56196
# Velocity P-wave (km/s) = 6.20861 6.44285 6.32681
#
# Compressibility (1/GPa) = 0.02252485
#
# Stress axis : x y z
#
# Youngs Moduli (GPa) = 46.66562 68.97333 59.73085
#
# Poissons Ratio (x) = 0.64498 0.42441
# Poissons Ratio (y) = 0.43638 -0.08268
# Poissons Ratio (z) = 0.33157 -0.09548
#
# Static dielectric constant tensor:
#      x y z
#    x 3.789980 0.000000 0.000000 
#    y 0.000000 3.457000 0.000000 
#    z 0.000000 0.000000 3.611330 
# 
# 
# High freq. dielectric constant tensor:
#      x y z
#    x 1.756750 0.000000 0.000000 
#    y 0.000000 1.744650 0.000000 
#    z 0.000000 0.000000 1.770400 
# 
# From -- ./inp_files/21494.got.cif
#   From: 2010.06.25/outbox.cif.g09.slc.cpg/sg58_11_cif.got.tgz:21494.got - 2010.06.26 21:38:00.
