data_PCOD8235250
_publ_section_title
;
Structure prediction by ZEFSAII (Michael W. Deem and Ramdas Pophale) SiO2 
 PCOD8235250
Probable space group: P N N M
;
_chemical_formula_sum "Si O2"
_cell_formula_units_Z 64
_cell_length_a 30.126699
_cell_length_b 14.498683
_cell_length_c 9.544605
_cell_angle_alpha 90.000000
_cell_angle_beta 90.000000
_cell_angle_gamma 90.000000
_cell_volume 4169.059208
_symmetry_space_group_name_H-M "P N N M"
_symmetry_group_IT_number 58
_symmetry_cell_setting 'orthorhombic'
loop_
_space_group_symop_operation_xyz
x,y,z
-x,-y,z
1/2+x,1/2-y,1/2-z
1/2-x,1/2+y,1/2-z
-x,-y,-z
x,y,-z
1/2-x,1/2+y,1/2+z
1/2+x,1/2-y,1/2+z
loop_
_atom_site_type_symbol
_atom_site_label
_atom_site_fract_x
_atom_site_fract_y
_atom_site_fract_z
Si Si1 0.721870 0.033929 0.342183
Si Si2 0.551904 0.394386 0.334043
Si Si3 0.953707 0.103609 0.834721
Si Si4 0.675159 0.532414 0.844774
Si Si5 0.368842 0.658063 0.162549
Si Si6 0.703299 0.835032 0.664804
Si Si7 0.135420 0.812889 0.164398
Si Si8 0.713569 0.215687 0.834711
O O1 0.704618 0.056075 0.500000
O O2 0.773363 0.010248 0.347141
O O3 0.710701 0.117771 0.241044
O O4 0.700186 0.939824 0.278505
O O5 0.558591 0.382912 0.500000
O O6 0.558512 0.500483 0.283583
O O7 0.502347 0.363918 0.283841
O O8 0.586737 0.328276 0.254748
O O9 0.915647 0.175524 0.783088
O O10 0.956039 0.098781 0.000000
O O11 0.650618 0.440689 0.796066
O O12 0.666604 0.611959 0.734512
O O13 0.659104 0.562914 0.000000
O O14 0.332557 0.734460 0.201515
O O15 0.381652 0.664068 0.000000
O O16 0.711285 0.841249 0.500000
O O17 0.656168 0.786574 0.702706
O O18 0.744860 0.775524 0.725261
O O19 0.138226 0.831463 0.000000
O O20 0.719109 0.199041 0.000000
#
# Coordination Sequence:
#
# PCOD8235250 Si02
#       8
#     8   8   8   8   8   8   8   8
#     4  10  19  32  45  62  90 120 148 183 222 255
#     4   9  16  28  44  63  91 118 146 185 225 263
#     4   8  15  26  42  66  91 115 144 187 227 256
#     4  10  18  27  41  62  91 120 144 179 219 251
#     4  10  19  30  44  64  92 123 151 179 220 265
#     4   9  17  29  46  65  87 116 148 181 218 259
#     4  10  17  28  47  66  85 118 157 179 208 267
#     4  10  19  32  47  65  89 119 152 185 218 260
#
# _framework density 15.351184999999999
#
# number of rings (size 3 to 8) (size 9 to 14) (size 15 to 20)
#    0.000    2.500    3.750    0.750    0.000    0.500 
#    0.000    3.125    0.000    0.000    0.000    0.875 
#    0.000    7.000    0.000    0.000    0.000    0.000 
#
# Total GULP energy -793166.455081 kJ/mol
# GULP energy per Si atom -12393.225861 kJ/mol
# Density = 1.531625 g / cm^3
# Si number density = 15.351185 Si / 1000 Ang^3
#
#
#
# Elastic Constant Matrix: (Units=GPa)
#
#
# Indices 1 2 3 4 5 6 
#
# 1 99.5889 40.5617 28.5779 0.0000 0.0000 0.0000
# 2 40.5617 83.7327 27.8366 0.0000 0.0000 0.0000
# 3 28.5779 27.8366 31.6637 0.0000 0.0000 0.0000
# 4 0.0000 0.0000 0.0000 20.5335 0.0000 0.0000
# 5 0.0000 0.0000 0.0000 0.0000 21.1194 0.0000
# 6 0.0000 0.0000 0.0000 0.0000 0.0000 21.1316
#
#
#
# Elastic Compliance Matrix: (Units=1/GPa)
#
#
# Indices 1 2 3 4 5 6 
#
# 1 0.014332 -0.003734 -0.009653 0.000000 0.000000 0.000000
# 2 -0.003734 0.017847 -0.012320 0.000000 0.000000 0.000000
# 3 -0.009653 -0.012320 0.051125 0.000000 0.000000 0.000000
# 4 0.000000 0.000000 0.000000 0.048701 0.000000 0.000000
# 5 0.000000 0.000000 0.000000 0.000000 0.047350 0.000000
# 6 0.000000 0.000000 0.000000 0.000000 0.000000 0.047322
#
#
# Mechanical properties :
#
#
# Convention : Reuss Voigt Hill
#
# Bulk Modulus (GPa) = 31.35697 45.43751 38.39724
# Shear Modulus (GPa) = 17.31771 20.42417 18.87094
#
# Velocity S-wave (km/s) = 3.36237 3.65151 3.50992
# Velocity P-wave (km/s) = 5.96194 6.88774 6.44150
#
# Compressibility (1/GPa) = 0.03189084
#
# Stress axis : x y z
#
# Youngs Moduli (GPa) = 69.77431 56.03107 19.55974
#
# Poissons Ratio (x) = 0.20920 0.18881
# Poissons Ratio (y) = 0.26051 0.24098
# Poissons Ratio (z) = 0.67353 0.69032
#
# Static dielectric constant tensor:
#      x y z
#    x 3.150520 0.000000 0.000000 
#    y 0.000000 2.852280 0.000000 
#    z 0.000000 0.000000 2.746150 
# 
# 
# High freq. dielectric constant tensor:
#      x y z
#    x 1.586280 0.000000 0.000000 
#    y 0.000000 1.564250 0.000000 
#    z 0.000000 0.000000 1.567160 
# 
# From -- ./inp_files/7144.got.cif
#   From: 2010.06.25/outbox.cif.g09.slc.cpg/sg58_4_cif.got.tgz:7144.got - 2010.06.26 21:38:00.
