data_PCOD8235122
_publ_section_title
;
Structure prediction by ZEFSAII (Michael W. Deem and Ramdas Pophale) SiO2 
 PCOD8235122
Probable space group: P B C M
;
_chemical_formula_sum "Si O2"
_cell_formula_units_Z 24
_cell_length_a 4.888839
_cell_length_b 12.498202
_cell_length_c 16.336882
_cell_angle_alpha 90.000000
_cell_angle_beta 90.000000
_cell_angle_gamma 90.000000
_cell_volume 998.211220
_symmetry_space_group_name_H-M "P B C M"
_symmetry_group_IT_number 57
_symmetry_cell_setting 'orthorhombic'
loop_
_space_group_symop_operation_xyz
x,y,z
-x,-y,1/2+z
x,1/2-y,-z
-x,1/2+y,1/2-z
-x,-y,-z
x,y,1/2-z
-x,1/2+y,z
x,1/2-y,1/2+z
loop_
_atom_site_type_symbol
_atom_site_label
_atom_site_fract_x
_atom_site_fract_y
_atom_site_fract_z
Si Si1 0.522301 0.351952 0.083886
Si Si2 0.023435 0.258294 0.656290
Si Si3 0.208439 0.942964 0.937747
O O1 0.776154 0.325350 0.142952
O O2 0.413124 0.471980 0.103731
O O3 0.276240 0.269656 0.097739
O O4 0.619781 0.352945 0.988637
O O5 0.117884 0.252903 0.750000
O O6 0.940710 0.379770 0.634696
O O7 0.000000 0.000000 0.000000
#
# Coordination Sequence:
#
# PCOD8235122 Si02
#       3
#     8   8   8
#     4  11  26  47  74 105 141 192 248 295 355 442
#     4  12  28  46  71 109 153 188 237 310 373 423
#     4  11  26  46  78 107 140 196 250 296 351 447
#
# _framework density 24.043008
#
# number of rings (size 3 to 8) (size 9 to 14) (size 15 to 20)
#    0.000    0.667    3.333    2.000   14.000    2.667 
#    0.000    0.000    0.000    0.000    0.000    0.000 
#    0.000    0.000    0.000    0.000    0.000    0.000 
#
# Total GULP energy -297683.232291 kJ/mol
# GULP energy per Si atom -12403.468012 kJ/mol
# Density = 2.398829 g / cm^3
# Si number density = 24.043008 Si / 1000 Ang^3
#
#
#
# Elastic Constant Matrix: (Units=GPa)
#
#
# Indices 1 2 3 4 5 6 
#
# 1 135.6813 19.0992 37.3819 0.0000 0.0000 0.0000
# 2 19.0992 60.5387 43.2068 0.0000 0.0000 0.0000
# 3 37.3819 43.2068 90.7691 0.0000 0.0000 0.0000
# 4 0.0000 0.0000 0.0000 29.1174 0.0000 0.0000
# 5 0.0000 0.0000 0.0000 0.0000 18.5997 0.0000
# 6 0.0000 0.0000 0.0000 0.0000 0.0000 56.4606
#
#
#
# Elastic Compliance Matrix: (Units=1/GPa)
#
#
# Indices 1 2 3 4 5 6 
#
# 1 0.008316 -0.000272 -0.003296 0.000000 0.000000 0.000000
# 2 -0.000272 0.025026 -0.011801 0.000000 0.000000 0.000000
# 3 -0.003296 -0.011801 0.017992 0.000000 0.000000 0.000000
# 4 0.000000 0.000000 0.000000 0.034344 0.000000 0.000000
# 5 0.000000 0.000000 0.000000 0.000000 0.053764 0.000000
# 6 0.000000 0.000000 0.000000 0.000000 0.000000 0.017711
#
#
# Mechanical properties :
#
#
# Convention : Reuss Voigt Hill
#
# Bulk Modulus (GPa) = 48.54836 54.04055 51.29445
# Shear Modulus (GPa) = 25.67310 33.32230 29.49770
#
# Velocity S-wave (km/s) = 3.27126 3.72687 3.50647
# Velocity P-wave (km/s) = 5.87404 6.40662 6.14610
#
# Compressibility (1/GPa) = 0.02059802
#
# Stress axis : x y z
#
# Youngs Moduli (GPa) = 120.24353 39.95777 55.58144
#
# Poissons Ratio (x) = 0.01085 0.18318
# Poissons Ratio (y) = 0.03265 0.65591
# Poissons Ratio (z) = 0.39629 0.47154
#
# Static dielectric constant tensor:
#      x y z
#    x 4.738820 0.000000 0.000000 
#    y 0.000000 4.429930 0.000000 
#    z 0.000000 0.000000 3.816080 
# 
# 
# High freq. dielectric constant tensor:
#      x y z
#    x 1.976000 0.000000 0.000000 
#    y 0.000000 1.972940 0.000000 
#    z 0.000000 0.000000 1.915380 
# 
# From -- ./inp_files/14607.got.cif
#   From: 2010.03.12/outbox.cif.g09.slc.cpg/sg57_8_cif.got.tgz:14607.got - 2010.04.16 15:48:40.
