data_PCOD8235638
_publ_section_title
;
Structure prediction by ZEFSAII (Michael W. Deem and Ramdas Pophale) SiO2 
 PCOD8235638
Probable space group: P N N M
;
_chemical_formula_sum "Si O2"
_cell_formula_units_Z 64
_cell_length_a 18.707536
_cell_length_b 19.979162
_cell_length_c 9.436641
_cell_angle_alpha 90.000000
_cell_angle_beta 90.000000
_cell_angle_gamma 90.000000
_cell_volume 3527.047361
_symmetry_space_group_name_H-M "P N N M"
_symmetry_group_IT_number 58
_symmetry_cell_setting 'orthorhombic'
loop_
_space_group_symop_operation_xyz
x,y,z
-x,-y,z
1/2+x,1/2-y,1/2-z
1/2-x,1/2+y,1/2-z
-x,-y,-z
x,y,-z
1/2-x,1/2+y,1/2+z
1/2+x,1/2-y,1/2+z
loop_
_atom_site_type_symbol
_atom_site_label
_atom_site_fract_x
_atom_site_fract_y
_atom_site_fract_z
Si Si1 0.778865 0.155064 0.336173
Si Si2 0.436293 0.313250 0.169447
Si Si3 0.191351 0.097263 0.331881
Si Si4 0.295235 0.982594 0.664592
Si Si5 0.530697 0.197248 0.161852
Si Si6 0.684421 0.253311 0.161849
Si Si7 0.563250 0.051195 0.167000
Si Si8 0.465114 0.567812 0.830772
O O1 0.775090 0.174675 0.500000
O O2 0.856825 0.172357 0.273355
O O3 0.761065 0.077357 0.312664
O O4 0.720345 0.197633 0.256217
O O5 0.464664 0.240663 0.225965
O O6 0.488282 0.370707 0.228669
O O7 0.437739 0.314657 0.000000
O O8 0.185889 0.094739 0.500000
O O9 0.206514 0.173218 0.282256
O O10 0.115353 0.072799 0.269941
O O11 0.255440 0.049497 0.280040
O O12 0.317302 0.988067 0.500000
O O13 0.365839 0.974041 0.756528
O O14 0.599616 0.244516 0.176465
O O15 0.541480 0.124037 0.232312
O O16 0.512711 0.181816 0.000000
O O17 0.708666 0.242919 0.000000
O O18 0.500000 0.000000 0.200805
O O19 0.580017 0.055608 0.000000
O O20 0.500000 0.500000 0.772173
O O21 0.464766 0.568414 0.000000
#
# Coordination Sequence:
#
# PCOD8235638 Si02
#       8
#     8   8   8   8   8   8   8   8
#     4  10  20  32  50  78 108 135 164 207 262 312
#     4   9  16  27  45  72 100 126 161 206 253 294
#     4   9  17  29  47  74 103 132 167 205 249 304
#     4  10  20  34  51  76 111 141 165 204 262 322
#     4   9  16  30  51  72  96 129 170 215 254 293
#     4  10  18  32  54  73  96 136 178 210 248 302
#     4  10  21  36  55  77  99 132 182 225 255 295
#     4   9  14  22  40  67  98 127 156 195 241 290
#
# _framework density 18.145489000000001
#
# number of rings (size 3 to 8) (size 9 to 14) (size 15 to 20)
#    0.000    2.500    2.500    0.750    0.000    4.250 
#    0.000    1.875    0.000    1.500    0.000    0.000 
#    0.000    3.500    0.000    0.000    0.000    0.000 
#
# Total GULP energy -793363.794397 kJ/mol
# GULP energy per Si atom -12396.309287 kJ/mol
# Density = 1.810419 g / cm^3
# Si number density = 18.145489 Si / 1000 Ang^3
#
#
#
# Elastic Constant Matrix: (Units=GPa)
#
#
# Indices 1 2 3 4 5 6 
#
# 1 78.2531 25.3008 23.7315 0.0000 0.0000 0.0000
# 2 25.3008 113.1623 21.3620 0.0000 0.0000 0.0000
# 3 23.7315 21.3620 23.6043 0.0000 0.0000 0.0000
# 4 0.0000 0.0000 0.0000 14.7347 0.0000 0.0000
# 5 0.0000 0.0000 0.0000 0.0000 16.0327 0.0000
# 6 0.0000 0.0000 0.0000 0.0000 0.0000 36.9897
#
#
#
# Elastic Compliance Matrix: (Units=1/GPa)
#
#
# Indices 1 2 3 4 5 6 
#
# 1 0.018437 -0.000751 -0.017857 0.000000 0.000000 0.000000
# 2 -0.000751 0.010688 -0.008917 0.000000 0.000000 0.000000
# 3 -0.017857 -0.008917 0.068388 0.000000 0.000000 0.000000
# 4 0.000000 0.000000 0.000000 0.067867 0.000000 0.000000
# 5 0.000000 0.000000 0.000000 0.000000 0.062373 0.000000
# 6 0.000000 0.000000 0.000000 0.000000 0.000000 0.027035
#
#
# Mechanical properties :
#
#
# Convention : Reuss Voigt Hill
#
# Bulk Modulus (GPa) = 23.55000 39.53426 31.54213
# Shear Modulus (GPa) = 15.43244 23.19313 19.31279
#
# Velocity S-wave (km/s) = 2.91947 3.57904 3.26595
# Velocity P-wave (km/s) = 4.93670 6.23811 5.62517
#
# Compressibility (1/GPa) = 0.04246284
#
# Stress axis : x y z
#
# Youngs Moduli (GPa) = 54.23788 93.56094 14.62241
#
# Poissons Ratio (x) = 0.07030 0.26111
# Poissons Ratio (y) = 0.04075 0.13039
# Poissons Ratio (z) = 0.96851 0.83432
#
# Static dielectric constant tensor:
#      x y z
#    x 3.409110 0.000000 0.000000 
#    y 0.000000 3.664100 0.000000 
#    z 0.000000 0.000000 2.792540 
# 
# 
# High freq. dielectric constant tensor:
#      x y z
#    x 1.707990 0.000000 0.000000 
#    y 0.000000 1.722300 0.000000 
#    z 0.000000 0.000000 1.635840 
# 
# From -- ./inp_files/8291.got.cif
#   From: 2010.06.25/outbox.cif.g09.slc.cpg/sg58_5_cif.got.tgz:8291.got - 2010.06.26 21:38:00.
