data_PCOD8235031
_publ_section_title
;
Structure prediction by ZEFSAII (Michael W. Deem and Ramdas Pophale) SiO2 
 PCOD8235031
Probable space group: P B C M
;
_chemical_formula_sum "Si O2"
_cell_formula_units_Z 40
_cell_length_a 25.396424
_cell_length_b 9.238968
_cell_length_c 8.651698
_cell_angle_alpha 90.000000
_cell_angle_beta 90.000000
_cell_angle_gamma 90.000000
_cell_volume 2030.006289
_symmetry_space_group_name_H-M "P B C M"
_symmetry_group_IT_number 57
_symmetry_cell_setting 'orthorhombic'
loop_
_space_group_symop_operation_xyz
x,y,z
-x,-y,1/2+z
x,1/2-y,-z
-x,1/2+y,1/2-z
-x,-y,-z
x,y,1/2-z
-x,1/2+y,z
x,1/2-y,1/2+z
loop_
_atom_site_type_symbol
_atom_site_label
_atom_site_fract_x
_atom_site_fract_y
_atom_site_fract_z
Si Si1 0.048222 0.589725 0.433807
Si Si2 0.452877 0.407878 0.932852
Si Si3 0.356944 0.901605 0.432338
Si Si4 0.239416 0.901080 0.068858
Si Si5 0.142598 0.409117 0.932886
O O1 0.045586 0.750000 0.500000
O O2 0.044982 0.594892 0.250000
O O3 0.101853 0.515497 0.486473
O O4 0.000000 0.500000 0.500000
O O5 0.457729 0.403818 0.750000
O O6 0.397132 0.474905 0.987453
O O7 0.456768 0.250000 0.000000
O O8 0.500000 0.500000 0.000000
O O9 0.376772 0.750000 0.500000
O O10 0.357275 0.887216 0.250000
O O11 0.298053 0.939086 0.493662
O O12 0.240497 0.878582 0.250000
O O13 0.200557 0.031631 0.023596
O O14 0.218714 0.750000 0.000000
O O15 0.132557 0.406904 0.750000
O O16 0.135974 0.250000 0.000000
#
# Coordination Sequence:
#
# PCOD8235031 Si02
#       5
#     8   8   8   8   8
#     4  12  25  43  65  90 120 154 193 237 286 340
#     4  11  23  38  57  81 112 147 188 234 285 340
#     4   9  19  36  57  82 111 146 186 232 282 337
#     4   9  19  36  58  83 113 148 189 233 282 337
#     4  11  23  39  59  86 119 155 194 238 286 338
#
# _framework density 19.704371999999999
#
# number of rings (size 3 to 8) (size 9 to 14) (size 15 to 20)
#    0.000    1.600    0.000    4.800    0.000    7.200 
#    0.000    0.000    0.000    0.000    0.000    0.000 
#    0.000    0.000    0.000    0.000    0.000    0.000 
#
# Total GULP energy -496092.898959 kJ/mol
# GULP energy per Si atom -12402.322474 kJ/mol
# Density = 1.965952 g / cm^3
# Si number density = 19.704372 Si / 1000 Ang^3
#
#
#
# Elastic Constant Matrix: (Units=GPa)
#
#
# Indices 1 2 3 4 5 6 
#
# 1 134.2605 90.3033 57.5803 0.0000 0.0000 0.0000
# 2 90.3033 181.3116 59.9956 0.0000 0.0000 0.0000
# 3 57.5803 59.9956 95.6399 0.0000 0.0000 0.0000
# 4 0.0000 0.0000 0.0000 39.2244 0.0000 0.0000
# 5 0.0000 0.0000 0.0000 0.0000 29.6793 0.0000
# 6 0.0000 0.0000 0.0000 0.0000 0.0000 44.7294
#
#
#
# Elastic Compliance Matrix: (Units=1/GPa)
#
#
# Indices 1 2 3 4 5 6 
#
# 1 0.012633 -0.004764 -0.004617 0.000000 0.000000 0.000000
# 2 -0.004764 0.008757 -0.002625 0.000000 0.000000 0.000000
# 3 -0.004617 -0.002625 0.014882 0.000000 0.000000 0.000000
# 4 0.000000 0.000000 0.000000 0.025494 0.000000 0.000000
# 5 0.000000 0.000000 0.000000 0.000000 0.033693 0.000000
# 6 0.000000 0.000000 0.000000 0.000000 0.000000 0.022357
#
#
# Mechanical properties :
#
#
# Convention : Reuss Voigt Hill
#
# Bulk Modulus (GPa) = 81.56877 91.88561 86.72719
# Shear Modulus (GPa) = 34.26670 36.28215 35.27442
#
# Velocity S-wave (km/s) = 4.17470 4.29572 4.23564
# Velocity P-wave (km/s) = 8.04510 8.44616 8.24807
#
# Compressibility (1/GPa) = 0.01225959
#
# Stress axis : x y z
#
# Youngs Moduli (GPa) = 79.16073 114.19853 67.19419
#
# Poissons Ratio (x) = 0.54404 0.31024
# Poissons Ratio (y) = 0.37712 0.17638
# Poissons Ratio (z) = 0.36548 0.29977
#
# Static dielectric constant tensor:
#      x y z
#    x 4.296790 0.000000 0.000000 
#    y 0.000000 3.607990 0.000000 
#    z 0.000000 0.000000 3.657380 
# 
# 
# High freq. dielectric constant tensor:
#      x y z
#    x 1.786800 0.000000 0.000000 
#    y 0.000000 1.773740 0.000000 
#    z 0.000000 0.000000 1.773910 
# 
# From -- ./inp_files/8863.got.cif
#   From: 2010.03.12/outbox.cif.g09.slc.cpg/sg57_5_cif.got.tgz:8863.got - 2010.04.16 15:48:40.
