data_PCOD8235585
_publ_section_title
;
Structure prediction by ZEFSAII (Michael W. Deem and Ramdas Pophale) SiO2 
 PCOD8235585
Probable space group: P N N M
;
_chemical_formula_sum "Si O2"
_cell_formula_units_Z 56
_cell_length_a 20.538974
_cell_length_b 11.788984
_cell_length_c 12.153485
_cell_angle_alpha 90.000000
_cell_angle_beta 90.000000
_cell_angle_gamma 90.000000
_cell_volume 2942.767511
_symmetry_space_group_name_H-M "P N N M"
_symmetry_group_IT_number 58
_symmetry_cell_setting 'orthorhombic'
loop_
_space_group_symop_operation_xyz
x,y,z
-x,-y,z
1/2+x,1/2-y,1/2-z
1/2-x,1/2+y,1/2-z
-x,-y,-z
x,y,-z
1/2-x,1/2+y,1/2+z
1/2+x,1/2-y,1/2+z
loop_
_atom_site_type_symbol
_atom_site_label
_atom_site_fract_x
_atom_site_fract_y
_atom_site_fract_z
Si Si1 0.674733 0.947008 0.199623
Si Si2 0.921669 0.242141 0.721560
Si Si3 0.900895 0.536783 0.500000
Si Si4 0.809990 0.866998 0.128196
Si Si5 0.074599 0.965277 0.127747
Si Si6 0.342036 0.873944 0.378387
Si Si7 0.981187 0.307147 0.500000
Si Si8 0.990955 0.622209 0.121581
O O1 0.640488 0.823911 0.205169
O O2 0.751397 0.934774 0.183157
O O3 0.644102 0.030163 0.107947
O O4 0.668077 0.010012 0.314647
O O5 0.901339 0.123599 0.778072
O O6 0.960322 0.231743 0.605584
O O7 0.972594 0.286338 0.808898
O O8 0.945699 0.426891 0.500000
O O9 0.942113 0.655384 0.500000
O O10 0.809690 0.738106 0.175707
O O11 0.878993 0.927317 0.149364
O O12 0.794990 0.859426 0.000000
O O13 0.082564 0.922020 0.000000
O O14 0.000000 0.000000 0.149277
O O15 0.313709 0.896276 0.500000
O O16 0.417196 0.840912 0.386080
O O17 0.000000 0.500000 0.180533
O O18 0.022990 0.616454 0.000000
#
# Coordination Sequence:
#
# PCOD8235585 Si02
#       8
#     8   8   4   8   8   8   4   8
#     4  11  21  35  57  85 116 154 195 235 292 342
#     4  11  21  34  57  88 119 157 192 240 289 349
#     4   9  18  34  54  80 117 152 195 242 271 339
#     4  10  22  40  59  83 114 154 198 234 284 355
#     4  10  22  41  65  88 113 151 197 246 299 356
#     4  10  21  36  59  86 116 147 186 243 294 341
#     4   9  20  32  53  86 116 154 199 231 283 334
#     4  10  18  31  53  87 118 142 182 242 301 335
#
# _framework density 19.029706000000001
#
# number of rings (size 3 to 8) (size 9 to 14) (size 15 to 20)
#    0.000    1.857    2.143    2.143    4.000    2.857 
#    0.000    0.357    1.571    0.000    0.000    0.000 
#    0.000    0.000    0.000    0.000    0.000    0.000 
#
# Total GULP energy -694098.202045 kJ/mol
# GULP energy per Si atom -12394.610751 kJ/mol
# Density = 1.898639 g / cm^3
# Si number density = 19.029706 Si / 1000 Ang^3
#
#
#
# Elastic Constant Matrix: (Units=GPa)
#
#
# Indices 1 2 3 4 5 6 
#
# 1 93.7861 19.1272 25.6138 0.0000 0.0000 0.0000
# 2 19.1272 69.2583 37.5165 0.0000 0.0000 0.0000
# 3 25.6138 37.5165 84.2876 0.0000 0.0000 0.0000
# 4 0.0000 0.0000 0.0000 29.2259 0.0000 0.0000
# 5 0.0000 0.0000 0.0000 0.0000 7.5504 0.0000
# 6 0.0000 0.0000 0.0000 0.0000 0.0000 24.7900
#
#
#
# Elastic Compliance Matrix: (Units=1/GPa)
#
#
# Indices 1 2 3 4 5 6 
#
# 1 0.011783 -0.001732 -0.002810 0.000000 0.000000 0.000000
# 2 -0.001732 0.019281 -0.008055 0.000000 0.000000 0.000000
# 3 -0.002810 -0.008055 0.016303 0.000000 0.000000 0.000000
# 4 0.000000 0.000000 0.000000 0.034216 0.000000 0.000000
# 5 0.000000 0.000000 0.000000 0.000000 0.132443 0.000000
# 6 0.000000 0.000000 0.000000 0.000000 0.000000 0.040339
#
#
# Mechanical properties :
#
#
# Convention : Reuss Voigt Hill
#
# Bulk Modulus (GPa) = 45.10081 45.76079 45.43080
# Shear Modulus (GPa) = 17.42455 23.31823 20.37139
#
# Velocity S-wave (km/s) = 3.02925 3.50431 3.27541
# Velocity P-wave (km/s) = 5.99890 6.36183 6.18303
#
# Compressibility (1/GPa) = 0.02217255
#
# Stress axis : x y z
#
# Youngs Moduli (GPa) = 84.86661 51.86549 61.33664
#
# Poissons Ratio (x) = 0.08984 0.17234
# Poissons Ratio (y) = 0.14700 0.49409
# Poissons Ratio (z) = 0.23845 0.41780
#
# Static dielectric constant tensor:
#      x y z
#    x 3.471430 0.000000 0.000000 
#    y 0.000000 3.527690 0.000000 
#    z 0.000000 0.000000 3.594500 
# 
# 
# High freq. dielectric constant tensor:
#      x y z
#    x 1.732840 0.000000 0.000000 
#    y 0.000000 1.724300 0.000000 
#    z 0.000000 0.000000 1.736150 
# 
# From -- ./inp_files/17521.got.cif
#   From: 2010.06.25/outbox.cif.g09.slc.cpg/sg58_9_cif.got.tgz:17521.got - 2010.06.26 21:38:00.
