data_PCOD8235838
_publ_section_title
;
Structure prediction by ZEFSAII (Michael W. Deem and Ramdas Pophale) SiO2 
 PCOD8235838
Probable space group: P N N M
;
_chemical_formula_sum "Si O2"
_cell_formula_units_Z 64
_cell_length_a 19.514513
_cell_length_b 20.052534
_cell_length_c 9.215160
_cell_angle_alpha 90.000000
_cell_angle_beta 90.000000
_cell_angle_gamma 90.000000
_cell_volume 3606.034348
_symmetry_space_group_name_H-M "P N N M"
_symmetry_group_IT_number 58
_symmetry_cell_setting 'orthorhombic'
loop_
_space_group_symop_operation_xyz
x,y,z
-x,-y,z
1/2+x,1/2-y,1/2-z
1/2-x,1/2+y,1/2-z
-x,-y,-z
x,y,-z
1/2-x,1/2+y,1/2+z
1/2+x,1/2-y,1/2+z
loop_
_atom_site_type_symbol
_atom_site_label
_atom_site_fract_x
_atom_site_fract_y
_atom_site_fract_z
Si Si1 0.569675 0.675653 0.326627
Si Si2 0.248660 0.212286 0.669629
Si Si3 0.570438 0.964822 0.328083
Si Si4 0.719261 0.641475 0.670625
Si Si5 0.204895 0.489265 0.672461
Si Si6 0.684413 0.401382 0.670636
Si Si7 0.033979 0.066718 0.827382
Si Si8 0.900721 0.318669 0.828454
O O1 0.572201 0.675312 0.500000
O O2 0.641759 0.645726 0.267051
O O3 0.507494 0.630853 0.266902
O O4 0.559632 0.752352 0.271001
O O5 0.238699 0.199644 0.500000
O O6 0.240255 0.290392 0.707961
O O7 0.192091 0.170752 0.756082
O O8 0.322366 0.185916 0.723582
O O9 0.582930 0.968529 0.500000
O O10 0.632131 0.002742 0.249564
O O11 0.500000 0.000000 0.282442
O O12 0.566400 0.887862 0.272274
O O13 0.713101 0.631602 0.500000
O O14 0.761072 0.578821 0.733785
O O15 0.193849 0.487236 0.500000
O O16 0.255108 0.549165 0.718881
O O17 0.683659 0.390660 0.500000
O O18 0.612274 0.431105 0.725016
O O19 0.029541 0.065796 0.000000
O O20 0.000000 0.000000 0.762862
O O21 0.902615 0.317552 0.000000
#
# Coordination Sequence:
#
# PCOD8235838 Si02
#       8
#     8   8   8   8   8   8   8   8
#     4   8  13  24  44  67  91 124 162 194 225 271
#     4   9  16  30  51  68  88 123 165 197 226 279
#     4  10  20  34  50  70  95 122 160 206 244 282
#     4   8  15  28  48  72  93 124 166 199 226 276
#     4  10  19  32  50  72 100 127 157 195 242 294
#     4  10  19  29  46  75 103 124 151 197 246 283
#     4   9  16  26  41  66 100 129 153 189 238 283
#     4   8  14  27  47  66  85 116 160 195 223 272
#
# _framework density 17.748028000000001
#
# number of rings (size 3 to 8) (size 9 to 14) (size 15 to 20)
#    0.000    3.000    1.250    2.250    0.000    3.250 
#    2.250    0.625    0.000    0.375    0.000    4.375 
#    0.000    0.000    0.000    0.000    0.000    0.000 
#
# Total GULP energy -793206.391611 kJ/mol
# GULP energy per Si atom -12393.849869 kJ/mol
# Density = 1.770763 g / cm^3
# Si number density = 17.748028 Si / 1000 Ang^3
#
#
#
# Elastic Constant Matrix: (Units=GPa)
#
#
# Indices 1 2 3 4 5 6 
#
# 1 118.1100 67.6410 24.8631 0.0000 0.0000 0.0000
# 2 67.6410 140.9441 22.2864 0.0000 0.0000 0.0000
# 3 24.8631 22.2864 15.7931 0.0000 0.0000 0.0000
# 4 0.0000 0.0000 0.0000 18.5442 0.0000 0.0000
# 5 0.0000 0.0000 0.0000 0.0000 14.4942 0.0000
# 6 0.0000 0.0000 0.0000 0.0000 0.0000 35.0733
#
#
#
# Elastic Compliance Matrix: (Units=1/GPa)
#
#
# Indices 1 2 3 4 5 6 
#
# 1 0.014432 -0.004291 -0.016666 0.000000 0.000000 0.000000
# 2 -0.004291 0.010409 -0.007933 0.000000 0.000000 0.000000
# 3 -0.016666 -0.007933 0.100750 0.000000 0.000000 0.000000
# 4 0.000000 0.000000 0.000000 0.053925 0.000000 0.000000
# 5 0.000000 0.000000 0.000000 0.000000 0.068993 0.000000
# 6 0.000000 0.000000 0.000000 0.000000 0.000000 0.028512
#
#
# Mechanical properties :
#
#
# Convention : Reuss Voigt Hill
#
# Bulk Modulus (GPa) = 14.74665 56.04759 35.39712
# Shear Modulus (GPa) = 13.98977 24.29278 19.14127
#
# Velocity S-wave (km/s) = 2.81061 3.70369 3.28762
# Velocity P-wave (km/s) = 4.34277 7.06668 5.86505
#
# Compressibility (1/GPa) = 0.06781202
#
# Stress axis : x y z
#
# Youngs Moduli (GPa) = 69.28835 96.07329 9.92557
#
# Poissons Ratio (x) = 0.41226 0.16542
# Poissons Ratio (y) = 0.29732 0.07874
# Poissons Ratio (z) = 1.15473 0.76213
#
# Static dielectric constant tensor:
#      x y z
#    x 3.283790 0.000000 0.000000 
#    y 0.000000 3.763830 0.000000 
#    z 0.000000 0.000000 2.698570 
# 
# 
# High freq. dielectric constant tensor:
#      x y z
#    x 1.677510 0.000000 0.000000 
#    y 0.000000 1.705670 0.000000 
#    z 0.000000 0.000000 1.624580 
# 
# From -- ./inp_files/16687.got.cif
#   From: 2010.06.25/outbox.cif.g09.slc.cpg/sg58_9_cif.got.tgz:16687.got - 2010.06.26 21:38:00.
