data_PCOD8235737
_publ_section_title
;
Structure prediction by ZEFSAII (Michael W. Deem and Ramdas Pophale) SiO2 
 PCOD8235737
Probable space group: P N N M
;
_chemical_formula_sum "Si O2"
_cell_formula_units_Z 60
_cell_length_a 12.065448
_cell_length_b 21.808335
_cell_length_c 12.727063
_cell_angle_alpha 90.000000
_cell_angle_beta 90.000000
_cell_angle_gamma 90.000000
_cell_volume 3348.838130
_symmetry_space_group_name_H-M "P N N M"
_symmetry_group_IT_number 58
_symmetry_cell_setting 'orthorhombic'
loop_
_space_group_symop_operation_xyz
x,y,z
-x,-y,z
1/2+x,1/2-y,1/2-z
1/2-x,1/2+y,1/2-z
-x,-y,-z
x,y,-z
1/2-x,1/2+y,1/2+z
1/2+x,1/2-y,1/2+z
loop_
_atom_site_type_symbol
_atom_site_label
_atom_site_fract_x
_atom_site_fract_y
_atom_site_fract_z
Si Si1 0.815538 0.054388 0.376293
Si Si2 0.378075 0.975764 0.763987
Si Si3 0.430206 0.205476 0.121235
Si Si4 0.869573 0.174905 0.741903
Si Si5 0.791853 0.408036 0.378710
Si Si6 0.842389 0.648291 0.378726
Si Si7 0.000000 0.000000 0.751951
Si Si8 0.541591 0.381713 0.621803
O O1 0.821261 0.046618 0.500000
O O2 0.688035 0.045493 0.340136
O O3 0.863400 0.120958 0.344435
O O4 0.891767 0.002008 0.322574
O O5 0.386123 0.918363 0.842665
O O6 0.500000 0.000000 0.733715
O O7 0.305621 0.028993 0.816839
O O8 0.375901 0.260606 0.184356
O O9 0.378207 0.142080 0.163087
O O10 0.562093 0.199367 0.136794
O O11 0.398434 0.215308 0.000000
O O12 0.761917 0.172200 0.814559
O O13 0.979436 0.171860 0.814451
O O14 0.812153 0.423849 0.500000
O O15 0.672120 0.378128 0.359860
O O16 0.808521 0.642428 0.500000
O O17 0.006359 0.943866 0.831215
O O18 0.509655 0.377233 0.500000
#
# Coordination Sequence:
#
# PCOD8235737 Si02
#       8
#     8   8   8   8   8   8   4   8
#     4  10  21  36  54  78 107 146 190 224 264 321
#     4  11  20  35  58  84 114 144 179 226 284 336
#     4  10  21  37  57  78 106 146 189 227 267 320
#     4  10  22  36  57  78 110 150 185 226 270 324
#     4  10  20  34  56  83 112 141 176 223 275 333
#     4  10  21  36  57  86 113 143 179 227 281 332
#     4  10  18  34  56  82 108 140 172 224 272 322
#     4  10  20  34  55  85 113 140 173 220 279 333
#
# _framework density 17.916661000000001
#
# number of rings (size 3 to 8) (size 9 to 14) (size 15 to 20)
#    0.000    1.867    2.667    1.600    1.867    0.800 
#    0.000    0.000    0.000    2.400    0.000    0.000 
#    0.000    0.000    0.000    0.000    0.000    0.000 
#
# Total GULP energy -744002.201801 kJ/mol
# GULP energy per Si atom -12400.036697 kJ/mol
# Density = 1.787588 g / cm^3
# Si number density = 17.916661 Si / 1000 Ang^3
#
#
#
# Elastic Constant Matrix: (Units=GPa)
#
#
# Indices 1 2 3 4 5 6 
#
# 1 86.6513 23.8153 34.1218 0.0000 0.0000 0.0000
# 2 23.8153 78.1133 32.3325 0.0000 0.0000 0.0000
# 3 34.1218 32.3325 80.6033 0.0000 0.0000 0.0000
# 4 0.0000 0.0000 0.0000 23.3918 0.0000 0.0000
# 5 0.0000 0.0000 0.0000 0.0000 23.1247 0.0000
# 6 0.0000 0.0000 0.0000 0.0000 0.0000 25.4871
#
#
#
# Elastic Compliance Matrix: (Units=1/GPa)
#
#
# Indices 1 2 3 4 5 6 
#
# 1 0.014158 -0.002201 -0.005111 0.000000 0.000000 0.000000
# 2 -0.002201 0.015693 -0.005363 0.000000 0.000000 0.000000
# 3 -0.005111 -0.005363 0.016721 0.000000 0.000000 0.000000
# 4 0.000000 0.000000 0.000000 0.042750 0.000000 0.000000
# 5 0.000000 0.000000 0.000000 0.000000 0.043244 0.000000
# 6 0.000000 0.000000 0.000000 0.000000 0.000000 0.039236
#
#
# Mechanical properties :
#
#
# Convention : Reuss Voigt Hill
#
# Bulk Modulus (GPa) = 47.11987 47.32298 47.22143
# Shear Modulus (GPa) = 24.48280 24.74061 24.61171
#
# Velocity S-wave (km/s) = 3.70061 3.72004 3.71034
# Velocity P-wave (km/s) = 6.67951 6.70237 6.69095
#
# Compressibility (1/GPa) = 0.02122247
#
# Stress axis : x y z
#
# Youngs Moduli (GPa) = 70.63190 63.72315 59.80442
#
# Poissons Ratio (x) = 0.14026 0.30563
# Poissons Ratio (y) = 0.15547 0.32074
# Poissons Ratio (z) = 0.36097 0.34175
#
# Static dielectric constant tensor:
#      x y z
#    x 3.473240 0.000000 0.000000 
#    y 0.000000 3.208750 0.000000 
#    z 0.000000 0.000000 3.202030 
# 
# 
# High freq. dielectric constant tensor:
#      x y z
#    x 1.708100 0.000000 0.000000 
#    y 0.000000 1.682580 0.000000 
#    z 0.000000 0.000000 1.683980 
# 
# From -- ./inp_files/14639.got.cif
#   From: 2010.06.25/outbox.cif.g09.slc.cpg/sg58_8_cif.got.tgz:14639.got - 2010.06.26 21:38:00.
