data_PCOD8235334
_publ_section_title
;
Structure prediction by ZEFSAII (Michael W. Deem and Ramdas Pophale) SiO2 
 PCOD8235334
Probable space group: P N N M
;
_chemical_formula_sum "Si O2"
_cell_formula_units_Z 56
_cell_length_a 13.713901
_cell_length_b 32.289969
_cell_length_c 7.794547
_cell_angle_alpha 90.000000
_cell_angle_beta 90.000000
_cell_angle_gamma 90.000000
_cell_volume 3451.592512
_symmetry_space_group_name_H-M "P N N M"
_symmetry_group_IT_number 58
_symmetry_cell_setting 'orthorhombic'
loop_
_space_group_symop_operation_xyz
x,y,z
-x,-y,z
1/2+x,1/2-y,1/2-z
1/2-x,1/2+y,1/2-z
-x,-y,-z
x,y,-z
1/2-x,1/2+y,1/2+z
1/2+x,1/2-y,1/2+z
loop_
_atom_site_type_symbol
_atom_site_label
_atom_site_fract_x
_atom_site_fract_y
_atom_site_fract_z
Si Si1 0.398545 0.232251 0.797203
Si Si2 0.301465 0.315063 0.804993
Si Si3 0.884936 0.953623 0.500000
Si Si4 0.387420 0.774310 0.195505
Si Si5 0.204453 0.192004 0.200742
Si Si6 0.613540 0.602452 0.690318
Si Si7 0.116131 0.954127 0.500000
Si Si8 0.887126 0.894626 0.802256
O O1 0.363013 0.276840 0.725191
O O2 0.504326 0.219997 0.722602
O O3 0.318438 0.197506 0.747351
O O4 0.406829 0.237009 0.000000
O O5 0.187196 0.303070 0.799952
O O6 0.323040 0.355878 0.696016
O O7 0.331622 0.324372 0.000000
O O8 0.850322 0.930535 0.673881
O O9 0.000556 0.956844 0.500000
O O10 0.838827 0.999652 0.500000
O O11 0.360462 0.725784 0.201933
O O12 0.385756 0.789442 0.000000
O O13 0.170672 0.146435 0.253167
O O14 0.189883 0.200229 0.000000
O O15 0.624995 0.582983 0.500000
O O16 0.652630 0.569507 0.829215
O O17 0.501265 0.614118 0.726115
O O18 0.864879 0.907229 0.000000
#
# Coordination Sequence:
#
# PCOD8235334 Si02
#       8
#     8   8   4   8   8   8   4   8
#     4   8  16  28  42  58  84 120 152 187 227 263
#     4  10  18  30  44  60  87 122 153 187 229 264
#     4   9  18  30  48  64  95 119 155 181 232 272
#     4  10  18  27  41  62  84 115 156 192 224 261
#     4   9  17  30  43  59  85 118 152 188 227 261
#     4  10  18  29  46  68  90 119 155 185 220 270
#     4   9  18  32  44  68  91 125 145 191 228 270
#     4   9  18  29  46  68  91 120 153 187 220 267
#
# _framework density 16.224394
#
# number of rings (size 3 to 8) (size 9 to 14) (size 15 to 20)
#    0.000    2.714    0.714    2.571    1.000    0.571 
#    0.000    9.286    0.000    0.000    0.000    0.000 
#    0.000    2.286    0.000    8.571    0.000    0.286 
#
# Total GULP energy -694217.136557 kJ/mol
# GULP energy per Si atom -12396.734581 kJ/mol
# Density = 1.618747 g / cm^3
# Si number density = 16.224394 Si / 1000 Ang^3
#
#
#
# Elastic Constant Matrix: (Units=GPa)
#
#
# Indices 1 2 3 4 5 6 
#
# 1 81.7560 36.8290 15.9829 0.0000 0.0000 0.0000
# 2 36.8290 115.4383 44.2696 0.0000 0.0000 0.0000
# 3 15.9829 44.2696 74.8629 0.0000 0.0000 0.0000
# 4 0.0000 0.0000 0.0000 22.0246 0.0000 0.0000
# 5 0.0000 0.0000 0.0000 0.0000 14.7843 0.0000
# 6 0.0000 0.0000 0.0000 0.0000 0.0000 16.5028
#
#
#
# Elastic Compliance Matrix: (Units=1/GPa)
#
#
# Indices 1 2 3 4 5 6 
#
# 1 0.014297 -0.004385 -0.000459 0.000000 0.000000 0.000000
# 2 -0.004385 0.012548 -0.006484 0.000000 0.000000 0.000000
# 3 -0.000459 -0.006484 0.017290 0.000000 0.000000 0.000000
# 4 0.000000 0.000000 0.000000 0.045404 0.000000 0.000000
# 5 0.000000 0.000000 0.000000 0.000000 0.067639 0.000000
# 6 0.000000 0.000000 0.000000 0.000000 0.000000 0.060596
#
#
# Mechanical properties :
#
#
# Convention : Reuss Voigt Hill
#
# Bulk Modulus (GPa) = 46.55869 51.80224 49.18046
# Shear Modulus (GPa) = 20.19470 22.32741 21.26106
#
# Velocity S-wave (km/s) = 3.53188 3.71369 3.62392
# Velocity P-wave (km/s) = 6.73730 7.09835 6.92018
#
# Compressibility (1/GPa) = 0.02147827
#
# Stress axis : x y z
#
# Youngs Moduli (GPa) = 69.94649 79.69253 57.83654
#
# Poissons Ratio (x) = 0.34946 0.02656
# Poissons Ratio (y) = 0.30672 0.37502
# Poissons Ratio (z) = 0.03212 0.51674
#
# Static dielectric constant tensor:
#      x y z
#    x 3.035660 0.000000 0.000000 
#    y 0.000000 2.976070 0.000000 
#    z 0.000000 0.000000 3.079800 
# 
# 
# High freq. dielectric constant tensor:
#      x y z
#    x 1.593470 0.000000 0.000000 
#    y 0.000000 1.596810 0.000000 
#    z 0.000000 0.000000 1.631120 
# 
# From -- ./inp_files/7074.got.cif
#   From: 2010.06.25/outbox.cif.g09.slc.cpg/sg58_4_cif.got.tgz:7074.got - 2010.06.26 21:38:00.
