data_PCOD8235456
_publ_section_title
;
Structure prediction by ZEFSAII (Michael W. Deem and Ramdas Pophale) SiO2 
 PCOD8235456
Probable space group: P N N M
;
_chemical_formula_sum "Si O2"
_cell_formula_units_Z 40
_cell_length_a 9.672067
_cell_length_b 29.094991
_cell_length_c 7.903368
_cell_angle_alpha 90.000000
_cell_angle_beta 90.000000
_cell_angle_gamma 90.000000
_cell_volume 2224.076533
_symmetry_space_group_name_H-M "P N N M"
_symmetry_group_IT_number 58
_symmetry_cell_setting 'orthorhombic'
loop_
_space_group_symop_operation_xyz
x,y,z
-x,-y,z
1/2+x,1/2-y,1/2-z
1/2-x,1/2+y,1/2-z
-x,-y,-z
x,y,-z
1/2-x,1/2+y,1/2+z
1/2+x,1/2-y,1/2+z
loop_
_atom_site_type_symbol
_atom_site_label
_atom_site_fract_x
_atom_site_fract_y
_atom_site_fract_z
Si Si1 0.912812 0.783789 0.301771
Si Si2 0.363693 0.614684 0.811916
Si Si3 0.284164 0.296484 0.306229
Si Si4 0.322819 0.452365 0.500000
Si Si5 0.847718 0.943807 0.000000
Si Si6 0.190677 0.894961 0.315509
O O1 0.943450 0.779688 0.500000
O O2 0.836076 0.832168 0.264159
O O3 0.814258 0.743441 0.233128
O O4 0.057682 0.780284 0.205887
O O5 0.294480 0.582501 0.668765
O O6 0.526401 0.606570 0.811538
O O7 0.304157 0.602938 0.000000
O O8 0.249009 0.306175 0.500000
O O9 0.252438 0.343339 0.206509
O O10 0.281026 0.505718 0.500000
O O11 0.487102 0.446257 0.500000
O O12 0.256972 0.428802 0.332784
O O13 0.240952 0.913077 0.500000
#
# Coordination Sequence:
#
# PCOD8235456 Si02
#       6
#     8   8   8   4   4   8
#     4   9  19  31  44  67  95 124 160 195 230 279
#     4   8  15  27  39  56  86 116 145 186 229 271
#     4  10  18  30  47  66  94 127 158 195 232 275
#     4   9  16  26  38  60  85 113 155 191 222 279
#     4   9  16  24  40  60  81 115 157 185 224 281
#     4   9  16  27  41  58  86 119 148 186 233 274
#
# _framework density 17.984991000000001
#
# number of rings (size 3 to 8) (size 9 to 14) (size 15 to 20)
#    0.000    3.000    1.000    1.800    4.200    2.400 
#    0.000    4.000    0.000    0.000    0.000    0.000 
#    0.000    3.200    0.000    9.000    0.000    7.400 
#
# Total GULP energy -495777.467452 kJ/mol
# GULP energy per Si atom -12394.436686 kJ/mol
# Density = 1.794406 g / cm^3
# Si number density = 17.984991 Si / 1000 Ang^3
#
#
#
# Elastic Constant Matrix: (Units=GPa)
#
#
# Indices 1 2 3 4 5 6 
#
# 1 9.6498 -0.7684 -1.9053 0.0000 0.0000 0.0000
# 2 -0.7684 51.7096 30.5114 0.0000 0.0000 0.0000
# 3 -1.9053 30.5114 107.7563 0.0000 0.0000 0.0000
# 4 0.0000 0.0000 0.0000 27.8903 0.0000 0.0000
# 5 0.0000 0.0000 0.0000 0.0000 8.4649 0.0000
# 6 0.0000 0.0000 0.0000 0.0000 0.0000 17.2009
#
#
#
# Elastic Compliance Matrix: (Units=1/GPa)
#
#
# Indices 1 2 3 4 5 6 
#
# 1 0.104006 0.000553 0.001682 0.000000 0.000000 0.000000
# 2 0.000553 0.023221 -0.006565 0.000000 0.000000 0.000000
# 3 0.001682 -0.006565 0.011169 0.000000 0.000000 0.000000
# 4 0.000000 0.000000 0.000000 0.035855 0.000000 0.000000
# 5 0.000000 0.000000 0.000000 0.000000 0.118135 0.000000
# 6 0.000000 0.000000 0.000000 0.000000 0.000000 0.058137
#
#
# Mechanical properties :
#
#
# Convention : Reuss Voigt Hill
#
# Bulk Modulus (GPa) = 7.70800 24.97681 16.34240
# Shear Modulus (GPa) = 12.42462 20.12974 16.27718
#
# Velocity S-wave (km/s) = 2.63122 3.34915 3.01166
# Velocity P-wave (km/s) = 3.67780 5.37341 4.60433
#
# Compressibility (1/GPa) = 0.12973528
#
# Stress axis : x y z
#
# Youngs Moduli (GPa) = 9.61486 43.06478 89.53427
#
# Poissons Ratio (x) = -0.02380 -0.15064
# Poissons Ratio (y) = -0.00531 0.58781
# Poissons Ratio (z) = -0.01618 0.28273
#
# Static dielectric constant tensor:
#      x y z
#    x 2.656450 0.000000 0.000000 
#    y 0.000000 3.500340 0.000000 
#    z 0.000000 0.000000 3.639660 
# 
# 
# High freq. dielectric constant tensor:
#      x y z
#    x 1.610940 0.000000 0.000000 
#    y 0.000000 1.697950 0.000000 
#    z 0.000000 0.000000 1.713660 
# 
# From -- ./inp_files/2667.got.cif
#   From: 2010.06.25/outbox.cif.g09.slc.cpg/sg58_2_cif.got.tgz:2667.got - 2010.06.26 21:38:00.
