data_PCOD8235706
_publ_section_title
;
Structure prediction by ZEFSAII (Michael W. Deem and Ramdas Pophale) SiO2 
 PCOD8235706
Probable space group: P N N M
;
_chemical_formula_sum "Si O2"
_cell_formula_units_Z 64
_cell_length_a 20.807923
_cell_length_b 19.634019
_cell_length_c 9.033731
_cell_angle_alpha 90.000000
_cell_angle_beta 90.000000
_cell_angle_gamma 90.000000
_cell_volume 3690.668969
_symmetry_space_group_name_H-M "P N N M"
_symmetry_group_IT_number 58
_symmetry_cell_setting 'orthorhombic'
loop_
_space_group_symop_operation_xyz
x,y,z
-x,-y,z
1/2+x,1/2-y,1/2-z
1/2-x,1/2+y,1/2-z
-x,-y,-z
x,y,-z
1/2-x,1/2+y,1/2+z
1/2+x,1/2-y,1/2+z
loop_
_atom_site_type_symbol
_atom_site_label
_atom_site_fract_x
_atom_site_fract_y
_atom_site_fract_z
Si Si1 0.881528 0.561245 0.674885
Si Si2 0.310398 0.709940 0.175429
Si Si3 0.066486 0.294884 0.673983
Si Si4 0.685888 0.707167 0.323726
Si Si5 0.236924 0.082357 0.174955
Si Si6 0.763451 0.068226 0.826534
Si Si7 0.063087 0.713856 0.171385
Si Si8 0.872819 0.427022 0.827695
O O1 0.883311 0.546717 0.500000
O O2 0.924094 0.626165 0.719218
O O3 0.809236 0.575238 0.732166
O O4 0.906874 0.494239 0.760183
O O5 0.373025 0.750794 0.229134
O O6 0.247433 0.750115 0.231009
O O7 0.311741 0.636261 0.253354
O O8 0.309804 0.699989 0.000000
O O9 0.059542 0.288048 0.500000
O O10 0.002398 0.265845 0.747604
O O11 0.683741 0.710325 0.500000
O O12 0.692557 0.629466 0.261975
O O13 0.620607 0.740149 0.260421
O O14 0.307359 0.090982 0.243432
O O15 0.209177 0.006677 0.212444
O O16 0.242161 0.093334 0.000000
O O17 0.760285 0.079959 0.000000
O O18 0.078063 0.634581 0.197302
O O19 0.053896 0.730561 0.000000
O O20 0.856878 0.437318 0.000000
#
# Coordination Sequence:
#
# PCOD8235706 Si02
#       8
#     8   8   8   8   8   8   8   8
#     4   9  17  31  50  73  99 132 171 211 251 293
#     4  10  18  33  56  76  98 134 175 208 251 306
#     4  10  21  35  53  74 101 138 175 213 254 305
#     4   9  15  30  54  74  94 128 172 209 244 297
#     4  10  19  30  50  80 107 129 161 214 262 298
#     4   8  14  27  50  75  97 123 163 208 248 292
#     4  10  21  34  50  72 101 136 170 211 255 299
#     4  10  19  32  49  72 103 140 174 204 247 305
#
# _framework density 17.34103
#
# number of rings (size 3 to 8) (size 9 to 14) (size 15 to 20)
#    0.000    2.500    2.500    1.500    0.000    2.500 
#    0.000    2.500    0.000    4.500    0.000    5.250 
#    0.000    0.000    0.000    0.000    0.000    0.000 
#
# Total GULP energy -793383.906684 kJ/mol
# GULP energy per Si atom -12396.623542 kJ/mol
# Density = 1.730156 g / cm^3
# Si number density = 17.341030 Si / 1000 Ang^3
#
#
#
# Elastic Constant Matrix: (Units=GPa)
#
#
# Indices 1 2 3 4 5 6 
#
# 1 112.7475 58.6555 31.6641 0.0000 0.0000 0.0000
# 2 58.6555 111.1022 36.9724 0.0000 0.0000 0.0000
# 3 31.6641 36.9724 39.6130 0.0000 0.0000 0.0000
# 4 0.0000 0.0000 0.0000 24.2758 0.0000 0.0000
# 5 0.0000 0.0000 0.0000 0.0000 25.5395 0.0000
# 6 0.0000 0.0000 0.0000 0.0000 0.0000 22.0295
#
#
#
# Elastic Compliance Matrix: (Units=1/GPa)
#
#
# Indices 1 2 3 4 5 6 
#
# 1 0.013092 -0.004974 -0.005822 0.000000 0.000000 0.000000
# 2 -0.004974 0.014946 -0.009973 0.000000 0.000000 0.000000
# 3 -0.005822 -0.009973 0.039207 0.000000 0.000000 0.000000
# 4 0.000000 0.000000 0.000000 0.041193 0.000000 0.000000
# 5 0.000000 0.000000 0.000000 0.000000 0.039155 0.000000
# 6 0.000000 0.000000 0.000000 0.000000 0.000000 0.045394
#
#
# Mechanical properties :
#
#
# Convention : Reuss Voigt Hill
#
# Bulk Modulus (GPa) = 38.90331 57.56075 48.23203
# Shear Modulus (GPa) = 20.56804 23.44701 22.00753
#
# Velocity S-wave (km/s) = 3.44770 3.68110 3.56631
# Velocity P-wave (km/s) = 6.19127 7.16469 6.69569
#
# Compressibility (1/GPa) = 0.02570476
#
# Stress axis : x y z
#
# Youngs Moduli (GPa) = 76.37987 66.90815 25.50578
#
# Poissons Ratio (x) = 0.33283 0.14850
# Poissons Ratio (y) = 0.37995 0.25438
# Poissons Ratio (z) = 0.44471 0.66729
#
# Static dielectric constant tensor:
#      x y z
#    x 3.093630 0.000000 0.000000 
#    y 0.000000 3.549390 0.000000 
#    z 0.000000 0.000000 2.983110 
# 
# 
# High freq. dielectric constant tensor:
#      x y z
#    x 1.644610 0.000000 0.000000 
#    y 0.000000 1.678160 0.000000 
#    z 0.000000 0.000000 1.644920 
# 
# From -- ./inp_files/9461.got.cif
#   From: 2010.06.25/outbox.cif.g09.slc.cpg/sg58_5_cif.got.tgz:9461.got - 2010.06.26 21:38:00.
