data_PCOD8235290
_publ_section_title
;
Structure prediction by ZEFSAII (Michael W. Deem and Ramdas Pophale) SiO2 
 PCOD8235290
Probable space group: P N N M
;
_chemical_formula_sum "Si O2"
_cell_formula_units_Z 64
_cell_length_a 23.178858
_cell_length_b 8.138728
_cell_length_c 18.603621
_cell_angle_alpha 90.000000
_cell_angle_beta 90.000000
_cell_angle_gamma 90.000000
_cell_volume 3509.506512
_symmetry_space_group_name_H-M "P N N M"
_symmetry_group_IT_number 58
_symmetry_cell_setting 'orthorhombic'
loop_
_space_group_symop_operation_xyz
x,y,z
-x,-y,z
1/2+x,1/2-y,1/2-z
1/2-x,1/2+y,1/2-z
-x,-y,-z
x,y,-z
1/2-x,1/2+y,1/2+z
1/2+x,1/2-y,1/2+z
loop_
_atom_site_type_symbol
_atom_site_label
_atom_site_fract_x
_atom_site_fract_y
_atom_site_fract_z
Si Si1 0.374717 0.110266 0.694802
Si Si2 0.815799 0.868842 0.194023
Si Si3 0.293018 0.565796 0.917775
Si Si4 0.259478 0.291231 0.303837
Si Si5 0.176019 0.382515 0.918585
Si Si6 0.032750 0.850130 0.222164
Si Si7 0.548785 0.113243 0.794126
Si Si8 0.602178 0.438421 0.181098
O O1 0.314006 0.183004 0.720585
O O2 0.415436 0.267647 0.677235
O O3 0.365412 0.012156 0.621092
O O4 0.400987 0.998265 0.758775
O O5 0.784947 0.721199 0.237889
O O6 0.832962 0.796303 0.116797
O O7 0.871453 0.920594 0.238821
O O8 0.773268 0.020351 0.182713
O O9 0.269915 0.727005 0.877153
O O10 0.243951 0.426962 0.913855
O O11 0.351078 0.501236 0.877593
O O12 0.307958 0.610698 0.000000
O O13 0.154625 0.374558 0.000000
O O14 0.986190 0.705912 0.231565
O O15 0.054510 0.921035 0.301467
O O16 0.000000 0.000000 0.180903
O O17 0.576401 0.259226 0.843489
O O18 0.500000 0.000000 0.835096
#
# Coordination Sequence:
#
# PCOD8235290 Si02
#       8
#     8   8   8   8   8   8   8   8
#     4  10  17  32  52  76 102 138 166 211 271 301
#     4  11  19  32  49  80 101 135 173 214 260 306
#     4   9  20  35  50  76 111 145 171 203 254 318
#     4  10  20  29  53  77 108 131 173 217 250 315
#     4  10  21  35  51  74 110 142 171 204 253 320
#     4   9  18  30  50  80 102 125 170 229 262 292
#     4   9  18  30  50  77 103 125 169 228 264 296
#     4  10  17  31  54  78 102 136 171 218 259 305
#
# _framework density 18.236183
#
# number of rings (size 3 to 8) (size 9 to 14) (size 15 to 20)
#    0.000    2.250    2.500    2.250    1.750    0.500 
#    0.000    0.000    0.000    7.500    0.000    0.000 
#    0.000    0.000    0.000    0.000    0.000    0.000 
#
# Total GULP energy -792942.497358 kJ/mol
# GULP energy per Si atom -12389.726521 kJ/mol
# Density = 1.819468 g / cm^3
# Si number density = 18.236183 Si / 1000 Ang^3
#
#
#
# Elastic Constant Matrix: (Units=GPa)
#
#
# Indices 1 2 3 4 5 6 
#
# 1 65.6708 10.6056 21.4615 0.0000 0.0000 0.0000
# 2 10.6056 82.1739 16.7648 0.0000 0.0000 0.0000
# 3 21.4615 16.7648 65.6333 0.0000 0.0000 0.0000
# 4 0.0000 0.0000 0.0000 17.0766 0.0000 0.0000
# 5 0.0000 0.0000 0.0000 0.0000 14.3978 0.0000
# 6 0.0000 0.0000 0.0000 0.0000 0.0000 34.2481
#
#
#
# Elastic Compliance Matrix: (Units=1/GPa)
#
#
# Indices 1 2 3 4 5 6 
#
# 1 0.017148 -0.001128 -0.005319 0.000000 0.000000 0.000000
# 2 -0.001128 0.012913 -0.002929 0.000000 0.000000 0.000000
# 3 -0.005319 -0.002929 0.017724 0.000000 0.000000 0.000000
# 4 0.000000 0.000000 0.000000 0.058559 0.000000 0.000000
# 5 0.000000 0.000000 0.000000 0.000000 0.069455 0.000000
# 6 0.000000 0.000000 0.000000 0.000000 0.000000 0.029199
#
#
# Mechanical properties :
#
#
# Convention : Reuss Voigt Hill
#
# Bulk Modulus (GPa) = 34.44570 34.57130 34.50850
# Shear Modulus (GPa) = 21.41990 24.12091 22.77041
#
# Velocity S-wave (km/s) = 3.43094 3.64083 3.53744
# Velocity P-wave (km/s) = 5.88428 6.05582 5.97066
#
# Compressibility (1/GPa) = 0.02903120
#
# Stress axis : x y z
#
# Youngs Moduli (GPa) = 58.31604 77.44414 56.42146
#
# Poissons Ratio (x) = 0.08735 0.30011
# Poissons Ratio (y) = 0.06578 0.16528
# Poissons Ratio (z) = 0.31019 0.22687
#
# Static dielectric constant tensor:
#      x y z
#    x 3.696430 0.000000 0.000000 
#    y 0.000000 3.597500 0.000000 
#    z 0.000000 0.000000 2.949300 
# 
# 
# High freq. dielectric constant tensor:
#      x y z
#    x 1.724520 0.000000 0.000000 
#    y 0.000000 1.719150 0.000000 
#    z 0.000000 0.000000 1.638370 
# 
# From -- ./inp_files/27675.got.cif
#   From: 2010.06.25/outbox.cif.g09.slc.cpg/sg58_14_cif.got.tgz:27675.got - 2010.06.26 21:38:00.
