data_PCOD8235375
_publ_section_title
;
Structure prediction by ZEFSAII (Michael W. Deem and Ramdas Pophale) SiO2 
 PCOD8235375
Probable space group: P N N M
;
_chemical_formula_sum "Si O2"
_cell_formula_units_Z 48
_cell_length_a 9.593549
_cell_length_b 21.877787
_cell_length_c 14.226823
_cell_angle_alpha 90.000000
_cell_angle_beta 90.000000
_cell_angle_gamma 90.000000
_cell_volume 2986.005589
_symmetry_space_group_name_H-M "P N N M"
_symmetry_group_IT_number 58
_symmetry_cell_setting 'orthorhombic'
loop_
_space_group_symop_operation_xyz
x,y,z
-x,-y,z
1/2+x,1/2-y,1/2-z
1/2-x,1/2+y,1/2-z
-x,-y,-z
x,y,-z
1/2-x,1/2+y,1/2+z
1/2+x,1/2-y,1/2+z
loop_
_atom_site_type_symbol
_atom_site_label
_atom_site_fract_x
_atom_site_fract_y
_atom_site_fract_z
Si Si1 0.151011 0.527977 0.891363
Si Si2 0.193051 0.655075 0.205755
Si Si3 0.808872 0.286663 0.604745
Si Si4 0.974145 0.821183 0.608312
Si Si5 0.212400 0.905593 0.610557
Si Si6 0.427313 0.808875 0.607529
O O1 0.178526 0.584943 0.824530
O O2 0.267416 0.476942 0.865715
O O3 0.000000 0.500000 0.872080
O O4 0.164747 0.548370 0.000000
O O5 0.185056 0.659122 0.319047
O O6 0.337076 0.684209 0.170813
O O7 0.070334 0.697253 0.164505
O O8 0.819681 0.315161 0.500000
O O9 0.661224 0.252743 0.616464
O O10 0.934945 0.239590 0.620847
O O11 0.930307 0.830588 0.500000
O O12 0.063497 0.879912 0.645779
O O13 0.217494 0.892756 0.500000
O O14 0.340357 0.865734 0.651854
O O15 0.467369 0.822655 0.500000
#
# Coordination Sequence:
#
# PCOD8235375 Si02
#       6
#     8   8   8   8   8   8
#     4  10  18  28  45  73 101 122 149 184 229 287
#     4  12  19  27  48  74  93 118 162 195 220 271
#     4   9  20  35  46  61  94 130 156 189 237 274
#     4   9  18  31  47  71  99 120 145 191 241 278
#     4   8  15  29  44  64 100 129 137 165 234 294
#     4   9  16  29  48  67  90 121 149 182 229 284
#
# _framework density 16.074987
#
# number of rings (size 3 to 8) (size 9 to 14) (size 15 to 20)
#    0.000    2.500    1.667    4.500    0.000    0.667 
#    0.000    2.500    0.000    0.500    0.000    2.333 
#    0.000    0.000    0.000    0.000    0.000    0.000 
#
# Total GULP energy -594997.987352 kJ/mol
# GULP energy per Si atom -12395.791403 kJ/mol
# Density = 1.603840 g / cm^3
# Si number density = 16.074987 Si / 1000 Ang^3
#
#
#
# Elastic Constant Matrix: (Units=GPa)
#
#
# Indices 1 2 3 4 5 6 
#
# 1 99.5230 22.7476 44.3490 0.0000 0.0000 0.0000
# 2 22.7476 68.5168 50.4841 0.0000 0.0000 0.0000
# 3 44.3490 50.4841 100.5242 0.0000 0.0000 0.0000
# 4 0.0000 0.0000 0.0000 26.0451 0.0000 0.0000
# 5 0.0000 0.0000 0.0000 0.0000 12.6690 0.0000
# 6 0.0000 0.0000 0.0000 0.0000 0.0000 11.2161
#
#
#
# Elastic Compliance Matrix: (Units=1/GPa)
#
#
# Indices 1 2 3 4 5 6 
#
# 1 0.012508 -0.000138 -0.005449 0.000000 0.000000 0.000000
# 2 -0.000138 0.023169 -0.011575 0.000000 0.000000 0.000000
# 3 -0.005449 -0.011575 0.018165 0.000000 0.000000 0.000000
# 4 0.000000 0.000000 0.000000 0.038395 0.000000 0.000000
# 5 0.000000 0.000000 0.000000 0.000000 0.078933 0.000000
# 6 0.000000 0.000000 0.000000 0.000000 0.000000 0.089157
#
#
# Mechanical properties :
#
#
# Convention : Reuss Voigt Hill
#
# Bulk Modulus (GPa) = 51.23364 55.96948 53.60156
# Shear Modulus (GPa) = 16.60267 20.05159 18.32713
#
# Velocity S-wave (km/s) = 3.21725 3.53566 3.38020
# Velocity P-wave (km/s) = 6.76327 7.18061 6.97506
#
# Compressibility (1/GPa) = 0.01951842
#
# Stress axis : x y z
#
# Youngs Moduli (GPa) = 79.95198 43.16035 55.05115
#
# Poissons Ratio (x) = 0.00594 0.29997
# Poissons Ratio (y) = 0.01101 0.63723
# Poissons Ratio (z) = 0.43565 0.49959
#
# Static dielectric constant tensor:
#      x y z
#    x 3.161950 0.000000 0.000000 
#    y 0.000000 2.882940 0.000000 
#    z 0.000000 0.000000 2.804390 
# 
# 
# High freq. dielectric constant tensor:
#      x y z
#    x 1.631260 0.000000 0.000000 
#    y 0.000000 1.595770 0.000000 
#    z 0.000000 0.000000 1.579890 
# 
# From -- ./inp_files/13037.got.cif
#   From: 2010.06.25/outbox.cif.g09.slc.cpg/sg58_7_cif.got.tgz:13037.got - 2010.06.26 21:38:00.
