data_PCOD8235306
_publ_section_title
;
Structure prediction by ZEFSAII (Michael W. Deem and Ramdas Pophale) SiO2 
 PCOD8235306
Probable space group: P N N M
;
_chemical_formula_sum "Si O2"
_cell_formula_units_Z 64
_cell_length_a 23.886161
_cell_length_b 15.496278
_cell_length_c 8.974742
_cell_angle_alpha 90.000000
_cell_angle_beta 90.000000
_cell_angle_gamma 90.000000
_cell_volume 3321.970158
_symmetry_space_group_name_H-M "P N N M"
_symmetry_group_IT_number 58
_symmetry_cell_setting 'orthorhombic'
loop_
_space_group_symop_operation_xyz
x,y,z
-x,-y,z
1/2+x,1/2-y,1/2-z
1/2-x,1/2+y,1/2-z
-x,-y,-z
x,y,-z
1/2-x,1/2+y,1/2+z
1/2+x,1/2-y,1/2+z
loop_
_atom_site_type_symbol
_atom_site_label
_atom_site_fract_x
_atom_site_fract_y
_atom_site_fract_z
Si Si1 0.500576 0.348059 0.175989
Si Si2 0.618515 0.098753 0.676987
Si Si3 0.200479 0.251187 0.824905
Si Si4 0.885851 0.410032 0.827127
Si Si5 0.385073 0.604707 0.329105
Si Si6 0.680109 0.746485 0.322702
Si Si7 0.104829 0.911237 0.828205
Si Si8 0.498732 0.829930 0.673189
O O1 0.561638 0.375274 0.229277
O O2 0.453272 0.412725 0.237743
O O3 0.484550 0.253883 0.234399
O O4 0.499283 0.350733 0.000000
O O5 0.614271 0.093837 0.500000
O O6 0.666075 0.164856 0.728607
O O7 0.558705 0.131278 0.737662
O O8 0.631467 0.003025 0.742290
O O9 0.166514 0.165079 0.779935
O O10 0.257586 0.253278 0.736716
O O11 0.212606 0.254067 0.000000
O O12 0.851063 0.331030 0.755408
O O13 0.952216 0.399230 0.802694
O O14 0.870993 0.410040 0.000000
O O15 0.401184 0.625425 0.500000
O O16 0.366660 0.505191 0.308712
O O17 0.681333 0.747133 0.500000
O O18 0.647631 0.660939 0.266105
O O19 0.090252 0.892314 0.000000
O O20 0.493155 0.803792 0.500000
#
# Coordination Sequence:
#
# PCOD8235306 Si02
#       8
#     8   8   8   8   8   8   8   8
#     4  12  23  34  55  87 120 146 176 226 286 334
#     4   9  17  31  56  86 109 135 177 227 272 319
#     4  10  21  37  56  80 110 145 187 229 270 320
#     4   9  17  31  56  86 109 135 177 227 272 319
#     4  10  21  39  61  82 108 148 192 227 268 331
#     4  10  21  37  56  80 110 145 187 229 270 320
#     4  10  21  39  61  82 108 148 192 227 268 331
#     4  10  17  33  59  83 110 143 180 219 269 337
#
# _framework density 19.265675000000002
#
# number of rings (size 3 to 8) (size 9 to 14) (size 15 to 20)
#    0.000    2.000    2.500    1.875    0.000    5.500 
#    0.000    0.000    0.000    3.000    0.000    0.000 
#    0.000    0.000    0.000    0.000    0.000    0.000 
#
# Total GULP energy -793598.748925 kJ/mol
# GULP energy per Si atom -12399.980452 kJ/mol
# Density = 1.922183 g / cm^3
# Si number density = 19.265675 Si / 1000 Ang^3
#
#
#
# Elastic Constant Matrix: (Units=GPa)
#
#
# Indices 1 2 3 4 5 6 
#
# 1 116.0989 45.6819 25.8949 0.0000 0.0000 0.0000
# 2 45.6819 133.7825 22.6576 0.0000 0.0000 0.0000
# 3 25.8949 22.6576 48.6929 0.0000 0.0000 0.0000
# 4 0.0000 0.0000 0.0000 6.0831 0.0000 0.0000
# 5 0.0000 0.0000 0.0000 0.0000 31.5640 0.0000
# 6 0.0000 0.0000 0.0000 0.0000 0.0000 19.6123
#
#
#
# Elastic Compliance Matrix: (Units=1/GPa)
#
#
# Indices 1 2 3 4 5 6 
#
# 1 0.010735 -0.002930 -0.004346 0.000000 0.000000 0.000000
# 2 -0.002930 0.008914 -0.002590 0.000000 0.000000 0.000000
# 3 -0.004346 -0.002590 0.024053 0.000000 0.000000 0.000000
# 4 0.000000 0.000000 0.000000 0.164391 0.000000 0.000000
# 5 0.000000 0.000000 0.000000 0.000000 0.031682 0.000000
# 6 0.000000 0.000000 0.000000 0.000000 0.000000 0.050988
#
#
# Mechanical properties :
#
#
# Convention : Reuss Voigt Hill
#
# Bulk Modulus (GPa) = 41.71588 54.11590 47.91589
# Shear Modulus (GPa) = 15.69938 25.07454 20.38696
#
# Velocity S-wave (km/s) = 2.85772 3.61156 3.25653
# Velocity P-wave (km/s) = 5.70865 6.74844 6.25021
#
# Compressibility (1/GPa) = 0.02397169
#
# Stress axis : x y z
#
# Youngs Moduli (GPa) = 93.14952 112.18544 41.57477
#
# Poissons Ratio (x) = 0.32867 0.18068
# Poissons Ratio (y) = 0.27290 0.10767
# Poissons Ratio (z) = 0.40481 0.29053
#
# Static dielectric constant tensor:
#      x y z
#    x 3.422190 0.000000 0.000000 
#    y 0.000000 3.968490 0.000000 
#    z 0.000000 0.000000 3.106670 
# 
# 
# High freq. dielectric constant tensor:
#      x y z
#    x 1.745920 0.000000 0.000000 
#    y 0.000000 1.769660 0.000000 
#    z 0.000000 0.000000 1.704890 
# 
# From -- ./inp_files/10038.got.cif
#   From: 2010.06.25/outbox.cif.g09.slc.cpg/sg58_6_cif.got.tgz:10038.got - 2010.06.26 21:38:00.
