data_PCOD8235807
_publ_section_title
;
Structure prediction by ZEFSAII (Michael W. Deem and Ramdas Pophale) SiO2 
 PCOD8235807
Probable space group: P N N M
;
_chemical_formula_sum "Si O2"
_cell_formula_units_Z 48
_cell_length_a 14.794445
_cell_length_b 9.192006
_cell_length_c 18.376974
_cell_angle_alpha 90.000000
_cell_angle_beta 90.000000
_cell_angle_gamma 90.000000
_cell_volume 2499.096220
_symmetry_space_group_name_H-M "P N N M"
_symmetry_group_IT_number 58
_symmetry_cell_setting 'orthorhombic'
loop_
_space_group_symop_operation_xyz
x,y,z
-x,-y,z
1/2+x,1/2-y,1/2-z
1/2-x,1/2+y,1/2-z
-x,-y,-z
x,y,-z
1/2-x,1/2+y,1/2+z
1/2+x,1/2-y,1/2+z
loop_
_atom_site_type_symbol
_atom_site_label
_atom_site_fract_x
_atom_site_fract_y
_atom_site_fract_z
Si Si1 0.055838 0.645576 0.580372
Si Si2 0.438227 0.634455 0.844823
Si Si3 0.329095 0.205856 0.216249
Si Si4 0.252292 0.503702 0.168480
Si Si5 0.011475 0.324579 0.780408
Si Si6 0.912539 0.596592 0.920434
O O1 0.099489 0.656185 0.500000
O O2 0.134593 0.641466 0.640063
O O3 0.000000 0.500000 0.589674
O O4 0.989030 0.784302 0.589271
O O5 0.500000 0.500000 0.817963
O O6 0.340266 0.574865 0.869691
O O7 0.424261 0.753351 0.780470
O O8 0.268912 0.342620 0.196863
O O9 0.269303 0.089047 0.257840
O O10 0.413045 0.248239 0.269347
O O11 0.170962 0.500499 0.109832
O O12 0.057541 0.286437 0.858543
O O13 0.000000 0.500000 0.770453
O O14 0.000000 0.500000 0.932586
O O15 0.886956 0.665137 0.000000
#
# Coordination Sequence:
#
# PCOD8235807 Si02
#       6
#     8   8   8   8   8   8
#     4  10  23  42  62  85 126 169 194 241 314 379
#     4  11  21  37  60  92 119 151 201 252 301 348
#     4  11  22  37  60  91 118 154 203 246 300 356
#     4  12  23  36  62  94 116 157 200 260 295 355
#     4  10  18  39  60  83 121 157 193 250 296 363
#     4  10  21  38  59  85 116 156 196 239 294 352
#
# _framework density 19.206945000000001
#
# number of rings (size 3 to 8) (size 9 to 14) (size 15 to 20)
#    0.000    1.333    6.667    3.000    2.333    1.667 
#    0.000    0.000    0.000    1.500    0.000    0.000 
#    0.000    0.000    0.000    0.000    0.000    0.000 
#
# Total GULP energy -594667.134220 kJ/mol
# GULP energy per Si atom -12388.898630 kJ/mol
# Density = 1.916323 g / cm^3
# Si number density = 19.206945 Si / 1000 Ang^3
#
#
#
# Elastic Constant Matrix: (Units=GPa)
#
#
# Indices 1 2 3 4 5 6 
#
# 1 95.8545 22.4899 27.6810 0.0000 0.0000 0.0000
# 2 22.4899 81.8059 34.6996 0.0000 0.0000 0.0000
# 3 27.6810 34.6996 108.1003 0.0000 0.0000 0.0000
# 4 0.0000 0.0000 0.0000 33.1836 0.0000 0.0000
# 5 0.0000 0.0000 0.0000 0.0000 -4.0167 0.0000
# 6 0.0000 0.0000 0.0000 0.0000 0.0000 31.6969
#
#
#
# Elastic Compliance Matrix: (Units=1/GPa)
#
#
# Indices 1 2 3 4 5 6 
#
# 1 0.011608 -0.002235 -0.002255 0.000000 0.000000 0.000000
# 2 -0.002235 0.014581 -0.004108 0.000000 0.000000 0.000000
# 3 -0.002255 -0.004108 0.011147 0.000000 0.000000 0.000000
# 4 0.000000 0.000000 0.000000 0.030135 0.000000 0.000000
# 5 0.000000 0.000000 0.000000 0.000000 -0.248960 0.000000
# 6 0.000000 0.000000 0.000000 0.000000 0.000000 0.031549
#
#
# Mechanical properties :
#
#
# Convention : Reuss Voigt Hill
#
# Bulk Modulus (GPa) = 49.65281 50.61131 50.13206
# Shear Modulus (GPa) = -39.67301 25.56544 -7.05379
#
# Velocity S-wave (km/s) = -4.54977 3.65232 -1.91846
# Velocity P-wave (km/s) = 1.30112 6.64783 4.60981
#
# Compressibility (1/GPa) = 0.02013985
#
# Stress axis : x y z
#
# Youngs Moduli (GPa) = 86.14725 68.58248 89.71157
#
# Poissons Ratio (x) = 0.15326 0.20231
# Poissons Ratio (y) = 0.19251 0.36855
# Poissons Ratio (z) = 0.19427 0.28175
#
# Static dielectric constant tensor:
#      x y z
#    x 3.679820 0.000000 0.000000 
#    y 0.000000 3.524210 0.000000 
#    z 0.000000 0.000000 3.907350 
# 
# 
# High freq. dielectric constant tensor:
#      x y z
#    x 1.753800 0.000000 0.000000 
#    y 0.000000 1.726560 0.000000 
#    z 0.000000 0.000000 1.741830 
# 
# From -- ./inp_files/29911.got.cif
#   From: 2010.06.25/outbox.cif.g09.slc.cpg/sg58_15_cif.got.tgz:29911.got - 2010.06.26 21:38:00.
