data_PCOD8235579
_publ_section_title
;
Structure prediction by ZEFSAII (Michael W. Deem and Ramdas Pophale) SiO2 
 PCOD8235579
Probable space group: P N N M
;
_chemical_formula_sum "Si O2"
_cell_formula_units_Z 64
_cell_length_a 12.193434
_cell_length_b 23.333881
_cell_length_c 11.962372
_cell_angle_alpha 90.000000
_cell_angle_beta 90.000000
_cell_angle_gamma 90.000000
_cell_volume 3403.535731
_symmetry_space_group_name_H-M "P N N M"
_symmetry_group_IT_number 58
_symmetry_cell_setting 'orthorhombic'
loop_
_space_group_symop_operation_xyz
x,y,z
-x,-y,z
1/2+x,1/2-y,1/2-z
1/2-x,1/2+y,1/2-z
-x,-y,-z
x,y,-z
1/2-x,1/2+y,1/2+z
1/2+x,1/2-y,1/2+z
loop_
_atom_site_type_symbol
_atom_site_label
_atom_site_fract_x
_atom_site_fract_y
_atom_site_fract_z
Si Si1 0.839089 0.886601 0.373147
Si Si2 0.318008 0.181596 0.222437
Si Si3 0.737027 0.503485 0.786431
Si Si4 0.484284 0.819988 0.376599
Si Si5 0.910213 0.097169 0.366503
Si Si6 0.745413 0.699100 0.129716
Si Si7 0.456889 0.943966 0.673038
Si Si8 0.619948 0.936354 0.127958
O O1 0.833928 0.865443 0.500000
O O2 0.782995 0.836854 0.300779
O O3 0.964137 0.892758 0.332867
O O4 0.775654 0.947208 0.363685
O O5 0.420038 0.202502 0.297717
O O6 0.290911 0.236262 0.148673
O O7 0.345014 0.129942 0.138695
O O8 0.626128 0.541153 0.793702
O O9 0.825645 0.550423 0.828161
O O10 0.779618 0.478499 0.667163
O O11 0.494987 0.791742 0.500000
O O12 0.366878 0.808425 0.317083
O O13 0.496620 0.888388 0.391967
O O14 0.897890 0.085230 0.500000
O O15 0.842245 0.152914 0.324722
O O16 0.759309 0.686926 0.000000
O O17 0.510998 0.945455 0.797794
O O18 0.500000 0.000000 0.607662
O O19 0.592341 0.950305 0.000000
#
# Coordination Sequence:
#
# PCOD8235579 Si02
#       8
#     8   8   8   8   8   8   8   8
#     4  10  21  35  55  83 111 142 175 216 269 322
#     4  10  21  35  57  80 107 142 180 226 264 316
#     4  10  18  31  53  81 109 139 175 217 267 317
#     4  10  20  35  54  80 110 140 173 217 273 320
#     4  10  20  35  55  79 109 142 177 217 265 326
#     4  10  21  36  57  78 103 143 182 220 266 317
#     4   9  18  30  50  80 108 140 172 212 266 319
#     4   9  19  35  54  77 107 144 187 227 263 310
#
# _framework density 18.803975000000001
#
# number of rings (size 3 to 8) (size 9 to 14) (size 15 to 20)
#    0.000    2.250    1.250    2.250    1.750    4.000 
#    0.000    1.875    0.000    9.000    0.000    0.000 
#    0.000    0.000    0.000    0.000    0.000    0.000 
#
# Total GULP energy -793051.103088 kJ/mol
# GULP energy per Si atom -12391.423486 kJ/mol
# Density = 1.876118 g / cm^3
# Si number density = 18.803975 Si / 1000 Ang^3
#
#
#
# Elastic Constant Matrix: (Units=GPa)
#
#
# Indices 1 2 3 4 5 6 
#
# 1 110.6590 15.8249 28.4624 0.0000 0.0000 0.0000
# 2 15.8249 74.1929 1.2934 0.0000 0.0000 0.0000
# 3 28.4624 1.2934 52.5037 0.0000 0.0000 0.0000
# 4 0.0000 0.0000 0.0000 21.4245 0.0000 0.0000
# 5 0.0000 0.0000 0.0000 0.0000 16.0543 0.0000
# 6 0.0000 0.0000 0.0000 0.0000 0.0000 28.0772
#
#
#
# Elastic Compliance Matrix: (Units=1/GPa)
#
#
# Indices 1 2 3 4 5 6 
#
# 1 0.010852 -0.002213 -0.005829 0.000000 0.000000 0.000000
# 2 -0.002213 0.013935 0.000856 0.000000 0.000000 0.000000
# 3 -0.005829 0.000856 0.022185 0.000000 0.000000 0.000000
# 4 0.000000 0.000000 0.000000 0.046675 0.000000 0.000000
# 5 0.000000 0.000000 0.000000 0.000000 0.062289 0.000000
# 6 0.000000 0.000000 0.000000 0.000000 0.000000 0.035616
#
#
# Mechanical properties :
#
#
# Convention : Reuss Voigt Hill
#
# Bulk Modulus (GPa) = 30.67278 36.50189 33.58734
# Shear Modulus (GPa) = 23.06368 25.89620 24.47994
#
# Velocity S-wave (km/s) = 3.50599 3.71505 3.61203
# Velocity P-wave (km/s) = 5.72158 6.15272 5.94107
#
# Compressibility (1/GPa) = 0.03260220
#
# Stress axis : x y z
#
# Youngs Moduli (GPa) = 92.14530 71.75918 45.07576
#
# Poissons Ratio (x) = 0.15881 0.26273
# Poissons Ratio (y) = 0.20393 -0.03861
# Poissons Ratio (z) = 0.53708 -0.06146
#
# Static dielectric constant tensor:
#      x y z
#    x 3.667180 0.000000 0.000000 
#    y 0.000000 3.386520 0.000000 
#    z 0.000000 0.000000 3.057740 
# 
# 
# High freq. dielectric constant tensor:
#      x y z
#    x 1.741330 0.000000 0.000000 
#    y 0.000000 1.731190 0.000000 
#    z 0.000000 0.000000 1.691500 
# 
# From -- ./inp_files/14835.got.cif
#   From: 2010.06.25/outbox.cif.g09.slc.cpg/sg58_8_cif.got.tgz:14835.got - 2010.06.26 21:38:00.
