data_PCOD8235009
_publ_section_title
;
Structure prediction by ZEFSAII (Michael W. Deem and Ramdas Pophale) SiO2 
 PCOD8235009
Probable space group: P B C M
;
_chemical_formula_sum "Si O2"
_cell_formula_units_Z 56
_cell_length_a 14.880720
_cell_length_b 8.833622
_cell_length_c 20.482729
_cell_angle_alpha 90.000000
_cell_angle_beta 90.000000
_cell_angle_gamma 90.000000
_cell_volume 2692.468155
_symmetry_space_group_name_H-M "P B C M"
_symmetry_group_IT_number 57
_symmetry_cell_setting 'orthorhombic'
loop_
_space_group_symop_operation_xyz
x,y,z
-x,-y,1/2+z
x,1/2-y,-z
-x,1/2+y,1/2-z
-x,-y,-z
x,y,1/2-z
-x,1/2+y,z
x,1/2-y,1/2+z
loop_
_atom_site_type_symbol
_atom_site_label
_atom_site_fract_x
_atom_site_fract_y
_atom_site_fract_z
Si Si1 0.264631 0.291196 0.427627
Si Si2 0.598027 0.164022 0.176486
Si Si3 0.414852 0.192385 0.824302
Si Si4 0.071394 0.533172 0.750000
Si Si5 0.221713 0.616924 0.381389
Si Si6 0.940697 0.202744 0.930303
Si Si7 0.118557 0.612589 0.250000
Si Si8 0.906713 0.886397 0.617953
O O1 0.300685 0.250000 0.500000
O O2 0.338713 0.247658 0.373464
O O3 0.238015 0.467464 0.424336
O O4 0.177591 0.191743 0.414270
O O5 0.617821 0.220114 0.250000
O O6 0.510157 0.247368 0.149027
O O7 0.684059 0.203396 0.131714
O O8 0.580688 0.986566 0.174735
O O9 0.396275 0.251228 0.750000
O O10 0.090200 0.711681 0.750000
O O11 0.118510 0.455555 0.811995
O O12 0.965243 0.501496 0.750000
O O13 0.159009 0.731323 0.420879
O O14 0.178096 0.569075 0.312505
O O15 0.009342 0.269410 0.875754
O O16 0.939652 0.022675 0.928011
O O17 0.980290 0.250000 0.000000
#
# Coordination Sequence:
#
# PCOD8235009 Si02
#       8
#     8   8   8   4   8   8   4   8
#     4  11  25  43  63  92 126 169 216 258 312 379
#     4   9  18  36  61  90 121 155 202 252 324 374
#     4   9  20  39  63  92 121 160 204 260 313 373
#     4  12  24  40  60  95 123 156 208 263 321 367
#     4  11  22  40  65  89 125 167 205 261 313 373
#     4  12  24  41  59  85 123 172 212 249 307 376
#     4  12  24  42  62  93 131 160 206 261 319 365
#     4  12  24  39  61  87 124 160 208 262 311 369
#
# _framework density 20.798759
#
# number of rings (size 3 to 8) (size 9 to 14) (size 15 to 20)
#    0.000    1.143    3.571    2.571    4.000    1.143 
#    0.000    3.571    0.000    0.000    0.000    0.000 
#    0.000    0.000    0.000    0.000    0.000    0.000 
#
# Total GULP energy -694608.981478 kJ/mol
# GULP energy per Si atom -12403.731812 kJ/mol
# Density = 2.075142 g / cm^3
# Si number density = 20.798759 Si / 1000 Ang^3
#
#
#
# Elastic Constant Matrix: (Units=GPa)
#
#
# Indices 1 2 3 4 5 6 
#
# 1 96.1037 34.3114 37.8401 0.0000 0.0000 0.0000
# 2 34.3114 50.1128 7.9720 0.0000 0.0000 0.0000
# 3 37.8401 7.9720 81.3513 0.0000 0.0000 0.0000
# 4 0.0000 0.0000 0.0000 26.5707 0.0000 0.0000
# 5 0.0000 0.0000 0.0000 0.0000 26.4654 0.0000
# 6 0.0000 0.0000 0.0000 0.0000 0.0000 36.6286
#
#
#
# Elastic Compliance Matrix: (Units=1/GPa)
#
#
# Indices 1 2 3 4 5 6 
#
# 1 0.016802 -0.010423 -0.006794 0.000000 0.000000 0.000000
# 2 -0.010423 0.026737 0.002228 0.000000 0.000000 0.000000
# 3 -0.006794 0.002228 0.015234 0.000000 0.000000 0.000000
# 4 0.000000 0.000000 0.000000 0.037635 0.000000 0.000000
# 5 0.000000 0.000000 0.000000 0.000000 0.037785 0.000000
# 6 0.000000 0.000000 0.000000 0.000000 0.000000 0.027301
#
#
# Mechanical properties :
#
#
# Convention : Reuss Voigt Hill
#
# Bulk Modulus (GPa) = 34.72783 43.09054 38.90918
# Shear Modulus (GPa) = 24.86688 27.76255 26.31471
#
# Velocity S-wave (km/s) = 3.46149 3.65748 3.56083
# Velocity P-wave (km/s) = 5.71919 6.21281 5.97111
#
# Compressibility (1/GPa) = 0.02879535
#
# Stress axis : x y z
#
# Youngs Moduli (GPa) = 59.51756 37.40130 65.64205
#
# Poissons Ratio (x) = 0.38984 0.44596
# Poissons Ratio (y) = 0.62036 -0.14626
# Poissons Ratio (z) = 0.40435 -0.08334
#
# Static dielectric constant tensor:
#      x y z
#    x 3.841970 0.000000 0.000000 
#    y 0.000000 3.663650 0.000000 
#    z 0.000000 0.000000 3.878120 
# 
# 
# High freq. dielectric constant tensor:
#      x y z
#    x 1.813230 0.000000 0.000000 
#    y 0.000000 1.811880 0.000000 
#    z 0.000000 0.000000 1.812350 
# 
# From -- ./inp_files/25445.got.cif
#   From: 2010.03.12/outbox.cif.g09.slc.cpg/sg57_13_cif.got.tgz:25445.got - 2010.04.16 15:48:40.
