data_PCOD8235512
_publ_section_title
;
Structure prediction by ZEFSAII (Michael W. Deem and Ramdas Pophale) SiO2 
 PCOD8235512
Probable space group: P N N M
;
_chemical_formula_sum "Si O2"
_cell_formula_units_Z 64
_cell_length_a 8.969422
_cell_length_b 22.633514
_cell_length_c 16.046910
_cell_angle_alpha 90.000000
_cell_angle_beta 90.000000
_cell_angle_gamma 90.000000
_cell_volume 3257.675792
_symmetry_space_group_name_H-M "P N N M"
_symmetry_group_IT_number 58
_symmetry_cell_setting 'orthorhombic'
loop_
_space_group_symop_operation_xyz
x,y,z
-x,-y,z
1/2+x,1/2-y,1/2-z
1/2-x,1/2+y,1/2-z
-x,-y,-z
x,y,-z
1/2-x,1/2+y,1/2+z
1/2+x,1/2-y,1/2+z
loop_
_atom_site_type_symbol
_atom_site_label
_atom_site_fract_x
_atom_site_fract_y
_atom_site_fract_z
Si Si1 0.138380 0.429578 0.808896
Si Si2 0.843945 0.515975 0.369843
Si Si3 0.681577 0.188453 0.227025
Si Si4 0.632469 0.880954 0.406751
Si Si5 0.352476 0.585126 0.312092
Si Si6 0.160672 0.692318 0.247913
Si Si7 0.649160 0.622852 0.407449
Si Si8 0.147784 0.025789 0.362920
O O1 0.108124 0.461395 0.721644
O O2 0.211269 0.365096 0.791924
O O3 0.244554 0.469336 0.864360
O O4 0.984259 0.422886 0.858713
O O5 0.738879 0.458588 0.371510
O O6 0.756512 0.566679 0.418234
O O7 0.000000 0.500000 0.415491
O O8 0.753315 0.247119 0.265407
O O9 0.504751 0.197117 0.213807
O O10 0.761572 0.174942 0.139213
O O11 0.580586 0.862876 0.500000
O O12 0.655977 0.821934 0.351563
O O13 0.782777 0.919888 0.414481
O O14 0.248110 0.640930 0.294893
O O15 0.502869 0.605872 0.355923
O O16 0.394669 0.549417 0.228956
O O17 0.605272 0.644968 0.500000
O O18 0.000000 0.000000 0.406558
#
# Coordination Sequence:
#
# PCOD8235512 Si02
#       8
#     8   8   8   8   8   8   8   8
#     4   9  18  33  54  79 105 141 183 219 260 319
#     4  10  18  33  55  79 112 147 185 229 274 329
#     4  10  20  37  59  81 106 140 187 232 274 328
#     4  10  21  35  53  80 112 143 175 216 270 328
#     4  10  19  34  55  81 109 145 189 229 269 327
#     4  10  21  38  62  83 104 142 190 231 274 332
#     4  11  23  36  54  83 116 148 183 229 284 335
#     4  10  18  30  52  79 110 143 178 219 261 310
#
# _framework density 19.645909
#
# number of rings (size 3 to 8) (size 9 to 14) (size 15 to 20)
#    0.000    2.000    0.000    7.500    0.000    4.000 
#    0.000    1.875    0.000    3.000    0.000    0.000 
#    0.000    0.000    0.000    0.000    0.000    0.000 
#
# Total GULP energy -793462.275481 kJ/mol
# GULP energy per Si atom -12397.848054 kJ/mol
# Density = 1.960119 g / cm^3
# Si number density = 19.645909 Si / 1000 Ang^3
#
#
#
# Elastic Constant Matrix: (Units=GPa)
#
#
# Indices 1 2 3 4 5 6 
#
# 1 113.5113 31.9051 19.1297 0.0000 0.0000 0.0000
# 2 31.9051 98.0694 -1.0057 0.0000 0.0000 0.0000
# 3 19.1297 -1.0057 65.4489 0.0000 0.0000 0.0000
# 4 0.0000 0.0000 0.0000 -19.0668 0.0000 0.0000
# 5 0.0000 0.0000 0.0000 0.0000 10.6453 0.0000
# 6 0.0000 0.0000 0.0000 0.0000 0.0000 40.5930
#
#
#
# Elastic Compliance Matrix: (Units=1/GPa)
#
#
# Indices 1 2 3 4 5 6 
#
# 1 0.010273 -0.003373 -0.003054 0.000000 0.000000 0.000000
# 2 -0.003373 0.011306 0.001160 0.000000 0.000000 0.000000
# 3 -0.003054 0.001160 0.016190 0.000000 0.000000 0.000000
# 4 0.000000 0.000000 0.000000 -0.052447 0.000000 0.000000
# 5 0.000000 0.000000 0.000000 0.000000 0.093938 0.000000
# 6 0.000000 0.000000 0.000000 0.000000 0.000000 0.024635
#
#
# Mechanical properties :
#
#
# Convention : Reuss Voigt Hill
#
# Bulk Modulus (GPa) = 36.72085 41.89865 39.30975
# Shear Modulus (GPa) = 40.48342 21.56768 31.02555
#
# Velocity S-wave (km/s) = 4.54437 3.31693 3.97827
# Velocity P-wave (km/s) = 6.80198 6.00355 6.41520
#
# Compressibility (1/GPa) = 0.02723249
#
# Stress axis : x y z
#
# Youngs Moduli (GPa) = 97.34642 88.44706 61.76789
#
# Poissons Ratio (x) = 0.29836 0.18866
# Poissons Ratio (y) = 0.32838 -0.07163
# Poissons Ratio (z) = 0.29733 -0.10257
#
# Static dielectric constant tensor:
#      x y z
#    x 3.713420 0.000000 0.000000 
#    y 0.000000 3.608710 0.000000 
#    z 0.000000 0.000000 3.229720 
# 
# 
# High freq. dielectric constant tensor:
#      x y z
#    x 1.778410 0.000000 0.000000 
#    y 0.000000 1.764800 0.000000 
#    z 0.000000 0.000000 1.731080 
# 
# From -- ./inp_files/25703.got.cif
#   From: 2010.06.25/outbox.cif.g09.slc.cpg/sg58_13_cif.got.tgz:25703.got - 2010.06.26 21:38:00.
