data_PCOD8235458
_publ_section_title
;
Structure prediction by ZEFSAII (Michael W. Deem and Ramdas Pophale) SiO2 
 PCOD8235458
Probable space group: P N N M
;
_chemical_formula_sum "Si O2"
_cell_formula_units_Z 64
_cell_length_a 19.112775
_cell_length_b 23.288027
_cell_length_c 9.051864
_cell_angle_alpha 90.000000
_cell_angle_beta 90.000000
_cell_angle_gamma 90.000000
_cell_volume 4028.973987
_symmetry_space_group_name_H-M "P N N M"
_symmetry_group_IT_number 58
_symmetry_cell_setting 'orthorhombic'
loop_
_space_group_symop_operation_xyz
x,y,z
-x,-y,z
1/2+x,1/2-y,1/2-z
1/2-x,1/2+y,1/2-z
-x,-y,-z
x,y,-z
1/2-x,1/2+y,1/2+z
1/2+x,1/2-y,1/2+z
loop_
_atom_site_type_symbol
_atom_site_label
_atom_site_fract_x
_atom_site_fract_y
_atom_site_fract_z
Si Si1 0.149020 0.226221 0.328670
Si Si2 0.639220 0.056168 0.329204
Si Si3 0.350579 0.268080 0.173486
Si Si4 0.239216 0.661343 0.672411
Si Si5 0.999151 0.262019 0.327700
Si Si6 0.219425 0.331961 0.173709
Si Si7 0.638289 0.938620 0.826854
Si Si8 0.005931 0.617371 0.827600
O O1 0.168045 0.227661 0.500000
O O2 0.187073 0.171128 0.255815
O O3 0.065619 0.220662 0.302011
O O4 0.172459 0.285976 0.257537
O O5 0.648243 0.038874 0.500000
O O6 0.695743 0.104376 0.282182
O O7 0.561245 0.077927 0.298322
O O8 0.655755 0.002120 0.227365
O O9 0.314979 0.209463 0.231550
O O10 0.430125 0.271578 0.233987
O O11 0.301430 0.322281 0.218271
O O12 0.355619 0.264471 0.000000
O O13 0.253934 0.669090 0.500000
O O14 0.206788 0.599480 0.709352
O O15 0.991362 0.278052 0.500000
O O16 0.008651 0.320918 0.240869
O O17 0.207265 0.321422 0.000000
O O18 0.571345 0.913822 0.744785
O O19 0.621910 0.938263 0.000000
O O20 0.020593 0.624874 0.000000
#
# Coordination Sequence:
#
# PCOD8235458 Si02
#       8
#     8   8   8   8   8   8   8   8
#     4  10  19  28  46  72  97 120 151 199 239 271
#     4  10  21  34  47  67  95 128 162 197 237 278
#     4   8  14  28  49  66  87 120 155 188 225 278
#     4   9  18  33  49  64  89 125 159 191 236 288
#     4  10  18  30  47  71  99 126 158 192 232 279
#     4   9  17  32  49  65  91 126 159 190 231 286
#     4  11  22  35  50  67  90 127 168 202 235 277
#     4  11  21  32  46  67  99 131 161 195 230 276
#
# _framework density 15.884938
#
# number of rings (size 3 to 8) (size 9 to 14) (size 15 to 20)
#    0.000    2.250    2.500    2.250    0.000    4.500 
#    0.000    0.000    0.000    0.000    0.000    0.875 
#    0.000    7.000    0.000    0.000    0.000    0.000 
#
# Total GULP energy -793343.695555 kJ/mol
# GULP energy per Si atom -12395.995243 kJ/mol
# Density = 1.584878 g / cm^3
# Si number density = 15.884938 Si / 1000 Ang^3
#
#
#
# Elastic Constant Matrix: (Units=GPa)
#
#
# Indices 1 2 3 4 5 6 
#
# 1 102.8405 47.8562 44.9390 0.0000 0.0000 0.0000
# 2 47.8562 75.1194 41.5766 0.0000 0.0000 0.0000
# 3 44.9390 41.5766 63.2696 0.0000 0.0000 0.0000
# 4 0.0000 0.0000 0.0000 23.6365 0.0000 0.0000
# 5 0.0000 0.0000 0.0000 0.0000 19.2872 0.0000
# 6 0.0000 0.0000 0.0000 0.0000 0.0000 23.6555
#
#
#
# Elastic Compliance Matrix: (Units=1/GPa)
#
#
# Indices 1 2 3 4 5 6 
#
# 1 0.015651 -0.006000 -0.007173 0.000000 0.000000 0.000000
# 2 -0.006000 0.023222 -0.010998 0.000000 0.000000 0.000000
# 3 -0.007173 -0.010998 0.028128 0.000000 0.000000 0.000000
# 4 0.000000 0.000000 0.000000 0.042307 0.000000 0.000000
# 5 0.000000 0.000000 0.000000 0.000000 0.051848 0.000000
# 6 0.000000 0.000000 0.000000 0.000000 0.000000 0.042274
#
#
# Mechanical properties :
#
#
# Convention : Reuss Voigt Hill
#
# Bulk Modulus (GPa) = 53.59952 56.66365 55.13159
# Shear Modulus (GPa) = 19.38056 20.43969 19.91012
#
# Velocity S-wave (km/s) = 3.49672 3.59100 3.54417
# Velocity P-wave (km/s) = 7.07943 7.27616 7.17847
#
# Compressibility (1/GPa) = 0.01865688
#
# Stress axis : x y z
#
# Youngs Moduli (GPa) = 63.89559 43.06302 35.55233
#
# Poissons Ratio (x) = 0.25839 0.25503
# Poissons Ratio (y) = 0.38339 0.39100
# Poissons Ratio (z) = 0.45834 0.47361
#
# Static dielectric constant tensor:
#      x y z
#    x 3.376300 0.000000 0.000000 
#    y 0.000000 2.936270 0.000000 
#    z 0.000000 0.000000 3.000510 
# 
# 
# High freq. dielectric constant tensor:
#      x y z
#    x 1.611190 0.000000 0.000000 
#    y 0.000000 1.582760 0.000000 
#    z 0.000000 0.000000 1.607730 
# 
# From -- ./inp_files/8468.got.cif
#   From: 2010.06.25/outbox.cif.g09.slc.cpg/sg58_5_cif.got.tgz:8468.got - 2010.06.26 21:38:00.
