data_PCOD8235920
_publ_section_title
;
Structure prediction by ZEFSAII (Michael W. Deem and Ramdas Pophale) SiO2 
 PCOD8235920
Probable space group: P N N M
;
_chemical_formula_sum "Si O2"
_cell_formula_units_Z 64
_cell_length_a 19.005961
_cell_length_b 20.463246
_cell_length_c 9.391372
_cell_angle_alpha 90.000000
_cell_angle_beta 90.000000
_cell_angle_gamma 90.000000
_cell_volume 3652.526728
_symmetry_space_group_name_H-M "P N N M"
_symmetry_group_IT_number 58
_symmetry_cell_setting 'orthorhombic'
loop_
_space_group_symop_operation_xyz
x,y,z
-x,-y,z
1/2+x,1/2-y,1/2-z
1/2-x,1/2+y,1/2-z
-x,-y,-z
x,y,-z
1/2-x,1/2+y,1/2+z
1/2+x,1/2-y,1/2+z
loop_
_atom_site_type_symbol
_atom_site_label
_atom_site_fract_x
_atom_site_fract_y
_atom_site_fract_z
Si Si1 0.968598 0.194111 0.836935
Si Si2 0.174764 0.500865 0.161966
Si Si3 0.036607 0.568470 0.837135
Si Si4 0.328936 0.372920 0.664485
Si Si5 0.828425 0.626781 0.663342
Si Si6 0.832891 0.995904 0.333278
Si Si7 0.971617 0.685940 0.333288
Si Si8 0.951415 0.939197 0.835981
O O1 0.885168 0.184552 0.806161
O O2 0.999195 0.248511 0.734631
O O3 0.007473 0.126776 0.802155
O O4 0.980780 0.215540 0.000000
O O5 0.120355 0.559832 0.188597
O O6 0.152768 0.438214 0.251985
O O7 0.252855 0.526158 0.198268
O O8 0.170556 0.476513 0.000000
O O9 0.000000 0.500000 0.801044
O O10 0.010601 0.623634 0.731188
O O11 0.020686 0.589337 0.000000
O O12 0.335426 0.395906 0.500000
O O13 0.250116 0.346573 0.699737
O O14 0.347747 0.434022 0.763046
O O15 0.832653 0.606042 0.500000
O O16 0.887521 0.681314 0.697802
O O17 0.849341 0.000746 0.500000
O O18 0.882007 0.941205 0.261800
O O19 0.987730 0.687722 0.500000
O O20 0.928391 0.943297 0.000000
O O21 0.000000 0.000000 0.793616
#
# Coordination Sequence:
#
# PCOD8235920 Si02
#       8
#     8   8   8   8   8   8   8   8
#     4  10  21  37  57  77 102 142 184 219 257 313
#     4   9  18  32  51  79 109 137 175 219 261 311
#     4  10  19  34  57  79 103 140 181 217 255 310
#     4   9  17  34  56  76 100 136 181 218 256 316
#     4   9  18  32  53  78 104 136 172 215 267 318
#     4  10  19  30  50  82 113 137 167 218 276 314
#     4  11  23  36  52  80 114 141 172 220 274 320
#     4  10  19  35  56  78 104 138 181 219 256 313
#
# _framework density 17.522117000000001
#
# number of rings (size 3 to 8) (size 9 to 14) (size 15 to 20)
#    0.000    2.250    2.500    0.750    0.000    3.000 
#    0.000    1.250    0.000    6.000    0.000    0.000 
#    0.000    0.000    0.000    0.000    0.000    0.000 
#
# Total GULP energy -793532.378398 kJ/mol
# GULP energy per Si atom -12398.943412 kJ/mol
# Density = 1.748224 g / cm^3
# Si number density = 17.522117 Si / 1000 Ang^3
#
#
#
# Elastic Constant Matrix: (Units=GPa)
#
#
# Indices 1 2 3 4 5 6 
#
# 1 129.9194 62.1379 63.3578 0.0000 0.0000 0.0000
# 2 62.1379 96.4582 57.2255 0.0000 0.0000 0.0000
# 3 63.3578 57.2255 87.1880 0.0000 0.0000 0.0000
# 4 0.0000 0.0000 0.0000 30.4443 0.0000 0.0000
# 5 0.0000 0.0000 0.0000 0.0000 20.2582 0.0000
# 6 0.0000 0.0000 0.0000 0.0000 0.0000 23.0560
#
#
#
# Elastic Compliance Matrix: (Units=1/GPa)
#
#
# Indices 1 2 3 4 5 6 
#
# 1 0.013037 -0.004549 -0.006488 0.000000 0.000000 0.000000
# 2 -0.004549 0.018566 -0.008880 0.000000 0.000000 0.000000
# 3 -0.006488 -0.008880 0.022012 0.000000 0.000000 0.000000
# 4 0.000000 0.000000 0.000000 0.032847 0.000000 0.000000
# 5 0.000000 0.000000 0.000000 0.000000 0.049363 0.000000
# 6 0.000000 0.000000 0.000000 0.000000 0.000000 0.043373
#
#
# Mechanical properties :
#
#
# Convention : Reuss Voigt Hill
#
# Bulk Modulus (GPa) = 72.56186 75.44534 74.00360
# Shear Modulus (GPa) = 22.35894 23.47467 22.91680
#
# Velocity S-wave (km/s) = 3.57605 3.66418 3.62038
# Velocity P-wave (km/s) = 7.65195 7.81360 7.73320
#
# Compressibility (1/GPa) = 0.01378134
#
# Stress axis : x y z
#
# Youngs Moduli (GPa) = 76.70631 53.86209 45.42956
#
# Poissons Ratio (x) = 0.24504 0.29473
# Poissons Ratio (y) = 0.34896 0.40340
# Poissons Ratio (z) = 0.49764 0.47828
#
# Static dielectric constant tensor:
#      x y z
#    x 3.716250 0.000000 0.000000 
#    y 0.000000 3.010310 0.000000 
#    z 0.000000 0.000000 3.297420 
# 
# 
# High freq. dielectric constant tensor:
#      x y z
#    x 1.696530 0.000000 0.000000 
#    y 0.000000 1.640600 0.000000 
#    z 0.000000 0.000000 1.680730 
# 
# From -- ./inp_files/9272.got.cif
#   From: 2010.06.25/outbox.cif.g09.slc.cpg/sg58_5_cif.got.tgz:9272.got - 2010.06.26 21:38:00.
