data_PCOD8235636
_publ_section_title
;
Structure prediction by ZEFSAII (Michael W. Deem and Ramdas Pophale) SiO2 
 PCOD8235636
Probable space group: P N N M
;
_chemical_formula_sum "Si O2"
_cell_formula_units_Z 64
_cell_length_a 20.694462
_cell_length_b 8.783208
_cell_length_c 17.968788
_cell_angle_alpha 90.000000
_cell_angle_beta 90.000000
_cell_angle_gamma 90.000000
_cell_volume 3266.074545
_symmetry_space_group_name_H-M "P N N M"
_symmetry_group_IT_number 58
_symmetry_cell_setting 'orthorhombic'
loop_
_space_group_symop_operation_xyz
x,y,z
-x,-y,z
1/2+x,1/2-y,1/2-z
1/2-x,1/2+y,1/2-z
-x,-y,-z
x,y,-z
1/2-x,1/2+y,1/2+z
1/2+x,1/2-y,1/2+z
loop_
_atom_site_type_symbol
_atom_site_label
_atom_site_fract_x
_atom_site_fract_y
_atom_site_fract_z
Si Si1 0.044025 0.294610 0.230773
Si Si2 0.252627 0.404628 0.826237
Si Si3 0.086319 0.626231 0.281398
Si Si4 0.480217 0.171457 0.419839
Si Si5 0.292880 0.471268 0.583984
Si Si6 0.829180 0.865749 0.224168
Si Si7 0.838775 0.331493 0.856478
Si Si8 0.170580 0.667717 0.583549
O O1 0.071229 0.465039 0.242012
O O2 0.099237 0.175175 0.253940
O O3 0.979495 0.273632 0.280638
O O4 0.024041 0.257734 0.145447
O O5 0.216569 0.282688 0.773553
O O6 0.299326 0.506233 0.776076
O O7 0.198445 0.508470 0.866518
O O8 0.295089 0.322404 0.889236
O O9 0.143785 0.698923 0.231127
O O10 0.109512 0.619602 0.366115
O O11 0.491993 0.254499 0.500000
O O12 0.404347 0.176094 0.402779
O O13 0.500000 0.000000 0.428474
O O14 0.320351 0.486648 0.500000
O O15 0.335929 0.574883 0.639148
O O16 0.291738 0.298361 0.612360
O O17 0.219116 0.526195 0.587280
O O18 0.145270 0.694844 0.500000
#
# Coordination Sequence:
#
# PCOD8235636 Si02
#       8
#     8   8   8   8   8   8   8   8
#     4  10  20  36  58  86 112 148 205 243 278 341
#     4  11  22  34  61  87 118 149 194 238 294 357
#     4  10  19  37  60  84 111 150 197 246 282 343
#     4  10  18  32  53  83 121 159 192 232 279 336
#     4  10  22  36  54  87 125 157 190 235 294 352
#     4  11  21  37  59  89 115 152 193 243 292 345
#     4  11  19  35  59  89 118 156 197 237 283 345
#     4  10  23  41  59  83 117 152 189 246 308 356
#
# _framework density 19.595389999999998
#
# number of rings (size 3 to 8) (size 9 to 14) (size 15 to 20)
#    0.000    1.625    3.750    3.375    1.750    1.500 
#    0.000    9.375    0.000    5.250    0.000    0.000 
#    0.000    0.000    0.000    0.000    0.000    0.000 
#
# Total GULP energy -793364.637080 kJ/mol
# GULP energy per Si atom -12396.322454 kJ/mol
# Density = 1.955079 g / cm^3
# Si number density = 19.595390 Si / 1000 Ang^3
#
#
#
# Elastic Constant Matrix: (Units=GPa)
#
#
# Indices 1 2 3 4 5 6 
#
# 1 94.4790 42.0055 66.9496 0.0000 0.0000 0.0000
# 2 42.0055 90.2569 44.6866 0.0000 0.0000 0.0000
# 3 66.9496 44.6866 137.3376 0.0000 0.0000 0.0000
# 4 0.0000 0.0000 0.0000 24.0627 0.0000 0.0000
# 5 0.0000 0.0000 0.0000 0.0000 27.0014 0.0000
# 6 0.0000 0.0000 0.0000 0.0000 0.0000 23.0065
#
#
#
# Elastic Compliance Matrix: (Units=1/GPa)
#
#
# Indices 1 2 3 4 5 6 
#
# 1 0.017717 -0.004732 -0.007097 0.000000 0.000000 0.000000
# 2 -0.004732 0.014471 -0.002402 0.000000 0.000000 0.000000
# 3 -0.007097 -0.002402 0.011523 0.000000 0.000000 0.000000
# 4 0.000000 0.000000 0.000000 0.041558 0.000000 0.000000
# 5 0.000000 0.000000 0.000000 0.000000 0.037035 0.000000
# 6 0.000000 0.000000 0.000000 0.000000 0.000000 0.043466
#
#
# Mechanical properties :
#
#
# Convention : Reuss Voigt Hill
#
# Bulk Modulus (GPa) = 65.57785 69.92855 67.75320
# Shear Modulus (GPa) = 25.08592 26.04289 25.56440
#
# Velocity S-wave (km/s) = 3.58186 3.64954 3.61586
# Velocity P-wave (km/s) = 7.11653 7.31591 7.21691
#
# Compressibility (1/GPa) = 0.01524905
#
# Stress axis : x y z
#
# Youngs Moduli (GPa) = 56.44164 69.10466 86.78562
#
# Poissons Ratio (x) = 0.32699 0.61594
# Poissons Ratio (y) = 0.26707 0.20844
# Poissons Ratio (z) = 0.40058 0.16598
#
# Static dielectric constant tensor:
#      x y z
#    x 3.434430 0.000000 0.000000 
#    y 0.000000 2.781310 0.000000 
#    z 0.000000 0.000000 3.815820 
# 
# 
# High freq. dielectric constant tensor:
#      x y z
#    x 1.762610 0.000000 0.000000 
#    y 0.000000 1.749730 0.000000 
#    z 0.000000 0.000000 1.751700 
# 
# From -- ./inp_files/27548.got.cif
#   From: 2010.06.25/outbox.cif.g09.slc.cpg/sg58_14_cif.got.tgz:27548.got - 2010.06.26 21:38:00.
