data_PCOD8235668
_publ_section_title
;
Structure prediction by ZEFSAII (Michael W. Deem and Ramdas Pophale) SiO2 
 PCOD8235668
Probable space group: P N N M
;
_chemical_formula_sum "Si O2"
_cell_formula_units_Z 56
_cell_length_a 16.630366
_cell_length_b 20.039503
_cell_length_c 8.765964
_cell_angle_alpha 90.000000
_cell_angle_beta 90.000000
_cell_angle_gamma 90.000000
_cell_volume 2921.382588
_symmetry_space_group_name_H-M "P N N M"
_symmetry_group_IT_number 58
_symmetry_cell_setting 'orthorhombic'
loop_
_space_group_symop_operation_xyz
x,y,z
-x,-y,z
1/2+x,1/2-y,1/2-z
1/2-x,1/2+y,1/2-z
-x,-y,-z
x,y,-z
1/2-x,1/2+y,1/2+z
1/2+x,1/2-y,1/2+z
loop_
_atom_site_type_symbol
_atom_site_label
_atom_site_fract_x
_atom_site_fract_y
_atom_site_fract_z
Si Si1 0.768089 0.263314 0.675325
Si Si2 0.070536 0.700023 0.178015
Si Si3 0.933501 0.449758 0.819465
Si Si4 0.811021 0.120415 0.678358
Si Si5 0.742900 0.983239 0.318313
Si Si6 0.983268 0.168797 0.319855
Si Si7 0.144287 0.126398 0.823769
O O1 0.798190 0.269526 0.500000
O O2 0.835146 0.295845 0.782883
O O3 0.756213 0.185172 0.716836
O O4 0.684294 0.300912 0.700886
O O5 0.041271 0.625762 0.223066
O O6 0.018019 0.753542 0.270977
O O7 0.058217 0.714069 0.000000
O O8 0.845604 0.467442 0.751366
O O9 0.000000 0.500000 0.749785
O O10 0.929333 0.458329 0.000000
O O11 0.816488 0.108331 0.500000
O O12 0.901377 0.133713 0.738985
O O13 0.771353 0.054564 0.751368
O O14 0.740911 0.983908 0.500000
O O15 0.805781 0.928213 0.266267
O O16 0.993733 0.164682 0.500000
O O17 0.054860 0.128807 0.241096
O O18 0.141850 0.106311 0.000000
#
# Coordination Sequence:
#
# PCOD8235668 Si02
#       7
#     8   8   8   8   8   8   8
#     4   9  18  34  55  77 105 144 185 226 274 331
#     4  10  18  32  55  82 108 137 179 227 279 326
#     4   9  18  31  52  83 113 143 181 228 274 328
#     4   8  17  34  56  78 102 142 189 228 267 326
#     4  10  19  35  57  79 107 145 186 227 277 333
#     4  10  21  37  55  78 108 145 189 233 279 326
#     4  11  22  35  55  83 112 144 186 232 281 335
#
# _framework density 19.169006
#
# number of rings (size 3 to 8) (size 9 to 14) (size 15 to 20)
#    0.000    2.429    1.429    2.143    0.000    2.286 
#    0.000   10.714    0.000    5.571    0.000    0.000 
#    0.000    0.000    0.000    0.000    0.000    0.000 
#
# Total GULP energy -694301.523754 kJ/mol
# GULP energy per Si atom -12398.241496 kJ/mol
# Density = 1.912538 g / cm^3
# Si number density = 19.169006 Si / 1000 Ang^3
#
#
#
# Elastic Constant Matrix: (Units=GPa)
#
#
# Indices 1 2 3 4 5 6 
#
# 1 77.6453 54.2673 7.6081 0.0000 0.0000 0.0000
# 2 54.2673 131.1153 14.1145 0.0000 0.0000 0.0000
# 3 7.6081 14.1145 19.9236 0.0000 0.0000 0.0000
# 4 0.0000 0.0000 0.0000 24.9846 0.0000 0.0000
# 5 0.0000 0.0000 0.0000 0.0000 16.7990 0.0000
# 6 0.0000 0.0000 0.0000 0.0000 0.0000 30.0484
#
#
#
# Elastic Compliance Matrix: (Units=1/GPa)
#
#
# Indices 1 2 3 4 5 6 
#
# 1 0.018177 -0.007335 -0.001744 0.000000 0.000000 0.000000
# 2 -0.007335 0.011217 -0.005145 0.000000 0.000000 0.000000
# 3 -0.001744 -0.005145 0.054503 0.000000 0.000000 0.000000
# 4 0.000000 0.000000 0.000000 0.040025 0.000000 0.000000
# 5 0.000000 0.000000 0.000000 0.000000 0.059527 0.000000
# 6 0.000000 0.000000 0.000000 0.000000 0.000000 0.033280
#
#
# Mechanical properties :
#
#
# Convention : Reuss Voigt Hill
#
# Bulk Modulus (GPa) = 18.03542 42.29602 30.16572
# Shear Modulus (GPa) = 18.96377 24.54601 21.75489
#
# Velocity S-wave (km/s) = 3.14872 3.58230 3.37248
# Velocity P-wave (km/s) = 4.75902 6.26284 5.56199
#
# Compressibility (1/GPa) = 0.05544645
#
# Stress axis : x y z
#
# Youngs Moduli (GPa) = 55.01505 89.15181 18.34761
#
# Poissons Ratio (x) = 0.65397 0.03201
# Poissons Ratio (y) = 0.40356 0.09440
# Poissons Ratio (z) = 0.09597 0.45871
#
# Static dielectric constant tensor:
#      x y z
#    x 3.550570 0.000000 0.000000 
#    y 0.000000 3.787490 0.000000 
#    z 0.000000 0.000000 3.233170 
# 
# 
# High freq. dielectric constant tensor:
#      x y z
#    x 1.738890 0.000000 0.000000 
#    y 0.000000 1.756060 0.000000 
#    z 0.000000 0.000000 1.717060 
# 
# From -- ./inp_files/6448.got.cif
#   From: 2010.06.25/outbox.cif.g09.slc.cpg/sg58_4_cif.got.tgz:6448.got - 2010.06.26 21:38:00.
