data_PCOD8235705
_publ_section_title
;
Structure prediction by ZEFSAII (Michael W. Deem and Ramdas Pophale) SiO2 
 PCOD8235705
Probable space group: P N N M
;
_chemical_formula_sum "Si O2"
_cell_formula_units_Z 64
_cell_length_a 13.038531
_cell_length_b 27.209316
_cell_length_c 8.954298
_cell_angle_alpha 90.000000
_cell_angle_beta 90.000000
_cell_angle_gamma 90.000000
_cell_volume 3176.711915
_symmetry_space_group_name_H-M "P N N M"
_symmetry_group_IT_number 58
_symmetry_cell_setting 'orthorhombic'
loop_
_space_group_symop_operation_xyz
x,y,z
-x,-y,z
1/2+x,1/2-y,1/2-z
1/2-x,1/2+y,1/2-z
-x,-y,-z
x,y,-z
1/2-x,1/2+y,1/2+z
1/2+x,1/2-y,1/2+z
loop_
_atom_site_type_symbol
_atom_site_label
_atom_site_fract_x
_atom_site_fract_y
_atom_site_fract_z
Si Si1 0.884967 0.885069 0.322204
Si Si2 0.881160 0.114792 0.322768
Si Si3 0.295403 0.943259 0.173384
Si Si4 0.516423 0.220283 0.833844
Si Si5 0.499953 0.110044 0.177683
Si Si6 0.700708 0.284177 0.165915
Si Si7 0.293703 0.057996 0.826959
Si Si8 0.129728 0.783455 0.176532
O O1 0.883740 0.885960 0.500000
O O2 0.848725 0.831993 0.254594
O O3 0.808589 0.926292 0.260330
O O4 0.001763 0.895431 0.268217
O O5 0.875336 0.117028 0.500000
O O6 0.806016 0.072643 0.262938
O O7 0.841148 0.166162 0.256944
O O8 0.398174 0.917346 0.238019
O O9 0.311295 0.000732 0.198134
O O10 0.278823 0.930134 0.000000
O O11 0.502249 0.166167 0.764535
O O12 0.635155 0.234062 0.843989
O O13 0.481050 0.264549 0.725697
O O14 0.466580 0.223346 0.000000
O O15 0.395237 0.085166 0.237487
O O16 0.502500 0.107410 0.000000
O O17 0.803468 0.262891 0.241139
O O18 0.727018 0.302837 0.000000
O O19 0.277896 0.071074 0.000000
O O20 0.140330 0.790891 0.000000
#
# Coordination Sequence:
#
# PCOD8235705 Si02
#       8
#     8   8   8   8   8   8   8   8
#     4  10  21  39  59  79 114 160 197 235 289 351
#     4  11  23  40  60  82 115 157 200 241 286 349
#     4  10  21  39  62  86 116 153 194 245 300 350
#     4  10  18  33  55  79 111 149 187 222 270 338
#     4   9  18  35  61  89 119 155 191 235 296 361
#     4   9  18  34  54  77 110 152 188 220 275 342
#     4  10  21  37  60  90 117 147 195 249 298 347
#     4  11  21  34  56  84 113 147 188 235 284 337
#
# _framework density 20.146616999999999
#
# number of rings (size 3 to 8) (size 9 to 14) (size 15 to 20)
#    0.000    2.000    1.250    2.625    0.000    5.500 
#    0.000    6.875    0.000    1.500    0.000    0.000 
#    0.000    0.000    0.000    0.000    0.000    0.000 
#
# Total GULP energy -793197.632189 kJ/mol
# GULP energy per Si atom -12393.713003 kJ/mol
# Density = 2.010076 g / cm^3
# Si number density = 20.146617 Si / 1000 Ang^3
#
#
#
# Elastic Constant Matrix: (Units=GPa)
#
#
# Indices 1 2 3 4 5 6 
#
# 1 84.5070 14.1006 21.4280 0.0000 0.0000 0.0000
# 2 14.1006 81.3779 17.8573 0.0000 0.0000 0.0000
# 3 21.4280 17.8573 41.1374 0.0000 0.0000 0.0000
# 4 0.0000 0.0000 0.0000 28.3277 0.0000 0.0000
# 5 0.0000 0.0000 0.0000 0.0000 22.8384 0.0000
# 6 0.0000 0.0000 0.0000 0.0000 0.0000 39.9957
#
#
#
# Elastic Compliance Matrix: (Units=1/GPa)
#
#
# Indices 1 2 3 4 5 6 
#
# 1 0.013693 -0.000892 -0.006745 0.000000 0.000000 0.000000
# 2 -0.000892 0.013640 -0.005456 0.000000 0.000000 0.000000
# 3 -0.006745 -0.005456 0.030191 0.000000 0.000000 0.000000
# 4 0.000000 0.000000 0.000000 0.035301 0.000000 0.000000
# 5 0.000000 0.000000 0.000000 0.000000 0.043786 0.000000
# 6 0.000000 0.000000 0.000000 0.000000 0.000000 0.025003
#
#
# Mechanical properties :
#
#
# Convention : Reuss Voigt Hill
#
# Bulk Modulus (GPa) = 31.91189 34.86602 33.38895
# Shear Modulus (GPa) = 25.22122 28.47478 26.84800
#
# Velocity S-wave (km/s) = 3.54204 3.76357 3.65448
# Velocity P-wave (km/s) = 5.70984 6.01911 5.86651
#
# Compressibility (1/GPa) = 0.03133628
#
# Stress axis : x y z
#
# Youngs Moduli (GPa) = 73.03258 73.31224 33.12286
#
# Poissons Ratio (x) = 0.06543 0.22341
# Poissons Ratio (y) = 0.06518 0.18073
# Poissons Ratio (z) = 0.49260 0.40001
#
# Static dielectric constant tensor:
#      x y z
#    x 3.809160 0.000000 0.000000 
#    y 0.000000 3.673710 0.000000 
#    z 0.000000 0.000000 3.340570 
# 
# 
# High freq. dielectric constant tensor:
#      x y z
#    x 1.799670 0.000000 0.000000 
#    y 0.000000 1.793090 0.000000 
#    z 0.000000 0.000000 1.749040 
# 
# From -- ./inp_files/4679.got.cif
#   From: 2010.06.25/outbox.cif.g09.slc.cpg/sg58_3_cif.got.tgz:4679.got - 2010.06.26 21:38:00.
