data_PCOD8235617
_publ_section_title
;
Structure prediction by ZEFSAII (Michael W. Deem and Ramdas Pophale) SiO2 
 PCOD8235617
Probable space group: P N N M
;
_chemical_formula_sum "Si O2"
_cell_formula_units_Z 64
_cell_length_a 21.821775
_cell_length_b 19.018563
_cell_length_c 8.715580
_cell_angle_alpha 90.000000
_cell_angle_beta 90.000000
_cell_angle_gamma 90.000000
_cell_volume 3617.129576
_symmetry_space_group_name_H-M "P N N M"
_symmetry_group_IT_number 58
_symmetry_cell_setting 'orthorhombic'
loop_
_space_group_symop_operation_xyz
x,y,z
-x,-y,z
1/2+x,1/2-y,1/2-z
1/2-x,1/2+y,1/2-z
-x,-y,-z
x,y,-z
1/2-x,1/2+y,1/2+z
1/2+x,1/2-y,1/2+z
loop_
_atom_site_type_symbol
_atom_site_label
_atom_site_fract_x
_atom_site_fract_y
_atom_site_fract_z
Si Si1 0.479615 0.578475 0.818660
Si Si2 0.190184 0.927458 0.316140
Si Si3 0.815097 0.530842 0.832233
Si Si4 0.235920 0.625183 0.829854
Si Si5 0.935576 0.469802 0.183647
Si Si6 0.588836 0.676122 0.181506
Si Si7 0.648145 0.427966 0.680988
Si Si8 0.115119 0.669154 0.681322
O O1 0.500000 0.500000 0.773636
O O2 0.530670 0.632964 0.756366
O O3 0.417986 0.600548 0.731233
O O4 0.468927 0.584837 0.000000
O O5 0.192463 0.935106 0.500000
O O6 0.261192 0.922642 0.251675
O O7 0.152413 0.859467 0.260692
O O8 0.155519 0.995123 0.252452
O O9 0.786456 0.454009 0.845177
O O10 0.881386 0.521528 0.749282
O O11 0.827911 0.563029 0.000000
O O12 0.300824 0.626788 0.742375
O O13 0.185504 0.668768 0.735555
O O14 0.243529 0.657958 0.000000
O O15 0.926766 0.391126 0.244295
O O16 0.000000 0.500000 0.242401
O O17 0.931443 0.467456 0.000000
O O18 0.586161 0.756758 0.235943
O O19 0.588605 0.671332 0.000000
O O20 0.653912 0.432628 0.500000
O O21 0.113600 0.659991 0.500000
#
# Coordination Sequence:
#
# PCOD8235617 Si02
#       8
#     8   8   8   8   8   8   8   8
#     4  10  18  32  52  71  98 143 190 213 241 306
#     4   9  15  29  49  69  94 131 175 206 243 305
#     4   7  12  23  45  71  88 110 154 206 239 274
#     4   9  17  32  52  71  93 129 169 200 244 310
#     4   9  17  31  51  74 100 132 173 212 251 312
#     4   9  18  31  50  73  98 137 178 213 254 310
#     4  11  20  29  46  76 106 127 162 220 268 289
#     4  10  19  32  51  77 105 129 165 219 273 310
#
# _framework density 17.693587999999998
#
# number of rings (size 3 to 8) (size 9 to 14) (size 15 to 20)
#    0.000    2.750    1.250    3.375    0.000    0.500 
#    0.000    2.500    2.750    0.000    0.000    0.000 
#    0.000    0.000    0.000    0.000    0.000    0.000 
#
# Total GULP energy -792978.024656 kJ/mol
# GULP energy per Si atom -12390.281635 kJ/mol
# Density = 1.765332 g / cm^3
# Si number density = 17.693588 Si / 1000 Ang^3
#
#
#
# Elastic Constant Matrix: (Units=GPa)
#
#
# Indices 1 2 3 4 5 6 
#
# 1 173.3304 66.3480 27.7695 0.0000 0.0000 0.0000
# 2 66.3480 84.8912 18.2754 0.0000 0.0000 0.0000
# 3 27.7695 18.2754 45.4574 0.0000 0.0000 0.0000
# 4 0.0000 0.0000 0.0000 14.7644 0.0000 0.0000
# 5 0.0000 0.0000 0.0000 0.0000 20.8852 0.0000
# 6 0.0000 0.0000 0.0000 0.0000 0.0000 24.5182
#
#
#
# Elastic Compliance Matrix: (Units=1/GPa)
#
#
# Indices 1 2 3 4 5 6 
#
# 1 0.008540 -0.006078 -0.002774 0.000000 0.000000 0.000000
# 2 -0.006078 0.017221 -0.003211 0.000000 0.000000 0.000000
# 3 -0.002774 -0.003211 0.024984 0.000000 0.000000 0.000000
# 4 0.000000 0.000000 0.000000 0.067731 0.000000 0.000000
# 5 0.000000 0.000000 0.000000 0.000000 0.047881 0.000000
# 6 0.000000 0.000000 0.000000 0.000000 0.000000 0.040786
#
#
# Mechanical properties :
#
#
# Convention : Reuss Voigt Hill
#
# Bulk Modulus (GPa) = 37.56422 58.71833 48.14128
# Shear Modulus (GPa) = 20.82119 24.78595 22.80357
#
# Velocity S-wave (km/s) = 3.43412 3.74684 3.59389
# Velocity P-wave (km/s) = 6.08283 7.20949 6.66999
#
# Compressibility (1/GPa) = 0.02662108
#
# Stress axis : x y z
#
# Youngs Moduli (GPa) = 117.09497 58.06874 40.02582
#
# Poissons Ratio (x) = 0.35291 0.11102
# Poissons Ratio (y) = 0.71165 0.12851
# Poissons Ratio (z) = 0.32479 0.18644
#
# Static dielectric constant tensor:
#      x y z
#    x 3.774680 0.000000 0.000000 
#    y 0.000000 3.120030 0.000000 
#    z 0.000000 0.000000 3.045280 
# 
# 
# High freq. dielectric constant tensor:
#      x y z
#    x 1.700050 0.000000 0.000000 
#    y 0.000000 1.643550 0.000000 
#    z 0.000000 0.000000 1.659660 
# 
# From -- ./inp_files/9409.got.cif
#   From: 2010.06.25/outbox.cif.g09.slc.cpg/sg58_5_cif.got.tgz:9409.got - 2010.06.26 21:38:00.
