data_PCOD8235811
_publ_section_title
;
Structure prediction by ZEFSAII (Michael W. Deem and Ramdas Pophale) SiO2 
 PCOD8235811
Probable space group: P N N M
;
_chemical_formula_sum "Si O2"
_cell_formula_units_Z 60
_cell_length_a 12.191303
_cell_length_b 10.261485
_cell_length_c 21.270596
_cell_angle_alpha 90.000000
_cell_angle_beta 90.000000
_cell_angle_gamma 90.000000
_cell_volume 2660.970126
_symmetry_space_group_name_H-M "P N N M"
_symmetry_group_IT_number 58
_symmetry_cell_setting 'orthorhombic'
loop_
_space_group_symop_operation_xyz
x,y,z
-x,-y,z
1/2+x,1/2-y,1/2-z
1/2-x,1/2+y,1/2-z
-x,-y,-z
x,y,-z
1/2-x,1/2+y,1/2+z
1/2+x,1/2-y,1/2+z
loop_
_atom_site_type_symbol
_atom_site_label
_atom_site_fract_x
_atom_site_fract_y
_atom_site_fract_z
Si Si1 0.795879 0.653060 0.815353
Si Si2 0.215034 0.718404 0.071804
Si Si3 0.038922 0.714716 0.179551
Si Si4 0.265339 0.507652 0.602706
Si Si5 0.837303 0.241742 0.568304
Si Si6 0.794664 0.409297 0.735372
Si Si7 0.555404 0.369945 0.926655
Si Si8 0.000000 0.000000 0.151571
O O1 0.730528 0.662921 0.880141
O O2 0.752352 0.520652 0.783031
O O3 0.783501 0.781815 0.771063
O O4 0.924082 0.643238 0.832154
O O5 0.113923 0.688384 0.117938
O O6 0.247127 0.869878 0.070197
O O7 0.323544 0.651493 0.102313
O O8 0.186080 0.675780 0.000000
O O9 0.089077 0.648322 0.241760
O O10 0.030376 0.871260 0.192254
O O11 0.209744 0.614018 0.558251
O O12 0.199215 0.518081 0.668594
O O13 0.395066 0.540303 0.609907
O O14 0.826600 0.170252 0.500000
O O15 0.966666 0.244884 0.587465
O O16 0.500000 0.500000 0.898853
O O17 0.578804 0.381808 0.000000
#
# Coordination Sequence:
#
# PCOD8235811 Si02
#       8
#     8   8   8   8   8   8   8   4
#     4  11  24  46  66 101 136 181 232 291 346 414
#     4  10  22  41  70 104 136 181 231 286 355 421
#     4  11  23  42  68  98 143 173 226 294 341 413
#     4  10  21  42  65  99 131 178 229 281 342 410
#     4  10  21  40  67  99 135 174 218 281 350 414
#     4  11  24  45  67  93 137 185 229 284 346 400
#     4   9  20  40  62  90 133 173 219 277 326 406
#     4  10  18  42  65  94 138 172 213 290 336 402
#
# _framework density 22.548168
#
# number of rings (size 3 to 8) (size 9 to 14) (size 15 to 20)
#    0.000    1.733    2.667    2.400    1.867    1.067 
#   14.400    3.667    0.000    1.600    0.000    0.000 
#    0.000    0.000    0.000    0.000    0.000    0.000 
#
# Total GULP energy -743406.331496 kJ/mol
# GULP energy per Si atom -12390.105525 kJ/mol
# Density = 2.249685 g / cm^3
# Si number density = 22.548168 Si / 1000 Ang^3
#
#
#
# Elastic Constant Matrix: (Units=GPa)
#
#
# Indices 1 2 3 4 5 6 
#
# 1 138.7101 31.2385 57.5825 0.0000 0.0000 0.0000
# 2 31.2385 86.3757 26.3237 0.0000 0.0000 0.0000
# 3 57.5825 26.3237 107.0711 0.0000 0.0000 0.0000
# 4 0.0000 0.0000 0.0000 31.0628 0.0000 0.0000
# 5 0.0000 0.0000 0.0000 0.0000 27.6638 0.0000
# 6 0.0000 0.0000 0.0000 0.0000 0.0000 43.0210
#
#
#
# Elastic Compliance Matrix: (Units=1/GPa)
#
#
# Indices 1 2 3 4 5 6 
#
# 1 0.009607 -0.002054 -0.004662 0.000000 0.000000 0.000000
# 2 -0.002054 0.012954 -0.002080 0.000000 0.000000 0.000000
# 3 -0.004662 -0.002080 0.012358 0.000000 0.000000 0.000000
# 4 0.000000 0.000000 0.000000 0.032193 0.000000 0.000000
# 5 0.000000 0.000000 0.000000 0.000000 0.036148 0.000000
# 6 0.000000 0.000000 0.000000 0.000000 0.000000 0.023244
#
#
# Mechanical properties :
#
#
# Convention : Reuss Voigt Hill
#
# Bulk Modulus (GPa) = 57.71116 62.49403 60.10260
# Shear Modulus (GPa) = 33.36178 34.81701 34.08940
#
# Velocity S-wave (km/s) = 3.85070 3.93379 3.89247
# Velocity P-wave (km/s) = 6.73949 6.95765 6.84944
#
# Compressibility (1/GPa) = 0.01732767
#
# Stress axis : x y z
#
# Youngs Moduli (GPa) = 104.09066 77.19583 80.91868
#
# Poissons Ratio (x) = 0.15854 0.37722
# Poissons Ratio (y) = 0.21378 0.16833
# Poissons Ratio (z) = 0.48524 0.16059
#
# Static dielectric constant tensor:
#      x y z
#    x 4.207340 0.000000 0.000000 
#    y 0.000000 4.302990 0.000000 
#    z 0.000000 0.000000 3.805090 
# 
# 
# High freq. dielectric constant tensor:
#      x y z
#    x 1.891400 0.000000 0.000000 
#    y 0.000000 1.896000 0.000000 
#    z 0.000000 0.000000 1.868720 
# 
# From -- ./inp_files/29660.got.cif
#   From: 2010.06.25/outbox.cif.g09.slc.cpg/sg58_15_cif.got.tgz:29660.got - 2010.06.26 21:38:00.
