data_PCOD8235196
_publ_section_title
;
Structure prediction by ZEFSAII (Michael W. Deem and Ramdas Pophale) SiO2 
 PCOD8235196
Probable space group: P N N M
;
_chemical_formula_sum "Si O2"
_cell_formula_units_Z 32
_cell_length_a 7.204431
_cell_length_b 11.440308
_cell_length_c 18.567480
_cell_angle_alpha 90.000000
_cell_angle_beta 90.000000
_cell_angle_gamma 90.000000
_cell_volume 1530.348591
_symmetry_space_group_name_H-M "P N N M"
_symmetry_group_IT_number 58
_symmetry_cell_setting 'orthorhombic'
loop_
_space_group_symop_operation_xyz
x,y,z
-x,-y,z
1/2+x,1/2-y,1/2-z
1/2-x,1/2+y,1/2-z
-x,-y,-z
x,y,-z
1/2-x,1/2+y,1/2+z
1/2+x,1/2-y,1/2+z
loop_
_atom_site_type_symbol
_atom_site_label
_atom_site_fract_x
_atom_site_fract_y
_atom_site_fract_z
Si Si1 0.500000 0.500000 0.262397
Si Si2 0.720054 0.026623 0.500000
Si Si3 0.199882 0.561115 0.148716
Si Si4 0.893122 0.183153 0.121692
Si Si5 0.185916 0.215482 0.000000
Si Si6 0.281611 0.466553 0.500000
O O1 0.317944 0.513487 0.214590
O O2 0.471491 0.387486 0.311446
O O3 0.791582 0.161557 0.500000
O O4 0.500000 0.000000 0.500000
O O5 0.799824 0.969042 0.427395
O O6 0.198247 0.701179 0.154010
O O7 0.000000 0.500000 0.154503
O O8 0.063160 0.220161 0.071609
O O9 0.744629 0.107679 0.073068
O O10 0.317235 0.096200 0.000000
O O11 0.500000 0.500000 0.500000
#
# Coordination Sequence:
#
# PCOD8235196 Si02
#       6
#     4   4   8   8   4   4
#     4  12  26  38  58  94 128 152 192 248 306 366
#     4  10  17  35  60  84 112 150 210 241 277 352
#     4  11  24  39  61  87 117 162 197 244 300 351
#     4  10  18  36  57  89 117 149 205 241 290 357
#     4  10  14  32  64  86 107 158 208 246 279 348
#     4   8  15  30  59  83 108 154 201 246 278 336
#
# _framework density 20.910267999999999
#
# number of rings (size 3 to 8) (size 9 to 14) (size 15 to 20)
#    0.000    2.000    8.750    0.750    3.500    0.500 
#    0.000    0.000    0.000    0.000    0.000    8.750 
#    0.000    0.000    0.000    0.000    0.000    0.000 
#
# Total GULP energy -396509.471515 kJ/mol
# GULP energy per Si atom -12390.920985 kJ/mol
# Density = 2.086267 g / cm^3
# Si number density = 20.910268 Si / 1000 Ang^3
#
#
#
# Elastic Constant Matrix: (Units=GPa)
#
#
# Indices 1 2 3 4 5 6 
#
# 1 37.3669 24.6138 39.4870 0.0000 0.0000 0.0000
# 2 24.6138 157.0818 40.9537 0.0000 0.0000 0.0000
# 3 39.4870 40.9537 158.8770 0.0000 0.0000 0.0000
# 4 0.0000 0.0000 0.0000 -42.6581 0.0000 0.0000
# 5 0.0000 0.0000 0.0000 0.0000 -20.1958 0.0000
# 6 0.0000 0.0000 0.0000 0.0000 0.0000 8.2621
#
#
#
# Elastic Compliance Matrix: (Units=1/GPa)
#
#
# Indices 1 2 3 4 5 6 
#
# 1 0.038269 -0.003770 -0.008540 0.000000 0.000000 0.000000
# 2 -0.003770 0.007196 -0.000918 0.000000 0.000000 0.000000
# 3 -0.008540 -0.000918 0.008653 0.000000 0.000000 0.000000
# 4 0.000000 0.000000 0.000000 -0.023442 0.000000 0.000000
# 5 0.000000 0.000000 0.000000 0.000000 -0.049515 0.000000
# 6 0.000000 0.000000 0.000000 0.000000 0.000000 0.121034
#
#
# Mechanical properties :
#
#
# Convention : Reuss Voigt Hill
#
# Bulk Modulus (GPa) = 36.14902 62.60388 49.37645
# Shear Modulus (GPa) = 36.26568 5.63305 20.94937
#
# Velocity S-wave (km/s) = 4.16907 1.64310 3.16867
# Velocity P-wave (km/s) = 6.36397 5.79689 6.08704
#
# Compressibility (1/GPa) = 0.02766327
#
# Stress axis : x y z
#
# Youngs Moduli (GPa) = 26.13074 138.96240 115.56429
#
# Poissons Ratio (x) = 0.52391 0.98686
# Poissons Ratio (y) = 0.09852 0.10608
# Poissons Ratio (z) = 0.22314 0.12756
#
# Static dielectric constant tensor:
#      x y z
#    x 3.152780 0.000000 0.000000 
#    y 0.000000 4.726710 0.000000 
#    z 0.000000 0.000000 4.072490 
# 
# 
# High freq. dielectric constant tensor:
#      x y z
#    x 1.753060 0.000000 0.000000 
#    y 0.000000 1.847450 0.000000 
#    z 0.000000 0.000000 1.830730 
# 
# From -- ./inp_files/24914.got.cif
#   From: 2010.06.25/outbox.cif.g09.slc.cpg/sg58_13_cif.got.tgz:24914.got - 2010.06.26 21:38:00.
