data_PCOD8235388
_publ_section_title
;
Structure prediction by ZEFSAII (Michael W. Deem and Ramdas Pophale) SiO2 
 PCOD8235388
Probable space group: P N N M
;
_chemical_formula_sum "Si O2"
_cell_formula_units_Z 64
_cell_length_a 24.059577
_cell_length_b 14.627849
_cell_length_c 9.483200
_cell_angle_alpha 90.000000
_cell_angle_beta 90.000000
_cell_angle_gamma 90.000000
_cell_volume 3337.516074
_symmetry_space_group_name_H-M "P N N M"
_symmetry_group_IT_number 58
_symmetry_cell_setting 'orthorhombic'
loop_
_space_group_symop_operation_xyz
x,y,z
-x,-y,z
1/2+x,1/2-y,1/2-z
1/2-x,1/2+y,1/2-z
-x,-y,-z
x,y,-z
1/2-x,1/2+y,1/2+z
1/2+x,1/2-y,1/2+z
loop_
_atom_site_type_symbol
_atom_site_label
_atom_site_fract_x
_atom_site_fract_y
_atom_site_fract_z
Si Si1 0.254111 0.154218 0.835595
Si Si2 0.166543 0.006990 0.834313
Si Si3 0.915700 0.265831 0.838724
Si Si4 0.129061 0.576654 0.662682
Si Si5 0.954004 0.568801 0.663684
Si Si6 0.483850 0.733270 0.163305
Si Si7 0.294793 0.314796 0.341214
Si Si8 0.441042 0.540881 0.837880
O O1 0.199171 0.099076 0.790295
O O2 0.306748 0.090111 0.794833
O O3 0.256186 0.251465 0.756554
O O4 0.253910 0.176347 0.000000
O O5 0.108735 0.999123 0.752903
O O6 0.207072 0.921348 0.796678
O O7 0.153102 0.005054 0.000000
O O8 0.910686 0.361981 0.758846
O O9 0.858908 0.211237 0.827463
O O10 0.962601 0.208080 0.757650
O O11 0.933140 0.282989 0.000000
O O12 0.119528 0.604896 0.500000
O O13 0.108137 0.472453 0.688669
O O14 0.967515 0.577266 0.500000
O O15 0.957062 0.672198 0.723837
O O16 0.000000 0.500000 0.731202
O O17 0.440400 0.650693 0.182361
O O18 0.502062 0.740234 0.000000
O O19 0.272902 0.300841 0.500000
O O20 0.500000 0.500000 0.786692
O O21 0.430730 0.513287 0.000000
#
# Coordination Sequence:
#
# PCOD8235388 Si02
#       8
#     8   8   8   8   8   8   8   8
#     4   9  19  35  56  81 105 135 180 229 270 317
#     4  10  21  39  59  82 112 144 185 229 277 338
#     4  10  18  28  47  75 104 135 176 216 259 314
#     4   9  16  30  50  70  98 136 176 220 263 306
#     4   9  15  26  47  73  99 132 176 217 261 318
#     4  10  19  32  49  73 104 138 176 217 264 321
#     4   9  19  35  55  79 106 140 179 222 269 324
#     4  10  22  38  56  82 111 140 182 232 281 333
#
# _framework density 19.175937999999999
#
# number of rings (size 3 to 8) (size 9 to 14) (size 15 to 20)
#    0.000    2.500    1.250    1.125    0.000    2.250 
#    2.250    1.250    0.000    0.000    0.000    0.000 
#    0.000    0.000    0.000    0.000    0.000    0.000 
#
# Total GULP energy -793315.413219 kJ/mol
# GULP energy per Si atom -12395.553332 kJ/mol
# Density = 1.913229 g / cm^3
# Si number density = 19.175938 Si / 1000 Ang^3
#
#
#
# Elastic Constant Matrix: (Units=GPa)
#
#
# Indices 1 2 3 4 5 6 
#
# 1 72.4447 32.4752 36.9973 0.0000 0.0000 0.0000
# 2 32.4752 108.2753 36.0173 0.0000 0.0000 0.0000
# 3 36.9973 36.0173 69.7500 0.0000 0.0000 0.0000
# 4 0.0000 0.0000 0.0000 23.2809 0.0000 0.0000
# 5 0.0000 0.0000 0.0000 0.0000 22.2101 0.0000
# 6 0.0000 0.0000 0.0000 0.0000 0.0000 26.2077
#
#
#
# Elastic Compliance Matrix: (Units=1/GPa)
#
#
# Indices 1 2 3 4 5 6 
#
# 1 0.019675 -0.002933 -0.008921 0.000000 0.000000 0.000000
# 2 -0.002933 0.011589 -0.004428 0.000000 0.000000 0.000000
# 3 -0.008921 -0.004428 0.021356 0.000000 0.000000 0.000000
# 4 0.000000 0.000000 0.000000 0.042954 0.000000 0.000000
# 5 0.000000 0.000000 0.000000 0.000000 0.045024 0.000000
# 6 0.000000 0.000000 0.000000 0.000000 0.000000 0.038157
#
#
# Mechanical properties :
#
#
# Convention : Reuss Voigt Hill
#
# Bulk Modulus (GPa) = 49.86720 51.27217 50.56969
# Shear Modulus (GPa) = 22.93542 24.00510 23.47026
#
# Velocity S-wave (km/s) = 3.46215 3.54197 3.50229
# Velocity P-wave (km/s) = 6.48410 6.59721 6.54090
#
# Compressibility (1/GPa) = 0.02005326
#
# Stress axis : x y z
#
# Youngs Moduli (GPa) = 50.82680 86.29225 46.82631
#
# Poissons Ratio (x) = 0.25313 0.41775
# Poissons Ratio (y) = 0.14910 0.20735
# Poissons Ratio (z) = 0.45344 0.38211
#
# Static dielectric constant tensor:
#      x y z
#    x 3.296770 0.000000 0.000000 
#    y 0.000000 3.698240 0.000000 
#    z 0.000000 0.000000 3.356770 
# 
# 
# High freq. dielectric constant tensor:
#      x y z
#    x 1.726270 0.000000 0.000000 
#    y 0.000000 1.751230 0.000000 
#    z 0.000000 0.000000 1.722540 
# 
# From -- ./inp_files/10026.got.cif
#   From: 2010.06.25/outbox.cif.g09.slc.cpg/sg58_6_cif.got.tgz:10026.got - 2010.06.26 21:38:00.
