data_PCOD8235575
_publ_section_title
;
Structure prediction by ZEFSAII (Michael W. Deem and Ramdas Pophale) SiO2 
 PCOD8235575
Probable space group: P N N M
;
_chemical_formula_sum "Si O2"
_cell_formula_units_Z 56
_cell_length_a 14.906801
_cell_length_b 21.065927
_cell_length_c 9.089472
_cell_angle_alpha 90.000000
_cell_angle_beta 90.000000
_cell_angle_gamma 90.000000
_cell_volume 2854.326732
_symmetry_space_group_name_H-M "P N N M"
_symmetry_group_IT_number 58
_symmetry_cell_setting 'orthorhombic'
loop_
_space_group_symop_operation_xyz
x,y,z
-x,-y,z
1/2+x,1/2-y,1/2-z
1/2-x,1/2+y,1/2-z
-x,-y,-z
x,y,-z
1/2-x,1/2+y,1/2+z
1/2+x,1/2-y,1/2+z
loop_
_atom_site_type_symbol
_atom_site_label
_atom_site_fract_x
_atom_site_fract_y
_atom_site_fract_z
Si Si1 0.576680 0.863012 0.665714
Si Si2 0.242816 0.597770 0.326626
Si Si3 0.928732 0.547014 0.168363
Si Si4 0.232967 0.973245 0.325966
Si Si5 0.692164 0.263765 0.325557
Si Si6 0.989607 0.229878 0.171870
Si Si7 0.660493 0.661608 0.826034
O O1 0.611113 0.875914 0.500000
O O2 0.639288 0.903923 0.773872
O O3 0.471978 0.883198 0.680452
O O4 0.575946 0.789174 0.703294
O O5 0.249540 0.590047 0.500000
O O6 0.297596 0.539000 0.252851
O O7 0.279089 0.665930 0.272073
O O8 0.831198 0.544081 0.239915
O O9 0.000000 0.500000 0.245674
O O10 0.915342 0.525566 0.000000
O O11 0.229571 0.983867 0.500000
O O12 0.175219 0.911865 0.281567
O O13 0.693611 0.259677 0.500000
O O14 0.589828 0.256321 0.267108
O O15 0.759335 0.208348 0.265168
O O16 0.937681 0.174676 0.258034
O O17 0.994931 0.212625 0.000000
O O18 0.655585 0.670199 0.000000
#
# Coordination Sequence:
#
# PCOD8235575 Si02
#       7
#     8   8   8   8   8   8   8
#     4  10  18  31  53  79 105 136 178 224 269 322
#     4  11  21  34  54  78 111 146 177 221 274 329
#     4   9  15  26  48  75 101 133 175 215 255 318
#     4  10  20  35  55  78 108 146 185 227 272 325
#     4   9  19  37  58  81 110 148 187 222 275 336
#     4  10  20  35  58  83 107 139 186 234 271 324
#     4  10  20  37  59  82 112 146 182 230 283 328
#
# _framework density 19.619337000000002
#
# number of rings (size 3 to 8) (size 9 to 14) (size 15 to 20)
#    0.000    2.143    2.857    1.286    0.000    4.000 
#    0.000    4.286    0.000    7.714    0.000    0.000 
#    0.000    0.000    0.000    0.000    0.000    0.000 
#
# Total GULP energy -693838.132602 kJ/mol
# GULP energy per Si atom -12389.966654 kJ/mol
# Density = 1.957468 g / cm^3
# Si number density = 19.619337 Si / 1000 Ang^3
#
#
#
# Elastic Constant Matrix: (Units=GPa)
#
#
# Indices 1 2 3 4 5 6 
#
# 1 60.5989 14.2504 11.8317 0.0000 0.0000 0.0000
# 2 14.2504 117.3543 32.7175 0.0000 0.0000 0.0000
# 3 11.8317 32.7175 34.1260 0.0000 0.0000 0.0000
# 4 0.0000 0.0000 0.0000 29.6848 0.0000 0.0000
# 5 0.0000 0.0000 0.0000 0.0000 22.1138 0.0000
# 6 0.0000 0.0000 0.0000 0.0000 0.0000 21.2478
#
#
#
# Elastic Compliance Matrix: (Units=1/GPa)
#
#
# Indices 1 2 3 4 5 6 
#
# 1 0.017731 -0.000599 -0.005573 0.000000 0.000000 0.000000
# 2 -0.000599 0.011650 -0.010961 0.000000 0.000000 0.000000
# 3 -0.005573 -0.010961 0.041744 0.000000 0.000000 0.000000
# 4 0.000000 0.000000 0.000000 0.033687 0.000000 0.000000
# 5 0.000000 0.000000 0.000000 0.000000 0.045221 0.000000
# 6 0.000000 0.000000 0.000000 0.000000 0.000000 0.047064
#
#
# Mechanical properties :
#
#
# Convention : Reuss Voigt Hill
#
# Bulk Modulus (GPa) = 27.13108 36.63094 31.88101
# Shear Modulus (GPa) = 20.52127 24.82791 22.67459
#
# Velocity S-wave (km/s) = 3.23766 3.56122 3.40329
# Velocity P-wave (km/s) = 5.27592 5.96834 5.63278
#
# Compressibility (1/GPa) = 0.03685810
#
# Stress axis : x y z
#
# Youngs Moduli (GPa) = 56.39849 85.83754 23.95546
#
# Poissons Ratio (x) = 0.05145 0.13350
# Poissons Ratio (y) = 0.03381 0.26258
# Poissons Ratio (z) = 0.31430 0.94089
#
# Static dielectric constant tensor:
#      x y z
#    x 3.540750 0.000000 0.000000 
#    y 0.000000 3.806920 0.000000 
#    z 0.000000 0.000000 3.139490 
# 
# 
# High freq. dielectric constant tensor:
#      x y z
#    x 1.750520 0.000000 0.000000 
#    y 0.000000 1.777920 0.000000 
#    z 0.000000 0.000000 1.716840 
# 
# From -- ./inp_files/6333.got.cif
#   From: 2010.06.25/outbox.cif.g09.slc.cpg/sg58_4_cif.got.tgz:6333.got - 2010.06.26 21:38:00.
