data_PCOD8235684
_publ_section_title
;
Structure prediction by ZEFSAII (Michael W. Deem and Ramdas Pophale) SiO2 
 PCOD8235684
Probable space group: P N N M
;
_chemical_formula_sum "Si O2"
_cell_formula_units_Z 64
_cell_length_a 28.771893
_cell_length_b 12.903205
_cell_length_c 8.839097
_cell_angle_alpha 90.000000
_cell_angle_beta 90.000000
_cell_angle_gamma 90.000000
_cell_volume 3281.511523
_symmetry_space_group_name_H-M "P N N M"
_symmetry_group_IT_number 58
_symmetry_cell_setting 'orthorhombic'
loop_
_space_group_symop_operation_xyz
x,y,z
-x,-y,z
1/2+x,1/2-y,1/2-z
1/2-x,1/2+y,1/2-z
-x,-y,-z
x,y,-z
1/2-x,1/2+y,1/2+z
1/2+x,1/2-y,1/2+z
loop_
_atom_site_type_symbol
_atom_site_label
_atom_site_fract_x
_atom_site_fract_y
_atom_site_fract_z
Si Si1 0.708450 0.963920 0.823640
Si Si2 0.422945 0.910480 0.671084
Si Si3 0.066452 0.826005 0.321211
Si Si4 0.606870 0.460699 0.821191
Si Si5 0.181739 0.336185 0.828848
Si Si6 0.892788 0.388094 0.322447
Si Si7 0.537995 0.284809 0.821682
Si Si8 0.295943 0.628883 0.824059
O O1 0.661434 0.902322 0.781792
O O2 0.752145 0.894193 0.780941
O O3 0.712955 0.067674 0.724832
O O4 0.709233 0.992224 0.000000
O O5 0.439772 0.924348 0.500000
O O6 0.371512 0.866233 0.681580
O O7 0.456772 0.829187 0.751756
O O8 0.424781 0.022615 0.749719
O O9 0.072926 0.826891 0.500000
O O10 0.091470 0.723148 0.255916
O O11 0.012474 0.827719 0.276453
O O12 0.090339 0.929289 0.251917
O O13 0.575700 0.366321 0.754973
O O14 0.660859 0.444996 0.779072
O O15 0.599432 0.460645 0.000000
O O16 0.189581 0.245669 0.709694
O O17 0.196011 0.305236 0.000000
O O18 0.901659 0.394165 0.500000
O O19 0.543665 0.272409 0.000000
O O20 0.283081 0.617119 0.000000
#
# Coordination Sequence:
#
# PCOD8235684 Si02
#       8
#     8   8   8   8   8   8   8   8
#     4  10  21  36  55  80 110 145 186 231 284 340
#     4  10  20  34  55  79 108 144 183 229 278 329
#     4   9  18  33  55  82 110 143 184 229 278 330
#     4   9  18  32  53  83 114 143 180 229 278 327
#     4  10  20  36  56  77 105 143 185 232 279 326
#     4   9  19  36  56  78 108 146 187 232 279 331
#     4  10  18  32  57  84 109 141 185 231 275 330
#     4  11  21  34  56  85 114 144 183 229 279 340
#
# _framework density 19.503207
#
# number of rings (size 3 to 8) (size 9 to 14) (size 15 to 20)
#    0.000    2.250    1.250    1.875    0.000    4.500 
#    0.000    5.625    0.000    5.250    0.000    0.000 
#    0.000    0.000    0.000    0.000    0.000    0.000 
#
# Total GULP energy -793656.277021 kJ/mol
# GULP energy per Si atom -12400.879328 kJ/mol
# Density = 1.945882 g / cm^3
# Si number density = 19.503207 Si / 1000 Ang^3
#
#
#
# Elastic Constant Matrix: (Units=GPa)
#
#
# Indices 1 2 3 4 5 6 
#
# 1 53.8768 39.8824 28.2337 0.0000 0.0000 0.0000
# 2 39.8824 133.2933 24.3875 0.0000 0.0000 0.0000
# 3 28.2337 24.3875 43.5339 0.0000 0.0000 0.0000
# 4 0.0000 0.0000 0.0000 19.8735 0.0000 0.0000
# 5 0.0000 0.0000 0.0000 0.0000 20.1465 0.0000
# 6 0.0000 0.0000 0.0000 0.0000 0.0000 20.5925
#
#
#
# Elastic Compliance Matrix: (Units=1/GPa)
#
#
# Indices 1 2 3 4 5 6 
#
# 1 0.032547 -0.006547 -0.017440 0.000000 0.000000 0.000000
# 2 -0.006547 0.009676 -0.001174 0.000000 0.000000 0.000000
# 3 -0.017440 -0.001174 0.034939 0.000000 0.000000 0.000000
# 4 0.000000 0.000000 0.000000 0.050318 0.000000 0.000000
# 5 0.000000 0.000000 0.000000 0.000000 0.049636 0.000000
# 6 0.000000 0.000000 0.000000 0.000000 0.000000 0.048561
#
#
# Mechanical properties :
#
#
# Convention : Reuss Voigt Hill
#
# Bulk Modulus (GPa) = 37.26004 46.19012 41.72508
# Shear Modulus (GPa) = 17.54702 21.33587 19.44144
#
# Velocity S-wave (km/s) = 3.00275 3.31111 3.16069
# Velocity P-wave (km/s) = 5.58284 6.19295 5.89579
#
# Compressibility (1/GPa) = 0.02683840
#
# Stress axis : x y z
#
# Youngs Moduli (GPa) = 30.72473 103.34702 28.62107
#
# Poissons Ratio (x) = 0.67666 0.49916
# Poissons Ratio (y) = 0.20117 0.03361
# Poissons Ratio (z) = 0.53585 0.12135
#
# Static dielectric constant tensor:
#      x y z
#    x 3.529020 0.000000 0.000000 
#    y 0.000000 3.796170 0.000000 
#    z 0.000000 0.000000 3.294110 
# 
# 
# High freq. dielectric constant tensor:
#      x y z
#    x 1.756940 0.000000 0.000000 
#    y 0.000000 1.768670 0.000000 
#    z 0.000000 0.000000 1.731990 
# 
# From -- ./inp_files/4739.got.cif
#   From: 2010.06.25/outbox.cif.g09.slc.cpg/sg58_3_cif.got.tgz:4739.got - 2010.06.26 21:38:00.
