data_PCOD8235198
_publ_section_title
;
Structure prediction by ZEFSAII (Michael W. Deem and Ramdas Pophale) SiO2 
 PCOD8235198
Probable space group: P N N M
;
_chemical_formula_sum "Si O2"
_cell_formula_units_Z 44
_cell_length_a 19.284585
_cell_length_b 7.305663
_cell_length_c 14.925407
_cell_angle_alpha 90.000000
_cell_angle_beta 90.000000
_cell_angle_gamma 90.000000
_cell_volume 2102.791027
_symmetry_space_group_name_H-M "P N N M"
_symmetry_group_IT_number 58
_symmetry_cell_setting 'orthorhombic'
loop_
_space_group_symop_operation_xyz
x,y,z
-x,-y,z
1/2+x,1/2-y,1/2-z
1/2-x,1/2+y,1/2-z
-x,-y,-z
x,y,-z
1/2-x,1/2+y,1/2+z
1/2+x,1/2-y,1/2+z
loop_
_atom_site_type_symbol
_atom_site_label
_atom_site_fract_x
_atom_site_fract_y
_atom_site_fract_z
Si Si1 0.325788 0.501753 0.692209
Si Si2 0.049001 0.756654 0.602653
Si Si3 0.680284 0.452177 0.500000
Si Si4 0.697496 0.221658 0.000000
Si Si5 0.314507 0.203907 0.830998
Si Si6 0.756236 0.106076 0.500000
Si Si7 0.904002 0.837660 0.650522
O O1 0.358501 0.487156 0.591405
O O2 0.324611 0.303471 0.735849
O O3 0.245237 0.556222 0.680419
O O4 0.370360 0.645901 0.750259
O O5 0.034868 0.706731 0.500000
O O6 0.109245 0.622253 0.643172
O O7 0.976802 0.726647 0.655967
O O8 0.077228 0.963871 0.610856
O O9 0.760146 0.531222 0.500000
O O10 0.686507 0.229461 0.500000
O O11 0.649980 0.231546 0.912193
O O12 0.754755 0.387017 0.000000
O O13 0.297915 0.350554 0.909004
#
# Coordination Sequence:
#
# PCOD8235198 Si02
#       7
#     8   8   4   4   8   4   8
#     4  10  20  32  47  74 104 141 175 217 262 313
#     4  10  15  28  51  84 104 130 178 222 274 333
#     4  10  24  32  47  74 113 136 181 227 251 311
#     4  12  16  32  54  76 105 138 169 219 272 326
#     4  10  18  32  52  74 106 138 173 220 271 320
#     4  10  18  33  50  77 102 138 171 214 275 317
#     4  10  17  27  53  80 100 138 179 213 267 329
#
# _framework density 20.924572000000001
#
# number of rings (size 3 to 8) (size 9 to 14) (size 15 to 20)
#    0.000    1.818    6.364    1.636    0.000    0.000 
#    0.000    0.000    0.000   22.909    0.000    0.000 
#    0.000    4.364    0.000    0.000    0.000    0.000 
#
# Total GULP energy -545163.718507 kJ/mol
# GULP energy per Si atom -12390.084512 kJ/mol
# Density = 2.087695 g / cm^3
# Si number density = 20.924572 Si / 1000 Ang^3
#
#
#
# Elastic Constant Matrix: (Units=GPa)
#
#
# Indices 1 2 3 4 5 6 
#
# 1 87.8332 10.6913 31.7322 0.0000 0.0000 0.0000
# 2 10.6913 23.0088 4.1423 0.0000 0.0000 0.0000
# 3 31.7322 4.1423 170.2104 0.0000 0.0000 0.0000
# 4 0.0000 0.0000 0.0000 13.8841 0.0000 0.0000
# 5 0.0000 0.0000 0.0000 0.0000 31.2122 0.0000
# 6 0.0000 0.0000 0.0000 0.0000 0.0000 22.2197
#
#
#
# Elastic Compliance Matrix: (Units=1/GPa)
#
#
# Indices 1 2 3 4 5 6 
#
# 1 0.012883 -0.005578 -0.002266 0.000000 0.000000 0.000000
# 2 -0.005578 0.046068 -0.000081 0.000000 0.000000 0.000000
# 3 -0.002266 -0.000081 0.006300 0.000000 0.000000 0.000000
# 4 0.000000 0.000000 0.000000 0.072025 0.000000 0.000000
# 5 0.000000 0.000000 0.000000 0.000000 0.032039 0.000000
# 6 0.000000 0.000000 0.000000 0.000000 0.000000 0.045005
#
#
# Mechanical properties :
#
#
# Convention : Reuss Voigt Hill
#
# Bulk Modulus (GPa) = 20.24300 41.57602 30.90951
# Shear Modulus (GPa) = 20.27272 29.09564 24.68418
#
# Velocity S-wave (km/s) = 3.11601 3.73299 3.43836
# Velocity P-wave (km/s) = 4.75829 6.20426 5.52875
#
# Compressibility (1/GPa) = 0.04939978
#
# Stress axis : x y z
#
# Youngs Moduli (GPa) = 77.62249 21.70692 158.74268
#
# Poissons Ratio (x) = 0.12109 0.35971
# Poissons Ratio (y) = 0.43300 0.01289
# Poissons Ratio (z) = 0.17589 0.00176
#
# Static dielectric constant tensor:
#      x y z
#    x 4.018500 0.000000 0.000000 
#    y 0.000000 3.487600 0.000000 
#    z 0.000000 0.000000 4.123230 
# 
# 
# High freq. dielectric constant tensor:
#      x y z
#    x 1.790400 0.000000 0.000000 
#    y 0.000000 1.798380 0.000000 
#    z 0.000000 0.000000 1.817020 
# 
# From -- ./inp_files/22721.got.cif
#   From: 2010.06.25/outbox.cif.g09.slc.cpg/sg58_12_cif.got.tgz:22721.got - 2010.06.26 21:38:00.
