data_PCOD8235473
_publ_section_title
;
Structure prediction by ZEFSAII (Michael W. Deem and Ramdas Pophale) SiO2 
 PCOD8235473
Probable space group: P N N M
;
_chemical_formula_sum "Si O2"
_cell_formula_units_Z 56
_cell_length_a 22.041169
_cell_length_b 14.549398
_cell_length_c 9.177063
_cell_angle_alpha 90.000000
_cell_angle_beta 90.000000
_cell_angle_gamma 90.000000
_cell_volume 2942.953241
_symmetry_space_group_name_H-M "P N N M"
_symmetry_group_IT_number 58
_symmetry_cell_setting 'orthorhombic'
loop_
_space_group_symop_operation_xyz
x,y,z
-x,-y,z
1/2+x,1/2-y,1/2-z
1/2-x,1/2+y,1/2-z
-x,-y,-z
x,y,-z
1/2-x,1/2+y,1/2+z
1/2+x,1/2-y,1/2+z
loop_
_atom_site_type_symbol
_atom_site_label
_atom_site_fract_x
_atom_site_fract_y
_atom_site_fract_z
Si Si1 0.075274 0.088759 0.827563
Si Si2 0.439993 0.385115 0.672196
Si Si3 0.087757 0.710145 0.671214
Si Si4 0.525832 0.094419 0.828352
Si Si5 0.810157 0.799511 0.826199
Si Si6 0.662131 0.117783 0.826563
Si Si7 0.195725 0.583316 0.327615
O O1 0.127771 0.154669 0.766370
O O2 0.009641 0.121717 0.771754
O O3 0.087420 0.983384 0.779706
O O4 0.075400 0.091480 0.000000
O O5 0.435919 0.371085 0.500000
O O6 0.400673 0.307042 0.750528
O O7 0.095464 0.724494 0.500000
O O8 0.136804 0.637430 0.731312
O O9 0.020449 0.675510 0.712514
O O10 0.592617 0.117767 0.768405
O O11 0.500000 0.000000 0.759263
O O12 0.531292 0.080122 0.000000
O O13 0.802275 0.700329 0.751980
O O14 0.756090 0.865805 0.772127
O O15 0.809685 0.787986 0.000000
O O16 0.693608 0.022544 0.775146
O O17 0.665890 0.131109 0.000000
O O18 0.193313 0.583457 0.500000
#
# Coordination Sequence:
#
# PCOD8235473 Si02
#       7
#     8   8   8   8   8   8   8
#     4   8  16  32  51  69  95 132 168 196 238 298
#     4   9  17  31  51  73  97 128 163 202 244 292
#     4  10  18  30  49  75 101 127 161 204 251 297
#     4   9  15  27  51  76  99 129 163 203 251 300
#     4  10  20  35  53  72  98 135 171 205 246 295
#     4  10  19  34  55  78 100 129 170 210 248 299
#     4   9  19  34  51  70  98 134 168 196 238 302
#
# _framework density 19.028504999999999
#
# number of rings (size 3 to 8) (size 9 to 14) (size 15 to 20)
#    0.000    2.714    1.429    1.714    0.000    1.143 
#    0.000    5.714    0.000    0.857    0.000    0.000 
#    0.000    0.000    0.000    0.000    0.000    0.000 
#
# Total GULP energy -694216.820700 kJ/mol
# GULP energy per Si atom -12396.728941 kJ/mol
# Density = 1.898520 g / cm^3
# Si number density = 19.028505 Si / 1000 Ang^3
#
#
#
# Elastic Constant Matrix: (Units=GPa)
#
#
# Indices 1 2 3 4 5 6 
#
# 1 91.2265 58.5787 17.2405 0.0000 0.0000 0.0000
# 2 58.5787 166.9804 34.1354 0.0000 0.0000 0.0000
# 3 17.2405 34.1354 24.2299 0.0000 0.0000 0.0000
# 4 0.0000 0.0000 0.0000 32.2118 0.0000 0.0000
# 5 0.0000 0.0000 0.0000 0.0000 13.3909 0.0000
# 6 0.0000 0.0000 0.0000 0.0000 0.0000 30.2408
#
#
#
# Elastic Compliance Matrix: (Units=1/GPa)
#
#
# Indices 1 2 3 4 5 6 
#
# 1 0.014478 -0.004176 -0.004419 0.000000 0.000000 0.000000
# 2 -0.004176 0.009616 -0.010575 0.000000 0.000000 0.000000
# 3 -0.004419 -0.010575 0.059314 0.000000 0.000000 0.000000
# 4 0.000000 0.000000 0.000000 0.031045 0.000000 0.000000
# 5 0.000000 0.000000 0.000000 0.000000 0.074677 0.000000
# 6 0.000000 0.000000 0.000000 0.000000 0.000000 0.033068
#
#
# Mechanical properties :
#
#
# Convention : Reuss Voigt Hill
#
# Bulk Modulus (GPa) = 22.18873 55.81624 39.00248
# Shear Modulus (GPa) = 18.14487 26.66752 22.40620
#
# Velocity S-wave (km/s) = 3.09133 3.74766 3.43520
# Velocity P-wave (km/s) = 4.94246 6.93709 6.02292
#
# Compressibility (1/GPa) = 0.04506792
#
# Stress axis : x y z
#
# Youngs Moduli (GPa) = 69.06936 103.99874 16.85943
#
# Poissons Ratio (x) = 0.43428 0.07450
# Poissons Ratio (y) = 0.28842 0.17829
# Poissons Ratio (z) = 0.30521 1.09981
#
# Static dielectric constant tensor:
#      x y z
#    x 3.719400 0.000000 0.000000 
#    y 0.000000 3.639380 0.000000 
#    z 0.000000 0.000000 2.882010 
# 
# 
# High freq. dielectric constant tensor:
#      x y z
#    x 1.737010 0.000000 0.000000 
#    y 0.000000 1.756140 0.000000 
#    z 0.000000 0.000000 1.681220 
# 
# From -- ./inp_files/8965.got.cif
#   From: 2010.06.25/outbox.cif.g09.slc.cpg/sg58_5_cif.got.tgz:8965.got - 2010.06.26 21:38:00.
