data_PCOD8235567
_publ_section_title
;
Structure prediction by ZEFSAII (Michael W. Deem and Ramdas Pophale) SiO2 
 PCOD8235567
Probable space group: P N N M
;
_chemical_formula_sum "Si O2"
_cell_formula_units_Z 64
_cell_length_a 11.485905
_cell_length_b 23.425538
_cell_length_c 13.247570
_cell_angle_alpha 90.000000
_cell_angle_beta 90.000000
_cell_angle_gamma 90.000000
_cell_volume 3564.437604
_symmetry_space_group_name_H-M "P N N M"
_symmetry_group_IT_number 58
_symmetry_cell_setting 'orthorhombic'
loop_
_space_group_symop_operation_xyz
x,y,z
-x,-y,z
1/2+x,1/2-y,1/2-z
1/2-x,1/2+y,1/2-z
-x,-y,-z
x,y,-z
1/2-x,1/2+y,1/2+z
1/2+x,1/2-y,1/2+z
loop_
_atom_site_type_symbol
_atom_site_label
_atom_site_fract_x
_atom_site_fract_y
_atom_site_fract_z
Si Si1 0.945464 0.678301 0.381632
Si Si2 0.400738 0.715381 0.753253
Si Si3 0.903595 0.228228 0.117209
Si Si4 0.257218 0.568088 0.886660
Si Si5 0.778997 0.113016 0.115425
Si Si6 0.496555 0.372166 0.110399
Si Si7 0.379245 0.469172 0.774656
Si Si8 0.835940 0.335746 0.239173
O O1 0.966555 0.693524 0.500000
O O2 0.067862 0.663633 0.327390
O O3 0.877165 0.729754 0.324729
O O4 0.859860 0.623856 0.372789
O O5 0.460768 0.732315 0.647936
O O6 0.501085 0.680564 0.813489
O O7 0.293106 0.676191 0.717120
O O8 0.847586 0.168817 0.154385
O O9 0.843077 0.283047 0.163838
O O10 0.887331 0.234509 0.000000
O O11 0.373556 0.604236 0.896602
O O12 0.285042 0.510382 0.826272
O O13 0.161905 0.604655 0.822979
O O14 0.209468 0.554754 0.000000
O O15 0.818201 0.057351 0.176693
O O16 0.811126 0.100041 0.000000
O O17 0.406239 0.420219 0.144570
O O18 0.455840 0.351143 0.000000
O O19 0.500000 0.500000 0.742645
#
# Coordination Sequence:
#
# PCOD8235567 Si02
#       8
#     8   8   8   8   8   8   8   8
#     4  10  21  36  54  78 110 147 183 222 270 331
#     4  10  18  31  52  82 110 139 172 218 272 324
#     4  10  19  32  53  79 108 141 177 222 276 326
#     4   9  18  32  53  79 107 141 180 223 272 328
#     4  10  20  36  56  78 108 145 185 227 276 332
#     4   9  16  27  48  80 112 138 168 213 268 327
#     4  10  19  33  54  81 113 142 182 232 281 325
#     4  10  20  34  56  80 109 144 184 225 267 330
#
# _framework density 17.955148000000001
#
# number of rings (size 3 to 8) (size 9 to 14) (size 15 to 20)
#    0.000    2.250    2.500    1.125    0.000    3.250 
#    0.000    1.250    0.000    9.750    0.000    0.000 
#    0.000    0.000    0.000    0.000    0.000    0.000 
#
# Total GULP energy -793136.908291 kJ/mol
# GULP energy per Si atom -12392.764192 kJ/mol
# Density = 1.791428 g / cm^3
# Si number density = 17.955148 Si / 1000 Ang^3
#
#
#
# Elastic Constant Matrix: (Units=GPa)
#
#
# Indices 1 2 3 4 5 6 
#
# 1 66.3965 18.9944 36.9606 0.0000 0.0000 0.0000
# 2 18.9944 65.3981 20.0391 0.0000 0.0000 0.0000
# 3 36.9606 20.0391 63.0628 0.0000 0.0000 0.0000
# 4 0.0000 0.0000 0.0000 29.7279 0.0000 0.0000
# 5 0.0000 0.0000 0.0000 0.0000 17.0579 0.0000
# 6 0.0000 0.0000 0.0000 0.0000 0.0000 24.1301
#
#
#
# Elastic Compliance Matrix: (Units=1/GPa)
#
#
# Indices 1 2 3 4 5 6 
#
# 1 0.022808 -0.002801 -0.012478 0.000000 0.000000 0.000000
# 2 -0.002801 0.017284 -0.003851 0.000000 0.000000 0.000000
# 3 -0.012478 -0.003851 0.024394 0.000000 0.000000 0.000000
# 4 0.000000 0.000000 0.000000 0.033638 0.000000 0.000000
# 5 0.000000 0.000000 0.000000 0.000000 0.058624 0.000000
# 6 0.000000 0.000000 0.000000 0.000000 0.000000 0.041442
#
#
# Mechanical properties :
#
#
# Convention : Reuss Voigt Hill
#
# Bulk Modulus (GPa) = 38.12763 38.53840 38.33301
# Shear Modulus (GPa) = 20.39217 22.10741 21.24979
#
# Velocity S-wave (km/s) = 3.37371 3.51273 3.44393
# Velocity P-wave (km/s) = 6.03796 6.16139 6.09999
#
# Compressibility (1/GPa) = 0.02622770
#
# Stress axis : x y z
#
# Youngs Moduli (GPa) = 43.84386 57.85548 40.99393
#
# Poissons Ratio (x) = 0.16206 0.51151
# Poissons Ratio (y) = 0.12281 0.15785
# Poissons Ratio (z) = 0.54707 0.22278
#
# Static dielectric constant tensor:
#      x y z
#    x 3.127940 0.000000 0.000000 
#    y 0.000000 3.289870 0.000000 
#    z 0.000000 0.000000 3.304170 
# 
# 
# High freq. dielectric constant tensor:
#      x y z
#    x 1.675590 0.000000 0.000000 
#    y 0.000000 1.686650 0.000000 
#    z 0.000000 0.000000 1.694290 
# 
# From -- ./inp_files/14848.got.cif
#   From: 2010.06.25/outbox.cif.g09.slc.cpg/sg58_8_cif.got.tgz:14848.got - 2010.06.26 21:38:00.
