data_PCOD8235137
_publ_section_title
;
Structure prediction by ZEFSAII (Michael W. Deem and Ramdas Pophale) SiO2 
 PCOD8235137
Probable space group: P B C M
;
_chemical_formula_sum "Si O2"
_cell_formula_units_Z 48
_cell_length_a 4.990604
_cell_length_b 14.502098
_cell_length_c 29.243200
_cell_angle_alpha 90.000000
_cell_angle_beta 90.000000
_cell_angle_gamma 90.000000
_cell_volume 2116.454033
_symmetry_space_group_name_H-M "P B C M"
_symmetry_group_IT_number 57
_symmetry_cell_setting 'orthorhombic'
loop_
_space_group_symop_operation_xyz
x,y,z
-x,-y,1/2+z
x,1/2-y,-z
-x,1/2+y,1/2-z
-x,-y,-z
x,y,1/2-z
-x,1/2+y,z
x,1/2-y,1/2+z
loop_
_atom_site_type_symbol
_atom_site_label
_atom_site_fract_x
_atom_site_fract_y
_atom_site_fract_z
Si Si1 0.750779 0.423979 0.408113
Si Si2 0.675451 0.810570 0.838370
Si Si3 0.702523 0.148509 0.491620
Si Si4 0.784103 0.878579 0.567700
Si Si5 0.766579 0.610678 0.851135
Si Si6 0.177476 0.917275 0.696852
O O1 0.768540 0.400195 0.461242
O O2 0.855060 0.529057 0.404219
O O3 0.453707 0.412149 0.389324
O O4 0.955989 0.365887 0.377262
O O5 0.717475 0.803638 0.893404
O O6 0.692476 0.703280 0.822236
O O7 0.382945 0.852243 0.830120
O O8 0.883728 0.876366 0.812383
O O9 0.586503 0.250000 0.500000
O O10 0.471299 0.095946 0.463855
O O11 0.971397 0.156681 0.462301
O O12 0.800812 0.524409 0.817237
O O13 0.244175 0.911547 0.750000
#
# Coordination Sequence:
#
# PCOD8235137 Si02
#       6
#     8   8   8   8   8   8
#     4  12  23  42  66  98 138 181 235 274 336 397
#     4  12  25  46  73 101 136 181 222 276 344 409
#     4  12  24  38  59  98 136 182 234 281 324 394
#     4  12  22  41  64  93 138 182 228 278 334 394
#     4  12  24  46  71 101 135 182 222 279 339 412
#     4  12  26  47  71 101 134 168 220 284 343 414
#
# _framework density 22.679442999999999
#
# number of rings (size 3 to 8) (size 9 to 14) (size 15 to 20)
#    0.000    0.000    3.333    8.000    0.000    1.333 
#    0.000    0.000    0.000    0.000    0.000    0.000 
#    0.000    0.000    0.000    0.000    0.000    0.000 
#
# Total GULP energy -595496.697360 kJ/mol
# GULP energy per Si atom -12406.181195 kJ/mol
# Density = 2.262782 g / cm^3
# Si number density = 22.679443 Si / 1000 Ang^3
#
#
#
# Elastic Constant Matrix: (Units=GPa)
#
#
# Indices 1 2 3 4 5 6 
#
# 1 84.2483 -11.1966 9.2257 0.0000 0.0000 0.0000
# 2 -11.1966 120.4004 -2.6472 0.0000 0.0000 0.0000
# 3 9.2257 -2.6472 83.9539 0.0000 0.0000 0.0000
# 4 0.0000 0.0000 0.0000 17.4784 0.0000 0.0000
# 5 0.0000 0.0000 0.0000 0.0000 20.2682 0.0000
# 6 0.0000 0.0000 0.0000 0.0000 0.0000 25.7567
#
#
#
# Elastic Compliance Matrix: (Units=1/GPa)
#
#
# Indices 1 2 3 4 5 6 
#
# 1 0.012159 0.001102 -0.001301 0.000000 0.000000 0.000000
# 2 0.001102 0.008411 0.000144 0.000000 0.000000 0.000000
# 3 -0.001301 0.000144 0.012059 0.000000 0.000000 0.000000
# 4 0.000000 0.000000 0.000000 0.057214 0.000000 0.000000
# 5 0.000000 0.000000 0.000000 0.000000 0.049338 0.000000
# 6 0.000000 0.000000 0.000000 0.000000 0.000000 0.038825
#
#
# Mechanical properties :
#
#
# Convention : Reuss Voigt Hill
#
# Bulk Modulus (GPa) = 30.75180 31.04072 30.89626
# Shear Modulus (GPa) = 26.46130 32.24871 29.35501
#
# Velocity S-wave (km/s) = 3.41948 3.77495 3.60160
# Velocity P-wave (km/s) = 5.40178 5.71985 5.56309
#
# Compressibility (1/GPa) = 0.03251842
#
# Stress axis : x y z
#
# Youngs Moduli (GPa) = 82.24598 118.88801 82.92668
#
# Poissons Ratio (x) = -0.13102 0.10792
# Poissons Ratio (y) = -0.09064 -0.01195
# Poissons Ratio (z) = 0.10703 -0.01713
#
# Static dielectric constant tensor:
#      x y z
#    x 4.035440 0.000000 0.000000 
#    y 0.000000 4.306050 0.000000 
#    z 0.000000 0.000000 3.947130 
# 
# 
# High freq. dielectric constant tensor:
#      x y z
#    x 1.906380 0.000000 0.000000 
#    y 0.000000 1.907460 0.000000 
#    z 0.000000 0.000000 1.887190 
# 
# From -- ./inp_files/27939.got.cif
#   From: 2010.03.12/outbox.cif.g09.slc.cpg/sg57_14_cif.got.tgz:27939.got - 2010.04.16 15:48:40.
