data_PCOD8235800
_publ_section_title
;
Structure prediction by ZEFSAII (Michael W. Deem and Ramdas Pophale) SiO2 
 PCOD8235800
Probable space group: P N N M
;
_chemical_formula_sum "Si O2"
_cell_formula_units_Z 56
_cell_length_a 9.506854
_cell_length_b 20.754156
_cell_length_c 15.715330
_cell_angle_alpha 90.000000
_cell_angle_beta 90.000000
_cell_angle_gamma 90.000000
_cell_volume 3100.740389
_symmetry_space_group_name_H-M "P N N M"
_symmetry_group_IT_number 58
_symmetry_cell_setting 'orthorhombic'
loop_
_space_group_symop_operation_xyz
x,y,z
-x,-y,z
1/2+x,1/2-y,1/2-z
1/2-x,1/2+y,1/2-z
-x,-y,-z
x,y,-z
1/2-x,1/2+y,1/2+z
1/2+x,1/2-y,1/2+z
loop_
_atom_site_type_symbol
_atom_site_label
_atom_site_fract_x
_atom_site_fract_y
_atom_site_fract_z
Si Si1 0.973359 0.331695 0.230201
Si Si2 0.844817 0.977936 0.657125
Si Si3 0.530278 0.313830 0.234633
Si Si4 0.263910 0.402263 0.244752
Si Si5 0.750134 0.852382 0.404947
Si Si6 0.227854 0.104076 0.818607
Si Si7 0.160766 0.985228 0.095662
O O1 0.972434 0.257425 0.255030
O O2 0.902303 0.339898 0.137494
O O3 0.884762 0.372542 0.299003
O O4 0.129677 0.357886 0.233775
O O5 0.777698 0.929827 0.587631
O O6 0.847126 0.937653 0.744337
O O7 0.750752 0.041331 0.674058
O O8 0.000000 0.000000 0.629641
O O9 0.397821 0.359703 0.222334
O O10 0.629463 0.317435 0.150880
O O11 0.621513 0.334207 0.319618
O O12 0.275071 0.432590 0.339810
O O13 0.749965 0.823302 0.500000
O O14 0.235633 0.056195 0.899044
O O15 0.180838 0.958576 0.000000
O O16 0.000000 0.000000 0.117991
#
# Coordination Sequence:
#
# PCOD8235800 Si02
#       7
#     8   8   8   8   8   8   8
#     4  10  22  34  56  82 112 152 185 219 274 337
#     4   9  15  31  55  79 101 143 182 224 267 327
#     4  10  18  37  59  77 105 154 194 215 257 337
#     4  11  17  34  58  83 106 144 197 225 263 346
#     4  10  22  39  57  83 114 141 179 238 286 317
#     4   9  17  33  52  77 113 143 184 226 271 330
#     4  10  19  33  57  86 112 139 185 248 287 314
#
# _framework density 18.060203000000001
#
# number of rings (size 3 to 8) (size 9 to 14) (size 15 to 20)
#    0.000    2.429    4.286    2.571    0.000    5.429 
#    0.000    7.857    0.000    0.000    0.000    0.000 
#    0.000    0.000    0.000    0.000    0.000    0.000 
#
# Total GULP energy -693787.959158 kJ/mol
# GULP energy per Si atom -12389.070699 kJ/mol
# Density = 1.801910 g / cm^3
# Si number density = 18.060203 Si / 1000 Ang^3
#
#
#
# Elastic Constant Matrix: (Units=GPa)
#
#
# Indices 1 2 3 4 5 6 
#
# 1 82.0205 14.3414 25.8469 0.0000 0.0000 0.0000
# 2 14.3414 81.2393 28.5389 0.0000 0.0000 0.0000
# 3 25.8469 28.5389 76.5251 0.0000 0.0000 0.0000
# 4 0.0000 0.0000 0.0000 9.2199 0.0000 0.0000
# 5 0.0000 0.0000 0.0000 0.0000 14.0770 0.0000
# 6 0.0000 0.0000 0.0000 0.0000 0.0000 33.7381
#
#
#
# Elastic Compliance Matrix: (Units=1/GPa)
#
#
# Indices 1 2 3 4 5 6 
#
# 1 0.013703 -0.000913 -0.004288 0.000000 0.000000 0.000000
# 2 -0.000913 0.014226 -0.004997 0.000000 0.000000 0.000000
# 3 -0.004288 -0.004997 0.016379 0.000000 0.000000 0.000000
# 4 0.000000 0.000000 0.000000 0.108461 0.000000 0.000000
# 5 0.000000 0.000000 0.000000 0.000000 0.071038 0.000000
# 6 0.000000 0.000000 0.000000 0.000000 0.000000 0.029640
#
#
# Mechanical properties :
#
#
# Convention : Reuss Voigt Hill
#
# Bulk Modulus (GPa) = 41.81833 41.91546 41.86689
# Shear Modulus (GPa) = 17.74226 22.81086 20.27656
#
# Velocity S-wave (km/s) = 3.13772 3.55779 3.35434
# Velocity P-wave (km/s) = 6.02763 6.33532 6.18339
#
# Compressibility (1/GPa) = 0.02391296
#
# Stress axis : x y z
#
# Youngs Moduli (GPa) = 72.97734 70.29447 61.05217
#
# Poissons Ratio (x) = 0.06416 0.26178
# Poissons Ratio (y) = 0.06661 0.30508
# Poissons Ratio (z) = 0.31292 0.35126
#
# Static dielectric constant tensor:
#      x y z
#    x 3.252550 0.000000 0.000000 
#    y 0.000000 3.702580 0.000000 
#    z 0.000000 0.000000 3.140630 
# 
# 
# High freq. dielectric constant tensor:
#      x y z
#    x 1.698350 0.000000 0.000000 
#    y 0.000000 1.708310 0.000000 
#    z 0.000000 0.000000 1.659290 
# 
# From -- ./inp_files/25614.got.cif
#   From: 2010.06.25/outbox.cif.g09.slc.cpg/sg58_13_cif.got.tgz:25614.got - 2010.06.26 21:38:00.
