data_PCOD8235752
_publ_section_title
;
Structure prediction by ZEFSAII (Michael W. Deem and Ramdas Pophale) SiO2 
 PCOD8235752
Probable space group: P N N M
;
_chemical_formula_sum "Si O2"
_cell_formula_units_Z 64
_cell_length_a 33.241759
_cell_length_b 10.709789
_cell_length_c 9.060323
_cell_angle_alpha 90.000000
_cell_angle_beta 90.000000
_cell_angle_gamma 90.000000
_cell_volume 3225.585749
_symmetry_space_group_name_H-M "P N N M"
_symmetry_group_IT_number 58
_symmetry_cell_setting 'orthorhombic'
loop_
_space_group_symop_operation_xyz
x,y,z
-x,-y,z
1/2+x,1/2-y,1/2-z
1/2-x,1/2+y,1/2-z
-x,-y,-z
x,y,-z
1/2-x,1/2+y,1/2+z
1/2+x,1/2-y,1/2+z
loop_
_atom_site_type_symbol
_atom_site_label
_atom_site_fract_x
_atom_site_fract_y
_atom_site_fract_z
Si Si1 0.162175 0.773813 0.175828
Si Si2 0.786333 0.987660 0.826948
Si Si3 0.798892 0.485613 0.825186
Si Si4 0.421341 0.752064 0.826536
Si Si5 0.453931 0.980219 0.665279
Si Si6 0.006014 0.142638 0.836984
Si Si7 0.425562 0.250709 0.666680
Si Si8 0.838584 0.746706 0.172654
O O1 0.187374 0.893891 0.228704
O O2 0.180465 0.642218 0.234081
O O3 0.116768 0.790834 0.241003
O O4 0.159639 0.766920 0.000000
O O5 0.744982 0.994432 0.741836
O O6 0.806721 0.855155 0.789082
O O7 0.778139 0.000045 0.000000
O O8 0.823078 0.610110 0.775613
O O9 0.794723 0.482700 0.000000
O O10 0.433164 0.891598 0.783054
O O11 0.455235 0.660302 0.763878
O O12 0.378563 0.716058 0.759125
O O13 0.418928 0.736996 0.000000
O O14 0.452659 0.922972 0.500000
O O15 0.500000 0.000000 0.713503
O O16 0.426886 0.102179 0.669639
O O17 0.966007 0.197243 0.755067
O O18 0.011801 0.206799 0.000000
O O19 0.000000 0.000000 0.862482
O O20 0.426580 0.303411 0.500000
O O21 0.848614 0.745398 0.000000
#
# Coordination Sequence:
#
# PCOD8235752 Si02
#       8
#     8   8   8   8   8   8   8   8
#     4   9  18  32  54  84 112 143 182 231 283 335
#     4  10  21  36  59  87 114 144 187 240 288 344
#     4  10  20  37  60  84 115 150 185 230 291 354
#     4  12  25  38  56  84 122 158 192 241 299 353
#     4  10  18  34  59  83 109 144 193 243 285 340
#     4  10  21  37  61  86 110 151 202 246 285 342
#     4   9  17  32  56  85 112 142 187 239 286 330
#     4  10  22  39  60  86 115 154 202 244 283 343
#
# _framework density 19.841356999999999
#
# number of rings (size 3 to 8) (size 9 to 14) (size 15 to 20)
#    0.000    2.000    1.250    2.625    1.750    3.500 
#    0.000    0.000    0.000    1.500    0.000    0.000 
#    0.000    0.000    0.000    0.000    0.000    0.000 
#
# Total GULP energy -793361.509926 kJ/mol
# GULP energy per Si atom -12396.273593 kJ/mol
# Density = 1.979620 g / cm^3
# Si number density = 19.841357 Si / 1000 Ang^3
#
#
#
# Elastic Constant Matrix: (Units=GPa)
#
#
# Indices 1 2 3 4 5 6 
#
# 1 146.9808 37.4842 47.3267 0.0000 0.0000 0.0000
# 2 37.4842 113.0472 22.2676 0.0000 0.0000 0.0000
# 3 47.3267 22.2676 51.0417 0.0000 0.0000 0.0000
# 4 0.0000 0.0000 0.0000 46.6892 0.0000 0.0000
# 5 0.0000 0.0000 0.0000 0.0000 -3.7058 0.0000
# 6 0.0000 0.0000 0.0000 0.0000 0.0000 21.6246
#
#
#
# Elastic Compliance Matrix: (Units=1/GPa)
#
#
# Indices 1 2 3 4 5 6 
#
# 1 0.009965 -0.001624 -0.008531 0.000000 0.000000 0.000000
# 2 -0.001624 0.009942 -0.002832 0.000000 0.000000 0.000000
# 3 -0.008531 -0.002832 0.028737 0.000000 0.000000 0.000000
# 4 0.000000 0.000000 0.000000 0.021418 0.000000 0.000000
# 5 0.000000 0.000000 0.000000 0.000000 -0.269850 0.000000
# 6 0.000000 0.000000 0.000000 0.000000 0.000000 0.046244
#
#
# Mechanical properties :
#
#
# Convention : Reuss Voigt Hill
#
# Bulk Modulus (GPa) = 44.10933 58.35850 51.23392
# Shear Modulus (GPa) = -41.66185 26.52103 -7.57041
#
# Velocity S-wave (km/s) = -4.58727 3.65999 -1.95544
# Velocity P-wave (km/s) = 2.40378 6.88020 4.55845
#
# Compressibility (1/GPa) = 0.02267094
#
# Stress axis : x y z
#
# Youngs Moduli (GPa) = 100.35528 100.58296 34.79800
#
# Poissons Ratio (x) = 0.16331 0.29686
# Poissons Ratio (y) = 0.16294 0.09854
# Poissons Ratio (z) = 0.85613 0.28484
#
# Static dielectric constant tensor:
#      x y z
#    x 6.260700 0.000000 0.000000 
#    y 0.000000 3.752190 0.000000 
#    z 0.000000 0.000000 3.164940 
# 
# 
# High freq. dielectric constant tensor:
#      x y z
#    x 1.792040 0.000000 0.000000 
#    y 0.000000 1.786820 0.000000 
#    z 0.000000 0.000000 1.722050 
# 
# From -- ./inp_files/11046.got.cif
#   From: 2010.06.25/outbox.cif.g09.slc.cpg/sg58_6_cif.got.tgz:11046.got - 2010.06.26 21:38:00.
