data_PCOD8235249
_publ_section_title
;
Structure prediction by ZEFSAII (Michael W. Deem and Ramdas Pophale) SiO2 
 PCOD8235249
Probable space group: P N N M
;
_chemical_formula_sum "Si O2"
_cell_formula_units_Z 64
_cell_length_a 30.415224
_cell_length_b 14.693311
_cell_length_c 8.653436
_cell_angle_alpha 90.000000
_cell_angle_beta 90.000000
_cell_angle_gamma 90.000000
_cell_volume 3867.223537
_symmetry_space_group_name_H-M "P N N M"
_symmetry_group_IT_number 58
_symmetry_cell_setting 'orthorhombic'
loop_
_space_group_symop_operation_xyz
x,y,z
-x,-y,z
1/2+x,1/2-y,1/2-z
1/2-x,1/2+y,1/2-z
-x,-y,-z
x,y,-z
1/2-x,1/2+y,1/2+z
1/2+x,1/2-y,1/2+z
loop_
_atom_site_type_symbol
_atom_site_label
_atom_site_fract_x
_atom_site_fract_y
_atom_site_fract_z
Si Si1 0.787214 0.203746 0.814649
Si Si2 0.545044 0.100151 0.818077
Si Si3 0.183187 0.491753 0.172196
Si Si4 0.047115 0.598557 0.814886
Si Si5 0.865759 0.321042 0.827888
Si Si6 0.203570 0.191115 0.817167
Si Si7 0.872866 0.679367 0.819459
Si Si8 0.726669 0.503641 0.320809
O O1 0.830647 0.254269 0.744100
O O2 0.742703 0.251550 0.759051
O O3 0.789638 0.099974 0.750160
O O4 0.786676 0.209282 0.000000
O O5 0.498642 0.135690 0.751785
O O6 0.581586 0.175787 0.774932
O O7 0.557104 0.003254 0.743615
O O8 0.541319 0.088360 0.000000
O O9 0.152164 0.577602 0.169219
O O10 0.155811 0.406545 0.232270
O O11 0.221892 0.508871 0.291940
O O12 0.202261 0.472564 0.000000
O O13 0.085388 0.668353 0.754111
O O14 0.046165 0.595408 0.000000
O O15 0.871480 0.282387 0.000000
O O16 0.155766 0.231925 0.774818
O O17 0.202863 0.086828 0.753624
O O18 0.211832 0.194571 0.000000
O O19 0.884269 0.676725 0.000000
O O20 0.717075 0.508187 0.500000
#
# Coordination Sequence:
#
# PCOD8235249 Si02
#       8
#     8   8   8   8   8   8   8   8
#     4  10  19  31  47  68  95 125 158 194 236 276
#     4  11  21  31  45  70  98 119 148 193 242 279
#     4  10  17  28  46  66  90 124 164 195 221 268
#     4  10  18  32  50  67  92 126 160 186 223 282
#     4   9  17  29  46  67  89 122 161 189 219 270
#     4  10  20  32  46  67  94 125 162 196 230 275
#     4  10  19  32  47  63  89 128 164 190 223 276
#     4  10  20  31  44  68  98 124 154 200 244 268
#
# _framework density 16.549340000000001
#
# number of rings (size 3 to 8) (size 9 to 14) (size 15 to 20)
#    0.000    2.000    3.750    2.250    0.000    1.000 
#    0.000    1.250    0.000    0.000    0.000    0.875 
#    0.000    7.000    0.000    0.000    0.000    0.000 
#
# Total GULP energy -793095.512823 kJ/mol
# GULP energy per Si atom -12392.117388 kJ/mol
# Density = 1.651167 g / cm^3
# Si number density = 16.549340 Si / 1000 Ang^3
#
#
#
# Elastic Constant Matrix: (Units=GPa)
#
#
# Indices 1 2 3 4 5 6 
#
# 1 122.1690 44.8962 28.4031 0.0000 0.0000 0.0000
# 2 44.8962 89.5747 21.2923 0.0000 0.0000 0.0000
# 3 28.4031 21.2923 40.1022 0.0000 0.0000 0.0000
# 4 0.0000 0.0000 0.0000 10.9514 0.0000 0.0000
# 5 0.0000 0.0000 0.0000 0.0000 16.5178 0.0000
# 6 0.0000 0.0000 0.0000 0.0000 0.0000 19.7357
#
#
#
# Elastic Compliance Matrix: (Units=1/GPa)
#
#
# Indices 1 2 3 4 5 6 
#
# 1 0.011026 -0.004200 -0.005579 0.000000 0.000000 0.000000
# 2 -0.004200 0.014376 -0.004658 0.000000 0.000000 0.000000
# 3 -0.005579 -0.004658 0.031361 0.000000 0.000000 0.000000
# 4 0.000000 0.000000 0.000000 0.091313 0.000000 0.000000
# 5 0.000000 0.000000 0.000000 0.000000 0.060541 0.000000
# 6 0.000000 0.000000 0.000000 0.000000 0.000000 0.050670
#
#
# Mechanical properties :
#
#
# Convention : Reuss Voigt Hill
#
# Bulk Modulus (GPa) = 35.85756 49.00322 42.43039
# Shear Modulus (GPa) = 16.80905 19.92458 18.36682
#
# Velocity S-wave (km/s) = 3.19045 3.47356 3.33501
# Velocity P-wave (km/s) = 5.94021 6.76477 6.36586
#
# Compressibility (1/GPa) = 0.02788812
#
# Stress axis : x y z
#
# Youngs Moduli (GPa) = 90.69431 69.55864 31.88649
#
# Poissons Ratio (x) = 0.29216 0.17790
# Poissons Ratio (y) = 0.38093 0.14854
# Poissons Ratio (z) = 0.50601 0.32402
#
# Static dielectric constant tensor:
#      x y z
#    x 3.263660 0.000000 0.000000 
#    y 0.000000 3.322480 0.000000 
#    z 0.000000 0.000000 3.015720 
# 
# 
# High freq. dielectric constant tensor:
#      x y z
#    x 1.633110 0.000000 0.000000 
#    y 0.000000 1.615170 0.000000 
#    z 0.000000 0.000000 1.621570 
# 
# From -- ./inp_files/11143.got.cif
#   From: 2010.06.25/outbox.cif.g09.slc.cpg/sg58_6_cif.got.tgz:11143.got - 2010.06.26 21:38:00.
