data_PCOD8235092
_publ_section_title
;
Structure prediction by ZEFSAII (Michael W. Deem and Ramdas Pophale) SiO2 
 PCOD8235092
Probable space group: P B C M
;
_chemical_formula_sum "Si O2"
_cell_formula_units_Z 32
_cell_length_a 7.319505
_cell_length_b 12.407932
_cell_length_c 14.901560
_cell_angle_alpha 90.000000
_cell_angle_beta 90.000000
_cell_angle_gamma 90.000000
_cell_volume 1353.358492
_symmetry_space_group_name_H-M "P B C M"
_symmetry_group_IT_number 57
_symmetry_cell_setting 'orthorhombic'
loop_
_space_group_symop_operation_xyz
x,y,z
-x,-y,1/2+z
x,1/2-y,-z
-x,1/2+y,1/2-z
-x,-y,-z
x,y,1/2-z
-x,1/2+y,z
x,1/2-y,1/2+z
loop_
_atom_site_type_symbol
_atom_site_label
_atom_site_fract_x
_atom_site_fract_y
_atom_site_fract_z
Si Si1 0.061385 0.705839 0.150632
Si Si2 0.797815 0.025599 0.474485
Si Si3 0.683973 0.800533 0.408181
Si Si4 0.664185 0.111660 0.846947
O O1 0.066846 0.653867 0.250000
O O2 0.849154 0.723838 0.124244
O O3 0.184507 0.634311 0.083954
O O4 0.146668 0.823914 0.149300
O O5 0.668427 0.036529 0.563806
O O6 0.728503 0.927393 0.414793
O O7 0.000000 0.000000 0.500000
O O8 0.614449 0.750000 0.500000
O O9 0.505604 0.803484 0.344867
O O10 0.660015 0.048687 0.750000
#
# Coordination Sequence:
#
# PCOD8235092 Si02
#       4
#     8   8   8   8
#     4  11  24  43  67  98 136 176 225 278 335 403
#     4  12  23  44  71  97 137 178 219 282 338 397
#     4  12  23  43  69  97 134 182 225 278 342 398
#     4  11  25  44  67 100 137 176 225 276 332 404
#
# _framework density 23.644880000000001
#
# number of rings (size 3 to 8) (size 9 to 14) (size 15 to 20)
#    0.000    0.500    5.000    3.750    0.000    3.000 
#    0.000    2.500    0.000    0.000    0.000    0.000 
#    0.000    0.000    0.000    0.000    0.000    0.000 
#
# Total GULP energy -396475.139723 kJ/mol
# GULP energy per Si atom -12389.848116 kJ/mol
# Density = 2.359106 g / cm^3
# Si number density = 23.644880 Si / 1000 Ang^3
#
#
#
# Elastic Constant Matrix: (Units=GPa)
#
#
# Indices 1 2 3 4 5 6 
#
# 1 84.8215 -2.4527 17.9237 0.0000 0.0000 0.0000
# 2 -2.4527 63.8369 30.0822 0.0000 0.0000 0.0000
# 3 17.9237 30.0822 167.8803 0.0000 0.0000 0.0000
# 4 0.0000 0.0000 0.0000 10.6178 0.0000 0.0000
# 5 0.0000 0.0000 0.0000 0.0000 13.8103 0.0000
# 6 0.0000 0.0000 0.0000 0.0000 0.0000 27.1012
#
#
#
# Elastic Compliance Matrix: (Units=1/GPa)
#
#
# Indices 1 2 3 4 5 6 
#
# 1 0.012142 0.001177 -0.001507 0.000000 0.000000 0.000000
# 2 0.001177 0.017224 -0.003212 0.000000 0.000000 0.000000
# 3 -0.001507 -0.003212 0.006693 0.000000 0.000000 0.000000
# 4 0.000000 0.000000 0.000000 0.094181 0.000000 0.000000
# 5 0.000000 0.000000 0.000000 0.000000 0.072410 0.000000
# 6 0.000000 0.000000 0.000000 0.000000 0.000000 0.036899
#
#
# Mechanical properties :
#
#
# Convention : Reuss Voigt Hill
#
# Bulk Modulus (GPa) = 34.51368 45.29393 39.90381
# Shear Modulus (GPa) = 19.50908 28.37157 23.94033
#
# Velocity S-wave (km/s) = 2.87555 3.46772 3.18543
# Velocity P-wave (km/s) = 5.06492 5.93557 5.51744
#
# Compressibility (1/GPa) = 0.02897401
#
# Stress axis : x y z
#
# Youngs Moduli (GPa) = 82.35892 58.05953 149.40799
#
# Poissons Ratio (x) = -0.06832 0.22519
# Poissons Ratio (y) = -0.09692 0.47989
# Poissons Ratio (z) = 0.12413 0.18648
#
# Static dielectric constant tensor:
#      x y z
#    x 3.364490 0.000000 0.000000 
#    y 0.000000 3.871420 0.000000 
#    z 0.000000 0.000000 4.617190 
# 
# 
# High freq. dielectric constant tensor:
#      x y z
#    x 1.955120 0.000000 0.000000 
#    y 0.000000 1.908320 0.000000 
#    z 0.000000 0.000000 1.943340 
# 
# From -- ./inp_files/15506.got.cif
#   From: 2010.03.12/outbox.cif.g09.slc.cpg/sg57_8_cif.got.tgz:15506.got - 2010.04.16 15:48:40.
