data_PCOD8235696
_publ_section_title
;
Structure prediction by ZEFSAII (Michael W. Deem and Ramdas Pophale) SiO2 
 PCOD8235696
Probable space group: P N N M
;
_chemical_formula_sum "Si O2"
_cell_formula_units_Z 64
_cell_length_a 17.369168
_cell_length_b 15.380526
_cell_length_c 13.094220
_cell_angle_alpha 90.000000
_cell_angle_beta 90.000000
_cell_angle_gamma 90.000000
_cell_volume 3498.080805
_symmetry_space_group_name_H-M "P N N M"
_symmetry_group_IT_number 58
_symmetry_cell_setting 'orthorhombic'
loop_
_space_group_symop_operation_xyz
x,y,z
-x,-y,z
1/2+x,1/2-y,1/2-z
1/2-x,1/2+y,1/2-z
-x,-y,-z
x,y,-z
1/2-x,1/2+y,1/2+z
1/2+x,1/2-y,1/2+z
loop_
_atom_site_type_symbol
_atom_site_label
_atom_site_fract_x
_atom_site_fract_y
_atom_site_fract_z
Si Si1 0.318272 0.866100 0.115239
Si Si2 0.284209 0.022332 0.383362
Si Si3 0.445202 0.764247 0.384285
Si Si4 0.687361 0.517573 0.693383
Si Si5 0.071215 0.438718 0.223217
Si Si6 0.217766 0.715369 0.815492
Si Si7 0.711389 0.330055 0.384010
Si Si8 0.585603 0.657031 0.620677
O O1 0.246611 0.931454 0.121045
O O2 0.390111 0.908182 0.172291
O O3 0.293862 0.771794 0.158952
O O4 0.344786 0.853674 0.000000
O O5 0.268681 0.992654 0.500000
O O6 0.281042 0.126246 0.378148
O O7 0.217946 0.981964 0.310353
O O8 0.367671 0.987517 0.349307
O O9 0.468919 0.780800 0.500000
O O10 0.463548 0.853716 0.328936
O O11 0.356076 0.740216 0.373032
O O12 0.500136 0.686059 0.344711
O O13 0.675794 0.422108 0.648587
O O14 0.606684 0.569555 0.683989
O O15 0.000000 0.500000 0.250287
O O16 0.219632 0.695586 0.693125
O O17 0.141306 0.764925 0.846147
O O18 0.743248 0.332472 0.500000
O O19 0.592497 0.638413 0.500000
#
# Coordination Sequence:
#
# PCOD8235696 Si02
#       8
#     8   8   8   8   8   8   8   8
#     4  10  19  34  54  74 102 137 177 219 257 307
#     4  10  20  33  54  81 105 136 177 218 266 315
#     4  10  21  35  52  76 108 141 169 211 268 320
#     4   9  19  33  52  79 102 131 171 222 263 303
#     4  11  22  35  50  76 111 140 173 217 266 321
#     4  10  18  33  54  80 101 138 178 219 256 307
#     4  10  19  33  53  78 106 133 167 214 273 318
#     4  10  19  33  53  76 104 138 178 217 260 315
#
# _framework density 18.295746000000001
#
# number of rings (size 3 to 8) (size 9 to 14) (size 15 to 20)
#    0.000    2.000    1.250    4.125    0.000    2.750 
#    0.000    1.875    0.000    3.000    0.000    1.750 
#    0.000    0.000    0.000    0.000    0.000    0.000 
#
# Total GULP energy -793506.538579 kJ/mol
# GULP energy per Si atom -12398.539665 kJ/mol
# Density = 1.825410 g / cm^3
# Si number density = 18.295746 Si / 1000 Ang^3
#
#
#
# Elastic Constant Matrix: (Units=GPa)
#
#
# Indices 1 2 3 4 5 6 
#
# 1 37.4772 5.2696 23.1891 0.0000 0.0000 0.0000
# 2 5.2696 79.0111 24.8705 0.0000 0.0000 0.0000
# 3 23.1891 24.8705 113.9953 0.0000 0.0000 0.0000
# 4 0.0000 0.0000 0.0000 20.1442 0.0000 0.0000
# 5 0.0000 0.0000 0.0000 0.0000 20.4084 0.0000
# 6 0.0000 0.0000 0.0000 0.0000 0.0000 30.5974
#
#
#
# Elastic Compliance Matrix: (Units=1/GPa)
#
#
# Indices 1 2 3 4 5 6 
#
# 1 0.030526 -0.000087 -0.006191 0.000000 0.000000 0.000000
# 2 -0.000087 0.013590 -0.002947 0.000000 0.000000 0.000000
# 3 -0.006191 -0.002947 0.010675 0.000000 0.000000 0.000000
# 4 0.000000 0.000000 0.000000 0.049642 0.000000 0.000000
# 5 0.000000 0.000000 0.000000 0.000000 0.049000 0.000000
# 6 0.000000 0.000000 0.000000 0.000000 0.000000 0.032682
#
#
# Mechanical properties :
#
#
# Convention : Reuss Voigt Hill
#
# Bulk Modulus (GPa) = 27.51775 37.46019 32.48897
# Shear Modulus (GPa) = 23.07577 26.04030 24.55803
#
# Velocity S-wave (km/s) = 3.55528 3.77675 3.66769
# Velocity P-wave (km/s) = 5.65036 6.28791 5.97764
#
# Compressibility (1/GPa) = 0.03634018
#
# Stress axis : x y z
#
# Youngs Moduli (GPa) = 32.75941 73.58375 93.68069
#
# Poissons Ratio (x) = 0.00642 0.57993
# Poissons Ratio (y) = 0.00286 0.27609
# Poissons Ratio (z) = 0.20280 0.21686
#
# Static dielectric constant tensor:
#      x y z
#    x 3.306420 0.000000 0.000000 
#    y 0.000000 3.537090 0.000000 
#    z 0.000000 0.000000 3.368500 
# 
# 
# High freq. dielectric constant tensor:
#      x y z
#    x 1.684080 0.000000 0.000000 
#    y 0.000000 1.725340 0.000000 
#    z 0.000000 0.000000 1.704750 
# 
# From -- ./inp_files/16550.got.cif
#   From: 2010.06.25/outbox.cif.g09.slc.cpg/sg58_9_cif.got.tgz:16550.got - 2010.06.26 21:38:00.
