data_PCOD8235181
_publ_section_title
;
Structure prediction by ZEFSAII (Michael W. Deem and Ramdas Pophale) SiO2 
 PCOD8235181
Probable space group: P B C M
;
_chemical_formula_sum "Si O2"
_cell_formula_units_Z 48
_cell_length_a 12.962109
_cell_length_b 12.979425
_cell_length_c 16.951565
_cell_angle_alpha 90.000000
_cell_angle_beta 90.000000
_cell_angle_gamma 90.000000
_cell_volume 2851.943528
_symmetry_space_group_name_H-M "P B C M"
_symmetry_group_IT_number 57
_symmetry_cell_setting 'orthorhombic'
loop_
_space_group_symop_operation_xyz
x,y,z
-x,-y,1/2+z
x,1/2-y,-z
-x,1/2+y,1/2-z
-x,-y,-z
x,y,1/2-z
-x,1/2+y,z
x,1/2-y,1/2+z
loop_
_atom_site_type_symbol
_atom_site_label
_atom_site_fract_x
_atom_site_fract_y
_atom_site_fract_z
Si Si1 0.384633 0.971190 0.020157
Si Si2 0.879800 0.975013 0.661122
Si Si3 0.073642 0.503660 0.425086
Si Si4 0.294934 0.637777 0.839114
Si Si5 0.786525 0.632218 0.482627
Si Si6 0.760455 0.173145 0.070532
O O1 0.382101 0.906815 0.102189
O O2 0.334362 0.901940 0.951286
O O3 0.500000 0.000000 0.000000
O O4 0.323266 0.077738 0.029089
O O5 0.863340 0.933479 0.750000
O O6 0.851940 0.885377 0.598161
O O7 0.810323 0.075191 0.644390
O O8 0.999475 0.010143 0.650687
O O9 0.155571 0.412288 0.439647
O O10 0.135207 0.610244 0.413512
O O11 0.000000 0.500000 0.500000
O O12 0.334651 0.623979 0.750000
O O13 0.272301 0.758731 0.853964
O O14 0.765435 0.750000 0.500000
O O15 0.786425 0.250000 0.000000
#
# Coordination Sequence:
#
# PCOD8235181 Si02
#       6
#     8   8   8   8   8   8
#     4   9  18  33  53  73  93 122 160 200 241 291
#     4   9  18  31  47  69  97 129 162 195 235 280
#     4   9  17  28  43  67  97 127 159 193 229 274
#     4   9  18  33  51  72  97 124 158 202 246 286
#     4   9  18  31  48  69  96 128 161 197 236 281
#     4   9  17  30  48  70  94 122 159 199 236 280
#
# _framework density 16.830628000000001
#
# number of rings (size 3 to 8) (size 9 to 14) (size 15 to 20)
#    0.000    3.000    0.000    3.000    0.000    8.000 
#    0.000    3.333    0.000    7.000    0.000    0.000 
#    0.000    0.000    0.000    0.000    0.000    0.000 
#
# Total GULP energy -594894.876050 kJ/mol
# GULP energy per Si atom -12393.643251 kJ/mol
# Density = 1.679232 g / cm^3
# Si number density = 16.830628 Si / 1000 Ang^3
#
#
#
# Elastic Constant Matrix: (Units=GPa)
#
#
# Indices 1 2 3 4 5 6 
#
# 1 108.6042 37.5436 40.0720 0.0000 0.0000 0.0000
# 2 37.5436 110.3559 38.5933 0.0000 0.0000 0.0000
# 3 40.0720 38.5933 86.1256 0.0000 0.0000 0.0000
# 4 0.0000 0.0000 0.0000 19.3752 0.0000 0.0000
# 5 0.0000 0.0000 0.0000 0.0000 18.1065 0.0000
# 6 0.0000 0.0000 0.0000 0.0000 0.0000 16.4566
#
#
#
# Elastic Compliance Matrix: (Units=1/GPa)
#
#
# Indices 1 2 3 4 5 6 
#
# 1 0.011650 -0.002452 -0.004322 0.000000 0.000000 0.000000
# 2 -0.002452 0.011262 -0.003906 0.000000 0.000000 0.000000
# 3 -0.004322 -0.003906 0.015372 0.000000 0.000000 0.000000
# 4 0.000000 0.000000 0.000000 0.051612 0.000000 0.000000
# 5 0.000000 0.000000 0.000000 0.000000 0.055229 0.000000
# 6 0.000000 0.000000 0.000000 0.000000 0.000000 0.060766
#
#
# Mechanical properties :
#
#
# Convention : Reuss Voigt Hill
#
# Bulk Modulus (GPa) = 59.08436 59.72262 59.40349
# Shear Modulus (GPa) = 21.46932 23.37945 22.42438
#
# Velocity S-wave (km/s) = 3.57544 3.73111 3.65410
# Velocity P-wave (km/s) = 7.22679 7.35684 7.29211
#
# Compressibility (1/GPa) = 0.01692495
#
# Stress axis : x y z
#
# Youngs Moduli (GPa) = 85.83713 88.79733 65.05425
#
# Poissons Ratio (x) = 0.21773 0.28114
# Poissons Ratio (y) = 0.21047 0.25407
# Poissons Ratio (z) = 0.37096 0.34680
#
# Static dielectric constant tensor:
#      x y z
#    x 3.129210 0.000000 0.000000 
#    y 0.000000 3.091310 0.000000 
#    z 0.000000 0.000000 2.904520 
# 
# 
# High freq. dielectric constant tensor:
#      x y z
#    x 1.637220 0.000000 0.000000 
#    y 0.000000 1.642890 0.000000 
#    z 0.000000 0.000000 1.633420 
# 
# From -- ./inp_files/21788.got.cif
#   From: 2010.03.12/outbox.cif.g09.slc.cpg/sg57_11_cif.got.tgz:21788.got - 2010.04.16 15:48:40.
