data_PCOD8235790
_publ_section_title
;
Structure prediction by ZEFSAII (Michael W. Deem and Ramdas Pophale) SiO2 
 PCOD8235790
Probable space group: P N N M
;
_chemical_formula_sum "Si O2"
_cell_formula_units_Z 64
_cell_length_a 14.635194
_cell_length_b 24.609588
_cell_length_c 8.920024
_cell_angle_alpha 90.000000
_cell_angle_beta 90.000000
_cell_angle_gamma 90.000000
_cell_volume 3212.690208
_symmetry_space_group_name_H-M "P N N M"
_symmetry_group_IT_number 58
_symmetry_cell_setting 'orthorhombic'
loop_
_space_group_symop_operation_xyz
x,y,z
-x,-y,z
1/2+x,1/2-y,1/2-z
1/2-x,1/2+y,1/2-z
-x,-y,-z
x,y,-z
1/2-x,1/2+y,1/2+z
1/2+x,1/2-y,1/2+z
loop_
_atom_site_type_symbol
_atom_site_label
_atom_site_fract_x
_atom_site_fract_y
_atom_site_fract_z
Si Si1 0.062386 0.368217 0.825142
Si Si2 0.680429 0.736789 0.830923
Si Si3 0.370623 0.758568 0.176754
Si Si4 0.749373 0.442504 0.326432
Si Si5 0.047206 0.055864 0.178153
Si Si6 0.614806 0.854816 0.832834
Si Si7 0.902288 0.524111 0.322390
Si Si8 0.989010 0.166016 0.676986
O O1 0.091805 0.312092 0.753221
O O2 0.118066 0.417983 0.753763
O O3 0.955835 0.377306 0.788746
O O4 0.080925 0.366552 0.000000
O O5 0.764353 0.746003 0.719525
O O6 0.618923 0.790416 0.827653
O O7 0.611232 0.689396 0.778636
O O8 0.716901 0.725925 0.000000
O O9 0.429430 0.706365 0.232134
O O10 0.380289 0.765098 0.000000
O O11 0.737041 0.455710 0.500000
O O12 0.649548 0.446374 0.252413
O O13 0.786806 0.381501 0.298167
O O14 0.822095 0.485202 0.259833
O O15 0.995374 0.107728 0.244970
O O16 0.046399 0.062497 0.000000
O O17 0.000000 0.000000 0.229146
O O18 0.582966 0.874128 0.000000
O O19 0.898359 0.530784 0.500000
O O20 0.000000 0.500000 0.271695
O O21 0.996129 0.158534 0.500000
#
# Coordination Sequence:
#
# PCOD8235790 Si02
#       8
#     8   8   8   8   8   8   8   8
#     4  12  24  36  55  86 124 157 195 249 304 352
#     4  10  21  38  62  91 124 158 196 249 306 355
#     4  11  23  41  62  88 122 161 204 244 297 370
#     4   9  18  34  60  87 112 153 205 248 294 356
#     4  10  22  40  62  89 119 152 200 253 295 346
#     4  10  18  36  61  83 115 160 202 241 298 363
#     4  10  19  35  59  82 112 158 204 241 296 369
#     4  10  22  41  64  89 122 159 198 246 304 362
#
# _framework density 19.920999999999999
#
# number of rings (size 3 to 8) (size 9 to 14) (size 15 to 20)
#    0.000    1.750    2.500    2.250    0.000    4.500 
#    0.000    2.500    0.000    0.000    0.000    0.000 
#    0.000    0.000    0.000    0.000    0.000    0.000 
#
# Total GULP energy -793533.286116 kJ/mol
# GULP energy per Si atom -12398.957596 kJ/mol
# Density = 1.987566 g / cm^3
# Si number density = 19.921000 Si / 1000 Ang^3
#
#
#
# Elastic Constant Matrix: (Units=GPa)
#
#
# Indices 1 2 3 4 5 6 
#
# 1 87.2195 40.0900 18.7216 0.0000 0.0000 0.0000
# 2 40.0900 145.3447 36.8921 0.0000 0.0000 0.0000
# 3 18.7216 36.8921 54.5050 0.0000 0.0000 0.0000
# 4 0.0000 0.0000 0.0000 21.1468 0.0000 0.0000
# 5 0.0000 0.0000 0.0000 0.0000 26.0899 0.0000
# 6 0.0000 0.0000 0.0000 0.0000 0.0000 30.7933
#
#
#
# Elastic Compliance Matrix: (Units=1/GPa)
#
#
# Indices 1 2 3 4 5 6 
#
# 1 0.013415 -0.003056 -0.002540 0.000000 0.000000 0.000000
# 2 -0.003056 0.009003 -0.005044 0.000000 0.000000 0.000000
# 3 -0.002540 -0.005044 0.022634 0.000000 0.000000 0.000000
# 4 0.000000 0.000000 0.000000 0.047288 0.000000 0.000000
# 5 0.000000 0.000000 0.000000 0.000000 0.038329 0.000000
# 6 0.000000 0.000000 0.000000 0.000000 0.000000 0.032475
#
#
# Mechanical properties :
#
#
# Convention : Reuss Voigt Hill
#
# Bulk Modulus (GPa) = 42.06519 53.16406 47.61462
# Shear Modulus (GPa) = 25.99461 28.36371 27.17916
#
# Velocity S-wave (km/s) = 3.61624 3.77743 3.69771
# Velocity P-wave (km/s) = 6.21273 6.76541 6.49495
#
# Compressibility (1/GPa) = 0.02377262
#
# Stress axis : x y z
#
# Youngs Moduli (GPa) = 74.54375 111.06897 44.18200
#
# Poissons Ratio (x) = 0.33938 0.11221
# Poissons Ratio (y) = 0.22777 0.22288
# Poissons Ratio (z) = 0.18931 0.56028
#
# Static dielectric constant tensor:
#      x y z
#    x 3.838890 0.000000 0.000000 
#    y 0.000000 3.730830 0.000000 
#    z 0.000000 0.000000 3.435900 
# 
# 
# High freq. dielectric constant tensor:
#      x y z
#    x 1.779070 0.000000 0.000000 
#    y 0.000000 1.788580 0.000000 
#    z 0.000000 0.000000 1.747650 
# 
# From -- ./inp_files/6735.got.cif
#   From: 2010.06.25/outbox.cif.g09.slc.cpg/sg58_4_cif.got.tgz:6735.got - 2010.06.26 21:38:00.
