data_PCOD8235715
_publ_section_title
;
Structure prediction by ZEFSAII (Michael W. Deem and Ramdas Pophale) SiO2 
 PCOD8235715
Probable space group: P N N M
;
_chemical_formula_sum "Si O2"
_cell_formula_units_Z 64
_cell_length_a 18.863656
_cell_length_b 19.877354
_cell_length_c 9.402911
_cell_angle_alpha 90.000000
_cell_angle_beta 90.000000
_cell_angle_gamma 90.000000
_cell_volume 3525.711447
_symmetry_space_group_name_H-M "P N N M"
_symmetry_group_IT_number 58
_symmetry_cell_setting 'orthorhombic'
loop_
_space_group_symop_operation_xyz
x,y,z
-x,-y,z
1/2+x,1/2-y,1/2-z
1/2-x,1/2+y,1/2-z
-x,-y,-z
x,y,-z
1/2-x,1/2+y,1/2+z
1/2+x,1/2-y,1/2+z
loop_
_atom_site_type_symbol
_atom_site_label
_atom_site_fract_x
_atom_site_fract_y
_atom_site_fract_z
Si Si1 0.455197 0.566237 0.164942
Si Si2 0.325190 0.739908 0.335397
Si Si3 0.055692 0.817994 0.666620
Si Si4 0.788969 0.149744 0.668034
Si Si5 0.557279 0.051958 0.831250
Si Si6 0.817933 0.912805 0.162545
Si Si7 0.716764 0.031213 0.165276
Si Si8 0.044630 0.296956 0.666627
O O1 0.500000 0.500000 0.192146
O O2 0.499282 0.628847 0.230188
O O3 0.380969 0.558110 0.243212
O O4 0.438213 0.577457 0.000000
O O5 0.345573 0.748381 0.500000
O O6 0.261380 0.788449 0.292067
O O7 0.300152 0.664313 0.299619
O O8 0.393030 0.757421 0.243139
O O9 0.060380 0.831339 0.500000
O O10 0.133769 0.830224 0.729692
O O11 0.028894 0.742171 0.699232
O O12 0.790022 0.135686 0.500000
O O13 0.763465 0.083007 0.745881
O O14 0.635853 0.032036 0.778816
O O15 0.538188 0.126872 0.776404
O O16 0.500000 0.000000 0.765477
O O17 0.553121 0.049015 0.000000
O O18 0.747275 0.956502 0.190425
O O19 0.842463 0.919543 0.000000
O O20 0.719785 0.052313 0.000000
O O21 0.062431 0.296255 0.500000
#
# Coordination Sequence:
#
# PCOD8235715 Si02
#       8
#     8   8   8   8   8   8   8   8
#     4  10  19  32  51  74 103 137 175 218 257 303
#     4  10  20  34  53  77 106 142 177 213 265 321
#     4   9  18  31  50  78 103 131 175 220 259 305
#     4  10  20  35  55  78 106 140 179 220 267 318
#     4   9  18  32  54  82 106 133 174 224 271 311
#     4  10  21  34  50  76 109 142 173 211 263 321
#     4  10  20  35  54  78 110 142 178 219 265 321
#     4  10  18  33  57  78 102 137 178 221 265 314
#
# _framework density 18.152365
#
# number of rings (size 3 to 8) (size 9 to 14) (size 15 to 20)
#    0.000    2.250    2.500    0.750    0.000    2.750 
#    0.000    6.250    0.000    1.500    0.000    1.750 
#    0.000    0.000    0.000    0.000    0.000    0.000 
#
# Total GULP energy -793597.173471 kJ/mol
# GULP energy per Si atom -12399.955835 kJ/mol
# Density = 1.811105 g / cm^3
# Si number density = 18.152365 Si / 1000 Ang^3
#
#
#
# Elastic Constant Matrix: (Units=GPa)
#
#
# Indices 1 2 3 4 5 6 
#
# 1 119.4754 57.7397 20.8681 0.0000 0.0000 0.0000
# 2 57.7397 136.5376 28.7803 0.0000 0.0000 0.0000
# 3 20.8681 28.7803 24.8067 0.0000 0.0000 0.0000
# 4 0.0000 0.0000 0.0000 19.8133 0.0000 0.0000
# 5 0.0000 0.0000 0.0000 0.0000 21.8502 0.0000
# 6 0.0000 0.0000 0.0000 0.0000 0.0000 33.0043
#
#
#
# Elastic Compliance Matrix: (Units=1/GPa)
#
#
# Indices 1 2 3 4 5 6 
#
# 1 0.010986 -0.003571 -0.005099 0.000000 0.000000 0.000000
# 2 -0.003571 0.010856 -0.009590 0.000000 0.000000 0.000000
# 3 -0.005099 -0.009590 0.055728 0.000000 0.000000 0.000000
# 4 0.000000 0.000000 0.000000 0.050471 0.000000 0.000000
# 5 0.000000 0.000000 0.000000 0.000000 0.045766 0.000000
# 6 0.000000 0.000000 0.000000 0.000000 0.000000 0.030299
#
#
# Mechanical properties :
#
#
# Convention : Reuss Voigt Hill
#
# Bulk Modulus (GPa) = 24.36125 55.06623 39.71374
# Shear Modulus (GPa) = 19.66105 26.49566 23.07836
#
# Velocity S-wave (km/s) = 3.29464 3.82465 3.56949
# Velocity P-wave (km/s) = 5.28417 7.06437 6.23810
#
# Compressibility (1/GPa) = 0.04104879
#
# Stress axis : x y z
#
# Youngs Moduli (GPa) = 91.02166 92.11719 17.94445
#
# Poissons Ratio (x) = 0.32897 0.09150
# Poissons Ratio (y) = 0.32506 0.17209
# Poissons Ratio (z) = 0.46410 0.88344
#
# Static dielectric constant tensor:
#      x y z
#    x 3.518950 0.000000 0.000000 
#    y 0.000000 3.587100 0.000000 
#    z 0.000000 0.000000 3.076050 
# 
# 
# High freq. dielectric constant tensor:
#      x y z
#    x 1.706320 0.000000 0.000000 
#    y 0.000000 1.718150 0.000000 
#    z 0.000000 0.000000 1.668310 
# 
# From -- ./inp_files/9250.got.cif
#   From: 2010.06.25/outbox.cif.g09.slc.cpg/sg58_5_cif.got.tgz:9250.got - 2010.06.26 21:38:00.
