data_PCOD8235687
_publ_section_title
;
Structure prediction by ZEFSAII (Michael W. Deem and Ramdas Pophale) SiO2 
 PCOD8235687
Probable space group: P N N M
;
_chemical_formula_sum "Si O2"
_cell_formula_units_Z 64
_cell_length_a 12.371751
_cell_length_b 18.389369
_cell_length_c 14.729809
_cell_angle_alpha 90.000000
_cell_angle_beta 90.000000
_cell_angle_gamma 90.000000
_cell_volume 3351.159613
_symmetry_space_group_name_H-M "P N N M"
_symmetry_group_IT_number 58
_symmetry_cell_setting 'orthorhombic'
loop_
_space_group_symop_operation_xyz
x,y,z
-x,-y,z
1/2+x,1/2-y,1/2-z
1/2-x,1/2+y,1/2-z
-x,-y,-z
x,y,-z
1/2-x,1/2+y,1/2+z
1/2+x,1/2-y,1/2+z
loop_
_atom_site_type_symbol
_atom_site_label
_atom_site_fract_x
_atom_site_fract_y
_atom_site_fract_z
Si Si1 0.265246 0.621916 0.233382
Si Si2 0.724583 0.285332 0.397430
Si Si3 0.086393 0.354194 0.400692
Si Si4 0.029417 0.578510 0.766775
Si Si5 0.724679 0.745129 0.399035
Si Si6 0.003561 0.270436 0.154123
Si Si7 0.059072 0.075472 0.601670
Si Si8 0.951612 0.223005 0.648080
O O1 0.300953 0.644658 0.334909
O O2 0.157005 0.576759 0.250535
O O3 0.251931 0.694215 0.174056
O O4 0.350934 0.572955 0.180270
O O5 0.753263 0.309260 0.500000
O O6 0.615172 0.238816 0.398898
O O7 0.823052 0.238288 0.354640
O O8 0.088557 0.392711 0.500000
O O9 0.208370 0.328110 0.373213
O O10 0.037824 0.409018 0.326360
O O11 0.011985 0.282572 0.412689
O O12 0.000000 0.500000 0.807945
O O13 0.007106 0.642164 0.838720
O O14 0.761481 0.769790 0.500000
O O15 0.595356 0.733299 0.400458
O O16 0.002565 0.232860 0.252342
O O17 0.109363 0.080701 0.500000
O O18 0.974850 0.141769 0.614257
O O19 0.000000 0.000000 0.613780
#
# Coordination Sequence:
#
# PCOD8235687 Si02
#       8
#     8   8   8   8   8   8   8   8
#     4  11  20  38  56  84 117 156 190 245 302 355
#     4  12  22  36  62  91 119 153 201 254 299 350
#     4  10  18  32  58  85 109 142 193 246 286 328
#     4  10  22  36  54  81 117 157 194 229 293 363
#     4  10  18  33  60  87 112 149 194 243 292 349
#     4  10  21  37  58  83 120 155 198 241 298 352
#     4  11  23  39  61  90 118 154 201 246 301 359
#     4  11  20  35  59  87 117 147 193 248 296 340
#
# _framework density 19.097867000000001
#
# number of rings (size 3 to 8) (size 9 to 14) (size 15 to 20)
#    0.000    1.375    6.250    2.625    0.000    1.250 
#    0.000    0.000    0.000   13.125    0.000    0.000 
#    0.000    0.000    0.000    0.000    0.000    0.000 
#
# Total GULP energy -793202.821967 kJ/mol
# GULP energy per Si atom -12393.794093 kJ/mol
# Density = 1.905440 g / cm^3
# Si number density = 19.097867 Si / 1000 Ang^3
#
#
#
# Elastic Constant Matrix: (Units=GPa)
#
#
# Indices 1 2 3 4 5 6 
#
# 1 119.6242 30.8482 24.6576 0.0000 0.0000 0.0000
# 2 30.8482 83.3302 22.2723 0.0000 0.0000 0.0000
# 3 24.6576 22.2723 97.6309 0.0000 0.0000 0.0000
# 4 0.0000 0.0000 0.0000 12.5126 0.0000 0.0000
# 5 0.0000 0.0000 0.0000 0.0000 21.0650 0.0000
# 6 0.0000 0.0000 0.0000 0.0000 0.0000 21.3687
#
#
#
# Elastic Compliance Matrix: (Units=1/GPa)
#
#
# Indices 1 2 3 4 5 6 
#
# 1 0.009500 -0.003062 -0.001701 0.000000 0.000000 0.000000
# 2 -0.003062 0.013767 -0.002367 0.000000 0.000000 0.000000
# 3 -0.001701 -0.002367 0.011212 0.000000 0.000000 0.000000
# 4 0.000000 0.000000 0.000000 0.079919 0.000000 0.000000
# 5 0.000000 0.000000 0.000000 0.000000 0.047472 0.000000
# 6 0.000000 0.000000 0.000000 0.000000 0.000000 0.046798
#
#
# Mechanical properties :
#
#
# Convention : Reuss Voigt Hill
#
# Bulk Modulus (GPa) = 49.45945 50.68239 50.07092
# Shear Modulus (GPa) = 21.77065 25.84309 23.80687
#
# Velocity S-wave (km/s) = 3.37998 3.68257 3.53451
# Velocity P-wave (km/s) = 6.41767 6.68413 6.55225
#
# Compressibility (1/GPa) = 0.02021858
#
# Stress axis : x y z
#
# Youngs Moduli (GPa) = 105.26619 72.63887 89.18854
#
# Poissons Ratio (x) = 0.22243 0.15168
# Poissons Ratio (y) = 0.32234 0.21113
# Poissons Ratio (z) = 0.17902 0.17195
#
# Static dielectric constant tensor:
#      x y z
#    x 3.884240 0.000000 0.000000 
#    y 0.000000 3.117490 0.000000 
#    z 0.000000 0.000000 3.652050 
# 
# 
# High freq. dielectric constant tensor:
#      x y z
#    x 1.754880 0.000000 0.000000 
#    y 0.000000 1.698340 0.000000 
#    z 0.000000 0.000000 1.748890 
# 
# From -- ./inp_files/21504.got.cif
#   From: 2010.06.25/outbox.cif.g09.slc.cpg/sg58_11_cif.got.tgz:21504.got - 2010.06.26 21:38:00.
