data_PCOD8235090
_publ_section_title
;
Structure prediction by ZEFSAII (Michael W. Deem and Ramdas Pophale) SiO2 
 PCOD8235090
Probable space group: P B C M
;
_chemical_formula_sum "Si O2"
_cell_formula_units_Z 64
_cell_length_a 13.294229
_cell_length_b 9.352722
_cell_length_c 23.224485
_cell_angle_alpha 90.000000
_cell_angle_beta 90.000000
_cell_angle_gamma 90.000000
_cell_volume 2887.668088
_symmetry_space_group_name_H-M "P B C M"
_symmetry_group_IT_number 57
_symmetry_cell_setting 'orthorhombic'
loop_
_space_group_symop_operation_xyz
x,y,z
-x,-y,1/2+z
x,1/2-y,-z
-x,1/2+y,1/2-z
-x,-y,-z
x,y,1/2-z
-x,1/2+y,z
x,1/2-y,1/2+z
loop_
_atom_site_type_symbol
_atom_site_label
_atom_site_fract_x
_atom_site_fract_y
_atom_site_fract_z
Si Si1 0.298031 0.246845 0.814876
Si Si2 0.302692 0.725554 0.183062
Si Si3 0.383654 0.995898 0.372251
Si Si4 0.704265 0.919200 0.507590
Si Si5 0.390369 0.486366 0.111475
Si Si6 0.101627 0.917244 0.515121
Si Si7 0.073084 0.272022 0.314606
Si Si8 0.899328 0.089600 0.146322
O O1 0.315493 0.192848 0.750000
O O2 0.377061 0.370615 0.828847
O O3 0.183065 0.296770 0.824533
O O4 0.311010 0.113808 0.856698
O O5 0.338123 0.726684 0.250000
O O6 0.378326 0.639678 0.141446
O O7 0.189562 0.666789 0.180861
O O8 0.306862 0.882391 0.155049
O O9 0.357414 0.054698 0.434865
O O10 0.496233 0.933734 0.376769
O O11 0.724064 0.750000 0.500000
O O12 0.637598 0.985963 0.455944
O O13 0.808005 0.004326 0.517986
O O14 0.093454 0.750000 0.500000
O O15 0.132951 0.938020 0.581159
O O16 0.000000 0.000000 0.500000
O O17 0.036063 0.241796 0.250000
O O18 0.072564 0.441496 0.323845
O O19 0.996123 0.193060 0.356756
#
# Coordination Sequence:
#
# PCOD8235090 Si02
#       8
#     8   8   8   8   8   8   8   8
#     4  11  24  45  70 103 144 187 237 296 359 429
#     4  12  26  46  72 105 148 188 236 302 366 438
#     4  12  28  44  73 105 142 188 245 300 362 429
#     4  12  26  48  73 103 145 189 243 304 363 430
#     4  12  25  49  72 103 140 193 241 300 362 430
#     4  12  26  45  73 108 142 188 238 299 364 430
#     4  11  24  42  68  99 136 180 226 279 345 423
#     4  12  25  45  70 102 140 183 232 285 356 428
#
# _framework density 22.163212000000001
#
# number of rings (size 3 to 8) (size 9 to 14) (size 15 to 20)
#    0.000    0.250    3.750    4.875    3.500    3.000 
#    0.000    0.000    0.000    0.000    0.000    0.000 
#    0.000    0.000    0.000    0.000    0.000    0.000 
#
# Total GULP energy -793850.374489 kJ/mol
# GULP energy per Si atom -12403.912101 kJ/mol
# Density = 2.211277 g / cm^3
# Si number density = 22.163212 Si / 1000 Ang^3
#
#
#
# Elastic Constant Matrix: (Units=GPa)
#
#
# Indices 1 2 3 4 5 6 
#
# 1 104.5947 25.9975 16.1119 0.0000 0.0000 0.0000
# 2 25.9975 106.6149 32.8896 0.0000 0.0000 0.0000
# 3 16.1119 32.8896 98.2712 0.0000 0.0000 0.0000
# 4 0.0000 0.0000 0.0000 37.0154 0.0000 0.0000
# 5 0.0000 0.0000 0.0000 0.0000 24.4726 0.0000
# 6 0.0000 0.0000 0.0000 0.0000 0.0000 35.6305
#
#
#
# Elastic Compliance Matrix: (Units=1/GPa)
#
#
# Indices 1 2 3 4 5 6 
#
# 1 0.010255 -0.002210 -0.000942 0.000000 0.000000 0.000000
# 2 -0.002210 0.010936 -0.003298 0.000000 0.000000 0.000000
# 3 -0.000942 -0.003298 0.011434 0.000000 0.000000 0.000000
# 4 0.000000 0.000000 0.000000 0.027016 0.000000 0.000000
# 5 0.000000 0.000000 0.000000 0.000000 0.040862 0.000000
# 6 0.000000 0.000000 0.000000 0.000000 0.000000 0.028066
#
#
# Mechanical properties :
#
#
# Convention : Reuss Voigt Hill
#
# Bulk Modulus (GPa) = 50.69469 51.05319 50.87394
# Shear Modulus (GPa) = 33.77405 35.05584 34.41494
#
# Velocity S-wave (km/s) = 3.90792 3.98139 3.94483
# Velocity P-wave (km/s) = 6.57917 6.64984 6.61460
#
# Compressibility (1/GPa) = 0.01972593
#
# Stress axis : x y z
#
# Youngs Moduli (GPa) = 97.51232 91.44296 87.45863
#
# Poissons Ratio (x) = 0.20210 0.08236
# Poissons Ratio (y) = 0.21552 0.28841
# Poissons Ratio (z) = 0.09182 0.30155
#
# Static dielectric constant tensor:
#      x y z
#    x 3.932650 0.000000 0.000000 
#    y 0.000000 4.089630 0.000000 
#    z 0.000000 0.000000 4.170440 
# 
# 
# High freq. dielectric constant tensor:
#      x y z
#    x 1.877830 0.000000 0.000000 
#    y 0.000000 1.878810 0.000000 
#    z 0.000000 0.000000 1.885180 
# 
# From -- ./inp_files/27490.got.cif
#   From: 2010.03.12/outbox.cif.g09.slc.cpg/sg57_14_cif.got.tgz:27490.got - 2010.04.16 15:48:40.
