data_PCOD8235276
_publ_section_title
;
Structure prediction by ZEFSAII (Michael W. Deem and Ramdas Pophale) SiO2 
 PCOD8235276
Probable space group: P N N M
;
_chemical_formula_sum "Si O2"
_cell_formula_units_Z 56
_cell_length_a 9.114200
_cell_length_b 17.345912
_cell_length_c 20.282210
_cell_angle_alpha 90.000000
_cell_angle_beta 90.000000
_cell_angle_gamma 90.000000
_cell_volume 3206.497962
_symmetry_space_group_name_H-M "P N N M"
_symmetry_group_IT_number 58
_symmetry_cell_setting 'orthorhombic'
loop_
_space_group_symop_operation_xyz
x,y,z
-x,-y,z
1/2+x,1/2-y,1/2-z
1/2-x,1/2+y,1/2-z
-x,-y,-z
x,y,-z
1/2-x,1/2+y,1/2+z
1/2+x,1/2-y,1/2+z
loop_
_atom_site_type_symbol
_atom_site_label
_atom_site_fract_x
_atom_site_fract_y
_atom_site_fract_z
Si Si1 0.166141 0.484768 0.781394
Si Si2 0.162156 0.840217 0.311346
Si Si3 0.832491 0.858315 0.299151
Si Si4 0.845206 0.573676 0.367019
Si Si5 0.163132 0.784565 0.837987
Si Si6 0.165168 0.200153 0.849450
Si Si7 0.845681 0.417716 0.424748
O O1 0.231965 0.413184 0.821866
O O2 0.261773 0.557987 0.801607
O O3 0.175779 0.464756 0.704368
O O4 0.000000 0.500000 0.803542
O O5 0.165178 0.810851 0.237050
O O6 0.224832 0.772377 0.357687
O O7 0.995708 0.861994 0.329780
O O8 0.742396 0.797973 0.344074
O O9 0.832494 0.832200 0.223945
O O10 0.747320 0.649243 0.379105
O O11 0.799998 0.507828 0.419498
O O12 0.014460 0.598298 0.377572
O O13 0.000242 0.774684 0.866818
O O14 0.211870 0.134689 0.900787
O O15 0.884516 0.398285 0.500000
#
# Coordination Sequence:
#
# PCOD8235276 Si02
#       7
#     8   8   8   8   8   8   8
#     4  11  17  27  46  71 100 130 157 193 240 294
#     4   9  19  28  46  69  97 128 159 193 241 308
#     4  10  17  30  45  70  98 128 161 189 242 308
#     4  10  18  33  46  67  93 129 167 205 246 281
#     4   9  19  29  49  67  93 128 159 199 248 303
#     4  10  18  33  45  67  95 125 163 207 250 284
#     4  11  21  34  51  68  93 134 181 215 244 284
#
# _framework density 17.464537
#
# number of rings (size 3 to 8) (size 9 to 14) (size 15 to 20)
#    0.000    2.000    2.857    3.000    0.000    5.143 
#    0.000    2.143    0.000    0.000    0.000    0.000 
#    0.000   15.429    0.000    0.000    0.000    0.143 
#
# Total GULP energy -694309.717196 kJ/mol
# GULP energy per Si atom -12398.387807 kJ/mol
# Density = 1.742479 g / cm^3
# Si number density = 17.464537 Si / 1000 Ang^3
#
#
#
# Elastic Constant Matrix: (Units=GPa)
#
#
# Indices 1 2 3 4 5 6 
#
# 1 117.6667 58.0062 20.5119 0.0000 0.0000 0.0000
# 2 58.0062 102.5827 21.0849 0.0000 0.0000 0.0000
# 3 20.5119 21.0849 27.6847 0.0000 0.0000 0.0000
# 4 0.0000 0.0000 0.0000 11.3167 0.0000 0.0000
# 5 0.0000 0.0000 0.0000 0.0000 5.6479 0.0000
# 6 0.0000 0.0000 0.0000 0.0000 0.0000 42.0484
#
#
#
# Elastic Compliance Matrix: (Units=1/GPa)
#
#
# Indices 1 2 3 4 5 6 
#
# 1 0.012239 -0.005995 -0.004502 0.000000 0.000000 0.000000
# 2 -0.005995 0.014494 -0.006597 0.000000 0.000000 0.000000
# 3 -0.004502 -0.006597 0.044481 0.000000 0.000000 0.000000
# 4 0.000000 0.000000 0.000000 0.088365 0.000000 0.000000
# 5 0.000000 0.000000 0.000000 0.000000 0.177058 0.000000
# 6 0.000000 0.000000 0.000000 0.000000 0.000000 0.023782
#
#
# Mechanical properties :
#
#
# Convention : Reuss Voigt Hill
#
# Bulk Modulus (GPa) = 27.00823 49.68222 38.34523
# Shear Modulus (GPa) = 12.28655 21.69133 16.98894
#
# Velocity S-wave (km/s) = 2.65526 3.52806 3.12231
# Velocity P-wave (km/s) = 4.98986 6.71606 5.91626
#
# Compressibility (1/GPa) = 0.03702575
#
# Stress axis : x y z
#
# Youngs Moduli (GPa) = 81.70722 68.99292 22.48155
#
# Poissons Ratio (x) = 0.41363 0.10121
# Poissons Ratio (y) = 0.48985 0.14831
# Poissons Ratio (z) = 0.36783 0.45515
#
# Static dielectric constant tensor:
#      x y z
#    x 3.473010 0.000000 0.000000 
#    y 0.000000 3.448290 0.000000 
#    z 0.000000 0.000000 2.630880 
# 
# 
# High freq. dielectric constant tensor:
#      x y z
#    x 1.688470 0.000000 0.000000 
#    y 0.000000 1.687180 0.000000 
#    z 0.000000 0.000000 1.598710 
# 
# From -- ./inp_files/28954.got.cif
#   From: 2010.06.25/outbox.cif.g09.slc.cpg/sg58_15_cif.got.tgz:28954.got - 2010.06.26 21:38:00.
