data_PCOD8235146
_publ_section_title
;
Structure prediction by ZEFSAII (Michael W. Deem and Ramdas Pophale) SiO2 
 PCOD8235146
Probable space group: P B C M
;
_chemical_formula_sum "Si O2"
_cell_formula_units_Z 48
_cell_length_a 4.901929
_cell_length_b 24.642075
_cell_length_c 18.414843
_cell_angle_alpha 90.000000
_cell_angle_beta 90.000000
_cell_angle_gamma 90.000000
_cell_volume 2224.397059
_symmetry_space_group_name_H-M "P B C M"
_symmetry_group_IT_number 57
_symmetry_cell_setting 'orthorhombic'
loop_
_space_group_symop_operation_xyz
x,y,z
-x,-y,1/2+z
x,1/2-y,-z
-x,1/2+y,1/2-z
-x,-y,-z
x,y,1/2-z
-x,1/2+y,z
x,1/2-y,1/2+z
loop_
_atom_site_type_symbol
_atom_site_label
_atom_site_fract_x
_atom_site_fract_y
_atom_site_fract_z
Si Si1 0.733319 0.362738 0.460475
Si Si2 0.450809 0.521757 0.581280
Si Si3 0.711811 0.699633 0.167074
Si Si4 0.052193 0.982786 0.666659
Si Si5 0.788669 0.366531 0.624196
Si Si6 0.779492 0.708474 0.561534
O O1 0.659151 0.417061 0.417452
O O2 0.849011 0.377871 0.539722
O O3 0.469794 0.325479 0.470357
O O4 0.970452 0.330982 0.417041
O O5 0.500000 0.500000 0.500000
O O6 0.733924 0.521457 0.625203
O O7 0.234198 0.484291 0.623700
O O8 0.636135 0.707674 0.250000
O O9 0.520838 0.653189 0.133270
O O10 0.675051 0.758521 0.131103
O O11 0.021377 0.680650 0.155838
O O12 0.013289 0.002141 0.750000
O O13 0.164143 0.921644 0.668002
O O14 0.885800 0.750000 0.500000
#
# Coordination Sequence:
#
# PCOD8235146 Si02
#       6
#     8   8   8   8   8   8
#     4  12  24  42  68 101 125 170 231 272 325 392
#     4  12  26  45  71 100 139 179 228 281 334 408
#     4  12  25  41  63  98 134 172 214 270 340 399
#     4  12  26  45  69 103 140 181 223 280 350 406
#     4  12  23  41  70  98 135 164 217 284 334 398
#     4  12  23  42  67  94 131 171 217 273 326 395
#
# _framework density 21.578882
#
# number of rings (size 3 to 8) (size 9 to 14) (size 15 to 20)
#    0.000    0.000    5.000    6.000    2.333    0.000 
#    0.000    5.000    0.000    0.000    0.000    0.000 
#    0.000    0.000    0.000    0.000    0.000    0.000 
#
# Total GULP energy -595614.436558 kJ/mol
# GULP energy per Si atom -12408.634095 kJ/mol
# Density = 2.152977 g / cm^3
# Si number density = 21.578882 Si / 1000 Ang^3
#
#
#
# Elastic Constant Matrix: (Units=GPa)
#
#
# Indices 1 2 3 4 5 6 
#
# 1 106.3297 21.2365 30.2307 0.0000 0.0000 0.0000
# 2 21.2365 94.6288 35.1938 0.0000 0.0000 0.0000
# 3 30.2307 35.1938 132.3350 0.0000 0.0000 0.0000
# 4 0.0000 0.0000 0.0000 23.7718 0.0000 0.0000
# 5 0.0000 0.0000 0.0000 0.0000 28.5159 0.0000
# 6 0.0000 0.0000 0.0000 0.0000 0.0000 39.8863
#
#
#
# Elastic Compliance Matrix: (Units=1/GPa)
#
#
# Indices 1 2 3 4 5 6 
#
# 1 0.010269 -0.001589 -0.001923 0.000000 0.000000 0.000000
# 2 -0.001589 0.011974 -0.002821 0.000000 0.000000 0.000000
# 3 -0.001923 -0.002821 0.008746 0.000000 0.000000 0.000000
# 4 0.000000 0.000000 0.000000 0.042067 0.000000 0.000000
# 5 0.000000 0.000000 0.000000 0.000000 0.035068 0.000000
# 6 0.000000 0.000000 0.000000 0.000000 0.000000 0.025071
#
#
# Mechanical properties :
#
#
# Convention : Reuss Voigt Hill
#
# Bulk Modulus (GPa) = 54.58144 56.29062 55.43603
# Shear Modulus (GPa) = 32.90140 34.87696 33.88918
#
# Velocity S-wave (km/s) = 3.90898 4.02463 3.96723
# Velocity P-wave (km/s) = 6.76183 6.90937 6.83600
#
# Compressibility (1/GPa) = 0.01832124
#
# Stress axis : x y z
#
# Youngs Moduli (GPa) = 97.38130 83.51760 114.33531
#
# Poissons Ratio (x) = 0.13273 0.21989
# Poissons Ratio (y) = 0.15477 0.32257
# Poissons Ratio (z) = 0.18728 0.23562
#
# Static dielectric constant tensor:
#      x y z
#    x 3.986100 0.000000 0.000000 
#    y 0.000000 3.900960 0.000000 
#    z 0.000000 0.000000 3.794580 
# 
# 
# High freq. dielectric constant tensor:
#      x y z
#    x 1.863450 0.000000 0.000000 
#    y 0.000000 1.846650 0.000000 
#    z 0.000000 0.000000 1.837640 
# 
# From -- ./inp_files/20188.got.cif
#   From: 2010.03.12/outbox.cif.g09.slc.cpg/sg57_11_cif.got.tgz:20188.got - 2010.04.16 15:48:40.
