data_PCOD8235102
_publ_section_title
;
Structure prediction by ZEFSAII (Michael W. Deem and Ramdas Pophale) SiO2 
 PCOD8235102
Probable space group: P B C M
;
_chemical_formula_sum "Si O2"
_cell_formula_units_Z 32
_cell_length_a 7.446145
_cell_length_b 11.596203
_cell_length_c 15.186331
_cell_angle_alpha 90.000000
_cell_angle_beta 90.000000
_cell_angle_gamma 90.000000
_cell_volume 1311.294259
_symmetry_space_group_name_H-M "P B C M"
_symmetry_group_IT_number 57
_symmetry_cell_setting 'orthorhombic'
loop_
_space_group_symop_operation_xyz
x,y,z
-x,-y,1/2+z
x,1/2-y,-z
-x,1/2+y,1/2-z
-x,-y,-z
x,y,1/2-z
-x,1/2+y,z
x,1/2-y,1/2+z
loop_
_atom_site_type_symbol
_atom_site_label
_atom_site_fract_x
_atom_site_fract_y
_atom_site_fract_z
Si Si1 0.671576 0.369094 0.980003
Si Si2 0.172752 0.449924 0.346913
Si Si3 0.292023 0.283402 0.908575
Si Si4 0.229329 0.523556 0.847825
O O1 0.781201 0.455305 0.919422
O O2 0.490688 0.330181 0.931292
O O3 0.780407 0.250000 0.000000
O O4 0.636182 0.432020 0.074990
O O5 0.204931 0.503877 0.250000
O O6 0.291951 0.333762 0.352004
O O7 0.963746 0.415576 0.358912
O O8 0.193834 0.386034 0.856950
O O9 0.192214 0.250000 0.000000
O O10 0.309958 0.548988 0.750000
#
# Coordination Sequence:
#
# PCOD8235102 Si02
#       4
#     8   8   8   8
#     4  11  26  45  72 103 144 190 240 287 357 426
#     4  11  26  45  72 109 146 188 240 299 359 421
#     4  11  24  45  72 101 142 187 239 292 356 421
#     4  11  25  45  72 106 144 189 240 295 360 424
#
# _framework density 24.403372000000001
#
# number of rings (size 3 to 8) (size 9 to 14) (size 15 to 20)
#    0.000    1.000    2.500    2.250    7.000    3.000 
#    0.000    3.750    0.000    0.000    0.000    0.000 
#    0.000    0.000    0.000    0.000    0.000    0.000 
#
# Total GULP energy -396557.224726 kJ/mol
# GULP energy per Si atom -12392.413273 kJ/mol
# Density = 2.434783 g / cm^3
# Si number density = 24.403372 Si / 1000 Ang^3
#
#
#
# Elastic Constant Matrix: (Units=GPa)
#
#
# Indices 1 2 3 4 5 6 
#
# 1 70.0634 17.4986 25.7553 0.0000 0.0000 0.0000
# 2 17.4986 147.9499 37.3860 0.0000 0.0000 0.0000
# 3 25.7553 37.3860 158.5315 0.0000 0.0000 0.0000
# 4 0.0000 0.0000 0.0000 31.4378 0.0000 0.0000
# 5 0.0000 0.0000 0.0000 0.0000 21.1839 0.0000
# 6 0.0000 0.0000 0.0000 0.0000 0.0000 32.4926
#
#
#
# Elastic Compliance Matrix: (Units=1/GPa)
#
#
# Indices 1 2 3 4 5 6 
#
# 1 0.015399 -0.001264 -0.002203 0.000000 0.000000 0.000000
# 2 -0.001264 0.007291 -0.001514 0.000000 0.000000 0.000000
# 3 -0.002203 -0.001514 0.007023 0.000000 0.000000 0.000000
# 4 0.000000 0.000000 0.000000 0.031809 0.000000 0.000000
# 5 0.000000 0.000000 0.000000 0.000000 0.047206 0.000000
# 6 0.000000 0.000000 0.000000 0.000000 0.000000 0.030776
#
#
# Mechanical properties :
#
#
# Convention : Reuss Voigt Hill
#
# Bulk Modulus (GPa) = 50.63605 59.75826 55.19716
# Shear Modulus (GPa) = 32.04094 36.74985 34.39539
#
# Velocity S-wave (km/s) = 3.62743 3.88485 3.75834
# Velocity P-wave (km/s) = 6.19185 6.68308 6.44215
#
# Compressibility (1/GPa) = 0.01974878
#
# Stress axis : x y z
#
# Youngs Moduli (GPa) = 64.94102 137.15205 142.39075
#
# Poissons Ratio (x) = 0.17342 0.31376
# Poissons Ratio (y) = 0.08211 0.21558
# Poissons Ratio (z) = 0.14310 0.20765
#
# Static dielectric constant tensor:
#      x y z
#    x 3.935250 0.000000 0.000000 
#    y 0.000000 5.060550 0.000000 
#    z 0.000000 0.000000 4.569090 
# 
# 
# High freq. dielectric constant tensor:
#      x y z
#    x 1.942830 0.000000 0.000000 
#    y 0.000000 1.982780 0.000000 
#    z 0.000000 0.000000 1.980410 
# 
# From -- ./inp_files/15520.got.cif
#   From: 2010.03.12/outbox.cif.g09.slc.cpg/sg57_8_cif.got.tgz:15520.got - 2010.04.16 15:48:40.
