data_PCOD8235413
_publ_section_title
;
Structure prediction by ZEFSAII (Michael W. Deem and Ramdas Pophale) SiO2 
 PCOD8235413
Probable space group: P N N M
;
_chemical_formula_sum "Si O2"
_cell_formula_units_Z 64
_cell_length_a 20.848113
_cell_length_b 9.274484
_cell_length_c 19.799796
_cell_angle_alpha 90.000000
_cell_angle_beta 90.000000
_cell_angle_gamma 90.000000
_cell_volume 3828.399266
_symmetry_space_group_name_H-M "P N N M"
_symmetry_group_IT_number 58
_symmetry_cell_setting 'orthorhombic'
loop_
_space_group_symop_operation_xyz
x,y,z
-x,-y,z
1/2+x,1/2-y,1/2-z
1/2-x,1/2+y,1/2-z
-x,-y,-z
x,y,-z
1/2-x,1/2+y,1/2+z
1/2+x,1/2-y,1/2+z
loop_
_atom_site_type_symbol
_atom_site_label
_atom_site_fract_x
_atom_site_fract_y
_atom_site_fract_z
Si Si1 0.204344 0.889335 0.215167
Si Si2 0.744074 0.092347 0.925397
Si Si3 0.918663 0.143018 0.291567
Si Si4 0.645610 0.600106 0.074729
Si Si5 0.618976 0.271651 0.074838
Si Si6 0.556898 0.306484 0.208762
Si Si7 0.728257 0.267916 0.573970
Si Si8 0.319197 0.723132 0.284918
O O1 0.207930 0.858603 0.134532
O O2 0.139854 0.811562 0.242509
O O3 0.266656 0.827641 0.252281
O O4 0.200504 0.059125 0.232496
O O5 0.674280 0.156229 0.912041
O O6 0.735704 0.920864 0.922476
O O7 0.770114 0.140520 0.000000
O O8 0.900081 0.173982 0.369672
O O9 0.983142 0.232448 0.271707
O O10 0.933769 0.975863 0.284114
O O11 0.649600 0.428943 0.083581
O O12 0.718445 0.647416 0.085561
O O13 0.620083 0.643248 0.000000
O O14 0.564934 0.251446 0.131637
O O15 0.588644 0.252523 0.000000
O O16 0.610503 0.233345 0.256629
O O17 0.694928 0.249042 0.500000
O O18 0.676519 0.254230 0.633988
#
# Coordination Sequence:
#
# PCOD8235413 Si02
#       8
#     8   8   8   8   8   8   8   8
#     4  10  18  29  47  67  87 114 147 183 219 257
#     4   9  17  28  43  64  89 115 142 176 219 261
#     4   9  17  28  42  63  90 117 145 179 219 258
#     4   9  16  26  42  64  88 114 145 177 209 253
#     4   9  16  26  42  64  88 114 145 177 209 253
#     4   9  17  28  42  63  90 117 145 179 219 258
#     4   9  17  28  43  64  89 115 142 176 219 261
#     4  10  18  29  47  67  87 114 147 183 219 257
#
# _framework density 16.717169999999999
#
# number of rings (size 3 to 8) (size 9 to 14) (size 15 to 20)
#    0.000    2.750    2.500    0.000    0.000    0.500 
#    0.000    2.500    0.000    3.750    0.000    8.750 
#    0.000    0.000    0.000    8.500    0.000    9.000 
#
# Total GULP energy -792986.857952 kJ/mol
# GULP energy per Si atom -12390.419655 kJ/mol
# Density = 1.667912 g / cm^3
# Si number density = 16.717170 Si / 1000 Ang^3
#
#
#
# Elastic Constant Matrix: (Units=GPa)
#
#
# Indices 1 2 3 4 5 6 
#
# 1 50.8892 -5.6549 35.0635 0.0000 0.0000 0.0000
# 2 -5.6549 13.7463 7.6457 0.0000 0.0000 0.0000
# 3 35.0635 7.6457 102.4070 0.0000 0.0000 0.0000
# 4 0.0000 0.0000 0.0000 16.4809 0.0000 0.0000
# 5 0.0000 0.0000 0.0000 0.0000 22.3347 0.0000
# 6 0.0000 0.0000 0.0000 0.0000 0.0000 14.4827
#
#
#
# Elastic Compliance Matrix: (Units=1/GPa)
#
#
# Indices 1 2 3 4 5 6 
#
# 1 0.029683 0.018638 -0.011555 0.000000 0.000000 0.000000
# 2 0.018638 0.087601 -0.012922 0.000000 0.000000 0.000000
# 3 -0.011555 -0.012922 0.014686 0.000000 0.000000 0.000000
# 4 0.000000 0.000000 0.000000 0.060676 0.000000 0.000000
# 5 0.000000 0.000000 0.000000 0.000000 0.044773 0.000000
# 6 0.000000 0.000000 0.000000 0.000000 0.000000 0.069048
#
#
# Mechanical properties :
#
#
# Convention : Reuss Voigt Hill
#
# Bulk Modulus (GPa) = 8.31311 26.79457 17.55384
# Shear Modulus (GPa) = 13.95704 19.32554 16.64129
#
# Velocity S-wave (km/s) = 2.89259 3.40373 3.15852
# Velocity P-wave (km/s) = 4.01742 5.61339 4.88108
#
# Compressibility (1/GPa) = 0.12029193
#
# Stress axis : x y z
#
# Youngs Moduli (GPa) = 33.68933 11.41545 68.09233
#
# Poissons Ratio (x) = -0.21276 0.78679
# Poissons Ratio (y) = -0.62789 0.87986
# Poissons Ratio (z) = 0.38927 0.14751
#
# Static dielectric constant tensor:
#      x y z
#    x 3.164220 0.000000 0.000000 
#    y 0.000000 2.938580 0.000000 
#    z 0.000000 0.000000 3.585130 
# 
# 
# High freq. dielectric constant tensor:
#      x y z
#    x 1.610570 0.000000 0.000000 
#    y 0.000000 1.617360 0.000000 
#    z 0.000000 0.000000 1.658240 
# 
# From -- ./inp_files/16613.got.cif
#   From: 2010.06.25/outbox.cif.g09.slc.cpg/sg58_9_cif.got.tgz:16613.got - 2010.06.26 21:38:00.
