data_PCOD8235172
_publ_section_title
;
Structure prediction by ZEFSAII (Michael W. Deem and Ramdas Pophale) SiO2 
 PCOD8235172
Probable space group: P B C M
;
_chemical_formula_sum "Si O2"
_cell_formula_units_Z 48
_cell_length_a 16.169383
_cell_length_b 19.003823
_cell_length_c 9.430347
_cell_angle_alpha 90.000000
_cell_angle_beta 90.000000
_cell_angle_gamma 90.000000
_cell_volume 2897.757899
_symmetry_space_group_name_H-M "P B C M"
_symmetry_group_IT_number 57
_symmetry_cell_setting 'orthorhombic'
loop_
_space_group_symop_operation_xyz
x,y,z
-x,-y,1/2+z
x,1/2-y,-z
-x,1/2+y,1/2-z
-x,-y,-z
x,y,1/2-z
-x,1/2+y,z
x,1/2-y,1/2+z
loop_
_atom_site_type_symbol
_atom_site_label
_atom_site_fract_x
_atom_site_fract_y
_atom_site_fract_z
Si Si1 0.043685 0.099859 0.409707
Si Si2 0.634796 0.816189 0.083769
Si Si3 0.187079 0.362630 0.406701
Si Si4 0.104574 0.559838 0.909860
Si Si5 0.247872 0.520520 0.092994
Si Si6 0.423827 0.031528 0.916993
O O1 0.027619 0.126746 0.250000
O O2 0.112907 0.149772 0.482096
O O3 0.959624 0.106401 0.499849
O O4 0.074732 0.020162 0.406977
O O5 0.625055 0.803074 0.250000
O O6 0.731330 0.822099 0.041010
O O7 0.587008 0.886983 0.038440
O O8 0.596139 0.750000 0.000000
O O9 0.159905 0.336400 0.250000
O O10 0.207209 0.444497 0.395536
O O11 0.110003 0.589609 0.750000
O O12 0.195070 0.566845 0.982236
O O13 0.244860 0.555371 0.250000
O O14 0.342386 0.513075 0.040271
O O15 0.439364 0.025797 0.750000
O O16 0.500000 0.000000 0.000000
#
# Coordination Sequence:
#
# PCOD8235172 Si02
#       6
#     8   8   8   8   8   8
#     4   9  15  21  31  49  73 102 135 167 199 237
#     4   9  18  31  46  65  89 117 149 185 225 270
#     4   8  14  25  38  52  75 106 137 170 207 246
#     4   9  15  21  31  49  73 102 135 168 202 241
#     4   8  14  25  38  52  75 106 137 171 212 256
#     4   9  18  31  46  65  89 117 149 187 233 282
#
# _framework density 16.564530999999999
#
# number of rings (size 3 to 8) (size 9 to 14) (size 15 to 20)
#    0.000    3.333    0.000    3.000    0.000    6.000 
#    0.000    3.333    0.000    0.000    0.000    0.000 
#    0.000    1.333    0.000    6.667    0.000   13.333 
#
# Total GULP energy -594893.832694 kJ/mol
# GULP energy per Si atom -12393.621514 kJ/mol
# Density = 1.652683 g / cm^3
# Si number density = 16.564531 Si / 1000 Ang^3
#
#
#
# Elastic Constant Matrix: (Units=GPa)
#
#
# Indices 1 2 3 4 5 6 
#
# 1 124.2572 35.1773 74.7503 0.0000 0.0000 0.0000
# 2 35.1773 40.0028 33.0492 0.0000 0.0000 0.0000
# 3 74.7503 33.0492 113.7374 0.0000 0.0000 0.0000
# 4 0.0000 0.0000 0.0000 16.7429 0.0000 0.0000
# 5 0.0000 0.0000 0.0000 0.0000 32.7537 0.0000
# 6 0.0000 0.0000 0.0000 0.0000 0.0000 10.9612
#
#
#
# Elastic Compliance Matrix: (Units=1/GPa)
#
#
# Indices 1 2 3 4 5 6 
#
# 1 0.014456 -0.006399 -0.007642 0.000000 0.000000 0.000000
# 2 -0.006399 0.035728 -0.006176 0.000000 0.000000 0.000000
# 3 -0.007642 -0.006176 0.015609 0.000000 0.000000 0.000000
# 4 0.000000 0.000000 0.000000 0.059727 0.000000 0.000000
# 5 0.000000 0.000000 0.000000 0.000000 0.030531 0.000000
# 6 0.000000 0.000000 0.000000 0.000000 0.000000 0.091231
#
#
# Mechanical properties :
#
#
# Convention : Reuss Voigt Hill
#
# Bulk Modulus (GPa) = 39.43249 62.66119 51.04684
# Shear Modulus (GPa) = 16.88224 21.09293 18.98758
#
# Velocity S-wave (km/s) = 3.19592 3.57231 3.38935
# Velocity P-wave (km/s) = 6.12173 7.41120 6.79711
#
# Compressibility (1/GPa) = 0.02535980
#
# Stress axis : x y z
#
# Youngs Moduli (GPa) = 69.17312 27.98926 64.06593
#
# Poissons Ratio (x) = 0.17911 0.48956
# Poissons Ratio (y) = 0.44266 0.39566
# Poissons Ratio (z) = 0.52859 0.17286
#
# Static dielectric constant tensor:
#      x y z
#    x 3.129070 0.000000 0.000000 
#    y 0.000000 2.628990 0.000000 
#    z 0.000000 0.000000 3.338290 
# 
# 
# High freq. dielectric constant tensor:
#      x y z
#    x 1.627180 0.000000 0.000000 
#    y 0.000000 1.572220 0.000000 
#    z 0.000000 0.000000 1.646410 
# 
# From -- ./inp_files/6725.got.cif
#   From: 2010.03.12/outbox.cif.g09.slc.cpg/sg57_4_cif.got.tgz:6725.got - 2010.04.16 15:48:40.
