data_PCOD8235322
_publ_section_title
;
Structure prediction by ZEFSAII (Michael W. Deem and Ramdas Pophale) SiO2 
 PCOD8235322
Probable space group: P N N M
;
_chemical_formula_sum "Si O2"
_cell_formula_units_Z 64
_cell_length_a 25.656802
_cell_length_b 18.293529
_cell_length_c 9.541916
_cell_angle_alpha 90.000000
_cell_angle_beta 90.000000
_cell_angle_gamma 90.000000
_cell_volume 4478.531208
_symmetry_space_group_name_H-M "P N N M"
_symmetry_group_IT_number 58
_symmetry_cell_setting 'orthorhombic'
loop_
_space_group_symop_operation_xyz
x,y,z
-x,-y,z
1/2+x,1/2-y,1/2-z
1/2-x,1/2+y,1/2-z
-x,-y,-z
x,y,-z
1/2-x,1/2+y,1/2+z
1/2+x,1/2-y,1/2+z
loop_
_atom_site_type_symbol
_atom_site_label
_atom_site_fract_x
_atom_site_fract_y
_atom_site_fract_z
Si Si1 0.742402 0.415844 0.166444
Si Si2 0.753147 0.578814 0.837919
Si Si3 0.646813 0.664188 0.836853
Si Si4 0.556740 0.411575 0.340105
Si Si5 0.304560 0.219125 0.656453
Si Si6 0.640581 0.334494 0.165546
Si Si7 0.936314 0.079385 0.160670
Si Si8 0.802342 0.692934 0.345237
O O1 0.752921 0.496934 0.225203
O O2 0.790411 0.362766 0.210091
O O3 0.687296 0.385741 0.224531
O O4 0.738012 0.417084 0.000000
O O5 0.696345 0.612460 0.812438
O O6 0.798040 0.624903 0.760184
O O7 0.768304 0.579089 0.000000
O O8 0.655798 0.743097 0.764656
O O9 0.597379 0.626921 0.766417
O O10 0.635461 0.676943 0.000000
O O11 0.572882 0.396700 0.500000
O O12 0.587332 0.356097 0.240863
O O13 0.495800 0.396468 0.319070
O O14 0.570479 0.494644 0.299191
O O15 0.329428 0.217384 0.500000
O O16 0.251096 0.262997 0.650407
O O17 0.652684 0.249597 0.202134
O O18 0.633753 0.344844 0.000000
O O19 0.918628 0.092688 0.000000
O O20 0.814698 0.661957 0.500000
#
# Coordination Sequence:
#
# PCOD8235322 Si02
#       8
#     8   8   8   8   8   8   8   8
#     4   8  14  25  40  57  77 104 135 161 190 230
#     4   9  16  25  38  57  80 103 130 165 196 222
#     4  10  18  26  39  59  80 102 131 165 196 225
#     4   9  18  30  42  57  77 101 132 167 195 223
#     4   8  14  26  41  53  72 104 134 158 188 229
#     4   9  16  27  42  57  77 105 133 161 194 231
#     4   9  18  31  42  54  77 106 132 160 195 231
#     4   8  15  26  38  54  76 103 132 157 187 231
#
# _framework density 14.290399000000001
#
# number of rings (size 3 to 8) (size 9 to 14) (size 15 to 20)
#    0.000    3.250    0.000    3.375    0.000    3.000 
#    0.000    4.375    0.000    0.000    0.000    0.000 
#    0.000    1.000    0.000   11.250    0.000    5.625 
#
# Total GULP energy -793303.068233 kJ/mol
# GULP energy per Si atom -12395.360441 kJ/mol
# Density = 1.425787 g / cm^3
# Si number density = 14.290399 Si / 1000 Ang^3
#
#
#
# Elastic Constant Matrix: (Units=GPa)
#
#
# Indices 1 2 3 4 5 6 
#
# 1 53.9830 36.5004 40.1104 0.0000 0.0000 0.0000
# 2 36.5004 93.3466 46.6576 0.0000 0.0000 0.0000
# 3 40.1104 46.6576 68.4447 0.0000 0.0000 0.0000
# 4 0.0000 0.0000 0.0000 21.2026 0.0000 0.0000
# 5 0.0000 0.0000 0.0000 0.0000 22.6967 0.0000
# 6 0.0000 0.0000 0.0000 0.0000 0.0000 26.1100
#
#
#
# Elastic Compliance Matrix: (Units=1/GPa)
#
#
# Indices 1 2 3 4 5 6 
#
# 1 0.034347 -0.005111 -0.016644 0.000000 0.000000 0.000000
# 2 -0.005111 0.017010 -0.008600 0.000000 0.000000 0.000000
# 3 -0.016644 -0.008600 0.030227 0.000000 0.000000 0.000000
# 4 0.000000 0.000000 0.000000 0.047164 0.000000 0.000000
# 5 0.000000 0.000000 0.000000 0.000000 0.044059 0.000000
# 6 0.000000 0.000000 0.000000 0.000000 0.000000 0.038299
#
#
# Mechanical properties :
#
#
# Convention : Reuss Voigt Hill
#
# Bulk Modulus (GPa) = 47.90865 51.36788 49.63827
# Shear Modulus (GPa) = 17.93561 20.16892 19.05227
#
# Velocity S-wave (km/s) = 3.54656 3.76089 3.65529
# Velocity P-wave (km/s) = 7.09708 7.40829 7.25436
#
# Compressibility (1/GPa) = 0.02087306
#
# Stress axis : x y z
#
# Youngs Moduli (GPa) = 29.11453 58.78921 33.08331
#
# Poissons Ratio (x) = 0.30048 0.55064
# Poissons Ratio (y) = 0.14881 0.28452
# Poissons Ratio (z) = 0.48459 0.50559
#
# Static dielectric constant tensor:
#      x y z
#    x 2.529730 0.000000 0.000000 
#    y 0.000000 2.984620 0.000000 
#    z 0.000000 0.000000 2.766470 
# 
# 
# High freq. dielectric constant tensor:
#      x y z
#    x 1.510610 0.000000 0.000000 
#    y 0.000000 1.537010 0.000000 
#    z 0.000000 0.000000 1.541020 
# 
# From -- ./inp_files/8515.got.cif
#   From: 2010.06.25/outbox.cif.g09.slc.cpg/sg58_5_cif.got.tgz:8515.got - 2010.06.26 21:38:00.
