data_PCOD8235073
_publ_section_title
;
Structure prediction by ZEFSAII (Michael W. Deem and Ramdas Pophale) SiO2 
 PCOD8235073
Probable space group: P B C M
;
_chemical_formula_sum "Si O2"
_cell_formula_units_Z 32
_cell_length_a 5.068190
_cell_length_b 12.594203
_cell_length_c 21.455611
_cell_angle_alpha 90.000000
_cell_angle_beta 90.000000
_cell_angle_gamma 90.000000
_cell_volume 1369.507653
_symmetry_space_group_name_H-M "P B C M"
_symmetry_group_IT_number 57
_symmetry_cell_setting 'orthorhombic'
loop_
_space_group_symop_operation_xyz
x,y,z
-x,-y,1/2+z
x,1/2-y,-z
-x,1/2+y,1/2-z
-x,-y,-z
x,y,1/2-z
-x,1/2+y,z
x,1/2-y,1/2+z
loop_
_atom_site_type_symbol
_atom_site_label
_atom_site_fract_x
_atom_site_fract_y
_atom_site_fract_z
Si Si1 0.175310 0.492195 0.900790
Si Si2 0.808524 0.857760 0.018725
Si Si3 0.981526 0.702818 0.177578
Si Si4 0.482564 0.682650 0.873058
O O1 0.061492 0.414803 0.848624
O O2 0.400830 0.558490 0.864081
O O3 0.960454 0.572196 0.929966
O O4 0.287964 0.423896 0.958695
O O5 0.550314 0.810271 0.053396
O O6 0.971191 0.750000 0.000000
O O7 0.046221 0.695298 0.250000
O O8 0.733599 0.781901 0.168112
O O9 0.236947 0.743476 0.141732
#
# Coordination Sequence:
#
# PCOD8235073 Si02
#       4
#     8   8   8   8
#     4  11  25  47  78 115 148 201 244 310 381 453
#     4  11  23  46  78 114 155 184 245 311 387 444
#     4  12  29  50  74 106 152 202 255 309 362 446
#     4  12  25  50  73 110 148 192 249 309 374 435
#
# _framework density 23.366063
#
# number of rings (size 3 to 8) (size 9 to 14) (size 15 to 20)
#    0.000    0.500    5.000    1.500    3.500    7.000 
#    0.000    0.000    0.000    0.000    0.000    0.000 
#    0.000    0.000    0.000    0.000    0.000    0.000 
#
# Total GULP energy -396522.720094 kJ/mol
# GULP energy per Si atom -12391.335003 kJ/mol
# Density = 2.331288 g / cm^3
# Si number density = 23.366063 Si / 1000 Ang^3
#
#
#
# Elastic Constant Matrix: (Units=GPa)
#
#
# Indices 1 2 3 4 5 6 
#
# 1 122.7921 57.6510 43.1072 0.0000 0.0000 0.0000
# 2 57.6510 173.0853 85.7271 0.0000 0.0000 0.0000
# 3 43.1072 85.7271 97.2754 0.0000 0.0000 0.0000
# 4 0.0000 0.0000 0.0000 22.8808 0.0000 0.0000
# 5 0.0000 0.0000 0.0000 0.0000 22.6029 0.0000
# 6 0.0000 0.0000 0.0000 0.0000 0.0000 13.0534
#
#
#
# Elastic Compliance Matrix: (Units=1/GPa)
#
#
# Indices 1 2 3 4 5 6 
#
# 1 0.010027 -0.002021 -0.002662 0.000000 0.000000 0.000000
# 2 -0.002021 0.010660 -0.008499 0.000000 0.000000 0.000000
# 3 -0.002662 -0.008499 0.018950 0.000000 0.000000 0.000000
# 4 0.000000 0.000000 0.000000 0.043705 0.000000 0.000000
# 5 0.000000 0.000000 0.000000 0.000000 0.044242 0.000000
# 6 0.000000 0.000000 0.000000 0.000000 0.000000 0.076609
#
#
# Mechanical properties :
#
#
# Convention : Reuss Voigt Hill
#
# Bulk Modulus (GPa) = 75.34400 85.12484 80.23442
# Shear Modulus (GPa) = 21.27822 25.48523 23.38173
#
# Velocity S-wave (km/s) = 3.02097 3.30615 3.16677
# Velocity P-wave (km/s) = 6.66959 7.14732 6.91258
#
# Compressibility (1/GPa) = 0.01327246
#
# Stress axis : x y z
#
# Youngs Moduli (GPa) = 99.72592 93.80735 52.77118
#
# Poissons Ratio (x) = 0.18962 0.14049
# Poissons Ratio (y) = 0.20158 0.44849
# Poissons Ratio (z) = 0.26550 0.79725
#
# Static dielectric constant tensor:
#      x y z
#    x 4.336650 0.000000 0.000000 
#    y 0.000000 4.682180 0.000000 
#    z 0.000000 0.000000 4.241070 
# 
# 
# High freq. dielectric constant tensor:
#      x y z
#    x 1.914520 0.000000 0.000000 
#    y 0.000000 1.950360 0.000000 
#    z 0.000000 0.000000 1.915640 
# 
# From -- ./inp_files/23342.got.cif
#   From: 2010.03.12/outbox.cif.g09.slc.cpg/sg57_12_cif.got.tgz:23342.got - 2010.04.16 15:48:40.
