data_PCOD8235380
_publ_section_title
;
Structure prediction by ZEFSAII (Michael W. Deem and Ramdas Pophale) SiO2 
 PCOD8235380
Probable space group: P N N M
;
_chemical_formula_sum "Si O2"
_cell_formula_units_Z 56
_cell_length_a 24.335166
_cell_length_b 14.156039
_cell_length_c 9.808335
_cell_angle_alpha 90.000000
_cell_angle_beta 90.000000
_cell_angle_gamma 90.000000
_cell_volume 3378.868998
_symmetry_space_group_name_H-M "P N N M"
_symmetry_group_IT_number 58
_symmetry_cell_setting 'orthorhombic'
loop_
_space_group_symop_operation_xyz
x,y,z
-x,-y,z
1/2+x,1/2-y,1/2-z
1/2-x,1/2+y,1/2-z
-x,-y,-z
x,y,-z
1/2-x,1/2+y,1/2+z
1/2+x,1/2-y,1/2+z
loop_
_atom_site_type_symbol
_atom_site_label
_atom_site_fract_x
_atom_site_fract_y
_atom_site_fract_z
Si Si1 0.508398 0.607851 0.655935
Si Si2 0.600512 0.688470 0.152661
Si Si3 0.187007 0.658260 0.339858
Si Si4 0.887270 0.855757 0.845107
Si Si5 0.208484 0.278384 0.839008
Si Si6 0.840420 0.000721 0.649882
Si Si7 0.714257 0.009232 0.658083
O O1 0.500000 0.500000 0.708460
O O2 0.529239 0.604700 0.500000
O O3 0.551904 0.665420 0.744013
O O4 0.451773 0.667600 0.667914
O O5 0.630032 0.786914 0.187703
O O6 0.649299 0.612141 0.161476
O O7 0.575470 0.690868 0.000000
O O8 0.194371 0.634708 0.500000
O O9 0.239199 0.719028 0.284825
O O10 0.180395 0.562402 0.253054
O O11 0.848599 0.770940 0.791818
O O12 0.877528 0.950331 0.760891
O O13 0.871174 0.879458 0.000000
O O14 0.206458 0.385068 0.782186
O O15 0.213946 0.285956 0.000000
O O16 0.857862 0.964062 0.500000
O O17 0.777179 0.979578 0.675255
O O18 0.695269 0.001347 0.500000
#
# Coordination Sequence:
#
# PCOD8235380 Si02
#       7
#     8   8   8   8   8   8   8
#     4  10  20  32  48  74 103 128 165 212 249 289
#     4  10  20  33  50  72 101 137 168 196 243 303
#     4  10  19  33  52  74  99 131 168 202 243 299
#     4  10  19  32  50  71  98 135 166 195 244 297
#     4   9  17  31  51  71  97 131 163 196 242 296
#     4  10  18  28  46  73 102 128 159 198 236 290
#     4  10  19  32  49  73 102 130 161 201 244 289
#
# _framework density 16.573592999999999
#
# number of rings (size 3 to 8) (size 9 to 14) (size 15 to 20)
#    0.000    2.143    4.286    0.000    0.000    1.429 
#    0.000    1.429    0.000    0.857    0.000    6.000 
#    0.000    0.000    0.000    0.000    0.000    0.000 
#
# Total GULP energy -694255.076314 kJ/mol
# GULP energy per Si atom -12397.412077 kJ/mol
# Density = 1.653587 g / cm^3
# Si number density = 16.573593 Si / 1000 Ang^3
#
#
#
# Elastic Constant Matrix: (Units=GPa)
#
#
# Indices 1 2 3 4 5 6 
#
# 1 71.0419 26.5054 30.4127 0.0000 0.0000 0.0000
# 2 26.5054 84.2381 31.2692 0.0000 0.0000 0.0000
# 3 30.4127 31.2692 54.6466 0.0000 0.0000 0.0000
# 4 0.0000 0.0000 0.0000 26.0536 0.0000 0.0000
# 5 0.0000 0.0000 0.0000 0.0000 24.6546 0.0000
# 6 0.0000 0.0000 0.0000 0.0000 0.0000 25.8787
#
#
#
# Elastic Compliance Matrix: (Units=1/GPa)
#
#
# Indices 1 2 3 4 5 6 
#
# 1 0.018915 -0.002595 -0.009042 0.000000 0.000000 0.000000
# 2 -0.002595 0.015429 -0.007384 0.000000 0.000000 0.000000
# 3 -0.009042 -0.007384 0.027557 0.000000 0.000000 0.000000
# 4 0.000000 0.000000 0.000000 0.038382 0.000000 0.000000
# 5 0.000000 0.000000 0.000000 0.000000 0.040560 0.000000
# 6 0.000000 0.000000 0.000000 0.000000 0.000000 0.038642
#
#
# Mechanical properties :
#
#
# Convention : Reuss Voigt Hill
#
# Bulk Modulus (GPa) = 41.91440 42.92237 42.41838
# Shear Modulus (GPa) = 22.17485 23.43334 22.80409
#
# Velocity S-wave (km/s) = 3.66179 3.76426 3.71338
# Velocity P-wave (km/s) = 6.57442 6.69680 6.63589
#
# Compressibility (1/GPa) = 0.02385815
#
# Stress axis : x y z
#
# Youngs Moduli (GPa) = 52.86714 64.81441 36.28875
#
# Poissons Ratio (x) = 0.16821 0.32812
# Poissons Ratio (y) = 0.13721 0.26796
# Poissons Ratio (z) = 0.47802 0.47859
#
# Static dielectric constant tensor:
#      x y z
#    x 3.009120 0.000000 0.000000 
#    y 0.000000 3.065350 0.000000 
#    z 0.000000 0.000000 3.002390 
# 
# 
# High freq. dielectric constant tensor:
#      x y z
#    x 1.626410 0.000000 0.000000 
#    y 0.000000 1.624340 0.000000 
#    z 0.000000 0.000000 1.626810 
# 
# From -- ./inp_files/14724.got.cif
#   From: 2010.06.25/outbox.cif.g09.slc.cpg/sg58_8_cif.got.tgz:14724.got - 2010.06.26 21:38:00.
