data_PCOD8235860
_publ_section_title
;
Structure prediction by ZEFSAII (Michael W. Deem and Ramdas Pophale) SiO2 
 PCOD8235860
Probable space group: P N N M
;
_chemical_formula_sum "Si O2"
_cell_formula_units_Z 64
_cell_length_a 12.890454
_cell_length_b 29.602001
_cell_length_c 9.798935
_cell_angle_alpha 90.000000
_cell_angle_beta 90.000000
_cell_angle_gamma 90.000000
_cell_volume 3739.109289
_symmetry_space_group_name_H-M "P N N M"
_symmetry_group_IT_number 58
_symmetry_cell_setting 'orthorhombic'
loop_
_space_group_symop_operation_xyz
x,y,z
-x,-y,z
1/2+x,1/2-y,1/2-z
1/2-x,1/2+y,1/2-z
-x,-y,-z
x,y,-z
1/2-x,1/2+y,1/2+z
1/2+x,1/2-y,1/2+z
loop_
_atom_site_type_symbol
_atom_site_label
_atom_site_fract_x
_atom_site_fract_y
_atom_site_fract_z
Si Si1 0.393722 0.054376 0.161853
Si Si2 0.034499 0.247620 0.841541
Si Si3 0.666158 0.795202 0.350622
Si Si4 0.200751 0.288352 0.650461
Si Si5 0.261233 0.631486 0.661849
Si Si6 0.874849 0.546469 0.337478
Si Si7 0.492168 0.646434 0.339038
Si Si8 0.210277 0.882783 0.162193
O O1 0.310674 0.090707 0.217975
O O2 0.511880 0.065566 0.209869
O O3 0.361229 0.004789 0.216196
O O4 0.389202 0.054410 0.000000
O O5 0.132532 0.262537 0.757888
O O6 0.002005 0.198021 0.785326
O O7 0.954153 0.288438 0.814365
O O8 0.064600 0.243631 0.000000
O O9 0.681446 0.818669 0.500000
O O10 0.699137 0.743043 0.362912
O O11 0.724202 0.822839 0.234047
O O12 0.147826 0.293364 0.500000
O O13 0.233836 0.336842 0.707906
O O14 0.248779 0.638336 0.500000
O O15 0.382132 0.623032 0.701359
O O16 0.871642 0.547271 0.500000
O O17 0.779774 0.576185 0.276770
O O18 0.504001 0.647223 0.500000
O O19 0.591069 0.617735 0.280659
O O20 0.208120 0.886416 0.000000
#
# Coordination Sequence:
#
# PCOD8235860 Si02
#       8
#     8   8   8   8   8   8   8   8
#     4   8  15  27  42  66  94 117 146 190 239 277
#     4  10  19  32  45  61  93 130 153 185 239 276
#     4  10  20  32  45  65  96 128 157 189 227 277
#     4  10  19  30  46  68  90 117 162 198 214 263
#     4  10  19  30  48  70  93 121 157 196 230 271
#     4   8  14  26  43  63  93 122 144 184 240 285
#     4   9  16  28  43  61  89 124 154 183 227 275
#     4   9  16  27  44  65  90 124 156 183 229 284
#
# _framework density 17.116375999999999
#
# number of rings (size 3 to 8) (size 9 to 14) (size 15 to 20)
#    0.000    2.750    2.500    0.750    1.750    0.500 
#    0.000    0.625    0.000    4.500    0.000    2.625 
#    0.000    1.000    0.000    0.000    0.000    0.000 
#
# Total GULP energy -792841.438329 kJ/mol
# GULP energy per Si atom -12388.147474 kJ/mol
# Density = 1.707742 g / cm^3
# Si number density = 17.116376 Si / 1000 Ang^3
#
#
#
# Elastic Constant Matrix: (Units=GPa)
#
#
# Indices 1 2 3 4 5 6 
#
# 1 122.4109 60.3706 20.2625 0.0000 0.0000 0.0000
# 2 60.3706 90.2806 14.4278 0.0000 0.0000 0.0000
# 3 20.2625 14.4278 20.6694 0.0000 0.0000 0.0000
# 4 0.0000 0.0000 0.0000 13.2763 0.0000 0.0000
# 5 0.0000 0.0000 0.0000 0.0000 13.5531 0.0000
# 6 0.0000 0.0000 0.0000 0.0000 0.0000 31.3747
#
#
#
# Elastic Compliance Matrix: (Units=1/GPa)
#
#
# Indices 1 2 3 4 5 6 
#
# 1 0.013174 -0.007593 -0.007615 0.000000 0.000000 0.000000
# 2 -0.007593 0.016843 -0.004314 0.000000 0.000000 0.000000
# 3 -0.007615 -0.004314 0.058857 0.000000 0.000000 0.000000
# 4 0.000000 0.000000 0.000000 0.075322 0.000000 0.000000
# 5 0.000000 0.000000 0.000000 0.000000 0.073784 0.000000
# 6 0.000000 0.000000 0.000000 0.000000 0.000000 0.031873
#
#
# Mechanical properties :
#
#
# Convention : Reuss Voigt Hill
#
# Bulk Modulus (GPa) = 20.06769 47.05364 33.56067
# Shear Modulus (GPa) = 15.36067 20.86082 18.11074
#
# Velocity S-wave (km/s) = 2.99896 3.49487 3.25637
# Velocity P-wave (km/s) = 4.87251 6.62084 5.81278
#
# Compressibility (1/GPa) = 0.04983134
#
# Stress axis : x y z
#
# Youngs Moduli (GPa) = 75.90557 59.37111 16.99038
#
# Poissons Ratio (x) = 0.45079 0.12938
# Poissons Ratio (y) = 0.57633 0.07329
# Poissons Ratio (z) = 0.57802 0.25612
#
# Static dielectric constant tensor:
#      x y z
#    x 3.544930 0.000000 0.000000 
#    y 0.000000 3.303500 0.000000 
#    z 0.000000 0.000000 2.671560 
# 
# 
# High freq. dielectric constant tensor:
#      x y z
#    x 1.673220 0.000000 0.000000 
#    y 0.000000 1.649780 0.000000 
#    z 0.000000 0.000000 1.599720 
# 
# From -- ./inp_files/4815.got.cif
#   From: 2010.06.25/outbox.cif.g09.slc.cpg/sg58_3_cif.got.tgz:4815.got - 2010.06.26 21:38:00.
