data_PCOD8235756
_publ_section_title
;
Structure prediction by ZEFSAII (Michael W. Deem and Ramdas Pophale) SiO2 
 PCOD8235756
Probable space group: P N N M
;
_chemical_formula_sum "Si O2"
_cell_formula_units_Z 64
_cell_length_a 22.218943
_cell_length_b 16.681827
_cell_length_c 9.274169
_cell_angle_alpha 90.000000
_cell_angle_beta 90.000000
_cell_angle_gamma 90.000000
_cell_volume 3437.494512
_symmetry_space_group_name_H-M "P N N M"
_symmetry_group_IT_number 58
_symmetry_cell_setting 'orthorhombic'
loop_
_space_group_symop_operation_xyz
x,y,z
-x,-y,z
1/2+x,1/2-y,1/2-z
1/2-x,1/2+y,1/2-z
-x,-y,-z
x,y,-z
1/2-x,1/2+y,1/2+z
1/2+x,1/2-y,1/2+z
loop_
_atom_site_type_symbol
_atom_site_label
_atom_site_fract_x
_atom_site_fract_y
_atom_site_fract_z
Si Si1 0.856787 0.351075 0.328925
Si Si2 0.636398 0.141774 0.333096
Si Si3 0.505476 0.592464 0.670237
Si Si4 0.613757 0.675744 0.168183
Si Si5 0.233250 0.921681 0.336086
Si Si6 0.730283 0.414709 0.328457
Si Si7 0.931000 0.502850 0.329785
Si Si8 0.885181 0.820618 0.828863
O O1 0.856469 0.348445 0.500000
O O2 0.881785 0.266480 0.271059
O O3 0.789023 0.366780 0.273343
O O4 0.899772 0.421869 0.271862
O O5 0.618953 0.131574 0.500000
O O6 0.707372 0.130862 0.309103
O O7 0.599247 0.078833 0.241915
O O8 0.618130 0.229385 0.274480
O O9 0.500000 0.500000 0.715081
O O10 0.513319 0.602005 0.500000
O O11 0.563350 0.629080 0.745096
O O12 0.446436 0.638791 0.727196
O O13 0.677528 0.635205 0.198239
O O14 0.596884 0.674209 0.000000
O O15 0.231157 0.953576 0.500000
O O16 0.232110 0.995645 0.228998
O O17 0.729204 0.419960 0.500000
O O18 0.671531 0.369956 0.266567
O O19 0.923041 0.511543 0.500000
O O20 0.000000 0.500000 0.282843
O O21 0.881856 0.823235 0.000000
#
# Coordination Sequence:
#
# PCOD8235756 Si02
#       8
#     8   8   8   8   8   8   8   8
#     4   9  18  34  55  80 106 138 179 218 260 316
#     4  10  20  36  56  79 108 142 180 219 265 319
#     4  10  21  38  56  79 110 140 177 224 270 315
#     4  10  21  36  56  80 108 143 181 220 267 322
#     4  10  20  34  53  80 111 138 173 224 270 310
#     4  10  18  34  60  81 103 141 184 219 264 321
#     4  10  21  36  55  81 113 143 176 221 268 315
#     4   9  19  34  55  80 105 138 179 222 265 316
#
# _framework density 18.618210999999999
#
# number of rings (size 3 to 8) (size 9 to 14) (size 15 to 20)
#    0.000    2.250    1.250    1.500    1.750    5.000 
#    0.000    2.500    0.000    1.500    0.000    0.000 
#    0.000    0.000    0.000    0.000    0.000    0.000 
#
# Total GULP energy -793715.652524 kJ/mol
# GULP energy per Si atom -12401.807071 kJ/mol
# Density = 1.857584 g / cm^3
# Si number density = 18.618211 Si / 1000 Ang^3
#
#
#
# Elastic Constant Matrix: (Units=GPa)
#
#
# Indices 1 2 3 4 5 6 
#
# 1 167.8097 84.7541 38.6937 0.0000 0.0000 0.0000
# 2 84.7541 167.1982 35.2380 0.0000 0.0000 0.0000
# 3 38.6937 35.2380 25.0792 0.0000 0.0000 0.0000
# 4 0.0000 0.0000 0.0000 26.7994 0.0000 0.0000
# 5 0.0000 0.0000 0.0000 0.0000 2.1017 0.0000
# 6 0.0000 0.0000 0.0000 0.0000 0.0000 32.6192
#
#
#
# Elastic Compliance Matrix: (Units=1/GPa)
#
#
# Indices 1 2 3 4 5 6 
#
# 1 0.009974 -0.002575 -0.011769 0.000000 0.000000 0.000000
# 2 -0.002575 0.009162 -0.008900 0.000000 0.000000 0.000000
# 3 -0.011769 -0.008900 0.070538 0.000000 0.000000 0.000000
# 4 0.000000 0.000000 0.000000 0.037314 0.000000 0.000000
# 5 0.000000 0.000000 0.000000 0.000000 0.475802 0.000000
# 6 0.000000 0.000000 0.000000 0.000000 0.000000 0.030657
#
#
# Mechanical properties :
#
#
# Convention : Reuss Voigt Hill
#
# Bulk Modulus (GPa) = 23.15694 75.27320 49.21507
# Shear Modulus (GPa) = 7.20117 25.73080 16.46599
#
# Velocity S-wave (km/s) = 1.96881 3.72159 2.97712
# Velocity P-wave (km/s) = 4.19918 7.68014 6.18941
#
# Compressibility (1/GPa) = 0.04318359
#
# Stress axis : x y z
#
# Youngs Moduli (GPa) = 100.26489 109.14551 14.17682
#
# Poissons Ratio (x) = 0.28107 0.16685
# Poissons Ratio (y) = 0.25820 0.12618
# Poissons Ratio (z) = 1.18007 0.97142
#
# Static dielectric constant tensor:
#      x y z
#    x 3.687590 0.000000 0.000000 
#    y 0.000000 3.639500 0.000000 
#    z 0.000000 0.000000 3.105830 
# 
# 
# High freq. dielectric constant tensor:
#      x y z
#    x 1.739440 0.000000 0.000000 
#    y 0.000000 1.737810 0.000000 
#    z 0.000000 0.000000 1.685960 
# 
# From -- ./inp_files/16555.got.cif
#   From: 2010.06.25/outbox.cif.g09.slc.cpg/sg58_9_cif.got.tgz:16555.got - 2010.06.26 21:38:00.
