data_PCOD8235460
_publ_section_title
;
Structure prediction by ZEFSAII (Michael W. Deem and Ramdas Pophale) SiO2 
 PCOD8235460
Probable space group: P N N M
;
_chemical_formula_sum "Si O2"
_cell_formula_units_Z 56
_cell_length_a 18.151490
_cell_length_b 20.929381
_cell_length_c 8.594680
_cell_angle_alpha 90.000000
_cell_angle_beta 90.000000
_cell_angle_gamma 90.000000
_cell_volume 3265.114204
_symmetry_space_group_name_H-M "P N N M"
_symmetry_group_IT_number 58
_symmetry_cell_setting 'orthorhombic'
loop_
_space_group_symop_operation_xyz
x,y,z
-x,-y,z
1/2+x,1/2-y,1/2-z
1/2-x,1/2+y,1/2-z
-x,-y,-z
x,y,-z
1/2-x,1/2+y,1/2+z
1/2+x,1/2-y,1/2+z
loop_
_atom_site_type_symbol
_atom_site_label
_atom_site_fract_x
_atom_site_fract_y
_atom_site_fract_z
Si Si1 0.084998 0.249725 0.319466
Si Si2 0.657216 0.879425 0.318827
Si Si3 0.714613 0.683740 0.681426
Si Si4 0.344573 0.874622 0.680634
Si Si5 0.715324 0.310395 0.316488
Si Si6 0.570757 0.748938 0.679244
Si Si7 0.084999 0.497647 0.681009
O O1 0.101145 0.241120 0.500000
O O2 0.108171 0.321056 0.269416
O O3 0.128551 0.193135 0.226796
O O4 0.998750 0.240105 0.289105
O O5 0.657895 0.897453 0.500000
O O6 0.741386 0.870341 0.258430
O O7 0.610573 0.815817 0.284969
O O8 0.621109 0.934886 0.218745
O O9 0.727987 0.674173 0.500000
O O10 0.757459 0.626805 0.770889
O O11 0.753441 0.747842 0.735610
O O12 0.627416 0.690438 0.716995
O O13 0.352430 0.859957 0.500000
O O14 0.375502 0.943947 0.717782
O O15 0.727430 0.310175 0.500000
O O16 0.545746 0.746896 0.500000
O O17 0.094587 0.481550 0.500000
O O18 0.000000 0.500000 0.729816
#
# Coordination Sequence:
#
# PCOD8235460 Si02
#       7
#     8   8   8   8   8   8   8
#     4  11  20  30  47  71  99 127 158 198 240 283
#     4  10  20  34  50  69  96 128 162 198 238 283
#     4   9  17  31  49  68  93 123 157 197 239 284
#     4  11  21  33  49  68  95 129 163 198 237 283
#     4  10  18  30  48  68  93 124 159 196 237 285
#     4   9  18  31  48  71  98 126 155 193 241 287
#     4  11  23  36  50  70  96 128 166 201 233 275
#
# _framework density 17.151007
#
# number of rings (size 3 to 8) (size 9 to 14) (size 15 to 20)
#    0.000    1.857    0.000    8.571    0.000    6.857 
#    0.000    0.000    0.000    0.000    0.000    1.000 
#    0.000    8.000    0.000    0.000    0.000    0.000 
#
# Total GULP energy -694226.505898 kJ/mol
# GULP energy per Si atom -12396.901891 kJ/mol
# Density = 1.711197 g / cm^3
# Si number density = 17.151007 Si / 1000 Ang^3
#
#
#
# Elastic Constant Matrix: (Units=GPa)
#
#
# Indices 1 2 3 4 5 6 
#
# 1 103.4793 40.6194 30.4109 0.0000 0.0000 0.0000
# 2 40.6194 55.5244 11.4349 0.0000 0.0000 0.0000
# 3 30.4109 11.4349 86.4991 0.0000 0.0000 0.0000
# 4 0.0000 0.0000 0.0000 24.9374 0.0000 0.0000
# 5 0.0000 0.0000 0.0000 0.0000 29.9989 0.0000
# 6 0.0000 0.0000 0.0000 0.0000 0.0000 28.1088
#
#
#
# Elastic Compliance Matrix: (Units=1/GPa)
#
#
# Indices 1 2 3 4 5 6 
#
# 1 0.014708 -0.009967 -0.003854 0.000000 0.000000 0.000000
# 2 -0.009967 0.025267 0.000164 0.000000 0.000000 0.000000
# 3 -0.003854 0.000164 0.012894 0.000000 0.000000 0.000000
# 4 0.000000 0.000000 0.000000 0.040100 0.000000 0.000000
# 5 0.000000 0.000000 0.000000 0.000000 0.033335 0.000000
# 6 0.000000 0.000000 0.000000 0.000000 0.000000 0.035576
#
#
# Mechanical properties :
#
#
# Convention : Reuss Voigt Hill
#
# Bulk Modulus (GPa) = 39.12799 45.60367 42.36583
# Shear Modulus (GPa) = 25.28920 27.47819 26.38370
#
# Velocity S-wave (km/s) = 3.84409 4.00701 3.92639
# Velocity P-wave (km/s) = 6.52427 6.93220 6.73132
#
# Compressibility (1/GPa) = 0.02555715
#
# Stress axis : x y z
#
# Youngs Moduli (GPa) = 67.98791 39.57659 77.55543
#
# Poissons Ratio (x) = 0.39444 0.29887
# Poissons Ratio (y) = 0.67760 -0.01270
# Poissons Ratio (z) = 0.26200 -0.00648
#
# Static dielectric constant tensor:
#      x y z
#    x 3.687680 0.000000 0.000000 
#    y 0.000000 2.995870 0.000000 
#    z 0.000000 0.000000 3.261180 
# 
# 
# High freq. dielectric constant tensor:
#      x y z
#    x 1.667840 0.000000 0.000000 
#    y 0.000000 1.617290 0.000000 
#    z 0.000000 0.000000 1.679220 
# 
# From -- ./inp_files/8199.got.cif
#   From: 2010.06.25/outbox.cif.g09.slc.cpg/sg58_5_cif.got.tgz:8199.got - 2010.06.26 21:38:00.
