data_PCOD8235424
_publ_section_title
;
Structure prediction by ZEFSAII (Michael W. Deem and Ramdas Pophale) SiO2 
 PCOD8235424
Probable space group: P N N M
;
_chemical_formula_sum "Si O2"
_cell_formula_units_Z 64
_cell_length_a 14.168959
_cell_length_b 17.494871
_cell_length_c 14.328767
_cell_angle_alpha 90.000000
_cell_angle_beta 90.000000
_cell_angle_gamma 90.000000
_cell_volume 3551.873654
_symmetry_space_group_name_H-M "P N N M"
_symmetry_group_IT_number 58
_symmetry_cell_setting 'orthorhombic'
loop_
_space_group_symop_operation_xyz
x,y,z
-x,-y,z
1/2+x,1/2-y,1/2-z
1/2-x,1/2+y,1/2-z
-x,-y,-z
x,y,-z
1/2-x,1/2+y,1/2+z
1/2+x,1/2-y,1/2+z
loop_
_atom_site_type_symbol
_atom_site_label
_atom_site_fract_x
_atom_site_fract_y
_atom_site_fract_z
Si Si1 0.136221 0.840775 0.892435
Si Si2 0.114125 0.705286 0.391605
Si Si3 0.768852 0.800801 0.606372
Si Si4 0.474302 0.918661 0.108097
Si Si5 0.739779 0.383176 0.710564
Si Si6 0.278363 0.969159 0.893620
Si Si7 0.522714 0.337543 0.104252
Si Si8 0.026934 0.086324 0.210678
O O1 0.206042 0.772070 0.861858
O O2 0.183869 0.922800 0.874355
O O3 0.040107 0.847839 0.833532
O O4 0.109297 0.830030 0.000000
O O5 0.131962 0.690850 0.500000
O O6 0.213292 0.690840 0.339307
O O7 0.035859 0.648283 0.346080
O O8 0.071842 0.789156 0.375078
O O9 0.742732 0.824879 0.500000
O O10 0.748339 0.870952 0.677712
O O11 0.882152 0.784602 0.613109
O O12 0.362264 0.907515 0.121847
O O13 0.500000 0.000000 0.153869
O O14 0.502335 0.919007 0.000000
O O15 0.791709 0.460466 0.677480
O O16 0.631766 0.391832 0.676937
O O17 0.281612 0.001001 0.000000
O O18 0.522926 0.407290 0.176902
O O19 0.518457 0.372241 0.000000
O O20 0.000000 0.000000 0.180624
#
# Coordination Sequence:
#
# PCOD8235424 Si02
#       8
#     8   8   8   8   8   8   8   8
#     4  10  20  34  52  70  99 136 169 202 240 297
#     4  10  18  30  50  77 105 127 154 200 260 309
#     4   9  19  36  54  72  93 129 174 211 249 289
#     4   9  15  24  41  68 102 127 149 188 242 305
#     4  11  20  31  49  73 102 132 161 207 248 294
#     4  10  18  29  47  74 102 129 158 195 249 304
#     4   9  19  35  55  75  97 127 166 215 258 292
#     4  11  22  35  48  72 105 136 174 202 237 299
#
# _framework density 18.018659
#
# number of rings (size 3 to 8) (size 9 to 14) (size 15 to 20)
#    0.000    2.125    2.500    1.875    0.000    4.500 
#    0.000    0.000    0.000    0.000    0.000    1.750 
#    0.000    0.000    0.000    0.000    0.000    0.000 
#
# Total GULP energy -792964.648649 kJ/mol
# GULP energy per Si atom -12390.072635 kJ/mol
# Density = 1.797765 g / cm^3
# Si number density = 18.018659 Si / 1000 Ang^3
#
#
#
# Elastic Constant Matrix: (Units=GPa)
#
#
# Indices 1 2 3 4 5 6 
#
# 1 90.4981 24.6758 29.9458 0.0000 0.0000 0.0000
# 2 24.6758 46.7032 31.9429 0.0000 0.0000 0.0000
# 3 29.9458 31.9429 68.2763 0.0000 0.0000 0.0000
# 4 0.0000 0.0000 0.0000 25.7821 0.0000 0.0000
# 5 0.0000 0.0000 0.0000 0.0000 22.8130 0.0000
# 6 0.0000 0.0000 0.0000 0.0000 0.0000 19.4258
#
#
#
# Elastic Compliance Matrix: (Units=1/GPa)
#
#
# Indices 1 2 3 4 5 6 
#
# 1 0.013553 -0.004552 -0.003815 0.000000 0.000000 0.000000
# 2 -0.004552 0.033016 -0.013450 0.000000 0.000000 0.000000
# 3 -0.003815 -0.013450 0.022612 0.000000 0.000000 0.000000
# 4 0.000000 0.000000 0.000000 0.038787 0.000000 0.000000
# 5 0.000000 0.000000 0.000000 0.000000 0.043835 0.000000
# 6 0.000000 0.000000 0.000000 0.000000 0.000000 0.051478
#
#
# Mechanical properties :
#
#
# Convention : Reuss Voigt Hill
#
# Bulk Modulus (GPa) = 39.14194 42.06741 40.60467
# Shear Modulus (GPa) = 19.57479 21.53171 20.55325
#
# Velocity S-wave (km/s) = 3.29958 3.46058 3.38104
# Velocity P-wave (km/s) = 6.02382 6.27413 6.15025
#
# Compressibility (1/GPa) = 0.02554804
#
# Stress axis : x y z
#
# Youngs Moduli (GPa) = 73.78210 30.28834 44.22389
#
# Poissons Ratio (x) = 0.13786 0.16871
# Poissons Ratio (y) = 0.33583 0.59482
# Poissons Ratio (z) = 0.28148 0.40738
#
# Static dielectric constant tensor:
#      x y z
#    x 3.484760 0.000000 0.000000 
#    y 0.000000 3.082760 0.000000 
#    z 0.000000 0.000000 3.190300 
# 
# 
# High freq. dielectric constant tensor:
#      x y z
#    x 1.706730 0.000000 0.000000 
#    y 0.000000 1.673750 0.000000 
#    z 0.000000 0.000000 1.673630 
# 
# From -- ./inp_files/22438.got.cif
#   From: 2010.06.25/outbox.cif.g09.slc.cpg/sg58_12_cif.got.tgz:22438.got - 2010.06.26 21:38:00.
