data_PCOD8235744
_publ_section_title
;
Structure prediction by ZEFSAII (Michael W. Deem and Ramdas Pophale) SiO2 
 PCOD8235744
Probable space group: P N N M
;
_chemical_formula_sum "Si O2"
_cell_formula_units_Z 64
_cell_length_a 12.178660
_cell_length_b 31.053558
_cell_length_c 8.555352
_cell_angle_alpha 90.000000
_cell_angle_beta 90.000000
_cell_angle_gamma 90.000000
_cell_volume 3235.554773
_symmetry_space_group_name_H-M "P N N M"
_symmetry_group_IT_number 58
_symmetry_cell_setting 'orthorhombic'
loop_
_space_group_symop_operation_xyz
x,y,z
-x,-y,z
1/2+x,1/2-y,1/2-z
1/2-x,1/2+y,1/2-z
-x,-y,-z
x,y,-z
1/2-x,1/2+y,1/2+z
1/2+x,1/2-y,1/2+z
loop_
_atom_site_type_symbol
_atom_site_label
_atom_site_fract_x
_atom_site_fract_y
_atom_site_fract_z
Si Si1 0.229790 0.202403 0.314290
Si Si2 0.270771 0.454085 0.814382
Si Si3 0.114548 0.627151 0.186677
Si Si4 0.725290 0.701910 0.317977
Si Si5 0.632475 0.125785 0.684892
Si Si6 0.993864 0.173126 0.678237
Si Si7 0.997520 0.928116 0.322493
Si Si8 0.761798 0.950456 0.685426
O O1 0.233020 0.200507 0.500000
O O2 0.321379 0.169232 0.249197
O O3 0.251567 0.250345 0.252283
O O4 0.110585 0.188049 0.253964
O O5 0.192323 0.416742 0.744711
O O6 0.394624 0.449797 0.744322
O O7 0.223382 0.501166 0.769585
O O8 0.277194 0.448019 0.000000
O O9 0.174751 0.584093 0.251591
O O10 0.990791 0.628045 0.253702
O O11 0.113604 0.626923 0.000000
O O12 0.752286 0.698405 0.500000
O O13 0.801961 0.668622 0.227549
O O14 0.597807 0.693217 0.288861
O O15 0.627633 0.122169 0.500000
O O16 0.976399 0.188899 0.500000
O O17 0.985527 0.122371 0.687463
O O18 0.990604 0.944302 0.500000
O O19 0.883013 0.941810 0.240645
O O20 0.768706 0.944293 0.500000
#
# Coordination Sequence:
#
# PCOD8235744 Si02
#       8
#     8   8   8   8   8   8   8   8
#     4   9  19  34  51  74 104 135 168 209 256 306
#     4   9  16  25  41  72 106 133 165 206 253 304
#     4   9  17  30  48  72 103 138 169 206 259 308
#     4  11  23  36  52  77 106 135 173 215 255 299
#     4  10  20  34  52  74 104 139 174 211 253 303
#     4  10  18  34  58  77 100 134 170 208 255 304
#     4   9  14  24  44  71 103 132 160 200 254 306
#     4   9  15  24  42  72 107 134 160 206 262 306
#
# _framework density 19.780224
#
# number of rings (size 3 to 8) (size 9 to 14) (size 15 to 20)
#    0.000    2.500    2.500    0.750    1.750    2.000 
#    0.000    3.125    0.000    0.750    0.000    3.500 
#    0.000    0.000    0.000    0.000    0.000    0.000 
#
# Total GULP energy -793337.443590 kJ/mol
# GULP energy per Si atom -12395.897556 kJ/mol
# Density = 1.973520 g / cm^3
# Si number density = 19.780224 Si / 1000 Ang^3
#
#
#
# Elastic Constant Matrix: (Units=GPa)
#
#
# Indices 1 2 3 4 5 6 
#
# 1 100.1649 21.9391 3.4112 0.0000 0.0000 0.0000
# 2 21.9391 101.7165 4.0064 0.0000 0.0000 0.0000
# 3 3.4112 4.0064 5.5590 0.0000 0.0000 0.0000
# 4 0.0000 0.0000 0.0000 16.5154 0.0000 0.0000
# 5 0.0000 0.0000 0.0000 0.0000 9.7258 0.0000
# 6 0.0000 0.0000 0.0000 0.0000 0.0000 -24.9784
#
#
#
# Elastic Compliance Matrix: (Units=1/GPa)
#
#
# Indices 1 2 3 4 5 6 
#
# 1 0.010612 -0.002092 -0.005004 0.000000 0.000000 0.000000
# 2 -0.002092 0.010531 -0.006306 0.000000 0.000000 0.000000
# 3 -0.005004 -0.006306 0.187504 0.000000 0.000000 0.000000
# 4 0.000000 0.000000 0.000000 0.060550 0.000000 0.000000
# 5 0.000000 0.000000 0.000000 0.000000 0.102820 0.000000
# 6 0.000000 0.000000 0.000000 0.000000 0.000000 -0.040035
#
#
# Mechanical properties :
#
#
# Convention : Reuss Voigt Hill
#
# Bulk Modulus (GPa) = 5.49928 29.57265 17.53597
# Shear Modulus (GPa) = 11.92182 12.12481 12.02331
#
# Velocity S-wave (km/s) = 2.45769 2.47852 2.46813
# Velocity P-wave (km/s) = 3.29239 4.81392 4.12394
#
# Compressibility (1/GPa) = 0.18184209
#
# Stress axis : x y z
#
# Youngs Moduli (GPa) = 94.23173 94.95951 5.33323
#
# Poissons Ratio (x) = 0.19864 0.02669
# Poissons Ratio (y) = 0.19711 0.03363
# Poissons Ratio (z) = 0.47158 0.59881
#
# Static dielectric constant tensor:
#      x y z
#    x 3.930320 0.000000 0.000000 
#    y 0.000000 3.783450 0.000000 
#    z 0.000000 0.000000 2.846590 
# 
# 
# High freq. dielectric constant tensor:
#      x y z
#    x 1.783530 0.000000 0.000000 
#    y 0.000000 1.786580 0.000000 
#    z 0.000000 0.000000 1.689720 
# 
# From -- ./inp_files/4670.got.cif
#   From: 2010.06.25/outbox.cif.g09.slc.cpg/sg58_3_cif.got.tgz:4670.got - 2010.06.26 21:38:00.
