data_PCOD8235059
_publ_section_title
;
Structure prediction by ZEFSAII (Michael W. Deem and Ramdas Pophale) SiO2 
 PCOD8235059
Probable space group: P B C M
;
_chemical_formula_sum "Si O2"
_cell_formula_units_Z 40
_cell_length_a 12.389287
_cell_length_b 9.180683
_cell_length_c 16.796206
_cell_angle_alpha 90.000000
_cell_angle_beta 90.000000
_cell_angle_gamma 90.000000
_cell_volume 1910.436020
_symmetry_space_group_name_H-M "P B C M"
_symmetry_group_IT_number 57
_symmetry_cell_setting 'orthorhombic'
loop_
_space_group_symop_operation_xyz
x,y,z
-x,-y,1/2+z
x,1/2-y,-z
-x,1/2+y,1/2-z
-x,-y,-z
x,y,1/2-z
-x,1/2+y,z
x,1/2-y,1/2+z
loop_
_atom_site_type_symbol
_atom_site_label
_atom_site_fract_x
_atom_site_fract_y
_atom_site_fract_z
Si Si1 0.225061 0.529486 0.157607
Si Si2 0.205602 0.219368 0.091244
Si Si3 0.971305 0.129892 0.057742
Si Si4 0.583339 0.282244 0.907578
Si Si5 0.612563 0.535429 0.156952
O O1 0.234313 0.566956 0.250000
O O2 0.238600 0.357617 0.144295
O O3 0.109703 0.582939 0.126381
O O4 0.317889 0.612373 0.110943
O O5 0.269973 0.078923 0.123000
O O6 0.078466 0.189706 0.100700
O O7 0.236043 0.250000 0.000000
O O8 0.917447 0.250000 0.000000
O O9 0.000000 0.000000 0.000000
O O10 0.473477 0.363523 0.886772
O O11 0.591742 0.133986 0.858068
O O12 0.583429 0.250000 0.000000
O O13 0.605979 0.566201 0.250000
#
# Coordination Sequence:
#
# PCOD8235059 Si02
#       5
#     8   8   8   8   8
#     4  12  25  42  67 101 136 174 221 284 338 388
#     4  11  23  43  69  95 134 177 225 264 333 402
#     4  11  23  45  69  95 132 180 225 273 327 403
#     4  12  26  46  71  96 134 178 229 267 337 408
#     4  12  25  43  67 101 135 172 219 281 337 390
#
# _framework density 20.937628
#
# number of rings (size 3 to 8) (size 9 to 14) (size 15 to 20)
#    0.000    0.400    4.000    6.600    2.800    1.600 
#    0.000    0.000    0.000    0.000    0.000    0.000 
#    0.000    0.000    0.000    0.000    0.000    0.000 
#
# Total GULP energy -496279.416925 kJ/mol
# GULP energy per Si atom -12406.985423 kJ/mol
# Density = 2.088997 g / cm^3
# Si number density = 20.937628 Si / 1000 Ang^3
#
#
#
# Elastic Constant Matrix: (Units=GPa)
#
#
# Indices 1 2 3 4 5 6 
#
# 1 90.2474 17.8364 26.3640 0.0000 0.0000 0.0000
# 2 17.8364 91.9499 -7.5933 0.0000 0.0000 0.0000
# 3 26.3640 -7.5933 108.7516 0.0000 0.0000 0.0000
# 4 0.0000 0.0000 0.0000 42.0055 0.0000 0.0000
# 5 0.0000 0.0000 0.0000 0.0000 8.4423 0.0000
# 6 0.0000 0.0000 0.0000 0.0000 0.0000 32.7268
#
#
#
# Elastic Compliance Matrix: (Units=1/GPa)
#
#
# Indices 1 2 3 4 5 6 
#
# 1 0.012560 -0.002703 -0.003233 0.000000 0.000000 0.000000
# 2 -0.002703 0.011520 0.001460 0.000000 0.000000 0.000000
# 3 -0.003233 0.001460 0.010081 0.000000 0.000000 0.000000
# 4 0.000000 0.000000 0.000000 0.023806 0.000000 0.000000
# 5 0.000000 0.000000 0.000000 0.000000 0.118451 0.000000
# 6 0.000000 0.000000 0.000000 0.000000 0.000000 0.030556
#
#
# Mechanical properties :
#
#
# Convention : Reuss Voigt Hill
#
# Bulk Modulus (GPa) = 39.67173 40.46259 40.06716
# Shear Modulus (GPa) = 22.28852 33.59104 27.93978
#
# Velocity S-wave (km/s) = 3.26624 4.00976 3.65695
# Velocity P-wave (km/s) = 5.76308 6.38787 6.08350
#
# Compressibility (1/GPa) = 0.02520687
#
# Stress axis : x y z
#
# Youngs Moduli (GPa) = 79.62082 86.80237 99.19594
#
# Poissons Ratio (x) = 0.23465 0.32075
# Poissons Ratio (y) = 0.21524 -0.14480
# Poissons Ratio (z) = 0.25745 -0.12671
#
# Static dielectric constant tensor:
#      x y z
#    x 3.108060 0.000000 0.000000 
#    y 0.000000 4.115320 0.000000 
#    z 0.000000 0.000000 3.714510 
# 
# 
# High freq. dielectric constant tensor:
#      x y z
#    x 1.830540 0.000000 0.000000 
#    y 0.000000 1.840120 0.000000 
#    z 0.000000 0.000000 1.825750 
# 
# From -- ./inp_files/21570.got.cif
#   From: 2010.03.12/outbox.cif.g09.slc.cpg/sg57_11_cif.got.tgz:21570.got - 2010.04.16 15:48:40.
