data_PCOD8235506
_publ_section_title
;
Structure prediction by ZEFSAII (Michael W. Deem and Ramdas Pophale) SiO2 
 PCOD8235506
Probable space group: P N N M
;
_chemical_formula_sum "Si O2"
_cell_formula_units_Z 64
_cell_length_a 19.797440
_cell_length_b 19.205817
_cell_length_c 9.043600
_cell_angle_alpha 90.000000
_cell_angle_beta 90.000000
_cell_angle_gamma 90.000000
_cell_volume 3438.611941
_symmetry_space_group_name_H-M "P N N M"
_symmetry_group_IT_number 58
_symmetry_cell_setting 'orthorhombic'
loop_
_space_group_symop_operation_xyz
x,y,z
-x,-y,z
1/2+x,1/2-y,1/2-z
1/2-x,1/2+y,1/2-z
-x,-y,-z
x,y,-z
1/2-x,1/2+y,1/2+z
1/2+x,1/2-y,1/2+z
loop_
_atom_site_type_symbol
_atom_site_label
_atom_site_fract_x
_atom_site_fract_y
_atom_site_fract_z
Si Si1 0.395730 0.533770 0.329902
Si Si2 0.355915 0.752979 0.171826
Si Si3 0.988566 0.239788 0.671843
Si Si4 0.846008 0.460289 0.171284
Si Si5 0.215110 0.118528 0.674453
Si Si6 0.964859 0.105544 0.829686
Si Si7 0.981916 0.380025 0.173056
Si Si8 0.620955 0.095051 0.823624
O O1 0.378639 0.548835 0.500000
O O2 0.333962 0.558205 0.230992
O O3 0.463391 0.573700 0.282809
O O4 0.406394 0.451340 0.303606
O O5 0.432206 0.729081 0.204817
O O6 0.305612 0.694662 0.242625
O O7 0.345396 0.831872 0.232630
O O8 0.341171 0.755900 0.000000
O O9 0.974230 0.252708 0.500000
O O10 0.948737 0.171802 0.727471
O O11 0.961016 0.305150 0.763321
O O12 0.791109 0.402265 0.220584
O O13 0.920005 0.431319 0.203361
O O14 0.834549 0.530742 0.265380
O O15 0.836192 0.479199 0.000000
O O16 0.206497 0.121892 0.500000
O O17 0.966451 0.129133 0.000000
O O18 0.045987 0.411480 0.257315
O O19 0.998473 0.373997 0.000000
O O20 0.615299 0.093642 0.000000
#
# Coordination Sequence:
#
# PCOD8235506 Si02
#       8
#     8   8   8   8   8   8   8   8
#     4   9  18  31  48  74 105 138 178 219 261 310
#     4   8  16  31  51  76 100 128 166 210 257 306
#     4  10  18  30  51  80 107 133 175 221 264 313
#     4  10  22  37  54  77 106 142 178 213 264 327
#     4  10  19  35  55  74 103 140 179 217 258 317
#     4   9  17  30  48  73 108 142 174 216 264 314
#     4  10  20  35  54  77 106 139 176 220 273 324
#     4  10  20  35  57  82 106 132 174 226 270 312
#
# _framework density 18.612161
#
# number of rings (size 3 to 8) (size 9 to 14) (size 15 to 20)
#    0.000    2.500    1.250    3.000    0.000    3.500 
#    0.000    3.125    0.000    3.000    0.000    0.000 
#    0.000    0.000    0.000    0.000    0.000    0.000 
#
# Total GULP energy -793395.555068 kJ/mol
# GULP energy per Si atom -12396.805548 kJ/mol
# Density = 1.856980 g / cm^3
# Si number density = 18.612161 Si / 1000 Ang^3
#
#
#
# Elastic Constant Matrix: (Units=GPa)
#
#
# Indices 1 2 3 4 5 6 
#
# 1 62.8547 44.8455 28.6033 0.0000 0.0000 0.0000
# 2 44.8455 139.2661 48.2605 0.0000 0.0000 0.0000
# 3 28.6033 48.2605 55.1480 0.0000 0.0000 0.0000
# 4 0.0000 0.0000 0.0000 33.1609 0.0000 0.0000
# 5 0.0000 0.0000 0.0000 0.0000 20.3999 0.0000
# 6 0.0000 0.0000 0.0000 0.0000 0.0000 22.2223
#
#
#
# Elastic Compliance Matrix: (Units=1/GPa)
#
#
# Indices 1 2 3 4 5 6 
#
# 1 0.022741 -0.004644 -0.007731 0.000000 0.000000 0.000000
# 2 -0.004644 0.011254 -0.007440 0.000000 0.000000 0.000000
# 3 -0.007731 -0.007440 0.028654 0.000000 0.000000 0.000000
# 4 0.000000 0.000000 0.000000 0.030156 0.000000 0.000000
# 5 0.000000 0.000000 0.000000 0.000000 0.049020 0.000000
# 6 0.000000 0.000000 0.000000 0.000000 0.000000 0.045000
#
#
# Mechanical properties :
#
#
# Convention : Reuss Voigt Hill
#
# Bulk Modulus (GPa) = 43.44235 55.63193 49.53714
# Shear Modulus (GPa) = 21.35587 24.19391 22.77489
#
# Velocity S-wave (km/s) = 3.39103 3.60932 3.50188
# Velocity P-wave (km/s) = 6.22283 6.87929 6.55927
#
# Compressibility (1/GPa) = 0.02301901
#
# Stress axis : x y z
#
# Youngs Moduli (GPa) = 43.97301 88.85670 34.89957
#
# Poissons Ratio (x) = 0.41264 0.26981
# Poissons Ratio (y) = 0.20420 0.25965
# Poissons Ratio (z) = 0.33996 0.66109
#
# Static dielectric constant tensor:
#      x y z
#    x 3.185990 0.000000 0.000000 
#    y 0.000000 3.744820 0.000000 
#    z 0.000000 0.000000 3.270810 
# 
# 
# High freq. dielectric constant tensor:
#      x y z
#    x 1.687650 0.000000 0.000000 
#    y 0.000000 1.738320 0.000000 
#    z 0.000000 0.000000 1.710210 
# 
# From -- ./inp_files/9281.got.cif
#   From: 2010.06.25/outbox.cif.g09.slc.cpg/sg58_5_cif.got.tgz:9281.got - 2010.06.26 21:38:00.
