data_PCOD8235067
_publ_section_title
;
Structure prediction by ZEFSAII (Michael W. Deem and Ramdas Pophale) SiO2 
 PCOD8235067
Probable space group: P B C M
;
_chemical_formula_sum "Si O2"
_cell_formula_units_Z 36
_cell_length_a 10.834967
_cell_length_b 11.001496
_cell_length_c 13.802460
_cell_angle_alpha 90.000000
_cell_angle_beta 90.000000
_cell_angle_gamma 90.000000
_cell_volume 1645.264910
_symmetry_space_group_name_H-M "P B C M"
_symmetry_group_IT_number 57
_symmetry_cell_setting 'orthorhombic'
loop_
_space_group_symop_operation_xyz
x,y,z
-x,-y,1/2+z
x,1/2-y,-z
-x,1/2+y,1/2-z
-x,-y,-z
x,y,1/2-z
-x,1/2+y,z
x,1/2-y,1/2+z
loop_
_atom_site_type_symbol
_atom_site_label
_atom_site_fract_x
_atom_site_fract_y
_atom_site_fract_z
Si Si1 0.677808 0.561819 0.938401
Si Si2 0.785674 0.446705 0.750000
Si Si3 0.059842 0.042912 0.250000
Si Si4 0.579727 0.143565 0.568479
Si Si5 0.071839 0.377883 0.965200
Si Si6 0.251577 0.672224 0.750000
O O1 0.710389 0.482732 0.844757
O O2 0.567569 0.654261 0.908628
O O3 0.617948 0.483524 0.022955
O O4 0.796228 0.628864 0.981872
O O5 0.812057 0.303328 0.750000
O O6 0.920251 0.508300 0.750000
O O7 0.084535 0.121394 0.151924
O O8 0.143388 0.924726 0.250000
O O9 0.623820 0.250000 0.500000
O O10 0.657928 0.155889 0.662773
O O11 0.005973 0.250000 0.000000
O O12 0.000000 0.500000 0.000000
#
# Coordination Sequence:
#
# PCOD8235067 Si02
#       6
#     8   4   4   8   8   4
#     4  11  24  44  68 104 143 188 249 304 371 438
#     4  12  25  43  73 105 148 196 249 301 372 461
#     4  12  28  44  74 109 145 196 246 307 370 453
#     4  11  23  44  71 101 143 191 245 311 374 444
#     4  12  28  48  74 107 152 202 247 309 375 444
#     4  12  25  45  73 106 141 194 247 306 382 454
#
# _framework density 21.880973999999998
#
# number of rings (size 3 to 8) (size 9 to 14) (size 15 to 20)
#    0.000    0.444    6.667    1.333    3.111    1.778 
#    0.000    3.333    0.000    0.000    0.000    0.000 
#    0.000    0.000    0.000    0.000    0.000    0.000 
#
# Total GULP energy -446293.972748 kJ/mol
# GULP energy per Si atom -12397.054799 kJ/mol
# Density = 2.183117 g / cm^3
# Si number density = 21.880974 Si / 1000 Ang^3
#
#
#
# Elastic Constant Matrix: (Units=GPa)
#
#
# Indices 1 2 3 4 5 6 
#
# 1 134.2786 34.5495 52.7584 0.0000 0.0000 0.0000
# 2 34.5495 118.8936 56.9912 0.0000 0.0000 0.0000
# 3 52.7584 56.9912 168.3395 0.0000 0.0000 0.0000
# 4 0.0000 0.0000 0.0000 71.4262 0.0000 0.0000
# 5 0.0000 0.0000 0.0000 0.0000 37.8509 0.0000
# 6 0.0000 0.0000 0.0000 0.0000 0.0000 28.4860
#
#
#
# Elastic Compliance Matrix: (Units=1/GPa)
#
#
# Indices 1 2 3 4 5 6 
#
# 1 0.008700 -0.001458 -0.002233 0.000000 0.000000 0.000000
# 2 -0.001458 0.010284 -0.003025 0.000000 0.000000 0.000000
# 3 -0.002233 -0.003025 0.007664 0.000000 0.000000 0.000000
# 4 0.000000 0.000000 0.000000 0.014000 0.000000 0.000000
# 5 0.000000 0.000000 0.000000 0.000000 0.026419 0.000000
# 6 0.000000 0.000000 0.000000 0.000000 0.000000 0.035105
#
#
# Mechanical properties :
#
#
# Convention : Reuss Voigt Hill
#
# Bulk Modulus (GPa) = 75.65931 78.90107 77.28019
# Shear Modulus (GPa) = 41.66310 46.03346 43.84828
#
# Velocity S-wave (km/s) = 4.36831 4.59171 4.48140
# Velocity P-wave (km/s) = 7.75213 8.01556 7.88495
#
# Compressibility (1/GPa) = 0.01321714
#
# Stress axis : x y z
#
# Youngs Moduli (GPa) = 114.94772 97.23398 130.47483
#
# Poissons Ratio (x) = 0.14173 0.29135
# Poissons Ratio (y) = 0.16755 0.39468
# Poissons Ratio (z) = 0.25668 0.29413
#
# Static dielectric constant tensor:
#      x y z
#    x 4.297780 0.000000 0.000000 
#    y 0.000000 3.775110 0.000000 
#    z 0.000000 0.000000 4.102450 
# 
# 
# High freq. dielectric constant tensor:
#      x y z
#    x 1.874280 0.000000 0.000000 
#    y 0.000000 1.854450 0.000000 
#    z 0.000000 0.000000 1.876350 
# 
# From -- ./inp_files/12569.got.cif
#   From: 2010.03.12/outbox.cif.g09.slc.cpg/sg57_7_cif.got.tgz:12569.got - 2010.04.16 15:48:40.
