data_PCOD8235983
_publ_section_title
;
Structure prediction by ZEFSAII (Michael W. Deem and Ramdas Pophale) SiO2 
 PCOD8235983
Probable space group: P N N M
;
_chemical_formula_sum "Si O2"
_cell_formula_units_Z 64
_cell_length_a 20.559879
_cell_length_b 17.376070
_cell_length_c 9.693199
_cell_angle_alpha 90.000000
_cell_angle_beta 90.000000
_cell_angle_gamma 90.000000
_cell_volume 3462.894341
_symmetry_space_group_name_H-M "P N N M"
_symmetry_group_IT_number 58
_symmetry_cell_setting 'orthorhombic'
loop_
_space_group_symop_operation_xyz
x,y,z
-x,-y,z
1/2+x,1/2-y,1/2-z
1/2-x,1/2+y,1/2-z
-x,-y,-z
x,y,-z
1/2-x,1/2+y,1/2+z
1/2+x,1/2-y,1/2+z
loop_
_atom_site_type_symbol
_atom_site_label
_atom_site_fract_x
_atom_site_fract_y
_atom_site_fract_z
Si Si1 0.991224 0.235702 0.161346
Si Si2 0.288491 0.053289 0.655341
Si Si3 0.354534 0.326751 0.338136
Si Si4 0.679594 0.503081 0.340563
Si Si5 0.398876 0.015987 0.151125
Si Si6 0.764454 0.776288 0.656925
Si Si7 0.124653 0.160938 0.840672
Si Si8 0.478874 0.875124 0.150678
O O1 0.048670 0.174588 0.191559
O O2 0.921989 0.207206 0.224110
O O3 0.013067 0.314440 0.229350
O O4 0.983956 0.250940 0.000000
O O5 0.289512 0.021506 0.500000
O O6 0.268978 0.141442 0.659638
O O7 0.242716 0.998792 0.745618
O O8 0.358723 0.048375 0.721853
O O9 0.354884 0.311731 0.500000
O O10 0.356571 0.417482 0.303585
O O11 0.288844 0.284591 0.281541
O O12 0.701108 0.502398 0.500000
O O13 0.635016 0.429214 0.305484
O O14 0.414041 0.925662 0.176879
O O15 0.463024 0.065570 0.150424
O O16 0.364404 0.024644 0.000000
O O17 0.784753 0.754033 0.500000
O O18 0.829410 0.781829 0.750763
O O19 0.141426 0.178160 0.000000
O O20 0.474503 0.834269 0.000000
#
# Coordination Sequence:
#
# PCOD8235983 Si02
#       8
#     8   8   8   8   8   8   8   8
#     4  10  20  34  52  76 105 132 166 214 261 303
#     4  10  19  31  50  75 101 129 162 203 253 302
#     4   9  18  33  54  77  99 129 170 212 252 296
#     4   9  18  34  53  72  97 131 171 208 246 297
#     4   9  18  33  51  71  99 133 167 204 244 296
#     4   9  18  33  52  73  99 132 167 204 250 305
#     4   9  19  34  52  75 102 133 167 208 256 300
#     4   9  19  34  50  71  99 132 169 203 243 300
#
# _framework density 18.481649000000001
#
# number of rings (size 3 to 8) (size 9 to 14) (size 15 to 20)
#    0.000    2.750    0.000    1.875    0.000    4.500 
#    0.000    9.375    0.000    0.000    0.000    4.375 
#    0.000    0.000    0.000    0.000    0.000    0.000 
#
# Total GULP energy -793199.031447 kJ/mol
# GULP energy per Si atom -12393.734866 kJ/mol
# Density = 1.843958 g / cm^3
# Si number density = 18.481649 Si / 1000 Ang^3
#
#
#
# Elastic Constant Matrix: (Units=GPa)
#
#
# Indices 1 2 3 4 5 6 
#
# 1 58.2104 8.6039 27.4732 0.0000 0.0000 0.0000
# 2 8.6039 55.2613 26.5700 0.0000 0.0000 0.0000
# 3 27.4732 26.5700 68.4416 0.0000 0.0000 0.0000
# 4 0.0000 0.0000 0.0000 22.6957 0.0000 0.0000
# 5 0.0000 0.0000 0.0000 0.0000 18.8545 0.0000
# 6 0.0000 0.0000 0.0000 0.0000 0.0000 8.2591
#
#
#
# Elastic Compliance Matrix: (Units=1/GPa)
#
#
# Indices 1 2 3 4 5 6 
#
# 1 0.021237 0.000974 -0.008903 0.000000 0.000000 0.000000
# 2 0.000974 0.022293 -0.009046 0.000000 0.000000 0.000000
# 3 -0.008903 -0.009046 0.021696 0.000000 0.000000 0.000000
# 4 0.000000 0.000000 0.000000 0.044061 0.000000 0.000000
# 5 0.000000 0.000000 0.000000 0.000000 0.053038 0.000000
# 6 0.000000 0.000000 0.000000 0.000000 0.000000 0.121079
#
#
# Mechanical properties :
#
#
# Convention : Reuss Voigt Hill
#
# Bulk Modulus (GPa) = 31.97153 34.13417 33.05285
# Shear Modulus (GPa) = 15.25414 17.91291 16.58353
#
# Velocity S-wave (km/s) = 2.87604 3.11662 2.99874
# Velocity P-wave (km/s) = 5.32592 5.60896 5.46927
#
# Compressibility (1/GPa) = 0.03127783
#
# Stress axis : x y z
#
# Youngs Moduli (GPa) = 47.08776 44.85636 46.09066
#
# Poissons Ratio (x) = -0.04370 0.41034
# Poissons Ratio (y) = -0.04587 0.41692
# Poissons Ratio (z) = 0.41922 0.40575
#
# Static dielectric constant tensor:
#      x y z
#    x 3.479030 0.000000 0.000000 
#    y 0.000000 3.479690 0.000000 
#    z 0.000000 0.000000 3.550340 
# 
# 
# High freq. dielectric constant tensor:
#      x y z
#    x 1.714920 0.000000 0.000000 
#    y 0.000000 1.712670 0.000000 
#    z 0.000000 0.000000 1.701930 
# 
# From -- ./inp_files/9233.got.cif
#   From: 2010.06.25/outbox.cif.g09.slc.cpg/sg58_5_cif.got.tgz:9233.got - 2010.06.26 21:38:00.
