data_PCOD8235447
_publ_section_title
;
Structure prediction by ZEFSAII (Michael W. Deem and Ramdas Pophale) SiO2 
 PCOD8235447
Probable space group: P N N M
;
_chemical_formula_sum "Si O2"
_cell_formula_units_Z 48
_cell_length_a 9.670628
_cell_length_b 17.336687
_cell_length_c 12.935299
_cell_angle_alpha 90.000000
_cell_angle_beta 90.000000
_cell_angle_gamma 90.000000
_cell_volume 2168.688907
_symmetry_space_group_name_H-M "P N N M"
_symmetry_group_IT_number 58
_symmetry_cell_setting 'orthorhombic'
loop_
_space_group_symop_operation_xyz
x,y,z
-x,-y,z
1/2+x,1/2-y,1/2-z
1/2-x,1/2+y,1/2-z
-x,-y,-z
x,y,-z
1/2-x,1/2+y,1/2+z
1/2+x,1/2-y,1/2+z
loop_
_atom_site_type_symbol
_atom_site_label
_atom_site_fract_x
_atom_site_fract_y
_atom_site_fract_z
Si Si1 0.509543 0.844192 0.224772
Si Si2 0.716820 0.971865 0.199308
Si Si3 0.070075 0.141733 0.120153
Si Si4 0.704782 0.736905 0.883738
Si Si5 0.844400 0.582957 0.883171
Si Si6 0.260546 0.369626 0.614580
O O1 0.588317 0.916052 0.169222
O O2 0.598084 0.767202 0.204008
O O3 0.484906 0.873264 0.342920
O O4 0.354918 0.827465 0.182994
O O5 0.856445 0.921450 0.193413
O O6 0.695886 0.009484 0.313213
O O7 0.729443 0.039067 0.115180
O O8 0.144356 0.224347 0.134846
O O9 0.912464 0.149284 0.158846
O O10 0.074249 0.114784 0.000000
O O11 0.718820 0.644682 0.876470
O O12 0.652889 0.759578 0.000000
O O13 0.870075 0.554843 0.000000
O O14 0.247017 0.336862 0.500000
#
# Coordination Sequence:
#
# PCOD8235447 Si02
#       6
#     8   8   8   8   8   8
#     4  10  21  35  55  82 109 144 187 231 274 325
#     4  10  20  33  51  78 110 147 188 226 269 323
#     4   9  18  33  55  83 113 144 179 227 287 342
#     4   9  19  37  58  81 111 144 180 227 286 339
#     4  10  21  36  56  82 113 151 190 229 273 323
#     4  10  18  29  51  83 113 140 177 229 285 336
#
# _framework density 22.133189000000002
#
# number of rings (size 3 to 8) (size 9 to 14) (size 15 to 20)
#    0.000    2.333    0.000    3.500    0.000    8.000 
#    0.000    0.000    0.000   12.000    0.000    4.667 
#    0.000    0.000    0.000    0.000    0.000    0.000 
#
# Total GULP energy -594742.791805 kJ/mol
# GULP energy per Si atom -12390.474829 kJ/mol
# Density = 2.208281 g / cm^3
# Si number density = 22.133189 Si / 1000 Ang^3
#
#
#
# Elastic Constant Matrix: (Units=GPa)
#
#
# Indices 1 2 3 4 5 6 
#
# 1 141.8749 20.2387 38.9441 0.0000 0.0000 0.0000
# 2 20.2387 67.9920 14.2216 0.0000 0.0000 0.0000
# 3 38.9441 14.2216 94.0085 0.0000 0.0000 0.0000
# 4 0.0000 0.0000 0.0000 27.2319 0.0000 0.0000
# 5 0.0000 0.0000 0.0000 0.0000 26.1486 0.0000
# 6 0.0000 0.0000 0.0000 0.0000 0.0000 17.2208
#
#
#
# Elastic Compliance Matrix: (Units=1/GPa)
#
#
# Indices 1 2 3 4 5 6 
#
# 1 0.008156 -0.001777 -0.003110 0.000000 0.000000 0.000000
# 2 -0.001777 0.015575 -0.001620 0.000000 0.000000 0.000000
# 3 -0.003110 -0.001620 0.012171 0.000000 0.000000 0.000000
# 4 0.000000 0.000000 0.000000 0.036722 0.000000 0.000000
# 5 0.000000 0.000000 0.000000 0.000000 0.038243 0.000000
# 6 0.000000 0.000000 0.000000 0.000000 0.000000 0.058069
#
#
# Mechanical properties :
#
#
# Convention : Reuss Voigt Hill
#
# Bulk Modulus (GPa) = 43.69126 50.07603 46.88365
# Shear Modulus (GPa) = 26.37428 29.48500 27.92964
#
# Velocity S-wave (km/s) = 3.45573 3.65384 3.55616
# Velocity P-wave (km/s) = 5.97543 6.36197 6.17173
#
# Compressibility (1/GPa) = 0.02288787
#
# Stress axis : x y z
#
# Youngs Moduli (GPa) = 122.61549 64.20354 82.16494
#
# Poissons Ratio (x) = 0.11410 0.25551
# Poissons Ratio (y) = 0.21791 0.13311
# Poissons Ratio (z) = 0.38130 0.10401
#
# Static dielectric constant tensor:
#      x y z
#    x 4.051700 0.000000 0.000000 
#    y 0.000000 3.800620 0.000000 
#    z 0.000000 0.000000 3.966340 
# 
# 
# High freq. dielectric constant tensor:
#      x y z
#    x 1.864020 0.000000 0.000000 
#    y 0.000000 1.864990 0.000000 
#    z 0.000000 0.000000 1.858940 
# 
# From -- ./inp_files/19813.got.cif
#   From: 2010.06.25/outbox.cif.g09.slc.cpg/sg58_10_cif.got.tgz:19813.got - 2010.06.26 21:38:00.
