data_PCOD8235010
_publ_section_title
;
Structure prediction by ZEFSAII (Michael W. Deem and Ramdas Pophale) SiO2 
 PCOD8235010
Probable space group: P B C M
;
_chemical_formula_sum "Si O2"
_cell_formula_units_Z 40
_cell_length_a 23.743272
_cell_length_b 8.609615
_cell_length_c 8.937304
_cell_angle_alpha 90.000000
_cell_angle_beta 90.000000
_cell_angle_gamma 90.000000
_cell_volume 1826.967534
_symmetry_space_group_name_H-M "P B C M"
_symmetry_group_IT_number 57
_symmetry_cell_setting 'orthorhombic'
loop_
_space_group_symop_operation_xyz
x,y,z
-x,-y,1/2+z
x,1/2-y,-z
-x,1/2+y,1/2-z
-x,-y,-z
x,y,1/2-z
-x,1/2+y,z
x,1/2-y,1/2+z
loop_
_atom_site_type_symbol
_atom_site_label
_atom_site_fract_x
_atom_site_fract_y
_atom_site_fract_z
Si Si1 0.553689 0.419092 0.569333
Si Si2 0.876213 0.432737 0.975098
Si Si3 0.077324 0.422362 0.750000
Si Si4 0.041028 0.065070 0.750000
Si Si5 0.333572 0.581159 0.929808
Si Si6 0.234241 0.404692 0.417592
O O1 0.554065 0.250000 0.500000
O O2 0.500000 0.500000 0.500000
O O3 0.552178 0.419642 0.750000
O O4 0.610839 0.497643 0.505360
O O5 0.879721 0.540339 0.118914
O O6 0.875967 0.250000 0.000000
O O7 0.933152 0.476841 0.890194
O O8 0.818378 0.479164 0.894612
O O9 0.055564 0.246964 0.750000
O O10 0.025925 0.544930 0.750000
O O11 0.339644 0.591825 0.750000
O O12 0.323428 0.750000 0.000000
O O13 0.281263 0.476130 0.974723
O O14 0.213390 0.250000 0.500000
O O15 0.257990 0.372356 0.250000
#
# Coordination Sequence:
#
# PCOD8235010 Si02
#       6
#     8   8   4   4   8   8
#     4  11  22  40  65  97 136 180 230 285 345 409
#     4  12  26  44  69  98 133 175 225 276 341 412
#     4  12  26  42  74  94 140 172 225 274 343 404
#     4  12  24  48  64 104 130 180 219 282 333 412
#     4  11  23  42  68  98 134 178 228 280 341 407
#     4  12  26  45  68  97 134 173 224 282 347 413
#
# _framework density 21.894203999999998
#
# number of rings (size 3 to 8) (size 9 to 14) (size 15 to 20)
#    0.000    0.400    1.000   10.200    2.800    0.800 
#    0.000    4.000    0.000    0.000    0.000    0.000 
#    0.000    0.000    0.000    0.000    0.000    0.000 
#
# Total GULP energy -495871.137213 kJ/mol
# GULP energy per Si atom -12396.778430 kJ/mol
# Density = 2.184437 g / cm^3
# Si number density = 21.894204 Si / 1000 Ang^3
#
#
#
# Elastic Constant Matrix: (Units=GPa)
#
#
# Indices 1 2 3 4 5 6 
#
# 1 116.1452 30.5556 33.3815 0.0000 0.0000 0.0000
# 2 30.5556 122.3698 32.9981 0.0000 0.0000 0.0000
# 3 33.3815 32.9981 191.4513 0.0000 0.0000 0.0000
# 4 0.0000 0.0000 0.0000 32.4117 0.0000 0.0000
# 5 0.0000 0.0000 0.0000 0.0000 40.2923 0.0000
# 6 0.0000 0.0000 0.0000 0.0000 0.0000 37.1278
#
#
#
# Elastic Compliance Matrix: (Units=1/GPa)
#
#
# Indices 1 2 3 4 5 6 
#
# 1 0.009519 -0.002023 -0.001311 0.000000 0.000000 0.000000
# 2 -0.002023 0.009000 -0.001198 0.000000 0.000000 0.000000
# 3 -0.001311 -0.001198 0.005658 0.000000 0.000000 0.000000
# 4 0.000000 0.000000 0.000000 0.030853 0.000000 0.000000
# 5 0.000000 0.000000 0.000000 0.000000 0.024819 0.000000
# 6 0.000000 0.000000 0.000000 0.000000 0.000000 0.026934
#
#
# Mechanical properties :
#
#
# Convention : Reuss Voigt Hill
#
# Bulk Modulus (GPa) = 66.17215 69.31519 67.74367
# Shear Modulus (GPa) = 41.36109 44.16844 42.76476
#
# Velocity S-wave (km/s) = 4.35113 4.49637 4.42435
# Velocity P-wave (km/s) = 7.45200 7.66057 7.55701
#
# Compressibility (1/GPa) = 0.01511210
#
# Stress axis : x y z
#
# Youngs Moduli (GPa) = 105.05289 111.10660 176.72800
#
# Poissons Ratio (x) = 0.22481 0.23169
# Poissons Ratio (y) = 0.21256 0.21181
# Poissons Ratio (z) = 0.13772 0.13316
#
# Static dielectric constant tensor:
#      x y z
#    x -0.121600 0.000000 0.000000 
#    y 0.000000 3.844330 0.000000 
#    z 0.000000 0.000000 4.235180 
# 
# 
# High freq. dielectric constant tensor:
#      x y z
#    x 1.875250 0.000000 0.000000 
#    y 0.000000 1.857490 0.000000 
#    z 0.000000 0.000000 1.885190 
# 
# From -- ./inp_files/9652.got.cif
#   From: 2010.03.12/outbox.cif.g09.slc.cpg/sg57_5_cif.got.tgz:9652.got - 2010.04.16 15:48:40.
