data_PCOD8235795
_publ_section_title
;
Structure prediction by ZEFSAII (Michael W. Deem and Ramdas Pophale) SiO2 
 PCOD8235795
Probable space group: P N N M
;
_chemical_formula_sum "Si O2"
_cell_formula_units_Z 64
_cell_length_a 11.860145
_cell_length_b 30.783604
_cell_length_c 8.893308
_cell_angle_alpha 90.000000
_cell_angle_beta 90.000000
_cell_angle_gamma 90.000000
_cell_volume 3246.929027
_symmetry_space_group_name_H-M "P N N M"
_symmetry_group_IT_number 58
_symmetry_cell_setting 'orthorhombic'
loop_
_space_group_symop_operation_xyz
x,y,z
-x,-y,z
1/2+x,1/2-y,1/2-z
1/2-x,1/2+y,1/2-z
-x,-y,-z
x,y,-z
1/2-x,1/2+y,1/2+z
1/2+x,1/2-y,1/2+z
loop_
_atom_site_type_symbol
_atom_site_label
_atom_site_fract_x
_atom_site_fract_y
_atom_site_fract_z
Si Si1 0.224263 0.045891 0.322538
Si Si2 0.248483 0.460351 0.324103
Si Si3 0.776348 0.794708 0.177785
Si Si4 0.861684 0.369767 0.177815
Si Si5 0.101304 0.377813 0.324262
Si Si6 0.740395 0.703344 0.676307
Si Si7 0.497749 0.432208 0.677428
Si Si8 0.991839 0.164690 0.822059
O O1 0.221583 0.044239 0.500000
O O2 0.285211 0.089894 0.265877
O O3 0.098122 0.042218 0.257844
O O4 0.292675 0.003855 0.261481
O O5 0.233411 0.467891 0.500000
O O6 0.175473 0.419007 0.272289
O O7 0.378492 0.452885 0.280936
O O8 0.680928 0.824873 0.250556
O O9 0.769009 0.745528 0.229351
O O10 0.898737 0.809895 0.233702
O O11 0.763025 0.798032 0.000000
O O12 0.988687 0.378213 0.227833
O O13 0.857150 0.364965 0.000000
O O14 0.071824 0.380736 0.500000
O O15 0.169094 0.333904 0.288900
O O16 0.737199 0.714565 0.500000
O O17 0.619263 0.688277 0.738498
O O18 0.520135 0.433961 0.500000
O O19 0.498102 0.383615 0.743056
O O20 0.983224 0.161735 0.000000
#
# Coordination Sequence:
#
# PCOD8235795 Si02
#       8
#     8   8   8   8   8   8   8   8
#     4  11  24  39  57  86 122 157 195 243 299 352
#     4  10  21  38  63  91 118 153 197 242 294 354
#     4  11  23  39  62  92 120 155 201 242 288 352
#     4  11  25  43  60  82 118 162 202 245 300 350
#     4  10  22  41  64  89 118 154 201 249 293 351
#     4  10  21  40  63  90 124 156 189 242 302 351
#     4  10  18  36  63  89 117 153 195 239 290 350
#     4   9  18  36  63  88 117 154 191 238 292 346
#
# _framework density 19.710934000000002
#
# number of rings (size 3 to 8) (size 9 to 14) (size 15 to 20)
#    0.000    1.750    2.500    1.500    1.750    5.000 
#    0.000    3.750    0.000    0.000    0.000    0.000 
#    0.000    0.000    0.000    0.000    0.000    0.000 
#
# Total GULP energy -793757.548886 kJ/mol
# GULP energy per Si atom -12402.461701 kJ/mol
# Density = 1.966607 g / cm^3
# Si number density = 19.710934 Si / 1000 Ang^3
#
#
#
# Elastic Constant Matrix: (Units=GPa)
#
#
# Indices 1 2 3 4 5 6 
#
# 1 103.4379 38.8256 37.9311 0.0000 0.0000 0.0000
# 2 38.8256 130.8476 33.9384 0.0000 0.0000 0.0000
# 3 37.9311 33.9384 48.6335 0.0000 0.0000 0.0000
# 4 0.0000 0.0000 0.0000 36.0857 0.0000 0.0000
# 5 0.0000 0.0000 0.0000 0.0000 19.8636 0.0000
# 6 0.0000 0.0000 0.0000 0.0000 0.0000 21.8860
#
#
#
# Elastic Compliance Matrix: (Units=1/GPa)
#
#
# Indices 1 2 3 4 5 6 
#
# 1 0.013807 -0.001592 -0.009657 0.000000 0.000000 0.000000
# 2 -0.001592 0.009515 -0.005398 0.000000 0.000000 0.000000
# 3 -0.009657 -0.005398 0.031861 0.000000 0.000000 0.000000
# 4 0.000000 0.000000 0.000000 0.027712 0.000000 0.000000
# 5 0.000000 0.000000 0.000000 0.000000 0.050343 0.000000
# 6 0.000000 0.000000 0.000000 0.000000 0.000000 0.045691
#
#
# Mechanical properties :
#
#
# Convention : Reuss Voigt Hill
#
# Bulk Modulus (GPa) = 45.68798 56.03437 50.86117
# Shear Modulus (GPa) = 22.77693 27.04867 24.91280
#
# Velocity S-wave (km/s) = 3.40302 3.70843 3.55900
# Velocity P-wave (km/s) = 6.21853 6.84298 6.53821
#
# Compressibility (1/GPa) = 0.02188759
#
# Stress axis : x y z
#
# Youngs Moduli (GPa) = 72.42953 105.09683 31.38605
#
# Poissons Ratio (x) = 0.16730 0.30311
# Poissons Ratio (y) = 0.11530 0.16944
# Poissons Ratio (z) = 0.69948 0.56736
#
# Static dielectric constant tensor:
#      x y z
#    x 3.666430 0.000000 0.000000 
#    y 0.000000 3.789080 0.000000 
#    z 0.000000 0.000000 3.313840 
# 
# 
# High freq. dielectric constant tensor:
#      x y z
#    x 1.772050 0.000000 0.000000 
#    y 0.000000 1.788010 0.000000 
#    z 0.000000 0.000000 1.747590 
# 
# From -- ./inp_files/4676.got.cif
#   From: 2010.06.25/outbox.cif.g09.slc.cpg/sg58_3_cif.got.tgz:4676.got - 2010.06.26 21:38:00.
