data_PCOD8235487
_publ_section_title
;
Structure prediction by ZEFSAII (Michael W. Deem and Ramdas Pophale) SiO2 
 PCOD8235487
Probable space group: P N N M
;
_chemical_formula_sum "Si O2"
_cell_formula_units_Z 40
_cell_length_a 9.402735
_cell_length_b 11.068335
_cell_length_c 20.829232
_cell_angle_alpha 90.000000
_cell_angle_beta 90.000000
_cell_angle_gamma 90.000000
_cell_volume 2167.752765
_symmetry_space_group_name_H-M "P N N M"
_symmetry_group_IT_number 58
_symmetry_cell_setting 'orthorhombic'
loop_
_space_group_symop_operation_xyz
x,y,z
-x,-y,z
1/2+x,1/2-y,1/2-z
1/2-x,1/2+y,1/2-z
-x,-y,-z
x,y,-z
1/2-x,1/2+y,1/2+z
1/2+x,1/2-y,1/2+z
loop_
_atom_site_type_symbol
_atom_site_label
_atom_site_fract_x
_atom_site_fract_y
_atom_site_fract_z
Si Si1 0.104559 0.394544 0.807366
Si Si2 0.163098 0.460573 0.428928
Si Si3 0.437462 0.783713 0.170190
Si Si4 0.148751 0.051177 0.731880
Si Si5 0.751107 0.823920 0.855919
O O1 0.045057 0.347347 0.739592
O O2 0.263789 0.442655 0.799011
O O3 0.127544 0.282116 0.857729
O O4 0.000000 0.500000 0.834424
O O5 0.206455 0.414510 0.500000
O O6 0.174496 0.355291 0.375492
O O7 0.266938 0.574015 0.411321
O O8 0.000000 0.500000 0.427487
O O9 0.374372 0.650316 0.176598
O O10 0.592031 0.771366 0.138089
O O11 0.239895 0.108568 0.788308
O O12 0.000000 0.000000 0.758554
#
# Coordination Sequence:
#
# PCOD8235487 Si02
#       5
#     8   8   8   8   8
#     4  11  19  32  49  76 108 135 165 209 263 317
#     4   9  17  32  53  75 100 134 178 218 254 299
#     4  10  18  30  50  76 107 132 168 213 260 308
#     4  11  20  30  48  77 106 137 162 204 267 316
#     4  10  19  31  50  75 104 135 169 213 259 310
#
# _framework density 18.452287999999999
#
# number of rings (size 3 to 8) (size 9 to 14) (size 15 to 20)
#    0.000    1.800    6.000    0.600    0.000    0.000 
#    0.000    0.000    0.000    3.000    0.000    0.000 
#    0.000    0.000    0.000    0.000    0.000    0.000 
#
# Total GULP energy -495665.448434 kJ/mol
# GULP energy per Si atom -12391.636211 kJ/mol
# Density = 1.841029 g / cm^3
# Si number density = 18.452288 Si / 1000 Ang^3
#
#
#
# Elastic Constant Matrix: (Units=GPa)
#
#
# Indices 1 2 3 4 5 6 
#
# 1 53.9616 11.8437 1.8053 0.0000 0.0000 0.0000
# 2 11.8437 75.3971 20.8957 0.0000 0.0000 0.0000
# 3 1.8053 20.8957 59.3550 0.0000 0.0000 0.0000
# 4 0.0000 0.0000 0.0000 14.7611 0.0000 0.0000
# 5 0.0000 0.0000 0.0000 0.0000 10.8990 0.0000
# 6 0.0000 0.0000 0.0000 0.0000 0.0000 37.7389
#
#
#
# Elastic Compliance Matrix: (Units=1/GPa)
#
#
# Indices 1 2 3 4 5 6 
#
# 1 0.019208 -0.003164 0.000530 0.000000 0.000000 0.000000
# 2 -0.003164 0.015218 -0.005261 0.000000 0.000000 0.000000
# 3 0.000530 -0.005261 0.018684 0.000000 0.000000 0.000000
# 4 0.000000 0.000000 0.000000 0.067746 0.000000 0.000000
# 5 0.000000 0.000000 0.000000 0.000000 0.091752 0.000000
# 6 0.000000 0.000000 0.000000 0.000000 0.000000 0.026498
#
#
# Mechanical properties :
#
#
# Convention : Reuss Voigt Hill
#
# Bulk Modulus (GPa) = 26.79591 28.64478 27.72034
# Shear Modulus (GPa) = 18.70299 22.95773 20.83036
#
# Velocity S-wave (km/s) = 3.18714 3.53110 3.36352
# Velocity P-wave (km/s) = 5.30067 5.67295 5.48996
#
# Compressibility (1/GPa) = 0.03731913
#
# Stress axis : x y z
#
# Youngs Moduli (GPa) = 52.06041 65.71044 53.52206
#
# Poissons Ratio (x) = 0.20792 -0.02835
# Poissons Ratio (y) = 0.16473 0.28160
# Poissons Ratio (z) = -0.02758 0.34572
#
# Static dielectric constant tensor:
#      x y z
#    x 3.209540 0.000000 0.000000 
#    y 0.000000 3.654820 0.000000 
#    z 0.000000 0.000000 3.163660 
# 
# 
# High freq. dielectric constant tensor:
#      x y z
#    x 1.701650 0.000000 0.000000 
#    y 0.000000 1.728150 0.000000 
#    z 0.000000 0.000000 1.656130 
# 
# From -- ./inp_files/24943.got.cif
#   From: 2010.06.25/outbox.cif.g09.slc.cpg/sg58_13_cif.got.tgz:24943.got - 2010.06.26 21:38:00.
