data_PCOD8235871
_publ_section_title
;
Structure prediction by ZEFSAII (Michael W. Deem and Ramdas Pophale) SiO2 
 PCOD8235871
Probable space group: P N N M
;
_chemical_formula_sum "Si O2"
_cell_formula_units_Z 56
_cell_length_a 15.273150
_cell_length_b 20.835867
_cell_length_c 8.961749
_cell_angle_alpha 90.000000
_cell_angle_beta 90.000000
_cell_angle_gamma 90.000000
_cell_volume 2851.891309
_symmetry_space_group_name_H-M "P N N M"
_symmetry_group_IT_number 58
_symmetry_cell_setting 'orthorhombic'
loop_
_space_group_symop_operation_xyz
x,y,z
-x,-y,z
1/2+x,1/2-y,1/2-z
1/2-x,1/2+y,1/2-z
-x,-y,-z
x,y,-z
1/2-x,1/2+y,1/2+z
1/2+x,1/2-y,1/2+z
loop_
_atom_site_type_symbol
_atom_site_label
_atom_site_fract_x
_atom_site_fract_y
_atom_site_fract_z
Si Si1 0.485197 0.729950 0.834950
Si Si2 0.752318 0.103151 0.821979
Si Si3 0.430131 0.055723 0.333416
Si Si4 0.560844 0.129293 0.163265
Si Si5 0.184193 0.166097 0.677507
Si Si6 0.258350 0.525010 0.824132
Si Si7 0.681193 0.733366 0.820753
O O1 0.429060 0.794803 0.841700
O O2 0.413576 0.682610 0.758807
O O3 0.580478 0.739415 0.759707
O O4 0.505331 0.703496 0.000000
O O5 0.650357 0.099893 0.771843
O O6 0.791342 0.163826 0.737365
O O7 0.797465 0.036984 0.763466
O O8 0.763602 0.110856 0.000000
O O9 0.408215 0.077325 0.500000
O O10 0.473346 0.116611 0.256174
O O11 0.339721 0.034544 0.259349
O O12 0.500000 0.000000 0.322398
O O13 0.545178 0.099809 0.000000
O O14 0.190737 0.178643 0.500000
O O15 0.192015 0.090692 0.715309
O O16 0.260139 0.208827 0.754254
O O17 0.260866 0.509639 0.000000
O O18 0.688036 0.737450 0.000000
#
# Coordination Sequence:
#
# PCOD8235871 Si02
#       7
#     8   8   8   8   8   8   8
#     4   9  19  37  58  82 111 145 190 238 284 343
#     4  11  22  37  58  81 114 154 191 235 286 344
#     4  10  19  30  46  75 114 142 172 226 283 336
#     4  10  19  33  54  77 105 146 187 225 276 343
#     4  10  20  39  62  84 117 155 192 236 291 348
#     4  10  21  36  56  82 115 154 192 236 288 345
#     4  11  22  37  61  88 115 148 193 244 288 340
#
# _framework density 19.636092999999999
#
# number of rings (size 3 to 8) (size 9 to 14) (size 15 to 20)
#    0.000    1.857    2.857    1.714    0.000    2.000 
#    0.000    2.857    0.000    4.286    0.000    0.000 
#    0.000    0.000    0.000    0.000    0.000    0.000 
#
# Total GULP energy -693809.250889 kJ/mol
# GULP energy per Si atom -12389.450909 kJ/mol
# Density = 1.959140 g / cm^3
# Si number density = 19.636093 Si / 1000 Ang^3
#
#
#
# Elastic Constant Matrix: (Units=GPa)
#
#
# Indices 1 2 3 4 5 6 
#
# 1 69.4663 20.1998 17.7212 0.0000 0.0000 0.0000
# 2 20.1998 110.9341 31.6662 0.0000 0.0000 0.0000
# 3 17.7212 31.6662 49.2201 0.0000 0.0000 0.0000
# 4 0.0000 0.0000 0.0000 30.8957 0.0000 0.0000
# 5 0.0000 0.0000 0.0000 0.0000 18.0703 0.0000
# 6 0.0000 0.0000 0.0000 0.0000 0.0000 28.4895
#
#
#
# Elastic Compliance Matrix: (Units=1/GPa)
#
#
# Indices 1 2 3 4 5 6 
#
# 1 0.016069 -0.001561 -0.004781 0.000000 0.000000 0.000000
# 2 -0.001561 0.011194 -0.006640 0.000000 0.000000 0.000000
# 3 -0.004781 -0.006640 0.026310 0.000000 0.000000 0.000000
# 4 0.000000 0.000000 0.000000 0.032367 0.000000 0.000000
# 5 0.000000 0.000000 0.000000 0.000000 0.055339 0.000000
# 6 0.000000 0.000000 0.000000 0.000000 0.000000 0.035101
#
#
# Mechanical properties :
#
#
# Convention : Reuss Voigt Hill
#
# Bulk Modulus (GPa) = 36.21989 40.97719 38.59854
# Shear Modulus (GPa) = 23.63541 26.15999 24.89770
#
# Velocity S-wave (km/s) = 3.47316 3.65395 3.56470
# Velocity P-wave (km/s) = 5.87958 6.22217 6.05330
#
# Compressibility (1/GPa) = 0.02760914
#
# Stress axis : x y z
#
# Youngs Moduli (GPa) = 62.23103 89.33420 38.00842
#
# Poissons Ratio (x) = 0.13947 0.18172
# Poissons Ratio (y) = 0.09716 0.25236
# Poissons Ratio (z) = 0.29753 0.59314
#
# Static dielectric constant tensor:
#      x y z
#    x 3.717270 0.000000 0.000000 
#    y 0.000000 3.616760 0.000000 
#    z 0.000000 0.000000 3.464360 
# 
# 
# High freq. dielectric constant tensor:
#      x y z
#    x 1.758270 0.000000 0.000000 
#    y 0.000000 1.772030 0.000000 
#    z 0.000000 0.000000 1.741820 
# 
# From -- ./inp_files/6358.got.cif
#   From: 2010.06.25/outbox.cif.g09.slc.cpg/sg58_4_cif.got.tgz:6358.got - 2010.06.26 21:38:00.
