data_PCOD8235524
_publ_section_title
;
Structure prediction by ZEFSAII (Michael W. Deem and Ramdas Pophale) SiO2 
 PCOD8235524
Probable space group: P N N M
;
_chemical_formula_sum "Si O2"
_cell_formula_units_Z 64
_cell_length_a 18.818199
_cell_length_b 23.411507
_cell_length_c 8.874633
_cell_angle_alpha 90.000000
_cell_angle_beta 90.000000
_cell_angle_gamma 90.000000
_cell_volume 3909.829592
_symmetry_space_group_name_H-M "P N N M"
_symmetry_group_IT_number 58
_symmetry_cell_setting 'orthorhombic'
loop_
_space_group_symop_operation_xyz
x,y,z
-x,-y,z
1/2+x,1/2-y,1/2-z
1/2-x,1/2+y,1/2-z
-x,-y,-z
x,y,-z
1/2-x,1/2+y,1/2+z
1/2+x,1/2-y,1/2+z
loop_
_atom_site_type_symbol
_atom_site_label
_atom_site_fract_x
_atom_site_fract_y
_atom_site_fract_z
Si Si1 0.858845 0.560862 0.177828
Si Si2 0.640590 0.727107 0.677747
Si Si3 0.281644 0.168253 0.824384
Si Si4 0.641853 0.268690 0.672031
Si Si5 0.853169 0.433257 0.824881
Si Si6 0.502732 0.124917 0.324607
Si Si7 0.499857 0.752465 0.176991
Si Si8 0.261313 0.838152 0.325459
O O1 0.847018 0.497331 0.241744
O O2 0.791115 0.599855 0.221470
O O3 0.931337 0.588540 0.240981
O O4 0.867968 0.556697 0.000000
O O5 0.634756 0.729027 0.500000
O O6 0.669040 0.788064 0.733842
O O7 0.563056 0.716178 0.747216
O O8 0.692034 0.675490 0.727059
O O9 0.198836 0.181567 0.793671
O O10 0.297419 0.104568 0.768551
O O11 0.299608 0.175605 0.000000
O O12 0.615791 0.271072 0.500000
O O13 0.574361 0.277363 0.779002
O O14 0.676786 0.207416 0.706956
O O15 0.933044 0.412504 0.798567
O O16 0.832071 0.430322 0.000000
O O17 0.513630 0.140713 0.500000
O O18 0.496985 0.182724 0.232201
O O19 0.509735 0.750564 0.000000
O O20 0.239026 0.835298 0.500000
#
# Coordination Sequence:
#
# PCOD8235524 Si02
#       8
#     8   8   8   8   8   8   8   8
#     4   9  17  31  50  72  99 135 174 204 238 284
#     4  11  21  33  50  70  96 128 165 204 247 299
#     4  10  20  34  50  70  98 130 163 205 250 290
#     4   9  18  33  51  69  94 129 164 198 246 298
#     4  10  19  30  50  74  98 135 176 206 233 283
#     4  10  18  31  47  68 100 137 174 203 232 278
#     4  12  22  31  48  74 101 128 162 203 251 296
#     4   9  17  32  51  71  98 129 164 205 245 287
#
# _framework density 16.368998999999999
#
# number of rings (size 3 to 8) (size 9 to 14) (size 15 to 20)
#    0.000    2.000    2.500    3.750    0.000    4.000 
#    0.000    1.250    0.000    1.500    0.000    0.875 
#    0.000    7.000    0.000    0.000    0.000    0.000 
#
# Total GULP energy -793698.996726 kJ/mol
# GULP energy per Si atom -12401.546824 kJ/mol
# Density = 1.633174 g / cm^3
# Si number density = 16.368999 Si / 1000 Ang^3
#
#
#
# Elastic Constant Matrix: (Units=GPa)
#
#
# Indices 1 2 3 4 5 6 
#
# 1 109.2764 50.0722 57.0797 0.0000 0.0000 0.0000
# 2 50.0722 81.7801 31.5872 0.0000 0.0000 0.0000
# 3 57.0797 31.5872 94.7468 0.0000 0.0000 0.0000
# 4 0.0000 0.0000 0.0000 19.5392 0.0000 0.0000
# 5 0.0000 0.0000 0.0000 0.0000 26.3150 0.0000
# 6 0.0000 0.0000 0.0000 0.0000 0.0000 22.3660
#
#
#
# Elastic Compliance Matrix: (Units=1/GPa)
#
#
# Indices 1 2 3 4 5 6 
#
# 1 0.016296 -0.007100 -0.007450 0.000000 0.000000 0.000000
# 2 -0.007100 0.017129 -0.001433 0.000000 0.000000 0.000000
# 3 -0.007450 -0.001433 0.015521 0.000000 0.000000 0.000000
# 4 0.000000 0.000000 0.000000 0.051179 0.000000 0.000000
# 5 0.000000 0.000000 0.000000 0.000000 0.038001 0.000000
# 6 0.000000 0.000000 0.000000 0.000000 0.000000 0.044711
#
#
# Mechanical properties :
#
#
# Convention : Reuss Voigt Hill
#
# Bulk Modulus (GPa) = 58.89862 62.58683 60.74273
# Shear Modulus (GPa) = 22.67953 23.44832 23.06393
#
# Velocity S-wave (km/s) = 3.72629 3.78892 3.75774
# Velocity P-wave (km/s) = 7.38739 7.58019 7.48441
#
# Compressibility (1/GPa) = 0.01697833
#
# Stress axis : x y z
#
# Youngs Moduli (GPa) = 61.36409 58.38173 64.43008
#
# Poissons Ratio (x) = 0.41452 0.48003
# Poissons Ratio (y) = 0.43569 0.09233
# Poissons Ratio (z) = 0.45719 0.08366
#
# Static dielectric constant tensor:
#      x y z
#    x 3.191760 0.000000 0.000000 
#    y 0.000000 3.055140 0.000000 
#    z 0.000000 0.000000 2.960980 
# 
# 
# High freq. dielectric constant tensor:
#      x y z
#    x 1.628710 0.000000 0.000000 
#    y 0.000000 1.604580 0.000000 
#    z 0.000000 0.000000 1.620980 
# 
# From -- ./inp_files/8508.got.cif
#   From: 2010.06.25/outbox.cif.g09.slc.cpg/sg58_5_cif.got.tgz:8508.got - 2010.06.26 21:38:00.
