data_PCOD8235269
_publ_section_title
;
Structure prediction by ZEFSAII (Michael W. Deem and Ramdas Pophale) SiO2 
 PCOD8235269
Probable space group: P N N M
;
_chemical_formula_sum "Si O2"
_cell_formula_units_Z 64
_cell_length_a 19.060067
_cell_length_b 21.230790
_cell_length_c 9.031696
_cell_angle_alpha 90.000000
_cell_angle_beta 90.000000
_cell_angle_gamma 90.000000
_cell_volume 3654.768631
_symmetry_space_group_name_H-M "P N N M"
_symmetry_group_IT_number 58
_symmetry_cell_setting 'orthorhombic'
loop_
_space_group_symop_operation_xyz
x,y,z
-x,-y,z
1/2+x,1/2-y,1/2-z
1/2-x,1/2+y,1/2-z
-x,-y,-z
x,y,-z
1/2-x,1/2+y,1/2+z
1/2+x,1/2-y,1/2+z
loop_
_atom_site_type_symbol
_atom_site_label
_atom_site_fract_x
_atom_site_fract_y
_atom_site_fract_z
Si Si1 0.740268 0.042386 0.836149
Si Si2 0.153162 0.028807 0.326526
Si Si3 0.148151 0.347553 0.326053
Si Si4 0.144370 0.155975 0.833111
Si Si5 0.038493 0.268997 0.827664
Si Si6 0.410154 0.286341 0.173144
Si Si7 0.386985 0.412586 0.665327
Si Si8 0.252133 0.257554 0.830941
O O1 0.670143 0.079939 0.787308
O O2 0.802461 0.095223 0.842727
O O3 0.765948 0.987321 0.724105
O O4 0.730166 0.012507 0.000000
O O5 0.146404 0.021242 0.500000
O O6 0.133545 0.099183 0.280281
O O7 0.098965 0.979516 0.248962
O O8 0.134872 0.339496 0.500000
O O9 0.077497 0.330446 0.237917
O O10 0.211959 0.303123 0.279431
O O11 0.085650 0.207773 0.797254
O O12 0.221244 0.187041 0.812182
O O13 0.135829 0.130120 0.000000
O O14 0.964869 0.261816 0.744965
O O15 0.024978 0.280121 0.000000
O O16 0.420343 0.355055 0.245073
O O17 0.334156 0.257023 0.207078
O O18 0.424689 0.293070 0.000000
O O19 0.420005 0.414031 0.500000
O O20 0.239012 0.280916 0.000000
#
# Coordination Sequence:
#
# PCOD8235269 Si02
#       8
#     8   8   8   8   8   8   8   8
#     4   8  16  28  46  69  93 122 152 190 235 280
#     4  10  18  28  46  72  96 120 157 203 238 272
#     4  10  17  29  49  73  95 120 158 199 237 279
#     4   9  18  34  49  65  94 130 161 190 233 287
#     4  10  22  35  48  67  99 136 162 192 240 291
#     4  11  20  32  50  74  99 125 162 203 237 279
#     4   9  17  30  47  67  93 125 155 189 233 281
#     4   9  18  30  48  70  94 125 157 193 240 288
#
# _framework density 17.511368000000001
#
# number of rings (size 3 to 8) (size 9 to 14) (size 15 to 20)
#    0.750    1.750    1.250    3.000    0.000    4.000 
#    0.000    0.625    0.000    3.750    0.000    0.875 
#    0.000    7.000    0.000    0.000    0.000    0.000 
#
# Total GULP energy -793093.637945 kJ/mol
# GULP energy per Si atom -12392.088093 kJ/mol
# Density = 1.747151 g / cm^3
# Si number density = 17.511368 Si / 1000 Ang^3
#
#
#
# Elastic Constant Matrix: (Units=GPa)
#
#
# Indices 1 2 3 4 5 6 
#
# 1 52.6762 -1.4342 17.9366 0.0000 0.0000 0.0000
# 2 -1.4342 5.9491 2.6026 0.0000 0.0000 0.0000
# 3 17.9366 2.6026 94.4542 0.0000 0.0000 0.0000
# 4 0.0000 0.0000 0.0000 26.9505 0.0000 0.0000
# 5 0.0000 0.0000 0.0000 0.0000 24.0297 0.0000
# 6 0.0000 0.0000 0.0000 0.0000 0.0000 13.9413
#
#
#
# Elastic Compliance Matrix: (Units=1/GPa)
#
#
# Indices 1 2 3 4 5 6 
#
# 1 0.020560 0.006746 -0.004090 0.000000 0.000000 0.000000
# 2 0.006746 0.172357 -0.006030 0.000000 0.000000 0.000000
# 3 -0.004090 -0.006030 0.011530 0.000000 0.000000 0.000000
# 4 0.000000 0.000000 0.000000 0.037105 0.000000 0.000000
# 5 0.000000 0.000000 0.000000 0.000000 0.041615 0.000000
# 6 0.000000 0.000000 0.000000 0.000000 0.000000 0.071730
#
#
# Mechanical properties :
#
#
# Convention : Reuss Voigt Hill
#
# Bulk Modulus (GPa) = 5.05821 21.25437 13.15629
# Shear Modulus (GPa) = 11.69469 21.91593 16.80531
#
# Velocity S-wave (km/s) = 2.58705 3.54153 3.10123
# Velocity P-wave (km/s) = 3.43782 5.37467 4.51141
#
# Compressibility (1/GPa) = 0.19769842
#
# Stress axis : x y z
#
# Youngs Moduli (GPa) = 48.63736 5.80193 86.73017
#
# Poissons Ratio (x) = -0.03914 0.35475
# Poissons Ratio (y) = -0.32811 0.52299
# Poissons Ratio (z) = 0.19894 0.03499
#
# Static dielectric constant tensor:
#      x y z
#    x 3.094270 0.000000 0.000000 
#    y 0.000000 2.978370 0.000000 
#    z 0.000000 0.000000 3.260900 
# 
# 
# High freq. dielectric constant tensor:
#      x y z
#    x 1.648210 0.000000 0.000000 
#    y 0.000000 1.647740 0.000000 
#    z 0.000000 0.000000 1.686830 
# 
# From -- ./inp_files/9505.got.cif
#   From: 2010.06.25/outbox.cif.g09.slc.cpg/sg58_5_cif.got.tgz:9505.got - 2010.06.26 21:38:00.
