data_PCOD8235335
_publ_section_title
;
Structure prediction by ZEFSAII (Michael W. Deem and Ramdas Pophale) SiO2 
 PCOD8235335
Probable space group: P N N M
;
_chemical_formula_sum "Si O2"
_cell_formula_units_Z 56
_cell_length_a 13.781874
_cell_length_b 29.241555
_cell_length_c 9.062751
_cell_angle_alpha 90.000000
_cell_angle_beta 90.000000
_cell_angle_gamma 90.000000
_cell_volume 3652.319707
_symmetry_space_group_name_H-M "P N N M"
_symmetry_group_IT_number 58
_symmetry_cell_setting 'orthorhombic'
loop_
_space_group_symop_operation_xyz
x,y,z
-x,-y,z
1/2+x,1/2-y,1/2-z
1/2-x,1/2+y,1/2-z
-x,-y,-z
x,y,-z
1/2-x,1/2+y,1/2+z
1/2+x,1/2-y,1/2+z
loop_
_atom_site_type_symbol
_atom_site_label
_atom_site_fract_x
_atom_site_fract_y
_atom_site_fract_z
Si Si1 0.793964 0.313201 0.671783
Si Si2 0.897139 0.591840 0.827300
Si Si3 0.387359 0.271618 0.675606
Si Si4 0.100158 0.595875 0.673350
Si Si5 0.397749 0.733263 0.671497
Si Si6 0.384761 0.996996 0.837009
Si Si7 0.220011 0.319396 0.173798
O O1 0.815772 0.302686 0.500000
O O2 0.854045 0.278208 0.770922
O O3 0.824242 0.364474 0.715490
O O4 0.679005 0.307402 0.704398
O O5 0.852558 0.543690 0.771323
O O6 0.819782 0.630745 0.785847
O O7 0.999108 0.604763 0.754683
O O8 0.914743 0.588420 0.000000
O O9 0.379721 0.274256 0.500000
O O10 0.496985 0.278870 0.737589
O O11 0.322567 0.311980 0.745166
O O12 0.076588 0.594724 0.500000
O O13 0.149446 0.547246 0.719935
O O14 0.414204 0.740680 0.500000
O O15 0.355249 0.781090 0.734319
O O16 0.500000 0.000000 0.843233
O O17 0.342628 0.986555 0.000000
O O18 0.236887 0.313259 0.000000
#
# Coordination Sequence:
#
# PCOD8235335 Si02
#       7
#     8   8   8   8   8   8   8
#     4   9  17  30  45  60  82 113 141 163 200 249
#     4  10  18  27  42  62  85 113 141 171 207 245
#     4  10  18  28  43  63  84 106 136 173 206 236
#     4   9  17  28  43  62  85 114 142 168 203 248
#     4   8  15  28  43  58  80 107 133 166 203 237
#     4   8  15  27  40  58  85 111 137 170 206 246
#     4   9  18  31  43  58  83 113 140 165 202 249
#
# _framework density 15.33272
#
# number of rings (size 3 to 8) (size 9 to 14) (size 15 to 20)
#    0.000    3.000    0.000    3.429    0.000    5.429 
#    0.000    7.143    0.000    0.000    0.000    1.000 
#    0.000    8.000    0.000    0.000    0.000    0.000 
#
# Total GULP energy -694047.538734 kJ/mol
# GULP energy per Si atom -12393.706049 kJ/mol
# Density = 1.529782 g / cm^3
# Si number density = 15.332720 Si / 1000 Ang^3
#
#
#
# Elastic Constant Matrix: (Units=GPa)
#
#
# Indices 1 2 3 4 5 6 
#
# 1 105.3724 58.7834 35.0468 0.0000 0.0000 0.0000
# 2 58.7834 133.8420 41.3522 0.0000 0.0000 0.0000
# 3 35.0468 41.3522 47.6631 0.0000 0.0000 0.0000
# 4 0.0000 0.0000 0.0000 23.3881 0.0000 0.0000
# 5 0.0000 0.0000 0.0000 0.0000 16.7582 0.0000
# 6 0.0000 0.0000 0.0000 0.0000 0.0000 23.0232
#
#
#
# Elastic Compliance Matrix: (Units=1/GPa)
#
#
# Indices 1 2 3 4 5 6 
#
# 1 0.014009 -0.004058 -0.006780 0.000000 0.000000 0.000000
# 2 -0.004058 0.011383 -0.006892 0.000000 0.000000 0.000000
# 3 -0.006780 -0.006892 0.031946 0.000000 0.000000 0.000000
# 4 0.000000 0.000000 0.000000 0.042757 0.000000 0.000000
# 5 0.000000 0.000000 0.000000 0.000000 0.059672 0.000000
# 6 0.000000 0.000000 0.000000 0.000000 0.000000 0.043434
#
#
# Mechanical properties :
#
#
# Convention : Reuss Voigt Hill
#
# Bulk Modulus (GPa) = 45.70957 61.91579 53.81268
# Shear Modulus (GPa) = 20.32896 22.74690 21.53793
#
# Velocity S-wave (km/s) = 3.64518 3.85587 3.75200
# Velocity P-wave (km/s) = 6.89876 7.76484 7.34458
#
# Compressibility (1/GPa) = 0.02187726
#
# Stress axis : x y z
#
# Youngs Moduli (GPa) = 71.38261 87.84914 31.30312
#
# Poissons Ratio (x) = 0.35648 0.21224
# Poissons Ratio (y) = 0.28966 0.21575
# Poissons Ratio (z) = 0.48399 0.60547
#
# Static dielectric constant tensor:
#      x y z
#    x 2.895620 0.000000 0.000000 
#    y 0.000000 3.245430 0.000000 
#    z 0.000000 0.000000 2.854800 
# 
# 
# High freq. dielectric constant tensor:
#      x y z
#    x 1.558480 0.000000 0.000000 
#    y 0.000000 1.587340 0.000000 
#    z 0.000000 0.000000 1.580620 
# 
# From -- ./inp_files/7126.got.cif
#   From: 2010.06.25/outbox.cif.g09.slc.cpg/sg58_4_cif.got.tgz:7126.got - 2010.06.26 21:38:00.
