data_PCOD8235041
_publ_section_title
;
Structure prediction by ZEFSAII (Michael W. Deem and Ramdas Pophale) SiO2 
 PCOD8235041
Probable space group: P B C M
;
_chemical_formula_sum "Si O2"
_cell_formula_units_Z 40
_cell_length_a 9.200859
_cell_length_b 8.556886
_cell_length_c 23.621636
_cell_angle_alpha 90.000000
_cell_angle_beta 90.000000
_cell_angle_gamma 90.000000
_cell_volume 1859.747974
_symmetry_space_group_name_H-M "P B C M"
_symmetry_group_IT_number 57
_symmetry_cell_setting 'orthorhombic'
loop_
_space_group_symop_operation_xyz
x,y,z
-x,-y,1/2+z
x,1/2-y,-z
-x,1/2+y,1/2-z
-x,-y,-z
x,y,1/2-z
-x,1/2+y,z
x,1/2-y,1/2+z
loop_
_atom_site_type_symbol
_atom_site_label
_atom_site_fract_x
_atom_site_fract_y
_atom_site_fract_z
Si Si1 0.658091 0.808293 0.905645
Si Si2 0.657402 0.440879 0.920159
Si Si3 0.876670 0.241549 0.864967
Si Si4 0.148640 0.417838 0.685168
Si Si5 0.846804 0.036222 0.973845
O O1 0.656213 0.624310 0.910626
O O2 0.504687 0.877961 0.923599
O O3 0.699473 0.857207 0.841299
O O4 0.779432 0.879785 0.946951
O O5 0.739852 0.360506 0.866762
O O6 0.736964 0.398215 0.978823
O O7 0.857077 0.106316 0.818224
O O8 0.881160 0.165889 0.926969
O O9 0.019003 0.341668 0.851196
O O10 0.138820 0.364976 0.750000
O O11 0.000000 0.000000 0.000000
#
# Coordination Sequence:
#
# PCOD8235041 Si02
#       5
#     8   8   8   8   8
#     4  11  24  42  64  94 131 171 223 268 322 396
#     4  12  24  42  63  93 133 173 211 267 328 392
#     4  11  24  40  64  95 126 163 215 261 317 392
#     4  11  23  44  68  94 126 167 216 276 330 380
#     4  11  23  40  64  96 133 172 210 260 321 388
#
# _framework density 21.508289000000001
#
# number of rings (size 3 to 8) (size 9 to 14) (size 15 to 20)
#    0.000    0.800    0.000    9.600    0.000    4.800 
#    0.000    6.000    0.000    0.000    0.000    0.000 
#    0.000    0.000    0.000    0.000    0.000    0.000 
#
# Total GULP energy -496026.854871 kJ/mol
# GULP energy per Si atom -12400.671372 kJ/mol
# Density = 2.145934 g / cm^3
# Si number density = 21.508289 Si / 1000 Ang^3
#
#
#
# Elastic Constant Matrix: (Units=GPa)
#
#
# Indices 1 2 3 4 5 6 
#
# 1 167.3511 64.3996 72.5973 0.0000 0.0000 0.0000
# 2 64.3996 156.6792 50.1272 0.0000 0.0000 0.0000
# 3 72.5973 50.1272 111.2022 0.0000 0.0000 0.0000
# 4 0.0000 0.0000 0.0000 21.9068 0.0000 0.0000
# 5 0.0000 0.0000 0.0000 0.0000 25.8169 0.0000
# 6 0.0000 0.0000 0.0000 0.0000 0.0000 40.0384
#
#
#
# Elastic Compliance Matrix: (Units=1/GPa)
#
#
# Indices 1 2 3 4 5 6 
#
# 1 0.008891 -0.002100 -0.004858 0.000000 0.000000 0.000000
# 2 -0.002100 0.007954 -0.002214 0.000000 0.000000 0.000000
# 3 -0.004858 -0.002214 0.013162 0.000000 0.000000 0.000000
# 4 0.000000 0.000000 0.000000 0.045648 0.000000 0.000000
# 5 0.000000 0.000000 0.000000 0.000000 0.038734 0.000000
# 6 0.000000 0.000000 0.000000 0.000000 0.000000 0.024976
#
#
# Mechanical properties :
#
#
# Convention : Reuss Voigt Hill
#
# Bulk Modulus (GPa) = 85.74415 89.94233 87.84324
# Shear Modulus (GPa) = 30.94107 34.09298 32.51703
#
# Velocity S-wave (km/s) = 3.79696 3.98566 3.89245
# Velocity P-wave (km/s) = 7.69251 7.94286 7.81868
#
# Compressibility (1/GPa) = 0.01166260
#
# Stress axis : x y z
#
# Youngs Moduli (GPa) = 112.47418 125.71945 75.97597
#
# Poissons Ratio (x) = 0.26405 0.36906
# Poissons Ratio (y) = 0.23623 0.16824
# Poissons Ratio (z) = 0.54635 0.27839
#
# Static dielectric constant tensor:
#      x y z
#    x 3.915240 0.000000 0.000000 
#    y 0.000000 2.319760 0.000000 
#    z 0.000000 0.000000 4.464040 
# 
# 
# High freq. dielectric constant tensor:
#      x y z
#    x 1.850140 0.000000 0.000000 
#    y 0.000000 1.870990 0.000000 
#    z 0.000000 0.000000 1.827110 
# 
# From -- ./inp_files/26523.got.cif
#   From: 2010.03.12/outbox.cif.g09.slc.cpg/sg57_14_cif.got.tgz:26523.got - 2010.04.16 15:48:40.
