data_PCOD8235728
_publ_section_title
;
Structure prediction by ZEFSAII (Michael W. Deem and Ramdas Pophale) SiO2 
 PCOD8235728
Probable space group: P N N M
;
_chemical_formula_sum "Si O2"
_cell_formula_units_Z 48
_cell_length_a 9.916488
_cell_length_b 14.813227
_cell_length_c 17.532696
_cell_angle_alpha 90.000000
_cell_angle_beta 90.000000
_cell_angle_gamma 90.000000
_cell_volume 2575.468671
_symmetry_space_group_name_H-M "P N N M"
_symmetry_group_IT_number 58
_symmetry_cell_setting 'orthorhombic'
loop_
_space_group_symop_operation_xyz
x,y,z
-x,-y,z
1/2+x,1/2-y,1/2-z
1/2-x,1/2+y,1/2-z
-x,-y,-z
x,y,-z
1/2-x,1/2+y,1/2+z
1/2+x,1/2-y,1/2+z
loop_
_atom_site_type_symbol
_atom_site_label
_atom_site_fract_x
_atom_site_fract_y
_atom_site_fract_z
Si Si1 0.281200 0.190081 0.815828
Si Si2 0.595261 0.422953 0.857351
Si Si3 0.529606 0.234160 0.086773
Si Si4 0.480332 0.600427 0.318354
Si Si5 0.648431 0.975141 0.716424
Si Si6 0.234608 0.345921 0.300714
O O1 0.379157 0.231674 0.878911
O O2 0.363023 0.114466 0.768256
O O3 0.220812 0.267928 0.761872
O O4 0.150360 0.146183 0.857562
O O5 0.500000 0.500000 0.893207
O O6 0.586019 0.335682 0.910363
O O7 0.546140 0.398993 0.772401
O O8 0.751186 0.456220 0.854523
O O9 0.628059 0.167377 0.131982
O O10 0.524158 0.200910 0.000000
O O11 0.500000 0.500000 0.350855
O O12 0.614373 0.658032 0.335491
O O13 0.287062 0.944347 0.765221
O O14 0.500000 0.000000 0.685508
#
# Coordination Sequence:
#
# PCOD8235728 Si02
#       6
#     8   8   8   8   8   8
#     4  11  20  36  59  87 116 157 203 252 294 350
#     4  10  18  37  58  88 115 153 201 259 299 347
#     4  12  25  38  57  91 129 161 193 249 319 366
#     4  10  18  33  61  86 108 144 206 257 286 335
#     4  11  20  31  59  92 117 146 208 254 291 344
#     4  12  19  36  59  87 120 154 201 249 299 355
#
# _framework density 18.637384000000001
#
# number of rings (size 3 to 8) (size 9 to 14) (size 15 to 20)
#    0.000    1.000   11.667    0.000    0.000    0.333 
#    0.000    2.500    0.000    1.500    0.000    0.000 
#    0.000    0.000    0.000    0.000    0.000    0.000 
#
# Total GULP energy -595218.663205 kJ/mol
# GULP energy per Si atom -12400.388817 kJ/mol
# Density = 1.859496 g / cm^3
# Si number density = 18.637384 Si / 1000 Ang^3
#
#
#
# Elastic Constant Matrix: (Units=GPa)
#
#
# Indices 1 2 3 4 5 6 
#
# 1 144.2968 17.1606 30.5002 0.0000 0.0000 0.0000
# 2 17.1606 86.1058 22.1583 0.0000 0.0000 0.0000
# 3 30.5002 22.1583 64.0758 0.0000 0.0000 0.0000
# 4 0.0000 0.0000 0.0000 13.4500 0.0000 0.0000
# 5 0.0000 0.0000 0.0000 0.0000 11.6879 0.0000
# 6 0.0000 0.0000 0.0000 0.0000 0.0000 39.1498
#
#
#
# Elastic Compliance Matrix: (Units=1/GPa)
#
#
# Indices 1 2 3 4 5 6 
#
# 1 0.007739 -0.000652 -0.003458 0.000000 0.000000 0.000000
# 2 -0.000652 0.012803 -0.004117 0.000000 0.000000 0.000000
# 3 -0.003458 -0.004117 0.018676 0.000000 0.000000 0.000000
# 4 0.000000 0.000000 0.000000 0.074349 0.000000 0.000000
# 5 0.000000 0.000000 0.000000 0.000000 0.085559 0.000000
# 6 0.000000 0.000000 0.000000 0.000000 0.000000 0.025543
#
#
# Mechanical properties :
#
#
# Convention : Reuss Voigt Hill
#
# Bulk Modulus (GPa) = 43.93043 48.23519 46.08281
# Shear Modulus (GPa) = 20.10362 27.83483 23.96922
#
# Velocity S-wave (km/s) = 3.28788 3.86877 3.59009
# Velocity P-wave (km/s) = 6.16732 6.77448 6.47802
#
# Compressibility (1/GPa) = 0.02276326
#
# Stress axis : x y z
#
# Youngs Moduli (GPa) = 129.22107 78.10617 53.54401
#
# Poissons Ratio (x) = 0.05096 0.18516
# Poissons Ratio (y) = 0.08431 0.22044
# Poissons Ratio (z) = 0.44685 0.32156
#
# Static dielectric constant tensor:
#      x y z
#    x 3.881160 0.000000 0.000000 
#    y 0.000000 3.714190 0.000000 
#    z 0.000000 0.000000 2.759870 
# 
# 
# High freq. dielectric constant tensor:
#      x y z
#    x 1.746960 0.000000 0.000000 
#    y 0.000000 1.741970 0.000000 
#    z 0.000000 0.000000 1.643920 
# 
# From -- ./inp_files/25429.got.cif
#   From: 2010.06.25/outbox.cif.g09.slc.cpg/sg58_13_cif.got.tgz:25429.got - 2010.06.26 21:38:00.
