data_PCOD8235546
_publ_section_title
;
Structure prediction by ZEFSAII (Michael W. Deem and Ramdas Pophale) SiO2 
 PCOD8235546
Probable space group: P N N M
;
_chemical_formula_sum "Si O2"
_cell_formula_units_Z 64
_cell_length_a 19.429362
_cell_length_b 20.086845
_cell_length_c 8.965958
_cell_angle_alpha 90.000000
_cell_angle_beta 90.000000
_cell_angle_gamma 90.000000
_cell_volume 3499.185519
_symmetry_space_group_name_H-M "P N N M"
_symmetry_group_IT_number 58
_symmetry_cell_setting 'orthorhombic'
loop_
_space_group_symop_operation_xyz
x,y,z
-x,-y,z
1/2+x,1/2-y,1/2-z
1/2-x,1/2+y,1/2-z
-x,-y,-z
x,y,-z
1/2-x,1/2+y,1/2+z
1/2+x,1/2-y,1/2+z
loop_
_atom_site_type_symbol
_atom_site_label
_atom_site_fract_x
_atom_site_fract_y
_atom_site_fract_z
Si Si1 0.304907 0.079644 0.826608
Si Si2 0.495332 0.329702 0.175247
Si Si3 0.837592 0.157718 0.672337
Si Si4 0.695580 0.509223 0.174795
Si Si5 0.980588 0.301899 0.167828
Si Si6 0.182402 0.712258 0.168010
Si Si7 0.465691 0.067720 0.172460
Si Si8 0.560952 0.451441 0.676509
O O1 0.264995 0.022905 0.736666
O O2 0.284338 0.152544 0.763898
O O3 0.384552 0.064162 0.798963
O O4 0.285016 0.077273 0.000000
O O5 0.417375 0.348892 0.220443
O O6 0.513868 0.255821 0.231690
O O7 0.547399 0.378866 0.257227
O O8 0.507531 0.334209 0.000000
O O9 0.833731 0.177992 0.500000
O O10 0.798505 0.215780 0.763234
O O11 0.800168 0.088176 0.706363
O O12 0.631912 0.477970 0.260430
O O13 0.687201 0.494974 0.000000
O O14 0.899006 0.295178 0.172048
O O15 0.001346 0.373012 0.235564
O O16 0.009070 0.296419 0.000000
O O17 0.211253 0.708412 0.000000
O O18 0.500000 0.000000 0.230028
O O19 0.482097 0.080544 0.000000
O O20 0.500000 0.500000 0.728982
O O21 0.565939 0.446593 0.500000
#
# Coordination Sequence:
#
# PCOD8235546 Si02
#       8
#     8   8   8   8   8   8   8   8
#     4  10  20  35  55  79 107 138 174 220 269 320
#     4  10  18  31  51  74 104 140 179 219 262 310
#     4   9  18  31  50  76 103 135 175 219 262 309
#     4  11  22  36  54  77 108 144 181 218 266 323
#     4   9  17  29  48  78 108 134 170 216 265 313
#     4   9  17  30  51  76 102 132 171 218 261 311
#     4   9  18  34  57  82 107 137 175 218 268 326
#     4  11  22  34  51  77 109 143 181 224 266 309
#
# _framework density 18.289971000000001
#
# number of rings (size 3 to 8) (size 9 to 14) (size 15 to 20)
#    0.000    2.250    1.250    2.250    0.000    5.750 
#    0.000    0.000    2.750    0.000    0.000    0.000 
#    0.000    0.000    0.000    0.000    0.000    0.000 
#
# Total GULP energy -793736.925893 kJ/mol
# GULP energy per Si atom -12402.139467 kJ/mol
# Density = 1.824834 g / cm^3
# Si number density = 18.289971 Si / 1000 Ang^3
#
#
#
# Elastic Constant Matrix: (Units=GPa)
#
#
# Indices 1 2 3 4 5 6 
#
# 1 29.1140 32.1239 21.3410 0.0000 0.0000 0.0000
# 2 32.1239 148.7360 58.9572 0.0000 0.0000 0.0000
# 3 21.3410 58.9572 89.7860 0.0000 0.0000 0.0000
# 4 0.0000 0.0000 0.0000 37.4518 0.0000 0.0000
# 5 0.0000 0.0000 0.0000 0.0000 23.3960 0.0000
# 6 0.0000 0.0000 0.0000 0.0000 0.0000 24.5435
#
#
#
# Elastic Compliance Matrix: (Units=1/GPa)
#
#
# Indices 1 2 3 4 5 6 
#
# 1 0.047483 -0.007816 -0.006154 0.000000 0.000000 0.000000
# 2 -0.007816 0.010376 -0.004955 0.000000 0.000000 0.000000
# 3 -0.006154 -0.004955 0.015854 0.000000 0.000000 0.000000
# 4 0.000000 0.000000 0.000000 0.026701 0.000000 0.000000
# 5 0.000000 0.000000 0.000000 0.000000 0.042742 0.000000
# 6 0.000000 0.000000 0.000000 0.000000 0.000000 0.040744
#
#
# Mechanical properties :
#
#
# Convention : Reuss Voigt Hill
#
# Bulk Modulus (GPa) = 27.88445 54.72005 41.30225
# Shear Modulus (GPa) = 21.39460 27.42585 24.41023
#
# Velocity S-wave (km/s) = 3.42386 3.87654 3.65721
# Velocity P-wave (km/s) = 5.55961 7.07247 6.36117
#
# Compressibility (1/GPa) = 0.03586228
#
# Stress axis : x y z
#
# Youngs Moduli (GPa) = 21.06036 96.37953 63.07506
#
# Poissons Ratio (x) = 0.75330 0.38815
# Poissons Ratio (y) = 0.16461 0.31256
# Poissons Ratio (z) = 0.12960 0.47759
#
# Static dielectric constant tensor:
#      x y z
#    x 2.985340 0.000000 0.000000 
#    y 0.000000 3.622850 0.000000 
#    z 0.000000 0.000000 3.490550 
# 
# 
# High freq. dielectric constant tensor:
#      x y z
#    x 1.660780 0.000000 0.000000 
#    y 0.000000 1.723790 0.000000 
#    z 0.000000 0.000000 1.721520 
# 
# From -- ./inp_files/9222.got.cif
#   From: 2010.06.25/outbox.cif.g09.slc.cpg/sg58_5_cif.got.tgz:9222.got - 2010.06.26 21:38:00.
