data_PCOD8235295
_publ_section_title
;
Structure prediction by ZEFSAII (Michael W. Deem and Ramdas Pophale) SiO2 
 PCOD8235295
Probable space group: P N N M
;
_chemical_formula_sum "Si O2"
_cell_formula_units_Z 56
_cell_length_a 8.091167
_cell_length_b 18.064832
_cell_length_c 20.363109
_cell_angle_alpha 90.000000
_cell_angle_beta 90.000000
_cell_angle_gamma 90.000000
_cell_volume 2976.385486
_symmetry_space_group_name_H-M "P N N M"
_symmetry_group_IT_number 58
_symmetry_cell_setting 'orthorhombic'
loop_
_space_group_symop_operation_xyz
x,y,z
-x,-y,z
1/2+x,1/2-y,1/2-z
1/2-x,1/2+y,1/2-z
-x,-y,-z
x,y,-z
1/2-x,1/2+y,1/2+z
1/2+x,1/2-y,1/2+z
loop_
_atom_site_type_symbol
_atom_site_label
_atom_site_fract_x
_atom_site_fract_y
_atom_site_fract_z
Si Si1 0.868577 0.883725 0.373560
Si Si2 0.738153 0.727805 0.423212
Si Si3 0.400735 0.888378 0.500000
Si Si4 0.376437 0.301064 0.200168
Si Si5 0.934336 0.419561 0.206918
Si Si6 0.085635 0.291141 0.880388
Si Si7 0.110919 0.331303 0.301771
Si Si8 0.238750 0.045262 0.500000
O O1 0.800676 0.809276 0.406615
O O2 0.757766 0.914402 0.312513
O O3 0.869966 0.941437 0.434208
O O4 0.047909 0.869986 0.341727
O O5 0.759665 0.708296 0.500000
O O6 0.544532 0.727844 0.401997
O O7 0.843819 0.668977 0.379614
O O8 0.347626 0.837948 0.559576
O O9 0.597959 0.903095 0.500000
O O10 0.292567 0.961137 0.500000
O O11 0.245889 0.255268 0.154662
O O12 0.287826 0.333858 0.264604
O O13 0.522062 0.245272 0.220188
O O14 0.000000 0.500000 0.185689
O O15 0.020936 0.352984 0.169348
O O16 0.989655 0.400719 0.282706
#
# Coordination Sequence:
#
# PCOD8235295 Si02
#       8
#     8   8   4   8   8   8   8   4
#     4  10  18  31  51  74 104 140 176 213 251 300
#     4  10  17  32  52  74 101 129 171 212 264 319
#     4  11  18  29  49  73 109 155 186 198 237 306
#     4  10  20  33  52  72 102 131 176 225 269 306
#     4  10  19  33  52  74 101 139 181 212 254 317
#     4  10  18  31  49  75 103 138 176 215 255 303
#     4  10  20  34  52  73  99 133 173 223 275 312
#     4  11  18  29  49  73 109 157 186 201 236 306
#
# _framework density 18.814767
#
# number of rings (size 3 to 8) (size 9 to 14) (size 15 to 20)
#    0.000    1.857    4.286    4.286    0.000    0.571 
#    1.286    7.143    0.000    0.429    0.000    0.000 
#    0.000    2.571    0.000    0.000    0.000    0.000 
#
# Total GULP energy -693733.954712 kJ/mol
# GULP energy per Si atom -12388.106334 kJ/mol
# Density = 1.877194 g / cm^3
# Si number density = 18.814767 Si / 1000 Ang^3
#
#
#
# Elastic Constant Matrix: (Units=GPa)
#
#
# Indices 1 2 3 4 5 6 
#
# 1 67.0621 9.1256 39.8351 0.0000 0.0000 0.0000
# 2 9.1256 26.3880 22.6459 0.0000 0.0000 0.0000
# 3 39.8351 22.6459 114.4053 0.0000 0.0000 0.0000
# 4 0.0000 0.0000 0.0000 27.7206 0.0000 0.0000
# 5 0.0000 0.0000 0.0000 0.0000 34.3276 0.0000
# 6 0.0000 0.0000 0.0000 0.0000 0.0000 17.3085
#
#
#
# Elastic Compliance Matrix: (Units=1/GPa)
#
#
# Indices 1 2 3 4 5 6 
#
# 1 0.018825 -0.001066 -0.006344 0.000000 0.000000 0.000000
# 2 -0.001066 0.045711 -0.008677 0.000000 0.000000 0.000000
# 3 -0.006344 -0.008677 0.012667 0.000000 0.000000 0.000000
# 4 0.000000 0.000000 0.000000 0.036074 0.000000 0.000000
# 5 0.000000 0.000000 0.000000 0.000000 0.029131 0.000000
# 6 0.000000 0.000000 0.000000 0.000000 0.000000 0.057775
#
#
# Mechanical properties :
#
#
# Convention : Reuss Voigt Hill
#
# Bulk Modulus (GPa) = 22.20751 39.00762 30.60757
# Shear Modulus (GPa) = 20.21284 24.95457 22.58371
#
# Velocity S-wave (km/s) = 3.28122 3.64583 3.46832
# Velocity P-wave (km/s) = 5.11704 6.20486 5.68702
#
# Compressibility (1/GPa) = 0.04502981
#
# Stress axis : x y z
#
# Youngs Moduli (GPa) = 53.12151 21.87638 78.94367
#
# Poissons Ratio (x) = 0.02332 0.50079
# Poissons Ratio (y) = 0.05663 0.68501
# Poissons Ratio (z) = 0.33698 0.18982
#
# Static dielectric constant tensor:
#      x y z
#    x 3.776080 0.000000 0.000000 
#    y 0.000000 3.117870 0.000000 
#    z 0.000000 0.000000 3.719020 
# 
# 
# High freq. dielectric constant tensor:
#      x y z
#    x 1.735950 0.000000 0.000000 
#    y 0.000000 1.669060 0.000000 
#    z 0.000000 0.000000 1.731950 
# 
# From -- ./inp_files/29193.got.cif
#   From: 2010.06.25/outbox.cif.g09.slc.cpg/sg58_15_cif.got.tgz:29193.got - 2010.06.26 21:38:00.
