data_PCOD8235091
_publ_section_title
;
Structure prediction by ZEFSAII (Michael W. Deem and Ramdas Pophale) SiO2 
 PCOD8235091
Probable space group: P B C M
;
_chemical_formula_sum "Si O2"
_cell_formula_units_Z 44
_cell_length_a 8.538681
_cell_length_b 17.182221
_cell_length_c 14.545625
_cell_angle_alpha 90.000000
_cell_angle_beta 90.000000
_cell_angle_gamma 90.000000
_cell_volume 2134.039611
_symmetry_space_group_name_H-M "P B C M"
_symmetry_group_IT_number 57
_symmetry_cell_setting 'orthorhombic'
loop_
_space_group_symop_operation_xyz
x,y,z
-x,-y,1/2+z
x,1/2-y,-z
-x,1/2+y,1/2-z
-x,-y,-z
x,y,1/2-z
-x,1/2+y,z
x,1/2-y,1/2+z
loop_
_atom_site_type_symbol
_atom_site_label
_atom_site_fract_x
_atom_site_fract_y
_atom_site_fract_z
Si Si1 0.582847 0.449785 0.422434
Si Si2 0.494191 0.175942 0.250000
Si Si3 0.864891 0.877240 0.750000
Si Si4 0.650551 0.279226 0.101521
Si Si5 0.078837 0.996358 0.402492
Si Si6 0.424148 0.991715 0.750000
Si Si7 0.919271 0.269377 0.250000
Si Si8 0.108547 0.085496 0.750000
O O1 0.500000 0.500000 0.500000
O O2 0.547175 0.357889 0.413890
O O3 0.767197 0.451117 0.430852
O O4 0.537668 0.495186 0.333008
O O5 0.309476 0.157910 0.250000
O O6 0.533762 0.222508 0.156878
O O7 0.612488 0.100700 0.250000
O O8 0.886847 0.924973 0.845177
O O9 0.008908 0.816641 0.750000
O O10 0.811092 0.287154 0.160538
O O11 0.695540 0.250000 0.000000
O O12 0.000000 0.000000 0.500000
O O13 0.968519 0.943576 0.342233
O O14 0.284777 0.053963 0.750000
O O15 0.077409 0.322157 0.250000
#
# Coordination Sequence:
#
# PCOD8235091 Si02
#       8
#     8   4   4   8   8   4   4   4
#     4  12  24  44  71  98 134 182 235 284 341 412
#     4  11  24  47  69 101 143 178 228 289 350 417
#     4  11  26  43  70 101 138 183 232 288 354 413
#     4  11  26  44  68  99 138 181 228 281 356 414
#     4  11  24  45  70  98 136 178 236 290 338 417
#     4  12  23  43  72  96 133 185 225 285 341 403
#     4  11  25  44  66  95 143 182 223 288 345 418
#     4  11  24  43  65  99 137 178 234 280 342 403
#
# _framework density 20.618174
#
# number of rings (size 3 to 8) (size 9 to 14) (size 15 to 20)
#    0.000    0.727    3.636    3.818   10.182    0.000 
#    0.000    0.909    0.000    0.000    0.000    0.000 
#    0.000    0.000    0.000    0.000    0.000    0.000 
#
# Total GULP energy -545081.063123 kJ/mol
# GULP energy per Si atom -12388.205980 kJ/mol
# Density = 2.057125 g / cm^3
# Si number density = 20.618174 Si / 1000 Ang^3
#
#
#
# Elastic Constant Matrix: (Units=GPa)
#
#
# Indices 1 2 3 4 5 6 
#
# 1 91.7577 23.4897 39.6494 0.0000 0.0000 0.0000
# 2 23.4897 132.5759 46.8631 0.0000 0.0000 0.0000
# 3 39.6494 46.8631 183.5451 0.0000 0.0000 0.0000
# 4 0.0000 0.0000 0.0000 -149.2258 0.0000 0.0000
# 5 0.0000 0.0000 0.0000 0.0000 24.5285 0.0000
# 6 0.0000 0.0000 0.0000 0.0000 0.0000 42.6688
#
#
#
# Elastic Compliance Matrix: (Units=1/GPa)
#
#
# Indices 1 2 3 4 5 6 
#
# 1 0.012238 -0.001356 -0.002297 0.000000 0.000000 0.000000
# 2 -0.001356 0.008441 -0.001862 0.000000 0.000000 0.000000
# 3 -0.002297 -0.001862 0.006420 0.000000 0.000000 0.000000
# 4 0.000000 0.000000 0.000000 -0.006701 0.000000 0.000000
# 5 0.000000 0.000000 0.000000 0.000000 0.040769 0.000000
# 6 0.000000 0.000000 0.000000 0.000000 0.000000 0.023436
#
#
# Mechanical properties :
#
#
# Convention : Reuss Voigt Hill
#
# Bulk Modulus (GPa) = 62.23662 69.76479 66.00071
# Shear Modulus (GPa) = 49.50909 3.45273 26.48091
#
# Velocity S-wave (km/s) = 4.90556 1.29547 3.58767
# Velocity P-wave (km/s) = 7.89537 6.01229 7.01728
#
# Compressibility (1/GPa) = 0.01606771
#
# Stress axis : x y z
#
# Youngs Moduli (GPa) = 81.71132 118.46318 155.76257
#
# Poissons Ratio (x) = 0.16067 0.35785
# Poissons Ratio (y) = 0.11082 0.29008
# Poissons Ratio (z) = 0.18772 0.22061
#
# Static dielectric constant tensor:
#      x y z
#    x 3.738940 0.000000 0.000000 
#    y 0.000000 4.051580 0.000000 
#    z 0.000000 0.000000 3.777990 
# 
# 
# High freq. dielectric constant tensor:
#      x y z
#    x 1.807540 0.000000 0.000000 
#    y 0.000000 1.819020 0.000000 
#    z 0.000000 0.000000 1.822440 
# 
# From -- ./inp_files/16274.got.cif
#   From: 2010.03.12/outbox.cif.g09.slc.cpg/sg57_9_cif.got.tgz:16274.got - 2010.04.16 15:48:40.
