data_PCOD8235072
_publ_section_title
;
Structure prediction by ZEFSAII (Michael W. Deem and Ramdas Pophale) SiO2 
 PCOD8235072
Probable space group: P B C M
;
_chemical_formula_sum "Si O2"
_cell_formula_units_Z 40
_cell_length_a 6.505662
_cell_length_b 15.948824
_cell_length_c 17.353060
_cell_angle_alpha 90.000000
_cell_angle_beta 90.000000
_cell_angle_gamma 90.000000
_cell_volume 1800.512869
_symmetry_space_group_name_H-M "P B C M"
_symmetry_group_IT_number 57
_symmetry_cell_setting 'orthorhombic'
loop_
_space_group_symop_operation_xyz
x,y,z
-x,-y,1/2+z
x,1/2-y,-z
-x,1/2+y,1/2-z
-x,-y,-z
x,y,1/2-z
-x,1/2+y,z
x,1/2-y,1/2+z
loop_
_atom_site_type_symbol
_atom_site_label
_atom_site_fract_x
_atom_site_fract_y
_atom_site_fract_z
Si Si1 0.537150 0.108711 0.579909
Si Si2 0.537528 0.917562 0.250000
Si Si3 0.228201 0.750000 0.500000
Si Si4 0.313548 0.608853 0.250000
Si Si5 0.983209 0.843263 0.626766
Si Si6 0.213190 0.039460 0.018733
Si Si7 0.290760 0.264048 0.750000
O O1 0.586262 0.092944 0.670168
O O2 0.624905 0.199441 0.558212
O O3 0.298545 0.099001 0.551554
O O4 0.642405 0.039408 0.528471
O O5 0.683276 0.835927 0.250000
O O6 0.629247 0.010770 0.250000
O O7 0.077167 0.806862 0.549173
O O8 0.174152 0.620581 0.325198
O O9 0.504799 0.675687 0.250000
O O10 0.815449 0.911841 0.599701
O O11 0.848145 0.778491 0.675096
O O12 0.000000 0.000000 0.000000
#
# Coordination Sequence:
#
# PCOD8235072 Si02
#       7
#     8   4   4   4   8   8   4
#     4  11  27  44  70 106 147 187 245 306 369 434
#     4  12  26  44  78 104 140 200 236 305 371 451
#     4  12  26  44  70 108 146 192 244 306 368 442
#     4  11  25  51  71 106 148 190 245 309 383 438
#     4  11  26  44  73 103 146 193 242 309 366 452
#     4  11  23  46  73 104 137 193 250 298 363 444
#     4  11  27  47  71 108 150 196 245 306 384 439
#
# _framework density 22.215893000000001
#
# number of rings (size 3 to 8) (size 9 to 14) (size 15 to 20)
#    0.000    0.800    2.000    3.600   11.200    3.200 
#    0.000    5.000    0.000    0.000    0.000    0.000 
#    0.000    0.000    0.000    0.000    0.000    0.000 
#
# Total GULP energy -495564.825745 kJ/mol
# GULP energy per Si atom -12389.120644 kJ/mol
# Density = 2.216533 g / cm^3
# Si number density = 22.215893 Si / 1000 Ang^3
#
#
#
# Elastic Constant Matrix: (Units=GPa)
#
#
# Indices 1 2 3 4 5 6 
#
# 1 79.9297 27.6578 16.4030 0.0000 0.0000 0.0000
# 2 27.6578 119.5038 20.9870 0.0000 0.0000 0.0000
# 3 16.4030 20.9870 109.4968 0.0000 0.0000 0.0000
# 4 0.0000 0.0000 0.0000 27.4963 0.0000 0.0000
# 5 0.0000 0.0000 0.0000 0.0000 21.2731 0.0000
# 6 0.0000 0.0000 0.0000 0.0000 0.0000 29.6549
#
#
#
# Elastic Compliance Matrix: (Units=1/GPa)
#
#
# Indices 1 2 3 4 5 6 
#
# 1 0.013837 -0.002937 -0.001510 0.000000 0.000000 0.000000
# 2 -0.002937 0.009283 -0.001339 0.000000 0.000000 0.000000
# 3 -0.001510 -0.001339 0.009616 0.000000 0.000000 0.000000
# 4 0.000000 0.000000 0.000000 0.036369 0.000000 0.000000
# 5 0.000000 0.000000 0.000000 0.000000 0.047008 0.000000
# 6 0.000000 0.000000 0.000000 0.000000 0.000000 0.033721
#
#
# Mechanical properties :
#
#
# Convention : Reuss Voigt Hill
#
# Bulk Modulus (GPa) = 47.25247 48.78065 48.01656
# Shear Modulus (GPa) = 29.68056 31.94369 30.81212
#
# Velocity S-wave (km/s) = 3.65911 3.79605 3.72821
# Velocity P-wave (km/s) = 6.25843 6.42016 6.33981
#
# Compressibility (1/GPa) = 0.02116291
#
# Stress axis : x y z
#
# Youngs Moduli (GPa) = 72.26875 107.72458 103.99817
#
# Poissons Ratio (x) = 0.31642 0.15702
# Poissons Ratio (y) = 0.21228 0.13928
# Poissons Ratio (z) = 0.10912 0.14427
#
# Static dielectric constant tensor:
#      x y z
#    x 3.230690 0.000000 0.000000 
#    y 0.000000 4.225970 0.000000 
#    z 0.000000 0.000000 4.633830 
# 
# 
# High freq. dielectric constant tensor:
#      x y z
#    x 1.875650 0.000000 0.000000 
#    y 0.000000 1.888320 0.000000 
#    z 0.000000 0.000000 1.889350 
# 
# From -- ./inp_files/20051.got.cif
#   From: 2010.03.12/outbox.cif.g09.slc.cpg/sg57_11_cif.got.tgz:20051.got - 2010.04.16 15:48:40.
