data_PCOD8235478
_publ_section_title
;
Structure prediction by ZEFSAII (Michael W. Deem and Ramdas Pophale) SiO2 
 PCOD8235478
Probable space group: P N N M
;
_chemical_formula_sum "Si O2"
_cell_formula_units_Z 64
_cell_length_a 20.285718
_cell_length_b 20.128822
_cell_length_c 8.739039
_cell_angle_alpha 90.000000
_cell_angle_beta 90.000000
_cell_angle_gamma 90.000000
_cell_volume 3568.390880
_symmetry_space_group_name_H-M "P N N M"
_symmetry_group_IT_number 58
_symmetry_cell_setting 'orthorhombic'
loop_
_space_group_symop_operation_xyz
x,y,z
-x,-y,z
1/2+x,1/2-y,1/2-z
1/2-x,1/2+y,1/2-z
-x,-y,-z
x,y,-z
1/2-x,1/2+y,1/2+z
1/2+x,1/2-y,1/2+z
loop_
_atom_site_type_symbol
_atom_site_label
_atom_site_fract_x
_atom_site_fract_y
_atom_site_fract_z
Si Si1 0.416663 0.324272 0.818057
Si Si2 0.704948 0.590597 0.819024
Si Si3 0.522475 0.427849 0.817541
Si Si4 0.479400 0.928852 0.820779
Si Si5 0.665707 0.445808 0.180409
Si Si6 0.306682 0.089893 0.319601
Si Si7 0.083848 0.675542 0.318197
Si Si8 0.333019 0.948897 0.178687
O O1 0.344988 0.351587 0.767212
O O2 0.474689 0.370875 0.749821
O O3 0.425564 0.249982 0.753251
O O4 0.420892 0.325451 0.000000
O O5 0.674505 0.521062 0.760097
O O6 0.775682 0.600537 0.737097
O O7 0.716783 0.590211 0.000000
O O8 0.500000 0.500000 0.757863
O O9 0.597289 0.414805 0.756697
O O10 0.518972 0.426328 0.000000
O O11 0.524832 0.870256 0.750864
O O12 0.402869 0.913275 0.787140
O O13 0.500000 0.000000 0.748437
O O14 0.494186 0.931635 0.000000
O O15 0.729416 0.402188 0.227783
O O16 0.660251 0.450109 0.000000
O O17 0.316404 0.095980 0.500000
O O18 0.345860 0.148209 0.236472
O O19 0.332660 0.018226 0.268127
O O20 0.083517 0.676896 0.500000
O O21 0.324846 0.964253 0.000000
#
# Coordination Sequence:
#
# PCOD8235478 Si02
#       8
#     8   8   8   8   8   8   8   8
#     4   9  17  28  47  72  97 129 165 201 244 293
#     4   9  16  29  46  71 101 124 153 198 243 288
#     4   9  13  22  43  71  98 122 152 196 248 288
#     4   9  16  29  48  69  94 124 161 209 247 277
#     4   8  14  24  42  68  97 119 145 193 242 281
#     4  10  19  31  47  72 101 127 156 200 251 292
#     4  10  19  33  50  69  95 129 168 204 243 296
#     4  10  18  30  50  73  95 125 163 201 246 291
#
# _framework density 17.935255000000002
#
# number of rings (size 3 to 8) (size 9 to 14) (size 15 to 20)
#    0.000    2.750    2.500    1.500    0.000    0.000 
#    0.000    3.750    0.000    3.000    0.000   12.250 
#    0.000    0.000    0.000    0.000    0.000    0.000 
#
# Total GULP energy -793206.209931 kJ/mol
# GULP energy per Si atom -12393.847030 kJ/mol
# Density = 1.789443 g / cm^3
# Si number density = 17.935255 Si / 1000 Ang^3
#
#
#
# Elastic Constant Matrix: (Units=GPa)
#
#
# Indices 1 2 3 4 5 6 
#
# 1 168.4627 84.0831 15.1659 0.0000 0.0000 0.0000
# 2 84.0831 131.5578 10.2205 0.0000 0.0000 0.0000
# 3 15.1659 10.2205 9.1463 0.0000 0.0000 0.0000
# 4 0.0000 0.0000 0.0000 11.7924 0.0000 0.0000
# 5 0.0000 0.0000 0.0000 0.0000 21.4729 0.0000
# 6 0.0000 0.0000 0.0000 0.0000 0.0000 28.3661
#
#
#
# Elastic Compliance Matrix: (Units=1/GPa)
#
#
# Indices 1 2 3 4 5 6 
#
# 1 0.009452 -0.005282 -0.009770 0.000000 0.000000 0.000000
# 2 -0.005282 0.011276 -0.003841 0.000000 0.000000 0.000000
# 3 -0.009770 -0.003841 0.129826 0.000000 0.000000 0.000000
# 4 0.000000 0.000000 0.000000 0.084800 0.000000 0.000000
# 5 0.000000 0.000000 0.000000 0.000000 0.046570 0.000000
# 6 0.000000 0.000000 0.000000 0.000000 0.000000 0.035253
#
#
# Mechanical properties :
#
#
# Convention : Reuss Voigt Hill
#
# Bulk Modulus (GPa) = 8.86790 58.67842 33.77316
# Shear Modulus (GPa) = 12.73710 25.63944 19.18827
#
# Velocity S-wave (km/s) = 2.66779 3.78505 3.27442
# Velocity P-wave (km/s) = 3.80061 7.20347 5.75910
#
# Compressibility (1/GPa) = 0.11276633
#
# Stress axis : x y z
#
# Youngs Moduli (GPa) = 105.79784 88.68706 7.70260
#
# Poissons Ratio (x) = 0.46845 0.07526
# Poissons Ratio (y) = 0.55883 0.02959
# Poissons Ratio (z) = 1.03368 0.34069
#
# Static dielectric constant tensor:
#      x y z
#    x 3.753670 0.000000 0.000000 
#    y 0.000000 3.307190 0.000000 
#    z 0.000000 0.000000 2.854990 
# 
# 
# High freq. dielectric constant tensor:
#      x y z
#    x 1.713960 0.000000 0.000000 
#    y 0.000000 1.666610 0.000000 
#    z 0.000000 0.000000 1.644470 
# 
# From -- ./inp_files/9458.got.cif
#   From: 2010.06.25/outbox.cif.g09.slc.cpg/sg58_5_cif.got.tgz:9458.got - 2010.06.26 21:38:00.
