data_PCOD8235592
_publ_section_title
;
Structure prediction by ZEFSAII (Michael W. Deem and Ramdas Pophale) SiO2 
 PCOD8235592
Probable space group: P N N M
;
_chemical_formula_sum "Si O2"
_cell_formula_units_Z 56
_cell_length_a 16.955388
_cell_length_b 14.016301
_cell_length_c 13.120740
_cell_angle_alpha 90.000000
_cell_angle_beta 90.000000
_cell_angle_gamma 90.000000
_cell_volume 3118.167764
_symmetry_space_group_name_H-M "P N N M"
_symmetry_group_IT_number 58
_symmetry_cell_setting 'orthorhombic'
loop_
_space_group_symop_operation_xyz
x,y,z
-x,-y,z
1/2+x,1/2-y,1/2-z
1/2-x,1/2+y,1/2-z
-x,-y,-z
x,y,-z
1/2-x,1/2+y,1/2+z
1/2+x,1/2-y,1/2+z
loop_
_atom_site_type_symbol
_atom_site_label
_atom_site_fract_x
_atom_site_fract_y
_atom_site_fract_z
Si Si1 0.067843 0.206298 0.120643
Si Si2 0.027645 0.607733 0.613865
Si Si3 0.834851 0.970158 0.882218
Si Si4 0.244395 0.695567 0.118082
Si Si5 0.819515 0.447844 0.277555
Si Si6 0.127408 0.335910 0.718881
Si Si7 0.396733 0.334947 0.383104
O O1 0.113195 0.114271 0.164264
O O2 0.109709 0.298089 0.168283
O O3 0.979540 0.196795 0.164983
O O4 0.072666 0.219175 0.000000
O O5 0.049527 0.644292 0.500000
O O6 0.104571 0.614378 0.687523
O O7 0.000000 0.500000 0.607648
O O8 0.954048 0.668383 0.655351
O O9 0.742449 0.949632 0.869730
O O10 0.861406 0.069923 0.829483
O O11 0.853330 0.976673 0.000000
O O12 0.228088 0.598082 0.181447
O O13 0.311290 0.766365 0.161384
O O14 0.162094 0.748455 0.128010
O O15 0.264027 0.670639 0.000000
O O16 0.842067 0.557775 0.258924
O O17 0.413531 0.359963 0.500000
#
# Coordination Sequence:
#
# PCOD8235592 Si02
#       7
#     8   8   8   8   8   8   8
#     4  10  20  34  53  80 111 141 182 232 279 330
#     4   9  19  34  55  81 108 139 179 228 274 324
#     4  10  18  31  54  82 109 137 176 230 280 323
#     4  11  22  36  55  80 111 149 191 230 275 334
#     4  11  21  35  55  83 113 143 183 230 278 329
#     4  11  21  36  56  79 111 152 189 224 280 335
#     4   9  18  33  54  79 106 138 177 225 277 327
#
# _framework density 17.959264000000001
#
# number of rings (size 3 to 8) (size 9 to 14) (size 15 to 20)
#    0.000    1.857    2.857    2.143    0.000    3.429 
#    0.000    0.000    0.000    5.143    0.000    1.000 
#    0.000    0.000    0.000    0.000    0.000    0.000 
#
# Total GULP energy -693947.331525 kJ/mol
# GULP energy per Si atom -12391.916634 kJ/mol
# Density = 1.791839 g / cm^3
# Si number density = 17.959264 Si / 1000 Ang^3
#
#
#
# Elastic Constant Matrix: (Units=GPa)
#
#
# Indices 1 2 3 4 5 6 
#
# 1 114.7832 37.2639 29.7317 0.0000 0.0000 0.0000
# 2 37.2639 79.7406 44.2194 0.0000 0.0000 0.0000
# 3 29.7317 44.2194 65.1693 0.0000 0.0000 0.0000
# 4 0.0000 0.0000 0.0000 22.2411 0.0000 0.0000
# 5 0.0000 0.0000 0.0000 0.0000 25.0455 0.0000
# 6 0.0000 0.0000 0.0000 0.0000 0.0000 28.7918
#
#
#
# Elastic Compliance Matrix: (Units=1/GPa)
#
#
# Indices 1 2 3 4 5 6 
#
# 1 0.010488 -0.003604 -0.002340 0.000000 0.000000 0.000000
# 2 -0.003604 0.021344 -0.012839 0.000000 0.000000 0.000000
# 3 -0.002340 -0.012839 0.025123 0.000000 0.000000 0.000000
# 4 0.000000 0.000000 0.000000 0.044962 0.000000 0.000000
# 5 0.000000 0.000000 0.000000 0.000000 0.039927 0.000000
# 6 0.000000 0.000000 0.000000 0.000000 0.000000 0.034732
#
#
# Mechanical properties :
#
#
# Convention : Reuss Voigt Hill
#
# Bulk Modulus (GPa) = 51.56841 53.56925 52.56883
# Shear Modulus (GPa) = 22.66492 25.11420 23.88956
#
# Velocity S-wave (km/s) = 3.55634 3.74357 3.65116
# Velocity P-wave (km/s) = 6.75573 6.96984 6.86362
#
# Compressibility (1/GPa) = 0.01939172
#
# Stress axis : x y z
#
# Youngs Moduli (GPa) = 95.34656 46.85076 39.80344
#
# Poissons Ratio (x) = 0.16884 0.09312
# Poissons Ratio (y) = 0.34361 0.51102
# Poissons Ratio (z) = 0.22307 0.60150
#
# Static dielectric constant tensor:
#      x y z
#    x 3.536560 0.000000 0.000000 
#    y 0.000000 3.425860 0.000000 
#    z 0.000000 0.000000 3.151300 
# 
# 
# High freq. dielectric constant tensor:
#      x y z
#    x 1.714630 0.000000 0.000000 
#    y 0.000000 1.688490 0.000000 
#    z 0.000000 0.000000 1.668430 
# 
# From -- ./inp_files/15690.got.cif
#   From: 2010.06.25/outbox.cif.g09.slc.cpg/sg58_8_cif.got.tgz:15690.got - 2010.06.26 21:38:00.
