data_PCOD8235868
_publ_section_title
;
Structure prediction by ZEFSAII (Michael W. Deem and Ramdas Pophale) SiO2 
 PCOD8235868
Probable space group: P N N M
;
_chemical_formula_sum "Si O2"
_cell_formula_units_Z 64
_cell_length_a 27.576297
_cell_length_b 14.756754
_cell_length_c 8.825995
_cell_angle_alpha 90.000000
_cell_angle_beta 90.000000
_cell_angle_gamma 90.000000
_cell_volume 3591.620671
_symmetry_space_group_name_H-M "P N N M"
_symmetry_group_IT_number 58
_symmetry_cell_setting 'orthorhombic'
loop_
_space_group_symop_operation_xyz
x,y,z
-x,-y,z
1/2+x,1/2-y,1/2-z
1/2-x,1/2+y,1/2-z
-x,-y,-z
x,y,-z
1/2-x,1/2+y,1/2+z
1/2+x,1/2-y,1/2+z
loop_
_atom_site_type_symbol
_atom_site_label
_atom_site_fract_x
_atom_site_fract_y
_atom_site_fract_z
Si Si1 0.631380 0.716161 0.324801
Si Si2 0.279365 0.411942 0.673593
Si Si3 0.553822 0.591396 0.820924
Si Si4 0.451529 0.597738 0.320796
Si Si5 0.361815 0.716749 0.674636
Si Si6 0.821494 0.596550 0.824457
Si Si7 0.174699 0.602570 0.821505
Si Si8 0.783308 0.904249 0.321462
O O1 0.614291 0.712397 0.500000
O O2 0.683375 0.669609 0.304547
O O3 0.591283 0.669886 0.220508
O O4 0.638362 0.819257 0.261933
O O5 0.272854 0.438573 0.500000
O O6 0.227608 0.379877 0.736459
O O7 0.301163 0.499185 0.758590
O O8 0.569211 0.498355 0.737624
O O9 0.500967 0.622283 0.764587
O O10 0.552971 0.575240 0.000000
O O11 0.460786 0.591668 0.500000
O O12 0.413665 0.676547 0.277227
O O13 0.351602 0.693855 0.500000
O O14 0.361363 0.825153 0.705028
O O15 0.318913 0.674567 0.771411
O O16 0.843529 0.498568 0.774719
O O17 0.806761 0.591119 0.000000
O O18 0.229286 0.615557 0.757992
O O19 0.176582 0.615546 0.000000
O O20 0.783542 0.910310 0.500000
#
# Coordination Sequence:
#
# PCOD8235868 Si02
#       8
#     8   8   8   8   8   8   8   8
#     4  10  19  32  50  70  95 130 168 200 236 288
#     4  10  19  30  46  71 102 134 168 202 238 287
#     4  11  22  35  52  76 101 123 154 199 248 293
#     4  10  20  36  55  74  99 130 159 190 238 297
#     4  10  20  32  50  75 100 128 164 203 242 291
#     4   9  18  33  50  71 101 133 165 204 245 282
#     4   8  16  31  49  68  94 131 169 201 234 277
#     4  10  19  31  48  71 101 135 168 203 245 289
#
# _framework density 17.819254999999998
#
# number of rings (size 3 to 8) (size 9 to 14) (size 15 to 20)
#    0.000    2.250    0.000    5.250    0.000    6.500 
#    0.000    3.125    0.000    0.750    0.000    5.250 
#    0.000    0.000    0.000    0.000    0.000    0.000 
#
# Total GULP energy -793476.154492 kJ/mol
# GULP energy per Si atom -12398.064914 kJ/mol
# Density = 1.777870 g / cm^3
# Si number density = 17.819255 Si / 1000 Ang^3
#
#
#
# Elastic Constant Matrix: (Units=GPa)
#
#
# Indices 1 2 3 4 5 6 
#
# 1 77.8419 64.6035 30.2190 0.0000 0.0000 0.0000
# 2 64.6035 131.4498 34.6071 0.0000 0.0000 0.0000
# 3 30.2190 34.6071 62.8839 0.0000 0.0000 0.0000
# 4 0.0000 0.0000 0.0000 17.7744 0.0000 0.0000
# 5 0.0000 0.0000 0.0000 0.0000 24.2869 0.0000
# 6 0.0000 0.0000 0.0000 0.0000 0.0000 31.9628
#
#
#
# Elastic Compliance Matrix: (Units=1/GPa)
#
#
# Indices 1 2 3 4 5 6 
#
# 1 0.023340 -0.009961 -0.005734 0.000000 0.000000 0.000000
# 2 -0.009961 0.013148 -0.002449 0.000000 0.000000 0.000000
# 3 -0.005734 -0.002449 0.020005 0.000000 0.000000 0.000000
# 4 0.000000 0.000000 0.000000 0.056261 0.000000 0.000000
# 5 0.000000 0.000000 0.000000 0.000000 0.041174 0.000000
# 6 0.000000 0.000000 0.000000 0.000000 0.000000 0.031286
#
#
# Mechanical properties :
#
#
# Convention : Reuss Voigt Hill
#
# Bulk Modulus (GPa) = 49.49265 59.00388 54.24827
# Shear Modulus (GPa) = 21.90703 24.32121 23.11412
#
# Velocity S-wave (km/s) = 3.51009 3.69844 3.60549
# Velocity P-wave (km/s) = 6.65302 7.17093 6.91683
#
# Compressibility (1/GPa) = 0.02020502
#
# Stress axis : x y z
#
# Youngs Moduli (GPa) = 42.84564 76.05863 49.98638
#
# Poissons Ratio (x) = 0.75763 0.28662
# Poissons Ratio (y) = 0.42679 0.12241
# Poissons Ratio (z) = 0.24568 0.18625
#
# Static dielectric constant tensor:
#      x y z
#    x 3.142680 0.000000 0.000000 
#    y 0.000000 3.551390 0.000000 
#    z 0.000000 0.000000 3.253830 
# 
# 
# High freq. dielectric constant tensor:
#      x y z
#    x 1.664730 0.000000 0.000000 
#    y 0.000000 1.694360 0.000000 
#    z 0.000000 0.000000 1.683810 
# 
# From -- ./inp_files/11153.got.cif
#   From: 2010.06.25/outbox.cif.g09.slc.cpg/sg58_6_cif.got.tgz:11153.got - 2010.06.26 21:38:00.
