data_PCOD8235472
_publ_section_title
;
Structure prediction by ZEFSAII (Michael W. Deem and Ramdas Pophale) SiO2 
 PCOD8235472
Probable space group: P N N M
;
_chemical_formula_sum "Si O2"
_cell_formula_units_Z 64
_cell_length_a 11.068098
_cell_length_b 18.034516
_cell_length_c 19.211153
_cell_angle_alpha 90.000000
_cell_angle_beta 90.000000
_cell_angle_gamma 90.000000
_cell_volume 3834.695803
_symmetry_space_group_name_H-M "P N N M"
_symmetry_group_IT_number 58
_symmetry_cell_setting 'orthorhombic'
loop_
_space_group_symop_operation_xyz
x,y,z
-x,-y,z
1/2+x,1/2-y,1/2-z
1/2-x,1/2+y,1/2-z
-x,-y,-z
x,y,-z
1/2-x,1/2+y,1/2+z
1/2+x,1/2-y,1/2+z
loop_
_atom_site_type_symbol
_atom_site_label
_atom_site_fract_x
_atom_site_fract_y
_atom_site_fract_z
Si Si1 0.104264 0.182514 0.321051
Si Si2 0.220626 0.044129 0.253282
Si Si3 0.617840 0.611530 0.226630
Si Si4 0.135693 0.306789 0.209629
Si Si5 0.554659 0.927004 0.325376
Si Si6 0.309932 0.185100 0.580042
Si Si7 0.046210 0.227917 0.921880
Si Si8 0.046432 0.076278 0.141426
O O1 0.188770 0.119082 0.291977
O O2 0.088838 0.249686 0.267143
O O3 0.177660 0.208841 0.389750
O O4 0.971002 0.146092 0.333003
O O5 0.364978 0.041190 0.260693
O O6 0.176428 0.053137 0.173992
O O7 0.158977 0.972358 0.290483
O O8 0.731273 0.666516 0.231291
O O9 0.542029 0.608862 0.298522
O O10 0.134180 0.268506 0.133225
O O11 0.046489 0.375980 0.209157
O O12 0.633079 0.887429 0.384487
O O13 0.500000 0.000000 0.362174
O O14 0.289346 0.166190 0.500000
O O15 0.405536 0.251894 0.591311
O O16 0.061043 0.139145 0.916358
O O17 0.085064 0.251790 0.000000
O O18 0.000000 0.000000 0.106565
#
# Coordination Sequence:
#
# PCOD8235472 Si02
#       8
#     8   8   8   8   8   8   8   8
#     4  10  19  30  54  72  97 131 167 212 253 293
#     4   9  17  31  49  72 104 128 160 210 258 298
#     4  10  18  30  49  74  99 129 163 212 255 300
#     4  11  20  30  50  77 102 130 175 206 255 307
#     4  10  19  32  49  76 103 135 168 211 257 303
#     4   9  20  35  52  73 102 138 174 207 250 303
#     4  10  19  33  49  71 105 135 165 211 254 304
#     4   9  17  30  49  73  99 130 163 211 268 306
#
# _framework density 16.689719
#
# number of rings (size 3 to 8) (size 9 to 14) (size 15 to 20)
#    0.000    2.250    3.750    1.875    3.500    0.500 
#    0.000    0.625    0.000    6.000    0.000    0.000 
#    0.000    1.000    0.000    0.000    0.000    0.000 
#
# Total GULP energy -792883.111919 kJ/mol
# GULP energy per Si atom -12388.798624 kJ/mol
# Density = 1.665173 g / cm^3
# Si number density = 16.689719 Si / 1000 Ang^3
#
#
#
# Elastic Constant Matrix: (Units=GPa)
#
#
# Indices 1 2 3 4 5 6 
#
# 1 65.8328 26.4325 22.7313 0.0000 0.0000 0.0000
# 2 26.4325 104.3112 30.4783 0.0000 0.0000 0.0000
# 3 22.7313 30.4783 61.2317 0.0000 0.0000 0.0000
# 4 0.0000 0.0000 0.0000 14.6453 0.0000 0.0000
# 5 0.0000 0.0000 0.0000 0.0000 16.8344 0.0000
# 6 0.0000 0.0000 0.0000 0.0000 0.0000 19.1784
#
#
#
# Elastic Compliance Matrix: (Units=1/GPa)
#
#
# Indices 1 2 3 4 5 6 
#
# 1 0.018238 -0.003093 -0.005231 0.000000 0.000000 0.000000
# 2 -0.003093 0.011743 -0.004697 0.000000 0.000000 0.000000
# 3 -0.005231 -0.004697 0.020611 0.000000 0.000000 0.000000
# 4 0.000000 0.000000 0.000000 0.068281 0.000000 0.000000
# 5 0.000000 0.000000 0.000000 0.000000 0.059402 0.000000
# 6 0.000000 0.000000 0.000000 0.000000 0.000000 0.052142
#
#
# Mechanical properties :
#
#
# Convention : Reuss Voigt Hill
#
# Bulk Modulus (GPa) = 40.73262 43.40665 42.06964
# Shear Modulus (GPa) = 18.89341 20.24721 19.57031
#
# Velocity S-wave (km/s) = 3.36823 3.48682 3.42804
# Velocity P-wave (km/s) = 6.29169 6.50192 6.39767
#
# Compressibility (1/GPa) = 0.02455035
#
# Stress axis : x y z
#
# Youngs Moduli (GPa) = 54.83028 85.15845 48.51742
#
# Poissons Ratio (x) = 0.26340 0.25379
# Poissons Ratio (y) = 0.16960 0.22787
# Poissons Ratio (z) = 0.28682 0.39997
#
# Static dielectric constant tensor:
#      x y z
#    x 3.398140 0.000000 0.000000 
#    y 0.000000 3.277700 0.000000 
#    z 0.000000 0.000000 2.872400 
# 
# 
# High freq. dielectric constant tensor:
#      x y z
#    x 1.641160 0.000000 0.000000 
#    y 0.000000 1.659890 0.000000 
#    z 0.000000 0.000000 1.598160 
# 
# From -- ./inp_files/26476.got.cif
#   From: 2010.06.25/outbox.cif.g09.slc.cpg/sg58_14_cif.got.tgz:26476.got - 2010.06.26 21:38:00.
