data_PCOD8235930
_publ_section_title
;
Structure prediction by ZEFSAII (Michael W. Deem and Ramdas Pophale) SiO2 
 PCOD8235930
Probable space group: P N N M
;
_chemical_formula_sum "Si O2"
_cell_formula_units_Z 48
_cell_length_a 23.908124
_cell_length_b 13.705010
_cell_length_c 8.651080
_cell_angle_alpha 90.000000
_cell_angle_beta 90.000000
_cell_angle_gamma 90.000000
_cell_volume 2834.622203
_symmetry_space_group_name_H-M "P N N M"
_symmetry_group_IT_number 58
_symmetry_cell_setting 'orthorhombic'
loop_
_space_group_symop_operation_xyz
x,y,z
-x,-y,z
1/2+x,1/2-y,1/2-z
1/2-x,1/2+y,1/2-z
-x,-y,-z
x,y,-z
1/2-x,1/2+y,1/2+z
1/2+x,1/2-y,1/2+z
loop_
_atom_site_type_symbol
_atom_site_label
_atom_site_fract_x
_atom_site_fract_y
_atom_site_fract_z
Si Si1 0.663712 0.298695 0.318756
Si Si2 0.060946 0.099658 0.681282
Si Si3 0.770230 0.612742 0.820378
Si Si4 0.268445 0.105306 0.319150
Si Si5 0.944572 0.109933 0.182926
Si Si6 0.833681 0.208714 0.818592
O O1 0.650984 0.304454 0.500000
O O2 0.607706 0.321562 0.224860
O O3 0.683102 0.190307 0.265179
O O4 0.712067 0.375637 0.276361
O O5 0.061949 0.077511 0.500000
O O6 0.000741 0.142934 0.729483
O O7 0.072351 0.000274 0.774159
O O8 0.790696 0.503246 0.781393
O O9 0.710923 0.630519 0.740796
O O10 0.759524 0.627852 0.000000
O O11 0.254272 0.117492 0.500000
O O12 0.316575 0.181601 0.267082
O O13 0.895411 0.181849 0.242773
O O14 0.954234 0.116799 0.000000
O O15 0.834271 0.198623 0.000000
#
# Coordination Sequence:
#
# PCOD8235930 Si02
#       6
#     8   8   8   8   8   8
#     4  10  19  31  46  68  94 122 153 187 225 268
#     4  11  21  32  47  68  92 122 154 188 227 271
#     4   9  18  30  47  68  93 122 152 184 222 266
#     4   9  17  31  48  69  94 121 151 186 225 270
#     4  10  19  32  49  70  94 121 150 187 229 273
#     4   9  18  30  47  69  94 120 149 184 226 270
#
# _framework density 16.933474
#
# number of rings (size 3 to 8) (size 9 to 14) (size 15 to 20)
#    0.000    2.333    0.000    4.500    0.000    5.333 
#    0.000    0.000    0.000    1.000    0.000    7.000 
#    0.000    0.000    0.000    0.000    0.000    0.000 
#
# Total GULP energy -595158.803161 kJ/mol
# GULP energy per Si atom -12399.141733 kJ/mol
# Density = 1.689493 g / cm^3
# Si number density = 16.933474 Si / 1000 Ang^3
#
#
#
# Elastic Constant Matrix: (Units=GPa)
#
#
# Indices 1 2 3 4 5 6 
#
# 1 130.3002 62.7939 26.7160 0.0000 0.0000 0.0000
# 2 62.7939 98.5047 8.9062 0.0000 0.0000 0.0000
# 3 26.7160 8.9062 29.8229 0.0000 0.0000 0.0000
# 4 0.0000 0.0000 0.0000 16.6209 0.0000 0.0000
# 5 0.0000 0.0000 0.0000 0.0000 27.4324 0.0000
# 6 0.0000 0.0000 0.0000 0.0000 0.0000 25.6622
#
#
#
# Elastic Compliance Matrix: (Units=1/GPa)
#
#
# Indices 1 2 3 4 5 6 
#
# 1 0.013330 -0.007624 -0.009665 0.000000 0.000000 0.000000
# 2 -0.007624 0.014794 0.002412 0.000000 0.000000 0.000000
# 3 -0.009665 0.002412 0.041469 0.000000 0.000000 0.000000
# 4 0.000000 0.000000 0.000000 0.060165 0.000000 0.000000
# 5 0.000000 0.000000 0.000000 0.000000 0.036453 0.000000
# 6 0.000000 0.000000 0.000000 0.000000 0.000000 0.038968
#
#
# Mechanical properties :
#
#
# Convention : Reuss Voigt Hill
#
# Bulk Modulus (GPa) = 25.10099 50.60664 37.85382
# Shear Modulus (GPa) = 20.14402 24.62389 22.38395
#
# Velocity S-wave (km/s) = 3.45280 3.81748 3.63971
# Velocity P-wave (km/s) = 5.54538 7.02718 6.32979
#
# Compressibility (1/GPa) = 0.03983907
#
# Stress axis : x y z
#
# Youngs Moduli (GPa) = 75.01750 67.59636 24.11439
#
# Poissons Ratio (x) = 0.51534 0.23306
# Poissons Ratio (y) = 0.57192 -0.05815
# Poissons Ratio (z) = 0.72503 -0.16302
#
# Static dielectric constant tensor:
#      x y z
#    x 3.295500 0.000000 0.000000 
#    y 0.000000 3.381190 0.000000 
#    z 0.000000 0.000000 3.175320 
# 
# 
# High freq. dielectric constant tensor:
#      x y z
#    x 1.644180 0.000000 0.000000 
#    y 0.000000 1.641370 0.000000 
#    z 0.000000 0.000000 1.657790 
# 
# From -- ./inp_files/6042.got.cif
#   From: 2010.06.25/outbox.cif.g09.slc.cpg/sg58_4_cif.got.tgz:6042.got - 2010.06.26 21:38:00.
