data_PCOD8235952
_publ_section_title
;
Structure prediction by ZEFSAII (Michael W. Deem and Ramdas Pophale) SiO2 
 PCOD8235952
Probable space group: P N N M
;
_chemical_formula_sum "Si O2"
_cell_formula_units_Z 48
_cell_length_a 27.678071
_cell_length_b 9.501105
_cell_length_c 10.310885
_cell_angle_alpha 90.000000
_cell_angle_beta 90.000000
_cell_angle_gamma 90.000000
_cell_volume 2711.476718
_symmetry_space_group_name_H-M "P N N M"
_symmetry_group_IT_number 58
_symmetry_cell_setting 'orthorhombic'
loop_
_space_group_symop_operation_xyz
x,y,z
-x,-y,z
1/2+x,1/2-y,1/2-z
1/2-x,1/2+y,1/2-z
-x,-y,-z
x,y,-z
1/2-x,1/2+y,1/2+z
1/2+x,1/2-y,1/2+z
loop_
_atom_site_type_symbol
_atom_site_label
_atom_site_fract_x
_atom_site_fract_y
_atom_site_fract_z
Si Si1 0.345993 0.998855 0.851144
Si Si2 0.208247 0.313551 0.853255
Si Si3 0.536662 0.380865 0.643484
Si Si4 0.424518 0.785905 0.142494
Si Si5 0.319484 0.307724 0.852135
Si Si6 0.361942 0.578817 0.727065
O O1 0.309709 0.928672 0.749109
O O2 0.400273 0.938017 0.831629
O O3 0.348497 0.164625 0.822683
O O4 0.328414 0.971142 0.000000
O O5 0.263591 0.280403 0.820082
O O6 0.179366 0.167171 0.845351
O O7 0.202659 0.373149 0.000000
O O8 0.500000 0.500000 0.693510
O O9 0.521455 0.327762 0.500000
O O10 0.535539 0.250517 0.746756
O O11 0.591071 0.443973 0.635466
O O12 0.380886 0.670095 0.149060
O O13 0.448660 0.780035 0.000000
O O14 0.340909 0.428309 0.762342
O O15 0.326346 0.355349 0.000000
#
# Coordination Sequence:
#
# PCOD8235952 Si02
#       6
#     8   8   8   8   8   8
#     4   9  18  32  49  69  98 134 167 203 250 298
#     4  10  19  32  50  71  98 135 175 209 245 295
#     4   9  18  32  53  77  98 125 164 210 256 299
#     4   8  16  29  49  73  95 124 162 201 243 293
#     4  10  19  31  48  73 103 135 168 207 251 296
#     4   9  18  30  50  72 101 130 163 205 250 292
#
# _framework density 17.702532000000001
#
# number of rings (size 3 to 8) (size 9 to 14) (size 15 to 20)
#    1.000    1.833    0.000    2.000    0.000    1.000 
#    0.000    3.333    0.000    1.000    0.000    5.833 
#    0.000    0.000    0.000    0.000    0.000    0.000 
#
# Total GULP energy -594677.745598 kJ/mol
# GULP energy per Si atom -12389.119700 kJ/mol
# Density = 1.766224 g / cm^3
# Si number density = 17.702532 Si / 1000 Ang^3
#
#
#
# Elastic Constant Matrix: (Units=GPa)
#
#
# Indices 1 2 3 4 5 6 
#
# 1 31.5332 7.7862 -3.6295 0.0000 0.0000 0.0000
# 2 7.7862 73.9427 19.3044 0.0000 0.0000 0.0000
# 3 -3.6295 19.3044 75.3061 0.0000 0.0000 0.0000
# 4 0.0000 0.0000 0.0000 20.0664 0.0000 0.0000
# 5 0.0000 0.0000 0.0000 0.0000 23.0413 0.0000
# 6 0.0000 0.0000 0.0000 0.0000 0.0000 11.4625
#
#
#
# Elastic Compliance Matrix: (Units=1/GPa)
#
#
# Indices 1 2 3 4 5 6 
#
# 1 0.033050 -0.004175 0.002663 0.000000 0.000000 0.000000
# 2 -0.004175 0.015022 -0.004052 0.000000 0.000000 0.000000
# 3 0.002663 -0.004052 0.014446 0.000000 0.000000 0.000000
# 4 0.000000 0.000000 0.000000 0.049835 0.000000 0.000000
# 5 0.000000 0.000000 0.000000 0.000000 0.043400 0.000000
# 6 0.000000 0.000000 0.000000 0.000000 0.000000 0.087241
#
#
# Mechanical properties :
#
#
# Convention : Reuss Voigt Hill
#
# Bulk Modulus (GPa) = 19.45923 25.30047 22.37985
# Shear Modulus (GPa) = 18.43306 21.40211 19.91759
#
# Velocity S-wave (km/s) = 3.23037 3.48082 3.35793
# Velocity P-wave (km/s) = 4.99299 5.52067 5.26345
#
# Compressibility (1/GPa) = 0.05138950
#
# Stress axis : x y z
#
# Youngs Moduli (GPa) = 30.25708 66.57117 69.22239
#
# Poissons Ratio (x) = 0.27797 -0.18436
# Poissons Ratio (y) = 0.12634 0.28049
# Poissons Ratio (z) = -0.08058 0.26974
#
# Static dielectric constant tensor:
#      x y z
#    x 3.050910 0.000000 0.000000 
#    y 0.000000 3.066940 0.000000 
#    z 0.000000 0.000000 3.239580 
# 
# 
# High freq. dielectric constant tensor:
#      x y z
#    x 1.662370 0.000000 0.000000 
#    y 0.000000 1.667260 0.000000 
#    z 0.000000 0.000000 1.685210 
# 
# From -- ./inp_files/17916.got.cif
#   From: 2010.06.25/outbox.cif.g09.slc.cpg/sg58_9_cif.got.tgz:17916.got - 2010.06.26 21:38:00.
