data_PCOD8235788
_publ_section_title
;
Structure prediction by ZEFSAII (Michael W. Deem and Ramdas Pophale) SiO2 
 PCOD8235788
Probable space group: P N N M
;
_chemical_formula_sum "Si O2"
_cell_formula_units_Z 64
_cell_length_a 13.134830
_cell_length_b 15.291742
_cell_length_c 17.134424
_cell_angle_alpha 90.000000
_cell_angle_beta 90.000000
_cell_angle_gamma 90.000000
_cell_volume 3441.524993
_symmetry_space_group_name_H-M "P N N M"
_symmetry_group_IT_number 58
_symmetry_cell_setting 'orthorhombic'
loop_
_space_group_symop_operation_xyz
x,y,z
-x,-y,z
1/2+x,1/2-y,1/2-z
1/2-x,1/2+y,1/2-z
-x,-y,-z
x,y,-z
1/2-x,1/2+y,1/2+z
1/2+x,1/2-y,1/2+z
loop_
_atom_site_type_symbol
_atom_site_label
_atom_site_fract_x
_atom_site_fract_y
_atom_site_fract_z
Si Si1 0.381638 0.000807 0.409166
Si Si2 0.537774 0.901034 0.089555
Si Si3 0.422489 0.756085 0.814833
Si Si4 0.307249 0.887223 0.280109
Si Si5 0.267807 0.150980 0.677428
Si Si6 0.398746 0.444798 0.588251
Si Si7 0.394035 0.312945 0.275051
Si Si8 0.224495 0.542080 0.322817
O O1 0.368781 0.985827 0.500000
O O2 0.330480 0.917742 0.367526
O O3 0.500000 0.000000 0.384159
O O4 0.321960 0.089044 0.385845
O O5 0.462093 0.829054 0.125369
O O6 0.646947 0.895010 0.131318
O O7 0.500000 0.000000 0.098858
O O8 0.551021 0.875272 0.000000
O O9 0.372995 0.801905 0.739053
O O10 0.332035 0.700458 0.857289
O O11 0.508783 0.692073 0.781606
O O12 0.187477 0.868132 0.274183
O O13 0.337049 0.961985 0.217101
O O14 0.355601 0.216732 0.704538
O O15 0.226196 0.097441 0.752326
O O16 0.500000 0.500000 0.588691
O O17 0.372882 0.413200 0.500000
O O18 0.415883 0.361081 0.643095
O O19 0.308265 0.506883 0.617646
#
# Coordination Sequence:
#
# PCOD8235788 Si02
#       8
#     8   8   8   8   8   8   8   8
#     4  10  21  37  59  84 109 140 184 235 283 333
#     4  11  22  34  54  83 111 146 184 231 287 335
#     4  11  20  36  56  83 115 145 188 234 278 338
#     4   9  20  34  57  81 104 145 188 226 269 334
#     4  10  21  34  59  85 109 144 186 235 283 332
#     4  10  21  36  54  79 111 147 184 225 276 334
#     4  10  20  35  55  80 112 147 183 226 278 332
#     4  10  18  36  57  80 106 144 188 227 273 339
#
# _framework density 18.596408
#
# number of rings (size 3 to 8) (size 9 to 14) (size 15 to 20)
#    0.000    1.875    2.500    1.875    1.750    1.000 
#    0.000    1.250    0.000    0.750    0.000    0.000 
#    0.000    0.000    0.000    0.000    0.000    0.000 
#
# Total GULP energy -793526.585542 kJ/mol
# GULP energy per Si atom -12398.852899 kJ/mol
# Density = 1.855408 g / cm^3
# Si number density = 18.596408 Si / 1000 Ang^3
#
#
#
# Elastic Constant Matrix: (Units=GPa)
#
#
# Indices 1 2 3 4 5 6 
#
# 1 100.1589 37.1628 51.5058 0.0000 0.0000 0.0000
# 2 37.1628 80.2197 43.1929 0.0000 0.0000 0.0000
# 3 51.5058 43.1929 107.5772 0.0000 0.0000 0.0000
# 4 0.0000 0.0000 0.0000 31.3028 0.0000 0.0000
# 5 0.0000 0.0000 0.0000 0.0000 24.2782 0.0000
# 6 0.0000 0.0000 0.0000 0.0000 0.0000 35.5402
#
#
#
# Elastic Compliance Matrix: (Units=1/GPa)
#
#
# Indices 1 2 3 4 5 6 
#
# 1 0.014049 -0.003683 -0.005248 0.000000 0.000000 0.000000
# 2 -0.003683 0.016869 -0.005010 0.000000 0.000000 0.000000
# 3 -0.005248 -0.005010 0.013820 0.000000 0.000000 0.000000
# 4 0.000000 0.000000 0.000000 0.031946 0.000000 0.000000
# 5 0.000000 0.000000 0.000000 0.000000 0.041189 0.000000
# 6 0.000000 0.000000 0.000000 0.000000 0.000000 0.028137
#
#
# Mechanical properties :
#
#
# Convention : Reuss Voigt Hill
#
# Bulk Modulus (GPa) = 59.32184 61.29766 60.30975
# Shear Modulus (GPa) = 27.85346 28.63053 28.24199
#
# Velocity S-wave (km/s) = 3.87432 3.92800 3.90125
# Velocity P-wave (km/s) = 7.20990 7.32160 7.26597
#
# Compressibility (1/GPa) = 0.01685720
#
# Stress axis : x y z
#
# Youngs Moduli (GPa) = 71.17807 59.27891 72.36055
#
# Poissons Ratio (x) = 0.21832 0.37973
# Poissons Ratio (y) = 0.26214 0.36252
# Poissons Ratio (z) = 0.37353 0.29698
#
# Static dielectric constant tensor:
#      x y z
#    x 3.530390 0.000000 0.000000 
#    y 0.000000 3.544040 0.000000 
#    z 0.000000 0.000000 3.337240 
# 
# 
# High freq. dielectric constant tensor:
#      x y z
#    x 1.727830 0.000000 0.000000 
#    y 0.000000 1.721570 0.000000 
#    z 0.000000 0.000000 1.708330 
# 
# From -- ./inp_files/26389.got.cif
#   From: 2010.06.25/outbox.cif.g09.slc.cpg/sg58_14_cif.got.tgz:26389.got - 2010.06.26 21:38:00.
