data_PCOD8235494
_publ_section_title
;
Structure prediction by ZEFSAII (Michael W. Deem and Ramdas Pophale) SiO2 
 PCOD8235494
Probable space group: P N N M
;
_chemical_formula_sum "Si O2"
_cell_formula_units_Z 56
_cell_length_a 12.788815
_cell_length_b 9.283606
_cell_length_c 28.688529
_cell_angle_alpha 90.000000
_cell_angle_beta 90.000000
_cell_angle_gamma 90.000000
_cell_volume 3406.083465
_symmetry_space_group_name_H-M "P N N M"
_symmetry_group_IT_number 58
_symmetry_cell_setting 'orthorhombic'
loop_
_space_group_symop_operation_xyz
x,y,z
-x,-y,z
1/2+x,1/2-y,1/2-z
1/2-x,1/2+y,1/2-z
-x,-y,-z
x,y,-z
1/2-x,1/2+y,1/2+z
1/2+x,1/2-y,1/2+z
loop_
_atom_site_type_symbol
_atom_site_label
_atom_site_fract_x
_atom_site_fract_y
_atom_site_fract_z
Si Si1 0.146899 0.799068 0.876185
Si Si2 0.816941 0.959351 0.196858
Si Si3 0.600996 0.904697 0.238408
Si Si4 0.699501 0.982038 0.662573
Si Si5 0.100315 0.923884 0.711013
Si Si6 0.623216 0.474085 0.447873
Si Si7 0.094933 0.254032 0.874368
O O1 0.222415 0.662094 0.867885
O O2 0.028745 0.744215 0.879203
O O3 0.155387 0.900877 0.832039
O O4 0.177624 0.887977 0.922858
O O5 0.692173 0.949274 0.202665
O O6 0.866839 0.818566 0.173649
O O7 0.870789 0.970875 0.246686
O O8 0.577156 0.736798 0.229209
O O9 0.500000 0.000000 0.226122
O O10 0.634687 0.934705 0.291607
O O11 0.805241 0.068728 0.674083
O O12 0.631849 0.081965 0.628205
O O13 0.000000 0.000000 0.687327
O O14 0.500000 0.500000 0.448593
O O15 0.668734 0.457666 0.500000
O O16 0.646808 0.329562 0.418365
#
# Coordination Sequence:
#
# PCOD8235494 Si02
#       7
#     8   8   8   8   8   8   8
#     4  10  18  30  51  72  95 133 159 198 238 289
#     4  10  20  33  46  66  94 132 171 202 233 282
#     4  11  23  33  47  67  97 133 172 212 239 270
#     4  11  22  33  46  71 101 128 172 205 238 284
#     4  11  23  34  48  65  97 134 171 208 246 273
#     4   8  16  31  51  73  98 127 158 191 239 298
#     4  10  18  32  49  70  99 130 164 194 239 287
#
# _framework density 16.44117
#
# number of rings (size 3 to 8) (size 9 to 14) (size 15 to 20)
#    0.000    1.857    2.857    3.429    4.000    0.000 
#    0.000    0.714    0.000    3.429    0.000    0.000 
#    0.000   21.714    0.000    0.000    0.000    0.000 
#
# Total GULP energy -694215.522887 kJ/mol
# GULP energy per Si atom -12396.705766 kJ/mol
# Density = 1.640375 g / cm^3
# Si number density = 16.441170 Si / 1000 Ang^3
#
#
#
# Elastic Constant Matrix: (Units=GPa)
#
#
# Indices 1 2 3 4 5 6 
#
# 1 54.2789 13.7366 4.6939 0.0000 0.0000 0.0000
# 2 13.7366 82.1106 16.5112 0.0000 0.0000 0.0000
# 3 4.6939 16.5112 66.5153 0.0000 0.0000 0.0000
# 4 0.0000 0.0000 0.0000 10.4539 0.0000 0.0000
# 5 0.0000 0.0000 0.0000 0.0000 12.2424 0.0000
# 6 0.0000 0.0000 0.0000 0.0000 0.0000 26.6550
#
#
#
# Elastic Compliance Matrix: (Units=1/GPa)
#
#
# Indices 1 2 3 4 5 6 
#
# 1 0.019260 -0.003104 -0.000589 0.000000 0.000000 0.000000
# 2 -0.003104 0.013319 -0.003087 0.000000 0.000000 0.000000
# 3 -0.000589 -0.003087 0.015842 0.000000 0.000000 0.000000
# 4 0.000000 0.000000 0.000000 0.095658 0.000000 0.000000
# 5 0.000000 0.000000 0.000000 0.000000 0.081683 0.000000
# 6 0.000000 0.000000 0.000000 0.000000 0.000000 0.037516
#
#
# Mechanical properties :
#
#
# Convention : Reuss Voigt Hill
#
# Bulk Modulus (GPa) = 28.68494 30.30980 29.49737
# Shear Modulus (GPa) = 17.33358 21.06780 19.20069
#
# Velocity S-wave (km/s) = 3.25049 3.58356 3.42108
# Velocity P-wave (km/s) = 5.61894 5.96639 5.79527
#
# Compressibility (1/GPa) = 0.03486150
#
# Stress axis : x y z
#
# Youngs Moduli (GPa) = 51.92175 75.08241 63.12331
#
# Poissons Ratio (x) = 0.23303 0.03716
# Poissons Ratio (y) = 0.16115 0.19487
# Poissons Ratio (z) = 0.03057 0.23179
#
# Static dielectric constant tensor:
#      x y z
#    x 3.023510 0.000000 0.000000 
#    y 0.000000 3.265180 0.000000 
#    z 0.000000 0.000000 3.051680 
# 
# 
# High freq. dielectric constant tensor:
#      x y z
#    x 1.607930 0.000000 0.000000 
#    y 0.000000 1.650170 0.000000 
#    z 0.000000 0.000000 1.596140 
# 
# From -- ./inp_files/35071.got.cif
#   From: 2010.06.25/outbox.cif.g09.slc.cpg/sg58_18_cif.got.tgz:35071.got - 2010.06.26 21:38:00.
