data_PCOD8235539
_publ_section_title
;
Structure prediction by ZEFSAII (Michael W. Deem and Ramdas Pophale) SiO2 
 PCOD8235539
Probable space group: P N N M
;
_chemical_formula_sum "Si O2"
_cell_formula_units_Z 36
_cell_length_a 9.053417
_cell_length_b 12.033119
_cell_length_c 19.769263
_cell_angle_alpha 90.000000
_cell_angle_beta 90.000000
_cell_angle_gamma 90.000000
_cell_volume 2153.680199
_symmetry_space_group_name_H-M "P N N M"
_symmetry_group_IT_number 58
_symmetry_cell_setting 'orthorhombic'
loop_
_space_group_symop_operation_xyz
x,y,z
-x,-y,z
1/2+x,1/2-y,1/2-z
1/2-x,1/2+y,1/2-z
-x,-y,-z
x,y,-z
1/2-x,1/2+y,1/2+z
1/2+x,1/2-y,1/2+z
loop_
_atom_site_type_symbol
_atom_site_label
_atom_site_fract_x
_atom_site_fract_y
_atom_site_fract_z
Si Si1 0.000000 0.000000 0.778482
Si Si2 0.899438 0.189422 0.696619
Si Si3 0.920041 0.388063 0.920896
Si Si4 0.578442 0.382354 0.924756
Si Si5 0.572523 0.271071 0.679055
O O1 0.113071 0.936274 0.727282
O O2 0.922899 0.906631 0.825822
O O3 0.738957 0.231924 0.680584
O O4 0.995883 0.197027 0.628180
O O5 0.984619 0.265028 0.752573
O O6 0.989605 0.280787 0.884865
O O7 0.000000 0.500000 0.894956
O O8 0.748041 0.397510 0.902786
O O9 0.948198 0.371489 0.000000
O O10 0.500000 0.500000 0.925180
O O11 0.568855 0.329010 0.000000
#
# Coordination Sequence:
#
# PCOD8235539 Si02
#       5
#     4   8   8   8   8
#     4   8  22  36  50  80 112 136 194 224 262 344
#     4  10  19  34  55  79 108 141 182 229 273 328
#     4  10  21  33  53  84 111 141 187 230 280 336
#     4  10  18  31  50  75 110 141 171 227 282 327
#     4  10  20  35  57  75 111 146 178 231 278 326
#
# _framework density 16.715574
#
# number of rings (size 3 to 8) (size 9 to 14) (size 15 to 20)
#    1.333    0.889    1.111    2.667    0.000    2.667 
#    0.000    0.556    0.000    0.000    0.000    3.111 
#    0.000    0.000    0.000    0.000    0.000    0.000 
#
# Total GULP energy -446059.831942 kJ/mol
# GULP energy per Si atom -12390.550887 kJ/mol
# Density = 1.667753 g / cm^3
# Si number density = 16.715574 Si / 1000 Ang^3
#
#
#
# Elastic Constant Matrix: (Units=GPa)
#
#
# Indices 1 2 3 4 5 6 
#
# 1 156.8278 54.1591 55.7734 0.0000 0.0000 0.0000
# 2 54.1591 93.8625 39.4420 0.0000 0.0000 0.0000
# 3 55.7734 39.4420 85.9590 0.0000 0.0000 0.0000
# 4 0.0000 0.0000 0.0000 17.5480 0.0000 0.0000
# 5 0.0000 0.0000 0.0000 0.0000 54.8124 0.0000
# 6 0.0000 0.0000 0.0000 0.0000 0.0000 28.6544
#
#
#
# Elastic Compliance Matrix: (Units=1/GPa)
#
#
# Indices 1 2 3 4 5 6 
#
# 1 0.009102 -0.003432 -0.004331 0.000000 0.000000 0.000000
# 2 -0.003432 0.014493 -0.004423 0.000000 0.000000 0.000000
# 3 -0.004331 -0.004423 0.016473 0.000000 0.000000 0.000000
# 4 0.000000 0.000000 0.000000 0.056987 0.000000 0.000000
# 5 0.000000 0.000000 0.000000 0.000000 0.018244 0.000000
# 6 0.000000 0.000000 0.000000 0.000000 0.000000 0.034899
#
#
# Mechanical properties :
#
#
# Convention : Reuss Voigt Hill
#
# Bulk Modulus (GPa) = 63.71186 70.59981 67.15583
# Shear Modulus (GPa) = 27.80854 32.68794 30.24824
#
# Velocity S-wave (km/s) = 4.08319 4.42694 4.25854
# Velocity P-wave (km/s) = 7.77354 8.27394 8.02764
#
# Compressibility (1/GPa) = 0.01569567
#
# Stress axis : x y z
#
# Youngs Moduli (GPa) = 109.86827 68.99981 60.70518
#
# Poissons Ratio (x) = 0.23680 0.26291
# Poissons Ratio (y) = 0.37706 0.26851
# Poissons Ratio (z) = 0.47583 0.30520
#
# Static dielectric constant tensor:
#      x y z
#    x 3.201320 0.000000 0.000000 
#    y 0.000000 2.970960 0.000000 
#    z 0.000000 0.000000 3.330000 
# 
# 
# High freq. dielectric constant tensor:
#      x y z
#    x 1.650680 0.000000 0.000000 
#    y 0.000000 1.611900 0.000000 
#    z 0.000000 0.000000 1.647150 
# 
# From -- ./inp_files/25068.got.cif
#   From: 2010.06.25/outbox.cif.g09.slc.cpg/sg58_13_cif.got.tgz:25068.got - 2010.06.26 21:38:00.
