data_PCOD8235370
_publ_section_title
;
Structure prediction by ZEFSAII (Michael W. Deem and Ramdas Pophale) SiO2 
 PCOD8235370
Probable space group: P N N M
;
_chemical_formula_sum "Si O2"
_cell_formula_units_Z 64
_cell_length_a 20.098172
_cell_length_b 19.119747
_cell_length_c 9.170900
_cell_angle_alpha 90.000000
_cell_angle_beta 90.000000
_cell_angle_gamma 90.000000
_cell_volume 3524.119753
_symmetry_space_group_name_H-M "P N N M"
_symmetry_group_IT_number 58
_symmetry_cell_setting 'orthorhombic'
loop_
_space_group_symop_operation_xyz
x,y,z
-x,-y,z
1/2+x,1/2-y,1/2-z
1/2-x,1/2+y,1/2-z
-x,-y,-z
x,y,-z
1/2-x,1/2+y,1/2+z
1/2+x,1/2-y,1/2+z
loop_
_atom_site_type_symbol
_atom_site_label
_atom_site_fract_x
_atom_site_fract_y
_atom_site_fract_z
Si Si1 0.152387 0.043926 0.827699
Si Si2 0.860820 0.246815 0.329562
Si Si3 0.962827 0.604752 0.328463
Si Si4 0.620470 0.590178 0.828673
Si Si5 0.598821 0.965911 0.827508
Si Si6 0.985898 0.888359 0.833180
Si Si7 0.495656 0.229882 0.333148
Si Si8 0.219694 0.623057 0.327619
O O1 0.080654 0.073019 0.781759
O O2 0.207965 0.099094 0.770257
O O3 0.164208 0.969390 0.749469
O O4 0.158092 0.032687 0.000000
O O5 0.877149 0.254896 0.500000
O O6 0.846355 0.165630 0.290993
O O7 0.924787 0.274591 0.245323
O O8 0.798293 0.296447 0.284354
O O9 0.961097 0.619848 0.500000
O O10 0.906419 0.547982 0.283154
O O11 0.033830 0.575298 0.274338
O O12 0.951783 0.677010 0.241854
O O13 0.545350 0.586500 0.769254
O O14 0.618930 0.576370 0.000000
O O15 0.664651 0.930169 0.760525
O O16 0.599866 0.960901 0.000000
O O17 0.972416 0.806201 0.817370
O O18 0.004397 0.907715 0.000000
O O19 0.485084 0.208933 0.500000
O O20 0.218867 0.616240 0.500000
#
# Coordination Sequence:
#
# PCOD8235370 Si02
#       8
#     8   8   8   8   8   8   8   8
#     4  10  20  34  53  73  96 131 166 200 240 290
#     4   9  17  32  53  73  93 123 164 202 235 284
#     4   9  15  26  46  70  96 125 160 202 243 281
#     4  10  20  33  53  79 101 123 158 207 254 288
#     4   8  14  25  46  71  92 121 164 207 236 273
#     4   9  19  34  50  71  98 128 165 204 245 291
#     4  10  18  28  45  71 101 127 156 200 248 292
#     4   9  16  30  53  74  92 123 172 206 226 279
#
# _framework density 18.160563
#
# number of rings (size 3 to 8) (size 9 to 14) (size 15 to 20)
#    0.000    2.750    1.250    1.875    0.000    3.000 
#    0.000    3.125    0.000    1.500    0.000    0.000 
#    0.000    0.000    0.000    0.000    0.000    0.000 
#
# Total GULP energy -793242.369281 kJ/mol
# GULP energy per Si atom -12394.412020 kJ/mol
# Density = 1.811923 g / cm^3
# Si number density = 18.160563 Si / 1000 Ang^3
#
#
#
# Elastic Constant Matrix: (Units=GPa)
#
#
# Indices 1 2 3 4 5 6 
#
# 1 74.9794 56.0295 22.3210 0.0000 0.0000 0.0000
# 2 56.0295 138.7694 42.3374 0.0000 0.0000 0.0000
# 3 22.3210 42.3374 48.2723 0.0000 0.0000 0.0000
# 4 0.0000 0.0000 0.0000 29.9503 0.0000 0.0000
# 5 0.0000 0.0000 0.0000 0.0000 13.1714 0.0000
# 6 0.0000 0.0000 0.0000 0.0000 0.0000 29.7063
#
#
#
# Elastic Compliance Matrix: (Units=1/GPa)
#
#
# Indices 1 2 3 4 5 6 
#
# 1 0.019386 -0.006953 -0.002866 0.000000 0.000000 0.000000
# 2 -0.006953 0.012333 -0.007601 0.000000 0.000000 0.000000
# 3 -0.002866 -0.007601 0.028708 0.000000 0.000000 0.000000
# 4 0.000000 0.000000 0.000000 0.033389 0.000000 0.000000
# 5 0.000000 0.000000 0.000000 0.000000 0.075922 0.000000
# 6 0.000000 0.000000 0.000000 0.000000 0.000000 0.033663
#
#
# Mechanical properties :
#
#
# Convention : Reuss Voigt Hill
#
# Bulk Modulus (GPa) = 39.08401 55.93299 47.50850
# Shear Modulus (GPa) = 20.26190 23.98782 22.12486
#
# Velocity S-wave (km/s) = 3.34385 3.63833 3.49419
# Velocity P-wave (km/s) = 6.03958 6.96534 6.51891
#
# Compressibility (1/GPa) = 0.02558591
#
# Stress axis : x y z
#
# Youngs Moduli (GPa) = 51.58417 81.08605 34.83374
#
# Poissons Ratio (x) = 0.56378 0.09983
# Poissons Ratio (y) = 0.35866 0.26478
# Poissons Ratio (z) = 0.14784 0.61636
#
# Static dielectric constant tensor:
#      x y z
#    x 3.285940 0.000000 0.000000 
#    y 0.000000 3.708010 0.000000 
#    z 0.000000 0.000000 3.094550 
# 
# 
# High freq. dielectric constant tensor:
#      x y z
#    x 1.669100 0.000000 0.000000 
#    y 0.000000 1.722420 0.000000 
#    z 0.000000 0.000000 1.674120 
# 
# From -- ./inp_files/9420.got.cif
#   From: 2010.06.25/outbox.cif.g09.slc.cpg/sg58_5_cif.got.tgz:9420.got - 2010.06.26 21:38:00.
