data_PCOD8235231
_publ_section_title
;
Structure prediction by ZEFSAII (Michael W. Deem and Ramdas Pophale) SiO2 
 PCOD8235231
Probable space group: P N N M
;
_chemical_formula_sum "Si O2"
_cell_formula_units_Z 64
_cell_length_a 19.196684
_cell_length_b 23.226948
_cell_length_c 9.173381
_cell_angle_alpha 90.000000
_cell_angle_beta 90.000000
_cell_angle_gamma 90.000000
_cell_volume 4090.230616
_symmetry_space_group_name_H-M "P N N M"
_symmetry_group_IT_number 58
_symmetry_cell_setting 'orthorhombic'
loop_
_space_group_symop_operation_xyz
x,y,z
-x,-y,z
1/2+x,1/2-y,1/2-z
1/2-x,1/2+y,1/2-z
-x,-y,-z
x,y,-z
1/2-x,1/2+y,1/2+z
1/2+x,1/2-y,1/2+z
loop_
_atom_site_type_symbol
_atom_site_label
_atom_site_fract_x
_atom_site_fract_y
_atom_site_fract_z
Si Si1 0.841683 0.766681 0.826397
Si Si2 0.239592 0.342640 0.172039
Si Si3 0.005460 0.250916 0.828139
Si Si4 0.874627 0.438436 0.326668
Si Si5 0.498677 0.883938 0.332081
Si Si6 0.852343 0.555492 0.831332
Si Si7 0.288215 0.168341 0.172480
Si Si8 0.627296 0.721119 0.828530
O O1 0.809074 0.707753 0.761650
O O2 0.920623 0.774047 0.769963
O O3 0.791625 0.819722 0.775393
O O4 0.843092 0.762531 0.000000
O O5 0.212668 0.405174 0.223012
O O6 0.320516 0.331430 0.214234
O O7 0.230866 0.338664 0.000000
O O8 0.999101 0.317677 0.782168
O O9 0.945836 0.212785 0.752771
O O10 0.998552 0.243877 0.000000
O O11 0.879353 0.440092 0.500000
O O12 0.850839 0.499774 0.268633
O O13 0.817145 0.392395 0.269493
O O14 0.950027 0.421863 0.265572
O O15 0.521230 0.890553 0.500000
O O16 0.421699 0.907706 0.306873
O O17 0.845034 0.537146 0.000000
O O18 0.338316 0.219455 0.227841
O O19 0.290181 0.169196 0.000000
O O20 0.613147 0.722536 0.000000
#
# Coordination Sequence:
#
# PCOD8235231 Si02
#       8
#     8   8   8   8   8   8   8   8
#     4   8  13  25  45  65  83 108 145 183 212 251
#     4   8  14  27  47  65  81 110 153 185 209 252
#     4  10  17  26  45  70  90 111 141 180 219 254
#     4  11  21  31  43  63  89 120 151 180 215 258
#     4  10  19  30  43  62  89 119 150 180 208 246
#     4  10  19  32  47  63  84 117 157 190 211 242
#     4   8  15  27  43  62  84 112 146 178 211 254
#     4   9  16  28  46  65  87 115 142 174 218 269
#
# _framework density 15.647041
#
# number of rings (size 3 to 8) (size 9 to 14) (size 15 to 20)
#    0.000    2.750    2.500    2.250    0.000    2.000 
#    0.000    0.625    0.000    4.500    0.000    0.875 
#    0.000    7.000    0.000    0.000    0.000    0.000 
#
# Total GULP energy -793166.310474 kJ/mol
# GULP energy per Si atom -12393.223601 kJ/mol
# Density = 1.561143 g / cm^3
# Si number density = 15.647041 Si / 1000 Ang^3
#
#
#
# Elastic Constant Matrix: (Units=GPa)
#
#
# Indices 1 2 3 4 5 6 
#
# 1 105.2763 31.0462 23.1947 0.0000 0.0000 0.0000
# 2 31.0462 52.3482 19.5734 0.0000 0.0000 0.0000
# 3 23.1947 19.5734 29.3591 0.0000 0.0000 0.0000
# 4 0.0000 0.0000 0.0000 1.5754 0.0000 0.0000
# 5 0.0000 0.0000 0.0000 0.0000 20.3601 0.0000
# 6 0.0000 0.0000 0.0000 0.0000 0.0000 23.5126
#
#
#
# Elastic Compliance Matrix: (Units=1/GPa)
#
#
# Indices 1 2 3 4 5 6 
#
# 1 0.012380 -0.004909 -0.006508 0.000000 0.000000 0.000000
# 2 -0.004909 0.027393 -0.014384 0.000000 0.000000 0.000000
# 3 -0.006508 -0.014384 0.048792 0.000000 0.000000 0.000000
# 4 0.000000 0.000000 0.000000 0.634762 0.000000 0.000000
# 5 0.000000 0.000000 0.000000 0.000000 0.049116 0.000000
# 6 0.000000 0.000000 0.000000 0.000000 0.000000 0.042530
#
#
# Mechanical properties :
#
#
# Convention : Reuss Voigt Hill
#
# Bulk Modulus (GPa) = 27.05417 37.17915 32.11666
# Shear Modulus (GPa) = 5.68895 16.63424 11.16160
#
# Velocity S-wave (km/s) = 1.90885 3.26405 2.67373
# Velocity P-wave (km/s) = 4.71021 6.16588 5.48653
#
# Compressibility (1/GPa) = 0.03696288
#
# Stress axis : x y z
#
# Youngs Moduli (GPa) = 80.77298 36.50625 20.49501
#
# Poissons Ratio (x) = 0.17921 0.13338
# Poissons Ratio (y) = 0.39651 0.29480
# Poissons Ratio (z) = 0.52568 0.52511
#
# Static dielectric constant tensor:
#      x y z
#    x 3.242410 0.000000 0.000000 
#    y 0.000000 3.035360 0.000000 
#    z 0.000000 0.000000 2.651680 
# 
# 
# High freq. dielectric constant tensor:
#      x y z
#    x 1.602570 0.000000 0.000000 
#    y 0.000000 1.577000 0.000000 
#    z 0.000000 0.000000 1.567670 
# 
# From -- ./inp_files/9427.got.cif
#   From: 2010.06.25/outbox.cif.g09.slc.cpg/sg58_5_cif.got.tgz:9427.got - 2010.06.26 21:38:00.
