data_PCOD8235659
_publ_section_title
;
Structure prediction by ZEFSAII (Michael W. Deem and Ramdas Pophale) SiO2 
 PCOD8235659
Probable space group: P N N M
;
_chemical_formula_sum "Si O2"
_cell_formula_units_Z 56
_cell_length_a 17.250269
_cell_length_b 19.732046
_cell_length_c 9.116393
_cell_angle_alpha 90.000000
_cell_angle_beta 90.000000
_cell_angle_gamma 90.000000
_cell_volume 3103.066123
_symmetry_space_group_name_H-M "P N N M"
_symmetry_group_IT_number 58
_symmetry_cell_setting 'orthorhombic'
loop_
_space_group_symop_operation_xyz
x,y,z
-x,-y,z
1/2+x,1/2-y,1/2-z
1/2-x,1/2+y,1/2-z
-x,-y,-z
x,y,-z
1/2-x,1/2+y,1/2+z
1/2+x,1/2-y,1/2+z
loop_
_atom_site_type_symbol
_atom_site_label
_atom_site_fract_x
_atom_site_fract_y
_atom_site_fract_z
Si Si1 0.568303 0.309728 0.328152
Si Si2 0.959780 0.070086 0.826417
Si Si3 0.862765 0.544220 0.170064
Si Si4 0.614103 0.906467 0.170244
Si Si5 0.289774 0.605736 0.668598
Si Si6 0.687263 0.530655 0.829356
Si Si7 0.976915 0.663450 0.173539
O O1 0.555340 0.305182 0.500000
O O2 0.511094 0.367577 0.265743
O O3 0.657709 0.328962 0.292725
O O4 0.549281 0.236153 0.261220
O O5 0.875268 0.077082 0.753305
O O6 0.949736 0.072787 0.000000
O O7 0.000000 0.000000 0.777370
O O8 0.893944 0.481497 0.264050
O O9 0.772832 0.560120 0.203079
O O10 0.910791 0.609933 0.217264
O O11 0.875209 0.525414 0.000000
O O12 0.700162 0.876614 0.196096
O O13 0.557533 0.855094 0.251276
O O14 0.592684 0.910465 0.000000
O O15 0.303737 0.582923 0.500000
O O16 0.318365 0.545599 0.771367
O O17 0.667828 0.530731 0.000000
O O18 0.989617 0.664976 0.000000
#
# Coordination Sequence:
#
# PCOD8235659 Si02
#       7
#     8   8   8   8   8   8   8
#     4   9  18  34  55  74  96 137 182 211 245 306
#     4  10  18  32  55  76  99 135 177 215 251 305
#     4   9  19  35  54  77 103 138 176 214 256 306
#     4  10  20  33  55  83 106 132 170 219 266 306
#     4   9  17  34  55  75  99 135 176 210 251 307
#     4  10  19  31  50  80 108 129 165 215 266 306
#     4  10  20  36  55  74 102 139 179 214 253 311
#
# _framework density 18.046666999999999
#
# number of rings (size 3 to 8) (size 9 to 14) (size 15 to 20)
#    0.000    2.429    1.429    1.286    0.000    3.714 
#    2.571    1.429    0.000    0.000    0.000    0.000 
#    0.000    0.000    0.000    0.000    0.000    0.000 
#
# Total GULP energy -694417.032892 kJ/mol
# GULP energy per Si atom -12400.304159 kJ/mol
# Density = 1.800559 g / cm^3
# Si number density = 18.046667 Si / 1000 Ang^3
#
#
#
# Elastic Constant Matrix: (Units=GPa)
#
#
# Indices 1 2 3 4 5 6 
#
# 1 134.6239 84.2343 41.9680 0.0000 0.0000 0.0000
# 2 84.2343 139.1772 36.1652 0.0000 0.0000 0.0000
# 3 41.9680 36.1652 42.6406 0.0000 0.0000 0.0000
# 4 0.0000 0.0000 0.0000 15.9603 0.0000 0.0000
# 5 0.0000 0.0000 0.0000 0.0000 32.9218 0.0000
# 6 0.0000 0.0000 0.0000 0.0000 0.0000 26.9116
#
#
#
# Elastic Compliance Matrix: (Units=1/GPa)
#
#
# Indices 1 2 3 4 5 6 
#
# 1 0.013983 -0.006268 -0.008446 0.000000 0.000000 0.000000
# 2 -0.006268 0.012026 -0.004030 0.000000 0.000000 0.000000
# 3 -0.008446 -0.004030 0.035183 0.000000 0.000000 0.000000
# 4 0.000000 0.000000 0.000000 0.062655 0.000000 0.000000
# 5 0.000000 0.000000 0.000000 0.000000 0.030375 0.000000
# 6 0.000000 0.000000 0.000000 0.000000 0.000000 0.037159
#
#
# Mechanical properties :
#
#
# Convention : Reuss Voigt Hill
#
# Bulk Modulus (GPa) = 42.18943 71.24184 56.71563
# Shear Modulus (GPa) = 21.11730 25.43035 23.27382
#
# Velocity S-wave (km/s) = 3.42446 3.75793 3.59506
# Velocity P-wave (km/s) = 6.25017 7.64143 6.98055
#
# Compressibility (1/GPa) = 0.02370262
#
# Stress axis : x y z
#
# Youngs Moduli (GPa) = 71.51408 83.15196 28.42264
#
# Poissons Ratio (x) = 0.52122 0.24006
# Poissons Ratio (y) = 0.44827 0.11456
# Poissons Ratio (z) = 0.60403 0.33514
#
# Static dielectric constant tensor:
#      x y z
#    x 3.535950 0.000000 0.000000 
#    y 0.000000 3.339990 0.000000 
#    z 0.000000 0.000000 3.191870 
# 
# 
# High freq. dielectric constant tensor:
#      x y z
#    x 1.714290 0.000000 0.000000 
#    y 0.000000 1.679770 0.000000 
#    z 0.000000 0.000000 1.682610 
# 
# From -- ./inp_files/8177.got.cif
#   From: 2010.06.25/outbox.cif.g09.slc.cpg/sg58_5_cif.got.tgz:8177.got - 2010.06.26 21:38:00.
