data_PCOD8235955
_publ_section_title
;
Structure prediction by ZEFSAII (Michael W. Deem and Ramdas Pophale) SiO2 
 PCOD8235955
Probable space group: P N N M
;
_chemical_formula_sum "Si O2"
_cell_formula_units_Z 64
_cell_length_a 22.290912
_cell_length_b 16.763210
_cell_length_c 9.405453
_cell_angle_alpha 90.000000
_cell_angle_beta 90.000000
_cell_angle_gamma 90.000000
_cell_volume 3514.509654
_symmetry_space_group_name_H-M "P N N M"
_symmetry_group_IT_number 58
_symmetry_cell_setting 'orthorhombic'
loop_
_space_group_symop_operation_xyz
x,y,z
-x,-y,z
1/2+x,1/2-y,1/2-z
1/2-x,1/2+y,1/2-z
-x,-y,-z
x,y,-z
1/2-x,1/2+y,1/2+z
1/2+x,1/2-y,1/2+z
loop_
_atom_site_type_symbol
_atom_site_label
_atom_site_fract_x
_atom_site_fract_y
_atom_site_fract_z
Si Si1 0.320484 0.090838 0.668752
Si Si2 0.686399 0.450100 0.833117
Si Si3 0.617614 0.064565 0.330356
Si Si4 0.970751 0.692765 0.831350
Si Si5 0.214096 0.315237 0.836918
Si Si6 0.374749 0.679528 0.663602
Si Si7 0.838906 0.132937 0.333529
Si Si8 0.102018 0.738249 0.168352
O O1 0.318839 0.086199 0.500000
O O2 0.253221 0.071990 0.725715
O O3 0.345617 0.176790 0.717762
O O4 0.368914 0.024776 0.725296
O O5 0.634269 0.399011 0.757693
O O6 0.668815 0.540460 0.796340
O O7 0.683534 0.433344 0.000000
O O8 0.617909 0.065679 0.500000
O O9 0.555358 0.106505 0.277802
O O10 0.670512 0.119663 0.266620
O O11 0.929733 0.766881 0.776878
O O12 0.038644 0.701903 0.779460
O O13 0.965956 0.694580 0.000000
O O14 0.187648 0.227360 0.819389
O O15 0.280244 0.321243 0.772264
O O16 0.220948 0.340849 0.000000
O O17 0.385673 0.655129 0.500000
O O18 0.851289 0.145938 0.500000
O O19 0.891665 0.175982 0.245200
O O20 0.102335 0.751628 0.000000
#
# Coordination Sequence:
#
# PCOD8235955 Si02
#       8
#     8   8   8   8   8   8   8   8
#     4   9  16  27  46  74 104 125 147 190 247 289
#     4  10  19  31  48  73  99 121 153 198 242 282
#     4   8  12  23  45  71  97 125 152 185 229 280
#     4   8  16  30  47  69  98 128 161 193 226 278
#     4   8  13  25  46  69  91 119 155 188 224 278
#     4   9  17  30  50  71  91 122 161 195 229 275
#     4  10  19  32  49  67  92 128 162 190 231 287
#     4  10  20  32  47  72 101 125 153 197 242 276
#
# _framework density 18.210222999999999
#
# number of rings (size 3 to 8) (size 9 to 14) (size 15 to 20)
#    0.000    3.000    1.250    2.250    0.000    1.000 
#    0.000    3.750    0.000    3.750    0.000    3.500 
#    0.000    0.000    0.000    0.000    0.000    0.000 
#
# Total GULP energy -792863.591684 kJ/mol
# GULP energy per Si atom -12388.493620 kJ/mol
# Density = 1.816878 g / cm^3
# Si number density = 18.210223 Si / 1000 Ang^3
#
#
#
# Elastic Constant Matrix: (Units=GPa)
#
#
# Indices 1 2 3 4 5 6 
#
# 1 56.9420 39.6709 13.8703 0.0000 0.0000 0.0000
# 2 39.6709 108.2671 30.4770 0.0000 0.0000 0.0000
# 3 13.8703 30.4770 22.3266 0.0000 0.0000 0.0000
# 4 0.0000 0.0000 0.0000 23.9646 0.0000 0.0000
# 5 0.0000 0.0000 0.0000 0.0000 16.8095 0.0000
# 6 0.0000 0.0000 0.0000 0.0000 0.0000 25.5463
#
#
#
# Elastic Compliance Matrix: (Units=1/GPa)
#
#
# Indices 1 2 3 4 5 6 
#
# 1 0.023881 -0.007429 -0.004695 0.000000 0.000000 0.000000
# 2 -0.007429 0.017311 -0.019016 0.000000 0.000000 0.000000
# 3 -0.004695 -0.019016 0.073664 0.000000 0.000000 0.000000
# 4 0.000000 0.000000 0.000000 0.041728 0.000000 0.000000
# 5 0.000000 0.000000 0.000000 0.000000 0.059490 0.000000
# 6 0.000000 0.000000 0.000000 0.000000 0.000000 0.039145
#
#
# Mechanical properties :
#
#
# Convention : Reuss Voigt Hill
#
# Bulk Modulus (GPa) = 19.01981 39.50799 29.26390
# Shear Modulus (GPa) = 14.92426 20.16526 17.54476
#
# Velocity S-wave (km/s) = 2.86589 3.33131 3.10733
# Velocity P-wave (km/s) = 4.62800 6.04479 5.38321
#
# Compressibility (1/GPa) = 0.05257675
#
# Stress axis : x y z
#
# Youngs Moduli (GPa) = 41.87442 57.76569 13.57508
#
# Poissons Ratio (x) = 0.42912 0.06374
# Poissons Ratio (y) = 0.31107 0.25814
# Poissons Ratio (z) = 0.19662 1.09847
#
# Static dielectric constant tensor:
#      x y z
#    x 3.492940 0.000000 0.000000 
#    y 0.000000 3.415310 0.000000 
#    z 0.000000 0.000000 2.751850 
# 
# 
# High freq. dielectric constant tensor:
#      x y z
#    x 1.700650 0.000000 0.000000 
#    y 0.000000 1.712160 0.000000 
#    z 0.000000 0.000000 1.640100 
# 
# From -- ./inp_files/9925.got.cif
#   From: 2010.06.25/outbox.cif.g09.slc.cpg/sg58_5_cif.got.tgz:9925.got - 2010.06.26 21:38:00.
