data_PCOD8235632
_publ_section_title
;
Structure prediction by ZEFSAII (Michael W. Deem and Ramdas Pophale) SiO2 
 PCOD8235632
Probable space group: P N N M
;
_chemical_formula_sum "Si O2"
_cell_formula_units_Z 64
_cell_length_a 16.782068
_cell_length_b 22.516587
_cell_length_c 9.011242
_cell_angle_alpha 90.000000
_cell_angle_beta 90.000000
_cell_angle_gamma 90.000000
_cell_volume 3405.122117
_symmetry_space_group_name_H-M "P N N M"
_symmetry_group_IT_number 58
_symmetry_cell_setting 'orthorhombic'
loop_
_space_group_symop_operation_xyz
x,y,z
-x,-y,z
1/2+x,1/2-y,1/2-z
1/2-x,1/2+y,1/2-z
-x,-y,-z
x,y,-z
1/2-x,1/2+y,1/2+z
1/2+x,1/2-y,1/2+z
loop_
_atom_site_type_symbol
_atom_site_label
_atom_site_fract_x
_atom_site_fract_y
_atom_site_fract_z
Si Si1 0.426017 0.615855 0.835026
Si Si2 0.202023 0.214301 0.333429
Si Si3 0.968079 0.306006 0.328853
Si Si4 0.131251 0.322859 0.827987
Si Si5 0.188235 0.626227 0.670516
Si Si6 0.790068 0.967170 0.321993
Si Si7 0.580419 0.675498 0.177532
Si Si8 0.725503 0.599304 0.828162
O O1 0.379362 0.677677 0.837763
O O2 0.370828 0.564936 0.758944
O O3 0.510624 0.631515 0.758285
O O4 0.444085 0.592717 0.000000
O O5 0.235652 0.222404 0.500000
O O6 0.183725 0.276542 0.260951
O O7 0.267094 0.183657 0.231468
O O8 0.993716 0.297974 0.500000
O O9 0.904970 0.359317 0.311426
O O10 0.933194 0.243230 0.266270
O O11 0.043181 0.328791 0.235793
O O12 0.181909 0.383439 0.805400
O O13 0.126459 0.304787 0.000000
O O14 0.211791 0.616782 0.500000
O O15 0.212437 0.567424 0.761254
O O16 0.786495 0.962575 0.500000
O O17 0.788437 0.034000 0.258847
O O18 0.663883 0.648435 0.238525
O O19 0.577626 0.676764 0.000000
O O20 0.704358 0.594176 0.000000
#
# Coordination Sequence:
#
# PCOD8235632 Si02
#       8
#     8   8   8   8   8   8   8   8
#     4   8  14  25  48  78 102 130 166 209 255 306
#     4  10  18  32  53  79 109 140 175 214 266 324
#     4  10  20  35  54  77 107 139 174 223 278 330
#     4  11  21  33  51  77 108 142 181 223 271 322
#     4  10  20  34  55  80 104 138 180 222 271 321
#     4   9  18  34  53  76 106 140 181 221 261 314
#     4   9  15  28  51  78 107 132 166 215 265 317
#     4   9  19  33  50  75 107 142 178 219 263 317
#
# _framework density 18.795214999999999
#
# number of rings (size 3 to 8) (size 9 to 14) (size 15 to 20)
#    0.000    2.500    1.250    2.625    0.000    3.500 
#    0.000    4.375    0.000    4.500    0.000    1.750 
#    0.000    0.000    0.000    0.000    0.000    0.000 
#
# Total GULP energy -793125.695294 kJ/mol
# GULP energy per Si atom -12392.588989 kJ/mol
# Density = 1.875244 g / cm^3
# Si number density = 18.795215 Si / 1000 Ang^3
#
#
#
# Elastic Constant Matrix: (Units=GPa)
#
#
# Indices 1 2 3 4 5 6 
#
# 1 109.3212 50.4809 25.2669 0.0000 0.0000 0.0000
# 2 50.4809 84.5757 16.6555 0.0000 0.0000 0.0000
# 3 25.2669 16.6555 37.7954 0.0000 0.0000 0.0000
# 4 0.0000 0.0000 0.0000 20.0591 0.0000 0.0000
# 5 0.0000 0.0000 0.0000 0.0000 24.9978 0.0000
# 6 0.0000 0.0000 0.0000 0.0000 0.0000 20.3458
#
#
#
# Elastic Compliance Matrix: (Units=1/GPa)
#
#
# Indices 1 2 3 4 5 6 
#
# 1 0.013815 -0.007038 -0.006134 0.000000 0.000000 0.000000
# 2 -0.007038 0.016533 -0.002581 0.000000 0.000000 0.000000
# 3 -0.006134 -0.002581 0.031696 0.000000 0.000000 0.000000
# 4 0.000000 0.000000 0.000000 0.049853 0.000000 0.000000
# 5 0.000000 0.000000 0.000000 0.000000 0.040003 0.000000
# 6 0.000000 0.000000 0.000000 0.000000 0.000000 0.049150
#
#
# Mechanical properties :
#
#
# Convention : Reuss Voigt Hill
#
# Bulk Modulus (GPa) = 32.74535 46.27765 39.51150
# Shear Modulus (GPa) = 20.59861 22.36647 21.48254
#
# Velocity S-wave (km/s) = 3.31410 3.45339 3.38447
# Velocity P-wave (km/s) = 5.66607 6.36999 6.02831
#
# Compressibility (1/GPa) = 0.03053869
#
# Stress axis : x y z
#
# Youngs Moduli (GPa) = 72.38558 60.48669 31.54942
#
# Poissons Ratio (x) = 0.42569 0.19353
# Poissons Ratio (y) = 0.50943 0.08142
# Poissons Ratio (z) = 0.44403 0.15609
#
# Static dielectric constant tensor:
#      x y z
#    x 3.572430 0.000000 0.000000 
#    y 0.000000 3.451070 0.000000 
#    z 0.000000 0.000000 3.159560 
# 
# 
# High freq. dielectric constant tensor:
#      x y z
#    x 1.734250 0.000000 0.000000 
#    y 0.000000 1.719860 0.000000 
#    z 0.000000 0.000000 1.690500 
# 
# From -- ./inp_files/8424.got.cif
#   From: 2010.06.25/outbox.cif.g09.slc.cpg/sg58_5_cif.got.tgz:8424.got - 2010.06.26 21:38:00.
