data_PCOD8235647
_publ_section_title
;
Structure prediction by ZEFSAII (Michael W. Deem and Ramdas Pophale) SiO2 
 PCOD8235647
Probable space group: P N N M
;
_chemical_formula_sum "Si O2"
_cell_formula_units_Z 56
_cell_length_a 21.932662
_cell_length_b 14.335047
_cell_length_c 8.889735
_cell_angle_alpha 90.000000
_cell_angle_beta 90.000000
_cell_angle_gamma 90.000000
_cell_volume 2794.983716
_symmetry_space_group_name_H-M "P N N M"
_symmetry_group_IT_number 58
_symmetry_cell_setting 'orthorhombic'
loop_
_space_group_symop_operation_xyz
x,y,z
-x,-y,z
1/2+x,1/2-y,1/2-z
1/2-x,1/2+y,1/2-z
-x,-y,-z
x,y,-z
1/2-x,1/2+y,1/2+z
1/2+x,1/2-y,1/2+z
loop_
_atom_site_type_symbol
_atom_site_label
_atom_site_fract_x
_atom_site_fract_y
_atom_site_fract_z
Si Si1 0.376875 0.068440 0.673843
Si Si2 0.933803 0.599246 0.670904
Si Si3 0.305050 0.806762 0.173525
Si Si4 0.250202 0.982532 0.322671
Si Si5 0.476627 0.597463 0.678776
Si Si6 0.837439 0.880266 0.821610
Si Si7 0.534045 0.781924 0.325712
O O1 0.386790 0.041363 0.500000
O O2 0.397691 0.176506 0.704064
O O3 0.421228 0.004881 0.772979
O O4 0.306831 0.051092 0.718264
O O5 0.955480 0.594269 0.500000
O O6 0.874109 0.661309 0.691215
O O7 0.986702 0.643056 0.767518
O O8 0.261300 0.878401 0.261264
O O9 0.300416 0.704916 0.247091
O O10 0.284279 0.801662 0.000000
O O11 0.238309 0.977924 0.500000
O O12 0.191712 0.023660 0.237815
O O13 0.500000 0.500000 0.749205
O O14 0.479371 0.590816 0.500000
O O15 0.407802 0.619574 0.730697
O O16 0.521514 0.679107 0.743618
O O17 0.831160 0.873748 0.000000
O O18 0.520814 0.771555 0.500000
#
# Coordination Sequence:
#
# PCOD8235647 Si02
#       7
#     8   8   8   8   8   8   8
#     4   9  19  33  51  78 111 148 186 227 274 335
#     4  10  19  30  50  80 112 143 177 223 282 339
#     4  10  20  36  58  83 111 149 194 237 285 349
#     4  10  21  38  57  83 119 154 194 243 292 344
#     4   9  19  36  58  84 111 145 194 243 281 334
#     4  11  21  37  62  88 114 150 192 240 296 347
#     4  10  18  32  54  78 107 145 188 229 275 332
#
# _framework density 20.035893000000002
#
# number of rings (size 3 to 8) (size 9 to 14) (size 15 to 20)
#    0.000    2.143    1.429    2.143    0.000    4.000 
#    2.571    0.000    0.000    3.857    0.000    0.000 
#    0.000    0.000    0.000    0.000    0.000    0.000 
#
# Total GULP energy -694255.271619 kJ/mol
# GULP energy per Si atom -12397.415565 kJ/mol
# Density = 1.999029 g / cm^3
# Si number density = 20.035893 Si / 1000 Ang^3
#
#
#
# Elastic Constant Matrix: (Units=GPa)
#
#
# Indices 1 2 3 4 5 6 
#
# 1 36.3592 37.7762 16.0536 0.0000 0.0000 0.0000
# 2 37.7762 101.6902 30.5025 0.0000 0.0000 0.0000
# 3 16.0536 30.5025 43.2449 0.0000 0.0000 0.0000
# 4 0.0000 0.0000 0.0000 18.5964 0.0000 0.0000
# 5 0.0000 0.0000 0.0000 0.0000 21.1194 0.0000
# 6 0.0000 0.0000 0.0000 0.0000 0.0000 30.5699
#
#
#
# Elastic Compliance Matrix: (Units=1/GPa)
#
#
# Indices 1 2 3 4 5 6 
#
# 1 0.046143 -0.015224 -0.006391 0.000000 0.000000 0.000000
# 2 -0.015224 0.017496 -0.006689 0.000000 0.000000 0.000000
# 3 -0.006391 -0.006689 0.030215 0.000000 0.000000 0.000000
# 4 0.000000 0.000000 0.000000 0.053774 0.000000 0.000000
# 5 0.000000 0.000000 0.000000 0.000000 0.047350 0.000000
# 6 0.000000 0.000000 0.000000 0.000000 0.000000 0.032712
#
#
# Mechanical properties :
#
#
# Convention : Reuss Voigt Hill
#
# Bulk Modulus (GPa) = 26.84941 38.88431 32.86686
# Shear Modulus (GPa) = 16.85135 20.52127 18.68631
#
# Velocity S-wave (km/s) = 2.90325 3.20382 3.05723
# Velocity P-wave (km/s) = 4.96671 5.75634 5.37604
#
# Compressibility (1/GPa) = 0.03724476
#
# Stress axis : x y z
#
# Youngs Moduli (GPa) = 21.67184 57.15692 33.09661
#
# Poissons Ratio (x) = 0.87017 0.21152
# Poissons Ratio (y) = 0.32994 0.22138
# Poissons Ratio (z) = 0.13851 0.38231
#
# Static dielectric constant tensor:
#      x y z
#    x 3.644890 0.000000 0.000000 
#    y 0.000000 3.830220 0.000000 
#    z 0.000000 0.000000 3.478160 
# 
# 
# High freq. dielectric constant tensor:
#      x y z
#    x 1.767450 0.000000 0.000000 
#    y 0.000000 1.786520 0.000000 
#    z 0.000000 0.000000 1.767540 
# 
# From -- ./inp_files/6313.got.cif
#   From: 2010.06.25/outbox.cif.g09.slc.cpg/sg58_4_cif.got.tgz:6313.got - 2010.06.26 21:38:00.
