data_PCOD8235925
_publ_section_title
;
Structure prediction by ZEFSAII (Michael W. Deem and Ramdas Pophale) SiO2 
 PCOD8235925
Probable space group: P N N M
;
_chemical_formula_sum "Si O2"
_cell_formula_units_Z 64
_cell_length_a 19.663226
_cell_length_b 22.469977
_cell_length_c 9.045693
_cell_angle_alpha 90.000000
_cell_angle_beta 90.000000
_cell_angle_gamma 90.000000
_cell_volume 3996.678764
_symmetry_space_group_name_H-M "P N N M"
_symmetry_group_IT_number 58
_symmetry_cell_setting 'orthorhombic'
loop_
_space_group_symop_operation_xyz
x,y,z
-x,-y,z
1/2+x,1/2-y,1/2-z
1/2-x,1/2+y,1/2-z
-x,-y,-z
x,y,-z
1/2-x,1/2+y,1/2+z
1/2+x,1/2-y,1/2+z
loop_
_atom_site_type_symbol
_atom_site_label
_atom_site_fract_x
_atom_site_fract_y
_atom_site_fract_z
Si Si1 0.703020 0.567829 0.670475
Si Si2 0.281684 0.838326 0.335860
Si Si3 0.352083 0.258397 0.832291
Si Si4 0.722857 0.836692 0.666417
Si Si5 0.928082 0.142074 0.825185
Si Si6 0.567733 0.367331 0.176584
Si Si7 0.354216 0.745441 0.162911
Si Si8 0.808482 0.930290 0.825519
O O1 0.716038 0.580213 0.500000
O O2 0.764875 0.600355 0.753307
O O3 0.630119 0.594683 0.716288
O O4 0.704756 0.498895 0.710334
O O5 0.303708 0.855244 0.500000
O O6 0.216621 0.796050 0.332368
O O7 0.345691 0.803398 0.265044
O O8 0.339429 0.195359 0.751217
O O9 0.409772 0.293483 0.741753
O O10 0.377180 0.247208 0.000000
O O11 0.700398 0.854666 0.500000
O O12 0.785188 0.791723 0.657618
O O13 0.744539 0.894726 0.758853
O O14 0.995416 0.117259 0.747040
O O15 0.939220 0.147953 0.000000
O O16 0.587058 0.299201 0.220464
O O17 0.621719 0.412620 0.245983
O O18 0.567333 0.375636 0.000000
O O19 0.372431 0.768919 0.000000
O O20 0.814588 0.917599 0.000000
#
# Coordination Sequence:
#
# PCOD8235925 Si02
#       8
#     8   8   8   8   8   8   8   8
#     4   9  19  32  44  59  84 117 149 178 214 256
#     4   9  16  25  42  64  82 102 134 175 216 254
#     4   9  16  27  43  63  84 107 137 175 217 261
#     4   9  16  27  43  63  84 107 136 174 219 261
#     4  10  19  31  45  61  84 116 150 184 217 254
#     4  10  20  32  44  61  85 115 148 183 219 256
#     4   8  15  27  42  58  80 107 134 168 215 262
#     4  10  19  31  45  61  83 115 151 183 213 252
#
# _framework density 16.013297000000001
#
# number of rings (size 3 to 8) (size 9 to 14) (size 15 to 20)
#    0.000    2.750    0.000    3.000    0.000    8.500 
#    0.000    2.500    0.000    0.000    0.000    0.000 
#    0.000    1.000    0.000   10.500    0.000    5.750 
#
# Total GULP energy -793435.934024 kJ/mol
# GULP energy per Si atom -12397.436469 kJ/mol
# Density = 1.597685 g / cm^3
# Si number density = 16.013297 Si / 1000 Ang^3
#
#
#
# Elastic Constant Matrix: (Units=GPa)
#
#
# Indices 1 2 3 4 5 6 
#
# 1 8.9505 26.6066 17.4980 0.0000 0.0000 0.0000
# 2 26.6066 98.1859 56.2154 0.0000 0.0000 0.0000
# 3 17.4980 56.2154 103.6366 0.0000 0.0000 0.0000
# 4 0.0000 0.0000 0.0000 26.6837 0.0000 0.0000
# 5 0.0000 0.0000 0.0000 0.0000 20.9059 0.0000
# 6 0.0000 0.0000 0.0000 0.0000 0.0000 15.6228
#
#
#
# Elastic Compliance Matrix: (Units=1/GPa)
#
#
# Indices 1 2 3 4 5 6 
#
# 1 0.599229 -0.151507 -0.018992 0.000000 0.000000 0.000000
# 2 -0.151507 0.053079 -0.003211 0.000000 0.000000 0.000000
# 3 -0.018992 -0.003211 0.014598 0.000000 0.000000 0.000000
# 4 0.000000 0.000000 0.000000 0.037476 0.000000 0.000000
# 5 0.000000 0.000000 0.000000 0.000000 0.047833 0.000000
# 6 0.000000 0.000000 0.000000 0.000000 0.000000 0.064009
#
#
# Mechanical properties :
#
#
# Convention : Reuss Voigt Hill
#
# Bulk Modulus (GPa) = 3.13003 45.71255 24.42129
# Shear Modulus (GPa) = 3.93658 20.00603 11.97130
#
# Velocity S-wave (km/s) = 1.56960 3.53843 2.73717
# Velocity P-wave (km/s) = 2.28993 6.73072 5.02724
#
# Compressibility (1/GPa) = 0.31948588
#
# Stress axis : x y z
#
# Youngs Moduli (GPa) = 1.66881 18.83991 68.50459
#
# Poissons Ratio (x) = 2.85437 1.30106
# Poissons Ratio (y) = 0.25284 0.21998
# Poissons Ratio (z) = 0.03169 0.06050
#
# Static dielectric constant tensor:
#      x y z
#    x 2.767970 0.000000 0.000000 
#    y 0.000000 2.971680 0.000000 
#    z 0.000000 0.000000 3.255760 
# 
# 
# High freq. dielectric constant tensor:
#      x y z
#    x 1.570760 0.000000 0.000000 
#    y 0.000000 1.597590 0.000000 
#    z 0.000000 0.000000 1.633940 
# 
# From -- ./inp_files/8415.got.cif
#   From: 2010.06.25/outbox.cif.g09.slc.cpg/sg58_5_cif.got.tgz:8415.got - 2010.06.26 21:38:00.
