data_PCOD8235989
_publ_section_title
;
Structure prediction by ZEFSAII (Michael W. Deem and Ramdas Pophale) SiO2 
 PCOD8235989
Probable space group: P N N M
;
_chemical_formula_sum "Si O2"
_cell_formula_units_Z 64
_cell_length_a 25.275231
_cell_length_b 14.839002
_cell_length_c 8.948476
_cell_angle_alpha 90.000000
_cell_angle_beta 90.000000
_cell_angle_gamma 90.000000
_cell_volume 3356.208280
_symmetry_space_group_name_H-M "P N N M"
_symmetry_group_IT_number 58
_symmetry_cell_setting 'orthorhombic'
loop_
_space_group_symop_operation_xyz
x,y,z
-x,-y,z
1/2+x,1/2-y,1/2-z
1/2-x,1/2+y,1/2-z
-x,-y,-z
x,y,-z
1/2-x,1/2+y,1/2+z
1/2+x,1/2-y,1/2+z
loop_
_atom_site_type_symbol
_atom_site_label
_atom_site_fract_x
_atom_site_fract_y
_atom_site_fract_z
Si Si1 0.517088 0.305847 0.172430
Si Si2 0.068966 0.030371 0.833232
Si Si3 0.905967 0.143010 0.670942
Si Si4 0.731807 0.888964 0.330654
Si Si5 0.832424 0.856202 0.165012
Si Si6 0.297238 0.312382 0.673235
Si Si7 0.301486 0.914738 0.327579
Si Si8 0.115869 0.302713 0.327341
O O1 0.532096 0.388178 0.279839
O O2 0.454131 0.283732 0.192328
O O3 0.554226 0.219061 0.214066
O O4 0.529097 0.332276 0.000000
O O5 0.129428 0.059250 0.838065
O O6 0.064898 0.949337 0.716464
O O7 0.050733 0.001193 0.000000
O O8 0.887067 0.139479 0.500000
O O9 0.854787 0.157856 0.771008
O O10 0.753933 0.889492 0.500000
O O11 0.777603 0.899729 0.210705
O O12 0.702256 0.795101 0.298064
O O13 0.696447 0.977520 0.303061
O O14 0.848994 0.784503 0.289483
O O15 0.829259 0.810841 0.000000
O O16 0.292682 0.336318 0.500000
O O17 0.248277 0.363317 0.751733
O O18 0.297193 0.889349 0.500000
O O19 0.358873 0.884478 0.265503
O O20 0.122506 0.326348 0.500000
#
# Coordination Sequence:
#
# PCOD8235989 Si02
#       8
#     8   8   8   8   8   8   8   8
#     4   9  20  36  54  76 107 147 187 228 280 331
#     4  10  20  32  50  80 112 144 184 229 273 328
#     4  11  22  36  53  76 108 147 187 229 277 334
#     4  10  22  37  54  77 111 147 180 222 279 333
#     4  10  19  31  50  76 107 141 180 220 263 321
#     4  11  23  39  57  81 113 150 185 226 276 332
#     4  11  22  37  58  85 112 144 183 227 277 335
#     4  10  19  34  55  78 106 140 178 224 272 320
#
# _framework density 19.069137999999999
#
# number of rings (size 3 to 8) (size 9 to 14) (size 15 to 20)
#    0.000    1.750    1.250    3.375    0.000    8.000 
#    0.000    0.000    0.000    0.750    0.000    5.250 
#    0.000    0.000    0.000    0.000    0.000    0.000 
#
# Total GULP energy -793103.304738 kJ/mol
# GULP energy per Si atom -12392.239137 kJ/mol
# Density = 1.902574 g / cm^3
# Si number density = 19.069138 Si / 1000 Ang^3
#
#
#
# Elastic Constant Matrix: (Units=GPa)
#
#
# Indices 1 2 3 4 5 6 
#
# 1 66.6731 5.0675 27.3634 0.0000 0.0000 0.0000
# 2 5.0675 59.6089 24.8689 0.0000 0.0000 0.0000
# 3 27.3634 24.8689 84.4610 0.0000 0.0000 0.0000
# 4 0.0000 0.0000 0.0000 25.7224 0.0000 0.0000
# 5 0.0000 0.0000 0.0000 0.0000 13.2632 0.0000
# 6 0.0000 0.0000 0.0000 0.0000 0.0000 6.0949
#
#
#
# Elastic Compliance Matrix: (Units=1/GPa)
#
#
# Indices 1 2 3 4 5 6 
#
# 1 0.017350 0.000992 -0.005913 0.000000 0.000000 0.000000
# 2 0.000992 0.019182 -0.005969 0.000000 0.000000 0.000000
# 3 -0.005913 -0.005969 0.015513 0.000000 0.000000 0.000000
# 4 0.000000 0.000000 0.000000 0.038877 0.000000 0.000000
# 5 0.000000 0.000000 0.000000 0.000000 0.075397 0.000000
# 6 0.000000 0.000000 0.000000 0.000000 0.000000 0.164072
#
#
# Mechanical properties :
#
#
# Convention : Reuss Voigt Hill
#
# Bulk Modulus (GPa) = 33.04230 36.14916 34.59573
# Shear Modulus (GPa) = 13.80224 19.24563 16.52393
#
# Velocity S-wave (km/s) = 2.69327 3.18032 2.94688
# Velocity P-wave (km/s) = 5.19970 5.69947 5.45531
#
# Compressibility (1/GPa) = 0.03026423
#
# Stress axis : x y z
#
# Youngs Moduli (GPa) = 57.63703 52.13182 64.46159
#
# Poissons Ratio (x) = -0.05171 0.38117
# Poissons Ratio (y) = -0.05717 0.38480
# Poissons Ratio (z) = 0.34081 0.31120
#
# Static dielectric constant tensor:
#      x y z
#    x 3.646460 0.000000 0.000000 
#    y 0.000000 3.355710 0.000000 
#    z 0.000000 0.000000 3.616230 
# 
# 
# High freq. dielectric constant tensor:
#      x y z
#    x 1.740460 0.000000 0.000000 
#    y 0.000000 1.712350 0.000000 
#    z 0.000000 0.000000 1.755500 
# 
# From -- ./inp_files/10039.got.cif
#   From: 2010.06.25/outbox.cif.g09.slc.cpg/sg58_6_cif.got.tgz:10039.got - 2010.06.26 21:38:00.
