data_PCOD8235232
_publ_section_title
;
Structure prediction by ZEFSAII (Michael W. Deem and Ramdas Pophale) SiO2 
 PCOD8235232
Probable space group: P N N M
;
_chemical_formula_sum "Si O2"
_cell_formula_units_Z 48
_cell_length_a 15.293313
_cell_length_b 9.560115
_cell_length_c 16.349139
_cell_angle_alpha 90.000000
_cell_angle_beta 90.000000
_cell_angle_gamma 90.000000
_cell_volume 2390.339454
_symmetry_space_group_name_H-M "P N N M"
_symmetry_group_IT_number 58
_symmetry_cell_setting 'orthorhombic'
loop_
_space_group_symop_operation_xyz
x,y,z
-x,-y,z
1/2+x,1/2-y,1/2-z
1/2-x,1/2+y,1/2-z
-x,-y,-z
x,y,-z
1/2-x,1/2+y,1/2+z
1/2+x,1/2-y,1/2+z
loop_
_atom_site_type_symbol
_atom_site_label
_atom_site_fract_x
_atom_site_fract_y
_atom_site_fract_z
Si Si1 0.473086 0.208945 0.846704
Si Si2 0.150399 0.246289 0.590075
Si Si3 0.146213 0.937514 0.593130
Si Si4 0.071184 0.396293 0.189498
Si Si5 0.819308 0.486279 0.322997
Si Si6 0.300089 0.727068 0.593068
O O1 0.548304 0.210103 0.914881
O O2 0.422378 0.356752 0.849139
O O3 0.520852 0.189427 0.759950
O O4 0.404670 0.084040 0.866190
O O5 0.191105 0.243571 0.500000
O O6 0.203899 0.361456 0.640816
O O7 0.159753 0.092572 0.630533
O O8 0.109567 0.947261 0.500000
O O9 0.238205 0.860666 0.593082
O O10 0.152900 0.487104 0.228181
O O11 0.106171 0.284124 0.123848
O O12 0.000000 0.500000 0.147531
O O13 0.735557 0.388859 0.342103
O O14 0.308108 0.666674 0.500000
#
# Coordination Sequence:
#
# PCOD8235232 Si02
#       6
#     8   8   8   8   8   8
#     4   9  17  30  46  68 101 135 172 213 258 317
#     4  10  17  26  45  74 107 139 168 207 266 330
#     4   9  18  30  47  75 106 134 169 216 267 320
#     4   9  19  34  52  76 107 142 184 229 271 319
#     4   9  19  33  49  73 105 137 175 221 268 323
#     4  10  20  35  55  78 105 140 183 226 268 317
#
# _framework density 20.080831
#
# number of rings (size 3 to 8) (size 9 to 14) (size 15 to 20)
#    0.000    2.667    0.000    3.000    0.000    7.000 
#    0.000    0.000    0.000    4.000    0.000    0.000 
#    0.000   33.333    0.000    0.000    0.000    0.167 
#
# Total GULP energy -594692.159638 kJ/mol
# GULP energy per Si atom -12389.419992 kJ/mol
# Density = 2.003513 g / cm^3
# Si number density = 20.080831 Si / 1000 Ang^3
#
#
#
# Elastic Constant Matrix: (Units=GPa)
#
#
# Indices 1 2 3 4 5 6 
#
# 1 59.2560 24.7238 26.5185 0.0000 0.0000 0.0000
# 2 24.7238 124.4293 20.3605 0.0000 0.0000 0.0000
# 3 26.5185 20.3605 46.4376 0.0000 0.0000 0.0000
# 4 0.0000 0.0000 0.0000 19.0129 0.0000 0.0000
# 5 0.0000 0.0000 0.0000 0.0000 21.6290 0.0000
# 6 0.0000 0.0000 0.0000 0.0000 0.0000 29.0129
#
#
#
# Elastic Compliance Matrix: (Units=1/GPa)
#
#
# Indices 1 2 3 4 5 6 
#
# 1 0.023459 -0.002660 -0.012230 0.000000 0.000000 0.000000
# 2 -0.002660 0.008959 -0.002409 0.000000 0.000000 0.000000
# 3 -0.012230 -0.002409 0.029575 0.000000 0.000000 0.000000
# 4 0.000000 0.000000 0.000000 0.052596 0.000000 0.000000
# 5 0.000000 0.000000 0.000000 0.000000 0.046234 0.000000
# 6 0.000000 0.000000 0.000000 0.000000 0.000000 0.034467
#
#
# Mechanical properties :
#
#
# Convention : Reuss Voigt Hill
#
# Bulk Modulus (GPa) = 36.50383 41.48095 38.99239
# Shear Modulus (GPa) = 20.91864 24.49895 22.70879
#
# Velocity S-wave (km/s) = 3.23107 3.49666 3.36649
# Velocity P-wave (km/s) = 5.66901 6.08309 5.87970
#
# Compressibility (1/GPa) = 0.02739438
#
# Stress axis : x y z
#
# Youngs Moduli (GPa) = 42.62738 111.61381 33.81266
#
# Poissons Ratio (x) = 0.29690 0.41353
# Poissons Ratio (y) = 0.11339 0.08146
# Poissons Ratio (z) = 0.52134 0.26890
#
# Static dielectric constant tensor:
#      x y z
#    x 3.378090 0.000000 0.000000 
#    y 0.000000 3.839790 0.000000 
#    z 0.000000 0.000000 3.366320 
# 
# 
# High freq. dielectric constant tensor:
#      x y z
#    x 1.753390 0.000000 0.000000 
#    y 0.000000 1.792460 0.000000 
#    z 0.000000 0.000000 1.747560 
# 
# From -- ./inp_files/26790.got.cif
#   From: 2010.06.25/outbox.cif.g09.slc.cpg/sg58_14_cif.got.tgz:26790.got - 2010.06.26 21:38:00.
