data_PCOD8235089
_publ_section_title
;
Structure prediction by ZEFSAII (Michael W. Deem and Ramdas Pophale) SiO2 
 PCOD8235089
Probable space group: P B C M
;
_chemical_formula_sum "Si O2"
_cell_formula_units_Z 40
_cell_length_a 22.823736
_cell_length_b 8.750553
_cell_length_c 9.316060
_cell_angle_alpha 90.000000
_cell_angle_beta 90.000000
_cell_angle_gamma 90.000000
_cell_volume 1860.606405
_symmetry_space_group_name_H-M "P B C M"
_symmetry_group_IT_number 57
_symmetry_cell_setting 'orthorhombic'
loop_
_space_group_symop_operation_xyz
x,y,z
-x,-y,1/2+z
x,1/2-y,-z
-x,1/2+y,1/2-z
-x,-y,-z
x,y,1/2-z
-x,1/2+y,z
x,1/2-y,1/2+z
loop_
_atom_site_type_symbol
_atom_site_label
_atom_site_fract_x
_atom_site_fract_y
_atom_site_fract_z
Si Si1 0.547441 0.404102 0.414565
Si Si2 0.337819 0.397178 0.585773
Si Si3 0.079533 0.438434 0.750000
Si Si4 0.042620 0.086656 0.750000
Si Si5 0.880024 0.425721 0.524388
Si Si6 0.251600 0.903820 0.912900
O O1 0.556380 0.250000 0.500000
O O2 0.500000 0.500000 0.500000
O O3 0.526413 0.375932 0.250000
O O4 0.609905 0.483625 0.414983
O O5 0.360536 0.250000 0.500000
O O6 0.319814 0.357558 0.750000
O O7 0.282079 0.459911 0.499022
O O8 0.056032 0.266396 0.750000
O O9 0.122654 0.475240 0.880565
O O10 0.026803 0.561255 0.750000
O O11 0.068786 0.004423 0.612577
O O12 0.897555 0.250000 0.500000
O O13 0.817288 0.437818 0.600138
O O14 0.276377 0.889290 0.750000
O O15 0.264214 0.750000 0.000000
#
# Coordination Sequence:
#
# PCOD8235089 Si02
#       6
#     8   8   4   4   8   8
#     4  11  24  42  67  99 135 179 225 279 335 398
#     4  11  25  43  66  98 137 178 225 276 331 389
#     4  12  26  40  70  92 130 172 211 274 327 404
#     4  12  24  46  62  98 130 166 219 266 333 396
#     4  11  24  43  67  95 128 170 217 269 333 399
#     4  11  24  43  69  96 130 171 219 272 332 400
#
# _framework density 21.498366999999998
#
# number of rings (size 3 to 8) (size 9 to 14) (size 15 to 20)
#    0.000    0.800    1.000    6.000    5.600    8.000 
#    0.000    0.000    0.000    0.000    0.000    0.000 
#    0.000    0.000    0.000    0.000    0.000    0.000 
#
# Total GULP energy -496129.306766 kJ/mol
# GULP energy per Si atom -12403.232669 kJ/mol
# Density = 2.144944 g / cm^3
# Si number density = 21.498367 Si / 1000 Ang^3
#
#
#
# Elastic Constant Matrix: (Units=GPa)
#
#
# Indices 1 2 3 4 5 6 
#
# 1 51.5617 25.4403 30.0360 0.0000 0.0000 0.0000
# 2 25.4403 133.4841 59.6781 0.0000 0.0000 0.0000
# 3 30.0360 59.6781 196.2750 0.0000 0.0000 0.0000
# 4 0.0000 0.0000 0.0000 40.4679 0.0000 0.0000
# 5 0.0000 0.0000 0.0000 0.0000 34.5155 0.0000
# 6 0.0000 0.0000 0.0000 0.0000 0.0000 34.3842
#
#
#
# Elastic Compliance Matrix: (Units=1/GPa)
#
#
# Indices 1 2 3 4 5 6 
#
# 1 0.022392 -0.003166 -0.002464 0.000000 0.000000 0.000000
# 2 -0.003166 0.009118 -0.002288 0.000000 0.000000 0.000000
# 3 -0.002464 -0.002288 0.006168 0.000000 0.000000 0.000000
# 4 0.000000 0.000000 0.000000 0.024711 0.000000 0.000000
# 5 0.000000 0.000000 0.000000 0.000000 0.028972 0.000000
# 6 0.000000 0.000000 0.000000 0.000000 0.000000 0.029083
#
#
# Mechanical properties :
#
#
# Convention : Reuss Voigt Hill
#
# Bulk Modulus (GPa) = 45.78439 67.95885 56.87162
# Shear Modulus (GPa) = 34.82877 39.61794 37.22336
#
# Velocity S-wave (km/s) = 4.02937 4.29748 4.16558
# Velocity P-wave (km/s) = 6.55673 7.50362 7.04610
#
# Compressibility (1/GPa) = 0.02184151
#
# Stress axis : x y z
#
# Youngs Moduli (GPa) = 44.65951 109.67627 162.13843
#
# Poissons Ratio (x) = 0.34723 0.39951
# Poissons Ratio (y) = 0.14139 0.37094
# Poissons Ratio (z) = 0.11004 0.25092
#
# Static dielectric constant tensor:
#      x y z
#    x 3.750290 0.000000 0.000000 
#    y 0.000000 4.483690 0.000000 
#    z 0.000000 0.000000 4.200800 
# 
# 
# High freq. dielectric constant tensor:
#      x y z
#    x 1.842070 0.000000 0.000000 
#    y 0.000000 1.850960 0.000000 
#    z 0.000000 0.000000 1.869010 
# 
# From -- ./inp_files/8933.got.cif
#   From: 2010.03.12/outbox.cif.g09.slc.cpg/sg57_5_cif.got.tgz:8933.got - 2010.04.16 15:48:40.
