data_PCOD8235003
_publ_section_title
;
Structure prediction by ZEFSAII (Michael W. Deem and Ramdas Pophale) SiO2 
 PCOD8235003
Probable space group: P B C M
;
_chemical_formula_sum "Si O2"
_cell_formula_units_Z 40
_cell_length_a 8.965129
_cell_length_b 14.068965
_cell_length_c 13.289381
_cell_angle_alpha 90.000000
_cell_angle_beta 90.000000
_cell_angle_gamma 90.000000
_cell_volume 1676.190770
_symmetry_space_group_name_H-M "P B C M"
_symmetry_group_IT_number 57
_symmetry_cell_setting 'orthorhombic'
loop_
_space_group_symop_operation_xyz
x,y,z
-x,-y,1/2+z
x,1/2-y,-z
-x,1/2+y,1/2-z
-x,-y,-z
x,y,1/2-z
-x,1/2+y,z
x,1/2-y,1/2+z
loop_
_atom_site_type_symbol
_atom_site_label
_atom_site_fract_x
_atom_site_fract_y
_atom_site_fract_z
Si Si1 0.573814 0.988137 0.132836
Si Si2 0.083999 0.911901 0.363979
Si Si3 0.382053 0.678062 0.909697
Si Si4 0.177961 0.084309 0.497830
Si Si5 0.601820 0.673113 0.142424
O O1 0.576770 0.957373 0.250000
O O2 0.449147 0.927407 0.070279
O O3 0.734731 0.975772 0.082510
O O4 0.528691 0.097423 0.121858
O O5 0.023168 0.923949 0.250000
O O6 0.222652 0.838295 0.357407
O O7 0.959922 0.869346 0.440623
O O8 0.128591 0.015121 0.407305
O O9 0.517044 0.726250 0.846936
O O10 0.355813 0.750000 0.000000
O O11 0.276332 0.168544 0.447220
O O12 0.681318 0.653350 0.250000
#
# Coordination Sequence:
#
# PCOD8235003 Si02
#       5
#     8   8   8   8   8
#     4  11  22  41  69 101 136 176 226 284 338 407
#     4  11  24  43  68 101 141 181 226 288 358 420
#     4  12  23  42  69  98 138 177 228 288 345 409
#     4  11  22  41  68 101 134 180 224 277 349 420
#     4  11  22  39  70 103 132 177 233 284 341 409
#
# _framework density 23.863631000000002
#
# number of rings (size 3 to 8) (size 9 to 14) (size 15 to 20)
#    0.000    0.800    4.000    4.800    0.000    0.000 
#    3.600    0.000    0.000    4.800    0.000    0.000 
#    0.000    0.000    0.000    0.000    0.000    0.000 
#
# Total GULP energy -495651.219050 kJ/mol
# GULP energy per Si atom -12391.280476 kJ/mol
# Density = 2.380932 g / cm^3
# Si number density = 23.863631 Si / 1000 Ang^3
#
#
#
# Elastic Constant Matrix: (Units=GPa)
#
#
# Indices 1 2 3 4 5 6 
#
# 1 136.7801 29.3935 47.7584 0.0000 0.0000 0.0000
# 2 29.3935 68.0843 3.6973 0.0000 0.0000 0.0000
# 3 47.7584 3.6973 139.5596 0.0000 0.0000 0.0000
# 4 0.0000 0.0000 0.0000 21.2778 0.0000 0.0000
# 5 0.0000 0.0000 0.0000 0.0000 36.4841 0.0000
# 6 0.0000 0.0000 0.0000 0.0000 0.0000 33.5172
#
#
#
# Elastic Compliance Matrix: (Units=1/GPa)
#
#
# Indices 1 2 3 4 5 6 
#
# 1 0.009191 -0.003803 -0.003045 0.000000 0.000000 0.000000
# 2 -0.003803 0.016282 0.000870 0.000000 0.000000 0.000000
# 3 -0.003045 0.000870 0.008184 0.000000 0.000000 0.000000
# 4 0.000000 0.000000 0.000000 0.046997 0.000000 0.000000
# 5 0.000000 0.000000 0.000000 0.000000 0.027409 0.000000
# 6 0.000000 0.000000 0.000000 0.000000 0.000000 0.029835
#
#
# Mechanical properties :
#
#
# Convention : Reuss Voigt Hill
#
# Bulk Modulus (GPa) = 46.07669 56.23583 51.15626
# Shear Modulus (GPa) = 31.82916 35.82746 33.82831
#
# Velocity S-wave (km/s) = 3.65608 3.87892 3.76914
# Velocity P-wave (km/s) = 6.09695 6.60893 6.35810
#
# Compressibility (1/GPa) = 0.02170295
#
# Stress axis : x y z
#
# Youngs Moduli (GPa) = 108.79922 61.41695 122.18624
#
# Poissons Ratio (x) = 0.23355 0.37200
# Poissons Ratio (y) = 0.41373 -0.10630
# Poissons Ratio (z) = 0.33125 -0.05343
#
# Static dielectric constant tensor:
#      x y z
#    x 4.337150 0.000000 0.000000 
#    y 0.000000 4.067470 0.000000 
#    z 0.000000 0.000000 4.479170 
# 
# 
# High freq. dielectric constant tensor:
#      x y z
#    x 1.931290 0.000000 0.000000 
#    y 0.000000 1.933400 0.000000 
#    z 0.000000 0.000000 1.969420 
# 
# From -- ./inp_files/16131.got.cif
#   From: 2010.03.12/outbox.cif.g09.slc.cpg/sg57_9_cif.got.tgz:16131.got - 2010.04.16 15:48:40.
