data_PCOD8235158
_publ_section_title
;
Structure prediction by ZEFSAII (Michael W. Deem and Ramdas Pophale) SiO2 
 PCOD8235158
Probable space group: P B C M
;
_chemical_formula_sum "Si O2"
_cell_formula_units_Z 32
_cell_length_a 11.317785
_cell_length_b 7.792072
_cell_length_c 14.409770
_cell_angle_alpha 90.000000
_cell_angle_beta 90.000000
_cell_angle_gamma 90.000000
_cell_volume 1270.783143
_symmetry_space_group_name_H-M "P B C M"
_symmetry_group_IT_number 57
_symmetry_cell_setting 'orthorhombic'
loop_
_space_group_symop_operation_xyz
x,y,z
-x,-y,1/2+z
x,1/2-y,-z
-x,1/2+y,1/2-z
-x,-y,-z
x,y,1/2-z
-x,1/2+y,z
x,1/2-y,1/2+z
loop_
_atom_site_type_symbol
_atom_site_label
_atom_site_fract_x
_atom_site_fract_y
_atom_site_fract_z
Si Si1 0.314267 0.118027 0.587051
Si Si2 0.877350 0.184004 0.750000
Si Si3 0.146405 0.413831 0.250000
Si Si4 0.731324 0.400719 0.073673
Si Si5 0.474987 0.414164 0.642840
O O1 0.412857 0.266272 0.583249
O O2 0.213579 0.160120 0.660864
O O3 0.253210 0.079340 0.486760
O O4 0.388593 0.943863 0.613460
O O5 0.846870 0.382678 0.750000
O O6 0.827086 0.099189 0.843980
O O7 0.016557 0.160669 0.750000
O O8 0.600687 0.409703 0.121288
O O9 0.752023 0.250000 0.000000
O O10 0.467958 0.363806 0.750000
#
# Coordination Sequence:
#
# PCOD8235158 Si02
#       5
#     8   4   4   8   8
#     4  12  26  47  79 119 156 203 250 312 390 463
#     4  12  30  53  79 108 152 205 270 324 374 439
#     4  12  28  51  81 108 152 205 262 318 378 443
#     4  12  26  49  78 111 157 203 251 319 382 456
#     4  12  24  45  80 118 161 200 248 314 390 469
#
# _framework density 25.181322999999999
#
# number of rings (size 3 to 8) (size 9 to 14) (size 15 to 20)
#    0.000    0.000    6.250    3.000    3.500    1.000 
#    0.000    0.000    0.000    0.000    0.000    0.000 
#    0.000    0.000    0.000    0.000    0.000    0.000 
#
# Total GULP energy -396737.817142 kJ/mol
# GULP energy per Si atom -12398.056786 kJ/mol
# Density = 2.512401 g / cm^3
# Si number density = 25.181323 Si / 1000 Ang^3
#
#
#
# Elastic Constant Matrix: (Units=GPa)
#
#
# Indices 1 2 3 4 5 6 
#
# 1 163.4432 16.2964 68.8546 0.0000 0.0000 0.0000
# 2 16.2964 57.9078 33.8770 0.0000 0.0000 0.0000
# 3 68.8546 33.8770 199.1808 0.0000 0.0000 0.0000
# 4 0.0000 0.0000 0.0000 44.7066 0.0000 0.0000
# 5 0.0000 0.0000 0.0000 0.0000 21.1551 0.0000
# 6 0.0000 0.0000 0.0000 0.0000 0.0000 33.9293
#
#
#
# Elastic Compliance Matrix: (Units=1/GPa)
#
#
# Indices 1 2 3 4 5 6 
#
# 1 0.007182 -0.000632 -0.002375 0.000000 0.000000 0.000000
# 2 -0.000632 0.019232 -0.003053 0.000000 0.000000 0.000000
# 3 -0.002375 -0.003053 0.006361 0.000000 0.000000 0.000000
# 4 0.000000 0.000000 0.000000 0.022368 0.000000 0.000000
# 5 0.000000 0.000000 0.000000 0.000000 0.047270 0.000000
# 6 0.000000 0.000000 0.000000 0.000000 0.000000 0.029473
#
#
# Mechanical properties :
#
#
# Convention : Reuss Voigt Hill
#
# Bulk Modulus (GPa) = 48.41189 73.17643 60.79416
# Shear Modulus (GPa) = 33.13649 40.05845 36.59747
#
# Velocity S-wave (km/s) = 3.63149 3.99281 3.81643
# Velocity P-wave (km/s) = 6.07048 7.09786 6.60418
#
# Compressibility (1/GPa) = 0.02065608
#
# Stress axis : x y z
#
# Youngs Moduli (GPa) = 139.23773 51.99536 157.21039
#
# Poissons Ratio (x) = 0.03284 0.37342
# Poissons Ratio (y) = 0.08794 0.47993
# Poissons Ratio (z) = 0.33073 0.15873
#
# Static dielectric constant tensor:
#      x y z
#    x 4.333760 0.000000 0.000000 
#    y 0.000000 5.142580 0.000000 
#    z 0.000000 0.000000 4.810010 
# 
# 
# High freq. dielectric constant tensor:
#      x y z
#    x 1.974130 0.000000 0.000000 
#    y 0.000000 2.030430 0.000000 
#    z 0.000000 0.000000 2.031910 
# 
# From -- ./inp_files/17218.got.cif
#   From: 2010.03.12/outbox.cif.g09.slc.cpg/sg57_9_cif.got.tgz:17218.got - 2010.04.16 15:48:40.
