data_PCOD8235107
_publ_section_title
;
Structure prediction by ZEFSAII (Michael W. Deem and Ramdas Pophale) SiO2 
 PCOD8235107
Probable space group: P B C M
;
_chemical_formula_sum "Si O2"
_cell_formula_units_Z 32
_cell_length_a 6.123522
_cell_length_b 10.211869
_cell_length_c 21.755286
_cell_angle_alpha 90.000000
_cell_angle_beta 90.000000
_cell_angle_gamma 90.000000
_cell_volume 1360.414695
_symmetry_space_group_name_H-M "P B C M"
_symmetry_group_IT_number 57
_symmetry_cell_setting 'orthorhombic'
loop_
_space_group_symop_operation_xyz
x,y,z
-x,-y,1/2+z
x,1/2-y,-z
-x,1/2+y,1/2-z
-x,-y,-z
x,y,1/2-z
-x,1/2+y,z
x,1/2-y,1/2+z
loop_
_atom_site_type_symbol
_atom_site_label
_atom_site_fract_x
_atom_site_fract_y
_atom_site_fract_z
Si Si1 0.481840 0.615635 0.084803
Si Si2 0.166551 0.051445 0.177931
Si Si3 0.911725 0.275977 0.117033
Si Si4 0.192382 0.091979 0.976380
O O1 0.602145 0.592178 0.149265
O O2 0.329262 0.744207 0.090667
O O3 0.339144 0.487903 0.071367
O O4 0.657224 0.644236 0.031596
O O5 0.199571 0.042101 0.250000
O O6 0.983698 0.159252 0.161967
O O7 0.087601 0.912396 0.152574
O O8 0.080442 0.286177 0.059697
O O9 0.000000 0.000000 0.000000
#
# Coordination Sequence:
#
# PCOD8235107 Si02
#       4
#     8   8   8   8
#     4  11  26  48  77 114 154 203 253 313 396 467
#     4  12  29  51  77 108 154 210 265 322 379 462
#     4  12  26  52  76 117 154 202 260 320 399 461
#     4  11  24  49  76 114 158 194 251 322 394 468
#
# _framework density 23.522238000000002
#
# number of rings (size 3 to 8) (size 9 to 14) (size 15 to 20)
#    0.000    0.500    5.000    0.750    3.500    8.000 
#    0.000    0.000    0.000    0.000    0.000    0.000 
#    0.000    0.000    0.000    0.000    0.000    0.000 
#
# Total GULP energy -397008.686999 kJ/mol
# GULP energy per Si atom -12406.521469 kJ/mol
# Density = 2.346870 g / cm^3
# Si number density = 23.522238 Si / 1000 Ang^3
#
#
#
# Elastic Constant Matrix: (Units=GPa)
#
#
# Indices 1 2 3 4 5 6 
#
# 1 159.7245 73.4346 86.7382 0.0000 0.0000 0.0000
# 2 73.4346 162.6108 61.1565 0.0000 0.0000 0.0000
# 3 86.7382 61.1565 164.4518 0.0000 0.0000 0.0000
# 4 0.0000 0.0000 0.0000 23.8694 0.0000 0.0000
# 5 0.0000 0.0000 0.0000 0.0000 39.7090 0.0000
# 6 0.0000 0.0000 0.0000 0.0000 0.0000 67.3093
#
#
#
# Elastic Compliance Matrix: (Units=1/GPa)
#
#
# Indices 1 2 3 4 5 6 
#
# 1 0.009818 -0.002891 -0.004104 0.000000 0.000000 0.000000
# 2 -0.002891 0.008001 -0.001451 0.000000 0.000000 0.000000
# 3 -0.004104 -0.001451 0.008785 0.000000 0.000000 0.000000
# 4 0.000000 0.000000 0.000000 0.041895 0.000000 0.000000
# 5 0.000000 0.000000 0.000000 0.000000 0.025183 0.000000
# 6 0.000000 0.000000 0.000000 0.000000 0.000000 0.014857
#
#
# Mechanical properties :
#
#
# Convention : Reuss Voigt Hill
#
# Bulk Modulus (GPa) = 102.94552 103.27176 103.10864
# Shear Modulus (GPa) = 38.86043 43.87471 41.36757
#
# Velocity S-wave (km/s) = 4.06898 4.32353 4.19818
# Velocity P-wave (km/s) = 8.12008 8.30199 8.21154
#
# Compressibility (1/GPa) = 0.00971388
#
# Stress axis : x y z
#
# Youngs Moduli (GPa) = 101.85212 124.99052 113.83486
#
# Poissons Ratio (x) = 0.36129 0.46713
# Poissons Ratio (y) = 0.29441 0.16514
# Poissons Ratio (z) = 0.41795 0.18132
#
# Static dielectric constant tensor:
#      x y z
#    x 4.681840 0.000000 0.000000 
#    y 0.000000 4.393750 0.000000 
#    z 0.000000 0.000000 4.307240 
# 
# 
# High freq. dielectric constant tensor:
#      x y z
#    x 1.955460 0.000000 0.000000 
#    y 0.000000 1.958100 0.000000 
#    z 0.000000 0.000000 1.917530 
# 
# From -- ./inp_files/23338.got.cif
#   From: 2010.03.12/outbox.cif.g09.slc.cpg/sg57_12_cif.got.tgz:23338.got - 2010.04.16 15:48:40.
