data_PCOD8235452
_publ_section_title
;
Structure prediction by ZEFSAII (Michael W. Deem and Ramdas Pophale) SiO2 
 PCOD8235452
Probable space group: P N N M
;
_chemical_formula_sum "Si O2"
_cell_formula_units_Z 64
_cell_length_a 30.403469
_cell_length_b 5.462838
_cell_length_c 17.483169
_cell_angle_alpha 90.000000
_cell_angle_beta 90.000000
_cell_angle_gamma 90.000000
_cell_volume 2903.766003
_symmetry_space_group_name_H-M "P N N M"
_symmetry_group_IT_number 58
_symmetry_cell_setting 'orthorhombic'
loop_
_space_group_symop_operation_xyz
x,y,z
-x,-y,z
1/2+x,1/2-y,1/2-z
1/2-x,1/2+y,1/2-z
-x,-y,-z
x,y,-z
1/2-x,1/2+y,1/2+z
1/2+x,1/2-y,1/2+z
loop_
_atom_site_type_symbol
_atom_site_label
_atom_site_fract_x
_atom_site_fract_y
_atom_site_fract_z
Si Si1 0.681835 0.171369 0.913448
Si Si2 0.819507 0.501622 0.086585
Si Si3 0.014725 0.247020 0.846576
Si Si4 0.519801 0.747756 0.826145
Si Si5 0.323487 0.472556 0.226523
Si Si6 0.111037 0.309867 0.192585
Si Si7 0.613038 0.899895 0.165295
Si Si8 0.227388 0.995971 0.866972
O O1 0.682938 0.392695 0.853711
O O2 0.721557 0.991066 0.890482
O O3 0.634356 0.033734 0.908311
O O4 0.687037 0.270236 0.000000
O O5 0.863001 0.495669 0.139659
O O6 0.793929 0.244404 0.094035
O O7 0.790413 0.740926 0.106037
O O8 0.835617 0.527399 0.000000
O O9 0.067105 0.220352 0.847858
O O10 0.000000 0.500000 0.888287
O O11 0.989135 0.245888 0.764718
O O12 0.000000 0.000000 0.891077
O O13 0.500000 0.500000 0.863336
O O14 0.571552 0.725611 0.851246
O O15 0.500000 0.000000 0.861994
O O16 0.356568 0.588601 0.288556
O O17 0.344326 0.213468 0.206853
O O18 0.277821 0.457684 0.274296
O O19 0.093439 0.411257 0.273398
#
# Coordination Sequence:
#
# PCOD8235452 Si02
#       8
#     8   8   8   8   8   8   8   8
#     4  11  27  43  63  95 138 178 214 266 340 404
#     4  11  23  41  66  93 133 176 223 276 332 391
#     4  10  18  29  53  85 122 155 205 264 326 369
#     4  10  19  32  59  90 119 154 205 269 327 371
#     4  10  23  38  67  91 127 166 219 272 319 371
#     4  10  20  36  57  95 126 164 217 276 328 385
#     4  11  21  39  62  94 125 166 215 278 325 394
#     4  11  25  44  68  96 127 174 233 275 318 381
#
# _framework density 22.040344000000001
#
# number of rings (size 3 to 8) (size 9 to 14) (size 15 to 20)
#    0.000    1.500    3.750    2.625    5.250    0.500 
#    0.000    0.000    0.000    1.500    0.000    0.000 
#    0.000    0.500    0.000    0.000    0.000    0.000 
#
# Total GULP energy -792876.291828 kJ/mol
# GULP energy per Si atom -12388.692060 kJ/mol
# Density = 2.199018 g / cm^3
# Si number density = 22.040344 Si / 1000 Ang^3
#
#
#
# Elastic Constant Matrix: (Units=GPa)
#
#
# Indices 1 2 3 4 5 6 
#
# 1 109.6252 26.0496 27.9628 0.0000 0.0000 0.0000
# 2 26.0496 130.8171 12.2555 0.0000 0.0000 0.0000
# 3 27.9628 12.2555 82.6439 0.0000 0.0000 0.0000
# 4 0.0000 0.0000 0.0000 12.5442 0.0000 0.0000
# 5 0.0000 0.0000 0.0000 0.0000 10.4416 0.0000
# 6 0.0000 0.0000 0.0000 0.0000 0.0000 29.1967
#
#
#
# Elastic Compliance Matrix: (Units=1/GPa)
#
#
# Indices 1 2 3 4 5 6 
#
# 1 0.010369 -0.001760 -0.003247 0.000000 0.000000 0.000000
# 2 -0.001760 0.008051 -0.000598 0.000000 0.000000 0.000000
# 3 -0.003247 -0.000598 0.013288 0.000000 0.000000 0.000000
# 4 0.000000 0.000000 0.000000 0.079718 0.000000 0.000000
# 5 0.000000 0.000000 0.000000 0.000000 0.095771 0.000000
# 6 0.000000 0.000000 0.000000 0.000000 0.000000 0.034250
#
#
# Mechanical properties :
#
#
# Convention : Reuss Voigt Hill
#
# Bulk Modulus (GPa) = 48.79192 50.62469 49.70831
# Shear Modulus (GPa) = 19.26856 27.55770 23.41313
#
# Velocity S-wave (km/s) = 2.95996 3.53984 3.26281
# Velocity P-wave (km/s) = 5.81958 6.30287 6.06604
#
# Compressibility (1/GPa) = 0.02049520
#
# Stress axis : x y z
#
# Youngs Moduli (GPa) = 96.44500 124.21011 75.25864
#
# Poissons Ratio (x) = 0.21867 0.24438
# Poissons Ratio (y) = 0.16979 0.04502
# Poissons Ratio (z) = 0.31317 0.07431
#
# Static dielectric constant tensor:
#      x y z
#    x 4.145180 0.000000 0.000000 
#    y 0.000000 4.382770 0.000000 
#    z 0.000000 0.000000 3.626030 
# 
# 
# High freq. dielectric constant tensor:
#      x y z
#    x 1.874210 0.000000 0.000000 
#    y 0.000000 1.878630 0.000000 
#    z 0.000000 0.000000 1.815020 
# 
# From -- ./inp_files/27797.got.cif
#   From: 2010.06.25/outbox.cif.g09.slc.cpg/sg58_14_cif.got.tgz:27797.got - 2010.06.26 21:38:00.
