data_PCOD8235854
_publ_section_title
;
Structure prediction by ZEFSAII (Michael W. Deem and Ramdas Pophale) SiO2 
 PCOD8235854
Probable space group: P N N M
;
_chemical_formula_sum "Si O2"
_cell_formula_units_Z 56
_cell_length_a 19.670138
_cell_length_b 17.857759
_cell_length_c 8.734622
_cell_angle_alpha 90.000000
_cell_angle_beta 90.000000
_cell_angle_gamma 90.000000
_cell_volume 3068.163362
_symmetry_space_group_name_H-M "P N N M"
_symmetry_group_IT_number 58
_symmetry_cell_setting 'orthorhombic'
loop_
_space_group_symop_operation_xyz
x,y,z
-x,-y,z
1/2+x,1/2-y,1/2-z
1/2-x,1/2+y,1/2-z
-x,-y,-z
x,y,-z
1/2-x,1/2+y,1/2+z
1/2+x,1/2-y,1/2+z
loop_
_atom_site_type_symbol
_atom_site_label
_atom_site_fract_x
_atom_site_fract_y
_atom_site_fract_z
Si Si1 0.098562 0.123482 0.681988
Si Si2 0.692417 0.069115 0.181895
Si Si3 0.570355 0.966092 0.817973
Si Si4 0.053636 0.856469 0.682024
Si Si5 0.034521 0.693304 0.681835
Si Si6 0.164080 0.972308 0.317811
Si Si7 0.883434 0.712953 0.318345
O O1 0.097436 0.120767 0.500000
O O2 0.132755 0.202039 0.737677
O O3 0.020777 0.118304 0.741735
O O4 0.141781 0.053791 0.746255
O O5 0.762050 0.046427 0.258536
O O6 0.672773 0.153229 0.237938
O O7 0.634764 0.012191 0.243839
O O8 0.699646 0.064725 0.000000
O O9 0.576275 0.879513 0.761096
O O10 0.500000 0.000000 0.753123
O O11 0.569298 0.971310 0.000000
O O12 0.054342 0.860579 0.500000
O O13 0.068997 0.771078 0.737863
O O14 0.111090 0.911266 0.749145
O O15 0.031494 0.693222 0.500000
O O16 0.957343 0.688520 0.744700
O O17 0.164109 0.971280 0.500000
O O18 0.886081 0.711014 0.500000
#
# Coordination Sequence:
#
# PCOD8235854 Si02
#       7
#     8   8   8   8   8   8   8
#     4   8  14  26  47  68  85 112 154 194 221 254
#     4  10  19  30  45  66  93 122 150 180 221 271
#     4   9  14  23  42  65  87 112 145 187 224 254
#     4   8  14  25  44  67  87 110 146 193 230 255
#     4   8  12  21  40  67  89 103 137 191 233 254
#     4  10  19  31  45  66  95 121 147 181 227 272
#     4   8  13  24  43  66  87 110 144 187 225 256
#
# _framework density 18.251961999999999
#
# number of rings (size 3 to 8) (size 9 to 14) (size 15 to 20)
#    0.000    3.286    1.429    2.143    0.000    1.714 
#    2.571    0.000    0.000    2.143    0.000    3.000 
#    0.000    0.000    0.000    0.000    0.000    0.000 
#
# Total GULP energy -693807.392978 kJ/mol
# GULP energy per Si atom -12389.417732 kJ/mol
# Density = 1.821042 g / cm^3
# Si number density = 18.251962 Si / 1000 Ang^3
#
#
#
# Elastic Constant Matrix: (Units=GPa)
#
#
# Indices 1 2 3 4 5 6 
#
# 1 135.2104 105.6280 9.2825 0.0000 0.0000 0.0000
# 2 105.6280 206.4569 12.0565 0.0000 0.0000 0.0000
# 3 9.2825 12.0565 4.8263 0.0000 0.0000 0.0000
# 4 0.0000 0.0000 0.0000 7.6832 0.0000 0.0000
# 5 0.0000 0.0000 0.0000 0.0000 21.6854 0.0000
# 6 0.0000 0.0000 0.0000 0.0000 0.0000 27.1084
#
#
#
# Elastic Compliance Matrix: (Units=1/GPa)
#
#
# Indices 1 2 3 4 5 6 
#
# 1 0.012688 -0.005932 -0.009585 0.000000 0.000000 0.000000
# 2 -0.005932 0.008444 -0.009685 0.000000 0.000000 0.000000
# 3 -0.009585 -0.009685 0.249828 0.000000 0.000000 0.000000
# 4 0.000000 0.000000 0.000000 0.130155 0.000000 0.000000
# 5 0.000000 0.000000 0.000000 0.000000 0.046114 0.000000
# 6 0.000000 0.000000 0.000000 0.000000 0.000000 0.036889
#
#
# Mechanical properties :
#
#
# Convention : Reuss Voigt Hill
#
# Bulk Modulus (GPa) = 4.53400 66.71416 35.62408
# Shear Modulus (GPa) = 8.22315 25.93049 17.07682
#
# Velocity S-wave (km/s) = 2.12488 3.77330 3.06210
# Velocity P-wave (km/s) = 2.91714 7.45754 5.66236
#
# Compressibility (1/GPa) = 0.22055594
#
# Stress axis : x y z
#
# Youngs Moduli (GPa) = 78.81616 118.42770 4.00275
#
# Poissons Ratio (x) = 0.70247 0.03837
# Poissons Ratio (y) = 0.46751 0.03877
# Poissons Ratio (z) = 0.75544 1.14702
#
# Static dielectric constant tensor:
#      x y z
#    x 3.312990 0.000000 0.000000 
#    y 0.000000 4.077440 0.000000 
#    z 0.000000 0.000000 2.592890 
# 
# 
# High freq. dielectric constant tensor:
#      x y z
#    x 1.690140 0.000000 0.000000 
#    y 0.000000 1.733950 0.000000 
#    z 0.000000 0.000000 1.625790 
# 
# From -- ./inp_files/9166.got.cif
#   From: 2010.06.25/outbox.cif.g09.slc.cpg/sg58_5_cif.got.tgz:9166.got - 2010.06.26 21:38:00.
