data_PCOD8235030
_publ_section_title
;
Structure prediction by ZEFSAII (Michael W. Deem and Ramdas Pophale) SiO2 
 PCOD8235030
Probable space group: P B C M
;
_chemical_formula_sum "Si O2"
_cell_formula_units_Z 48
_cell_length_a 30.284879
_cell_length_b 9.126910
_cell_length_c 8.885127
_cell_angle_alpha 90.000000
_cell_angle_beta 90.000000
_cell_angle_gamma 90.000000
_cell_volume 2455.914542
_symmetry_space_group_name_H-M "P B C M"
_symmetry_group_IT_number 57
_symmetry_cell_setting 'orthorhombic'
loop_
_space_group_symop_operation_xyz
x,y,z
-x,-y,1/2+z
x,1/2-y,-z
-x,1/2+y,1/2-z
-x,-y,-z
x,y,1/2-z
-x,1/2+y,z
x,1/2-y,1/2+z
loop_
_atom_site_type_symbol
_atom_site_label
_atom_site_fract_x
_atom_site_fract_y
_atom_site_fract_z
Si Si1 0.461505 0.406812 0.927905
Si Si2 0.125154 0.595272 0.075015
Si Si3 0.961852 0.907035 0.075662
Si Si4 0.619636 0.100487 0.573930
Si Si5 0.200518 0.092506 0.427433
Si Si6 0.718467 0.400384 0.426041
O O1 0.468444 0.398616 0.750000
O O2 0.413905 0.472905 0.972002
O O3 0.463744 0.250000 0.000000
O O4 0.500000 0.500000 0.000000
O O5 0.136149 0.618701 0.250000
O O6 0.083913 0.489511 0.051642
O O7 0.113826 0.750000 0.000000
O O8 0.166684 0.524312 0.993175
O O9 0.973428 0.885854 0.250000
O O10 0.957952 0.750000 0.000000
O O11 0.000000 0.000000 0.000000
O O12 0.602868 0.250000 0.500000
O O13 0.619320 0.127679 0.750000
O O14 0.669027 0.058952 0.517556
O O15 0.193058 0.250000 0.500000
O O16 0.193113 0.106305 0.250000
O O17 0.249431 0.034373 0.468865
O O18 0.735306 0.250000 0.500000
O O19 0.719286 0.371625 0.250000
#
# Coordination Sequence:
#
# PCOD8235030 Si02
#       6
#     8   8   8   8   8   8
#     4  11  23  38  57  81 111 146 185 230 280 334
#     4  11  24  41  62  88 118 153 193 237 286 340
#     4  11  24  41  63  90 121 156 194 238 286 338
#     4   9  19  36  57  81 110 144 183 228 278 332
#     4  11  23  38  58  84 116 152 191 237 286 337
#     4   9  19  36  57  82 111 145 186 230 278 333
#
# _framework density 19.544654000000001
#
# number of rings (size 3 to 8) (size 9 to 14) (size 15 to 20)
#    0.000    1.667    0.000    4.000    0.000   11.333 
#    0.000    0.000    0.000    0.000    0.000    0.000 
#    0.000    0.000    0.000    0.000    0.000    0.000 
#
# Total GULP energy -595368.017538 kJ/mol
# GULP energy per Si atom -12403.500365 kJ/mol
# Density = 1.950017 g / cm^3
# Si number density = 19.544654 Si / 1000 Ang^3
#
#
#
# Elastic Constant Matrix: (Units=GPa)
#
#
# Indices 1 2 3 4 5 6 
#
# 1 107.5277 61.8194 64.8860 0.0000 0.0000 0.0000
# 2 61.8194 153.8290 71.1851 0.0000 0.0000 0.0000
# 3 64.8860 71.1851 104.1507 0.0000 0.0000 0.0000
# 4 0.0000 0.0000 0.0000 40.0011 0.0000 0.0000
# 5 0.0000 0.0000 0.0000 0.0000 30.1142 0.0000
# 6 0.0000 0.0000 0.0000 0.0000 0.0000 -25.0079
#
#
#
# Elastic Compliance Matrix: (Units=1/GPa)
#
#
# Indices 1 2 3 4 5 6 
#
# 1 0.015576 -0.002587 -0.007935 0.000000 0.000000 0.000000
# 2 -0.002587 0.009938 -0.005180 0.000000 0.000000 0.000000
# 3 -0.007935 -0.005180 0.018086 0.000000 0.000000 0.000000
# 4 0.000000 0.000000 0.000000 0.024999 0.000000 0.000000
# 5 0.000000 0.000000 0.000000 0.000000 0.033207 0.000000
# 6 0.000000 0.000000 0.000000 0.000000 0.000000 -0.039987
#
#
# Mechanical properties :
#
#
# Convention : Reuss Voigt Hill
#
# Bulk Modulus (GPa) = 82.01179 84.58760 83.29969
# Shear Modulus (GPa) = 51.39321 20.19594 35.79458
#
# Velocity S-wave (km/s) = 5.13346 3.21802 4.28416
# Velocity P-wave (km/s) = 8.78572 7.56179 8.19663
#
# Compressibility (1/GPa) = 0.01219337
#
# Stress axis : x y z
#
# Youngs Moduli (GPa) = 64.20158 100.62655 55.29166
#
# Poissons Ratio (x) = 0.26036 0.43876
# Poissons Ratio (y) = 0.16611 0.28643
# Poissons Ratio (z) = 0.50947 0.52128
#
# Static dielectric constant tensor:
#      x y z
#    x 4.086690 0.000000 0.000000 
#    y 0.000000 3.587170 0.000000 
#    z 0.000000 0.000000 3.708250 
# 
# 
# High freq. dielectric constant tensor:
#      x y z
#    x 1.778040 0.000000 0.000000 
#    y 0.000000 1.767830 0.000000 
#    z 0.000000 0.000000 1.770820 
# 
# From -- ./inp_files/9926.got.cif
#   From: 2010.03.12/outbox.cif.g09.slc.cpg/sg57_5_cif.got.tgz:9926.got - 2010.04.16 15:48:40.
