data_PCOD8235830
_publ_section_title
;
Structure prediction by ZEFSAII (Michael W. Deem and Ramdas Pophale) SiO2 
 PCOD8235830
Probable space group: P N N M
;
_chemical_formula_sum "Si O2"
_cell_formula_units_Z 56
_cell_length_a 18.266545
_cell_length_b 20.423633
_cell_length_c 9.232682
_cell_angle_alpha 90.000000
_cell_angle_beta 90.000000
_cell_angle_gamma 90.000000
_cell_volume 3444.429392
_symmetry_space_group_name_H-M "P N N M"
_symmetry_group_IT_number 58
_symmetry_cell_setting 'orthorhombic'
loop_
_space_group_symop_operation_xyz
x,y,z
-x,-y,z
1/2+x,1/2-y,1/2-z
1/2-x,1/2+y,1/2-z
-x,-y,-z
x,y,-z
1/2-x,1/2+y,1/2+z
1/2+x,1/2-y,1/2+z
loop_
_atom_site_type_symbol
_atom_site_label
_atom_site_fract_x
_atom_site_fract_y
_atom_site_fract_z
Si Si1 0.417009 0.006495 0.833497
Si Si2 0.288528 0.319121 0.162729
Si Si3 0.088096 0.759205 0.167780
Si Si4 0.078425 0.253541 0.169433
Si Si5 0.161082 0.621969 0.168609
Si Si6 0.842798 0.632520 0.332046
Si Si7 0.214771 0.178050 0.160081
O O1 0.376073 0.938620 0.810963
O O2 0.500000 0.000000 0.777766
O O3 0.376799 0.060293 0.739465
O O4 0.415916 0.029306 0.000000
O O5 0.367366 0.312748 0.239674
O O6 0.236030 0.367350 0.253170
O O7 0.251376 0.248821 0.160380
O O8 0.299082 0.346488 0.000000
O O9 0.112997 0.685620 0.205721
O O10 0.003522 0.767006 0.210212
O O11 0.102580 0.774233 0.000000
O O12 0.100758 0.316224 0.262970
O O13 0.130159 0.190732 0.205138
O O14 0.085535 0.272756 0.000000
O O15 0.243755 0.630313 0.229340
O O16 0.167717 0.608938 0.000000
O O17 0.831726 0.650642 0.500000
O O18 0.219792 0.146532 0.000000
#
# Coordination Sequence:
#
# PCOD8235830 Si02
#       7
#     8   8   8   8   8   8   8
#     4  10  21  34  46  63  89 121 154 184 216 259
#     4   9  17  29  45  64  87 117 150 183 223 268
#     4   9  17  29  45  68  95 118 146 184 224 266
#     4   9  17  29  46  68  93 120 147 181 225 267
#     4  10  19  29  44  65  89 119 151 185 220 254
#     4  10  19  30  45  64  88 120 154 187 221 259
#     4   8  15  28  44  61  85 117 148 178 216 263
#
# _framework density 16.258134999999999
#
# number of rings (size 3 to 8) (size 9 to 14) (size 15 to 20)
#    0.000    2.714    0.000    3.000    0.000    6.000 
#    0.000    0.000    0.000    0.000    0.000    1.000 
#    0.000    8.000    0.000    0.000    0.000    0.000 
#
# Total GULP energy -694331.028019 kJ/mol
# GULP energy per Si atom -12398.768357 kJ/mol
# Density = 1.622113 g / cm^3
# Si number density = 16.258135 Si / 1000 Ang^3
#
#
#
# Elastic Constant Matrix: (Units=GPa)
#
#
# Indices 1 2 3 4 5 6 
#
# 1 146.0465 47.8549 68.2655 0.0000 0.0000 0.0000
# 2 47.8549 49.9322 45.8128 0.0000 0.0000 0.0000
# 3 68.2655 45.8128 101.4603 0.0000 0.0000 0.0000
# 4 0.0000 0.0000 0.0000 17.2106 0.0000 0.0000
# 5 0.0000 0.0000 0.0000 0.0000 25.5252 0.0000
# 6 0.0000 0.0000 0.0000 0.0000 0.0000 21.7517
#
#
#
# Elastic Compliance Matrix: (Units=1/GPa)
#
#
# Indices 1 2 3 4 5 6 
#
# 1 0.011087 -0.006456 -0.004544 0.000000 0.000000 0.000000
# 2 -0.006456 0.037952 -0.012793 0.000000 0.000000 0.000000
# 3 -0.004544 -0.012793 0.018690 0.000000 0.000000 0.000000
# 4 0.000000 0.000000 0.000000 0.058104 0.000000 0.000000
# 5 0.000000 0.000000 0.000000 0.000000 0.039177 0.000000
# 6 0.000000 0.000000 0.000000 0.000000 0.000000 0.045973
#
#
# Mechanical properties :
#
#
# Convention : Reuss Voigt Hill
#
# Bulk Modulus (GPa) = 49.64662 69.03392 59.34027
# Shear Modulus (GPa) = 18.84778 21.93123 20.38950
#
# Velocity S-wave (km/s) = 3.40852 3.67677 3.54518
# Velocity P-wave (km/s) = 6.78921 7.78320 7.30314
#
# Compressibility (1/GPa) = 0.02014236
#
# Stress axis : x y z
#
# Youngs Moduli (GPa) = 90.19807 26.34908 53.50451
#
# Poissons Ratio (x) = 0.17011 0.24314
# Poissons Ratio (y) = 0.58232 0.68447
# Poissons Ratio (z) = 0.40989 0.33708
#
# Static dielectric constant tensor:
#      x y z
#    x 3.340690 0.000000 0.000000 
#    y 0.000000 2.712490 0.000000 
#    z 0.000000 0.000000 3.235820 
# 
# 
# High freq. dielectric constant tensor:
#      x y z
#    x 1.631420 0.000000 0.000000 
#    y 0.000000 1.580420 0.000000 
#    z 0.000000 0.000000 1.635390 
# 
# From -- ./inp_files/8105.got.cif
#   From: 2010.06.25/outbox.cif.g09.slc.cpg/sg58_5_cif.got.tgz:8105.got - 2010.06.26 21:38:00.
