data_PCOD8235899
_publ_section_title
;
Structure prediction by ZEFSAII (Michael W. Deem and Ramdas Pophale) SiO2 
 PCOD8235899
Probable space group: P N N M
;
_chemical_formula_sum "Si O2"
_cell_formula_units_Z 64
_cell_length_a 21.396918
_cell_length_b 16.831821
_cell_length_c 9.531955
_cell_angle_alpha 90.000000
_cell_angle_beta 90.000000
_cell_angle_gamma 90.000000
_cell_volume 3432.924955
_symmetry_space_group_name_H-M "P N N M"
_symmetry_group_IT_number 58
_symmetry_cell_setting 'orthorhombic'
loop_
_space_group_symop_operation_xyz
x,y,z
-x,-y,z
1/2+x,1/2-y,1/2-z
1/2-x,1/2+y,1/2-z
-x,-y,-z
x,y,-z
1/2-x,1/2+y,1/2+z
1/2+x,1/2-y,1/2+z
loop_
_atom_site_type_symbol
_atom_site_label
_atom_site_fract_x
_atom_site_fract_y
_atom_site_fract_z
Si Si1 0.459590 0.684092 0.743107
Si Si2 0.867657 0.421534 0.160252
Si Si3 0.003569 0.650082 0.154115
Si Si4 0.845529 0.729898 0.654323
Si Si5 0.553554 0.564346 0.152430
Si Si6 0.230089 0.128535 0.333884
Si Si7 0.128309 0.044867 0.840491
Si Si8 0.597265 0.073194 0.831276
O O1 0.483105 0.757928 0.650303
O O2 0.410073 0.719308 0.854316
O O3 0.521668 0.648815 0.814116
O O4 0.423302 0.615528 0.656374
O O5 0.922120 0.356730 0.181607
O O6 0.802817 0.379332 0.199276
O O7 0.876405 0.492936 0.268379
O O8 0.865973 0.453493 0.000000
O O9 0.971092 0.594292 0.270597
O O10 0.987542 0.615079 0.000000
O O11 0.822669 0.709711 0.500000
O O12 0.791653 0.784276 0.724354
O O13 0.857292 0.644397 0.726130
O O14 0.500000 0.500000 0.140218
O O15 0.601392 0.536288 0.272584
O O16 0.587264 0.571133 0.000000
O O17 0.214887 0.119942 0.500000
O O18 0.190338 0.064057 0.248270
O O19 0.147421 0.026057 0.000000
O O20 0.592968 0.068880 0.000000
#
# Coordination Sequence:
#
# PCOD8235899 Si02
#       8
#     8   8   8   8   8   8   8   8
#     4   9  17  29  49  75 104 132 166 210 256 299
#     4  10  21  36  54  75 101 134 168 205 252 305
#     4  10  20  34  52  75 103 134 169 210 259 311
#     4   8  15  30  52  75  97 127 168 207 243 291
#     4   9  17  29  47  71 101 137 172 205 246 299
#     4   9  18  35  55  71  93 129 171 208 246 300
#     4  10  19  30  48  74 102 132 168 211 256 301
#     4  10  20  34  54  79 104 131 167 211 255 299
#
# _framework density 18.642994000000002
#
# number of rings (size 3 to 8) (size 9 to 14) (size 15 to 20)
#    0.000    2.625    0.000    1.875    0.000    8.750 
#    0.000    1.875    0.000    1.500    0.000    0.000 
#    0.000    0.000    0.000    0.000    0.000    0.000 
#
# Total GULP energy -792929.293808 kJ/mol
# GULP energy per Si atom -12389.520216 kJ/mol
# Density = 1.860056 g / cm^3
# Si number density = 18.642994 Si / 1000 Ang^3
#
#
#
# Elastic Constant Matrix: (Units=GPa)
#
#
# Indices 1 2 3 4 5 6 
#
# 1 120.3163 48.7716 44.1668 0.0000 0.0000 0.0000
# 2 48.7716 79.1699 28.8979 0.0000 0.0000 0.0000
# 3 44.1668 28.8979 98.8372 0.0000 0.0000 0.0000
# 4 0.0000 0.0000 0.0000 17.3977 0.0000 0.0000
# 5 0.0000 0.0000 0.0000 0.0000 21.5357 0.0000
# 6 0.0000 0.0000 0.0000 0.0000 0.0000 22.1233
#
#
#
# Elastic Compliance Matrix: (Units=1/GPa)
#
#
# Indices 1 2 3 4 5 6 
#
# 1 0.012136 -0.006154 -0.003624 0.000000 0.000000 0.000000
# 2 -0.006154 0.017260 -0.002297 0.000000 0.000000 0.000000
# 3 -0.003624 -0.002297 0.012409 0.000000 0.000000 0.000000
# 4 0.000000 0.000000 0.000000 0.057479 0.000000 0.000000
# 5 0.000000 0.000000 0.000000 0.000000 0.046434 0.000000
# 6 0.000000 0.000000 0.000000 0.000000 0.000000 0.045201
#
#
# Mechanical properties :
#
#
# Convention : Reuss Voigt Hill
#
# Bulk Modulus (GPa) = 56.63673 60.22176 58.42924
# Shear Modulus (GPa) = 22.62920 23.97717 23.30319
#
# Velocity S-wave (km/s) = 3.48777 3.59015 3.53933
# Velocity P-wave (km/s) = 6.83118 7.03976 6.93625
#
# Compressibility (1/GPa) = 0.01765639
#
# Stress axis : x y z
#
# Youngs Moduli (GPa) = 82.39833 57.93682 80.58913
#
# Poissons Ratio (x) = 0.35651 0.29206
# Poissons Ratio (y) = 0.50704 0.18509
# Poissons Ratio (z) = 0.29862 0.13306
#
# Static dielectric constant tensor:
#      x y z
#    x 3.326550 0.000000 0.000000 
#    y 0.000000 3.493070 0.000000 
#    z 0.000000 0.000000 3.359790 
# 
# 
# High freq. dielectric constant tensor:
#      x y z
#    x 1.702740 0.000000 0.000000 
#    y 0.000000 1.715250 0.000000 
#    z 0.000000 0.000000 1.714970 
# 
# From -- ./inp_files/9258.got.cif
#   From: 2010.06.25/outbox.cif.g09.slc.cpg/sg58_5_cif.got.tgz:9258.got - 2010.06.26 21:38:00.
