data_PCOD8235610
_publ_section_title
;
Structure prediction by ZEFSAII (Michael W. Deem and Ramdas Pophale) SiO2 
 PCOD8235610
Probable space group: P N N M
;
_chemical_formula_sum "Si O2"
_cell_formula_units_Z 64
_cell_length_a 30.625004
_cell_length_b 14.462203
_cell_length_c 8.579443
_cell_angle_alpha 90.000000
_cell_angle_beta 90.000000
_cell_angle_gamma 90.000000
_cell_volume 3799.878414
_symmetry_space_group_name_H-M "P N N M"
_symmetry_group_IT_number 58
_symmetry_cell_setting 'orthorhombic'
loop_
_space_group_symop_operation_xyz
x,y,z
-x,-y,z
1/2+x,1/2-y,1/2-z
1/2-x,1/2+y,1/2-z
-x,-y,-z
x,y,-z
1/2-x,1/2+y,1/2+z
1/2+x,1/2-y,1/2+z
loop_
_atom_site_type_symbol
_atom_site_label
_atom_site_fract_x
_atom_site_fract_y
_atom_site_fract_z
Si Si1 0.136766 0.171024 0.180415
Si Si2 0.047326 0.105328 0.185237
Si Si3 0.769444 0.511011 0.683010
Si Si4 0.361979 0.323451 0.681648
Si Si5 0.322362 0.499079 0.820174
Si Si6 0.797089 0.332888 0.817688
Si Si7 0.785971 0.716653 0.317311
Si Si8 0.452149 0.397638 0.315555
O O1 0.085896 0.176002 0.238012
O O2 0.167333 0.240306 0.275067
O O3 0.149563 0.064964 0.209356
O O4 0.141804 0.196105 0.000000
O O5 0.999492 0.140138 0.244150
O O6 0.055706 0.001249 0.250718
O O7 0.048725 0.099698 0.000000
O O8 0.758758 0.513359 0.500000
O O9 0.727792 0.481654 0.783391
O O10 0.803458 0.429113 0.723982
O O11 0.786037 0.610812 0.743004
O O12 0.357193 0.349765 0.500000
O O13 0.333186 0.393803 0.781303
O O14 0.342075 0.222615 0.713845
O O15 0.412668 0.329908 0.737264
O O16 0.331595 0.522430 0.000000
O O17 0.755249 0.274848 0.750591
O O18 0.791128 0.353113 0.000000
O O19 0.780662 0.716069 0.500000
O O20 0.453990 0.402075 0.500000
#
# Coordination Sequence:
#
# PCOD8235610 Si02
#       8
#     8   8   8   8   8   8   8   8
#     4  11  20  31  49  71  96 129 166 196 232 282
#     4   8  14  24  43  72  98 121 156 197 229 273
#     4  11  22  37  52  66  92 129 166 199 234 280
#     4  10  18  32  51  70  96 131 164 193 234 287
#     4  12  22  30  45  69 100 130 161 200 234 274
#     4  10  20  33  49  72  99 123 155 199 239 278
#     4  10  21  35  49  69  97 125 157 198 238 278
#     4   8  13  24  45  71  97 124 155 192 233 276
#
# _framework density 16.842642999999999
#
# number of rings (size 3 to 8) (size 9 to 14) (size 15 to 20)
#    0.000    2.000    3.750    2.625    0.000    1.500 
#    0.000    0.000    0.000    2.250    0.000    0.875 
#    0.000    7.000    0.000    0.000    0.000    0.000 
#
# Total GULP energy -793150.395469 kJ/mol
# GULP energy per Si atom -12392.974929 kJ/mol
# Density = 1.680431 g / cm^3
# Si number density = 16.842643 Si / 1000 Ang^3
#
#
#
# Elastic Constant Matrix: (Units=GPa)
#
#
# Indices 1 2 3 4 5 6 
#
# 1 112.5524 34.7667 8.5262 0.0000 0.0000 0.0000
# 2 34.7667 85.2845 13.7229 0.0000 0.0000 0.0000
# 3 8.5262 13.7229 19.9181 0.0000 0.0000 0.0000
# 4 0.0000 0.0000 0.0000 20.1699 0.0000 0.0000
# 5 0.0000 0.0000 0.0000 0.0000 14.5236 0.0000
# 6 0.0000 0.0000 0.0000 0.0000 0.0000 24.4295
#
#
#
# Elastic Compliance Matrix: (Units=1/GPa)
#
#
# Indices 1 2 3 4 5 6 
#
# 1 0.010215 -0.003892 -0.001691 0.000000 0.000000 0.000000
# 2 -0.003892 0.014670 -0.008441 0.000000 0.000000 0.000000
# 3 -0.001691 -0.008441 0.056745 0.000000 0.000000 0.000000
# 4 0.000000 0.000000 0.000000 0.049579 0.000000 0.000000
# 5 0.000000 0.000000 0.000000 0.000000 0.068854 0.000000
# 6 0.000000 0.000000 0.000000 0.000000 0.000000 0.040934
#
#
# Mechanical properties :
#
#
# Convention : Reuss Voigt Hill
#
# Bulk Modulus (GPa) = 18.66310 36.86517 27.76414
# Shear Modulus (GPa) = 17.42723 22.54054 19.98388
#
# Velocity S-wave (km/s) = 3.22018 3.66225 3.44831
# Velocity P-wave (km/s) = 4.99309 6.31017 5.68987
#
# Compressibility (1/GPa) = 0.05358166
#
# Stress axis : x y z
#
# Youngs Moduli (GPa) = 97.89421 68.16452 17.62256
#
# Poissons Ratio (x) = 0.26530 0.02980
# Poissons Ratio (y) = 0.38102 0.14876
# Poissons Ratio (z) = 0.16555 0.57540
#
# Static dielectric constant tensor:
#      x y z
#    x 3.512540 0.000000 0.000000 
#    y 0.000000 3.041640 0.000000 
#    z 0.000000 0.000000 2.858840 
# 
# 
# High freq. dielectric constant tensor:
#      x y z
#    x 1.646580 0.000000 0.000000 
#    y 0.000000 1.620030 0.000000 
#    z 0.000000 0.000000 1.626840 
# 
# From -- ./inp_files/11138.got.cif
#   From: 2010.06.25/outbox.cif.g09.slc.cpg/sg58_6_cif.got.tgz:11138.got - 2010.06.26 21:38:00.
