data_PCOD8235921
_publ_section_title
;
Structure prediction by ZEFSAII (Michael W. Deem and Ramdas Pophale) SiO2 
 PCOD8235921
Probable space group: P N N M
;
_chemical_formula_sum "Si O2"
_cell_formula_units_Z 64
_cell_length_a 26.889652
_cell_length_b 10.769918
_cell_length_c 12.747892
_cell_angle_alpha 90.000000
_cell_angle_beta 90.000000
_cell_angle_gamma 90.000000
_cell_volume 3691.781200
_symmetry_space_group_name_H-M "P N N M"
_symmetry_group_IT_number 58
_symmetry_cell_setting 'orthorhombic'
loop_
_space_group_symop_operation_xyz
x,y,z
-x,-y,z
1/2+x,1/2-y,1/2-z
1/2-x,1/2+y,1/2-z
-x,-y,-z
x,y,-z
1/2-x,1/2+y,1/2+z
1/2+x,1/2-y,1/2+z
loop_
_atom_site_type_symbol
_atom_site_label
_atom_site_fract_x
_atom_site_fract_y
_atom_site_fract_z
Si Si1 0.885438 0.229073 0.619100
Si Si2 0.321619 0.114032 0.734248
Si Si3 0.222009 0.151554 0.616559
Si Si4 0.025884 0.618242 0.297105
Si Si5 0.590840 0.006144 0.378086
Si Si6 0.577011 0.217136 0.769092
Si Si7 0.161065 0.401125 0.616140
Si Si8 0.379734 0.551154 0.121450
O O1 0.865199 0.241334 0.500000
O O2 0.844383 0.268142 0.704372
O O3 0.933212 0.317814 0.630073
O O4 0.900774 0.086480 0.641496
O O5 0.267479 0.150390 0.695246
O O6 0.356758 0.064318 0.640615
O O7 0.312920 0.004532 0.815430
O O8 0.243769 0.135849 0.500000
O O9 0.193273 0.279361 0.630020
O O10 0.180138 0.046692 0.639387
O O11 0.048945 0.567889 0.187721
O O12 0.000000 0.500000 0.354458
O O13 0.982638 0.719201 0.276730
O O14 0.577238 0.000200 0.500000
O O15 0.592859 0.152547 0.342330
O O16 0.603689 0.124818 0.852607
O O17 0.595184 0.357549 0.792265
O O18 0.160703 0.454071 0.500000
O O19 0.390439 0.595216 0.000000
#
# Coordination Sequence:
#
# PCOD8235921 Si02
#       8
#     8   8   8   8   8   8   8   8
#     4  10  21  34  49  76 109 137 166 207 256 304
#     4  10  19  30  52  75  99 132 165 213 254 300
#     4   9  18  32  51  71  93 131 173 204 249 308
#     4   9  19  32  50  79 103 134 173 209 253 300
#     4   9  18  33  52  77 103 130 170 218 259 296
#     4   9  17  31  52  74  98 132 172 207 245 300
#     4   9  18  32  49  72  98 127 165 205 253 302
#     4   9  19  35  52  72 103 138 170 206 253 309
#
# _framework density 17.335806000000002
#
# number of rings (size 3 to 8) (size 9 to 14) (size 15 to 20)
#    0.000    2.750    0.000    2.625    1.750    4.000 
#    0.000    3.125    0.000    6.750    0.000    7.000 
#    0.000    0.000    0.000    0.000    0.000    0.000 
#
# Total GULP energy -792999.520076 kJ/mol
# GULP energy per Si atom -12390.617501 kJ/mol
# Density = 1.729635 g / cm^3
# Si number density = 17.335806 Si / 1000 Ang^3
#
#
#
# Elastic Constant Matrix: (Units=GPa)
#
#
# Indices 1 2 3 4 5 6 
#
# 1 87.5141 26.0380 36.3538 0.0000 0.0000 0.0000
# 2 26.0380 85.2403 42.6951 0.0000 0.0000 0.0000
# 3 36.3538 42.6951 88.9163 0.0000 0.0000 0.0000
# 4 0.0000 0.0000 0.0000 22.1325 0.0000 0.0000
# 5 0.0000 0.0000 0.0000 0.0000 17.4177 0.0000
# 6 0.0000 0.0000 0.0000 0.0000 0.0000 13.3287
#
#
#
# Elastic Compliance Matrix: (Units=1/GPa)
#
#
# Indices 1 2 3 4 5 6 
#
# 1 0.013983 -0.001854 -0.004827 0.000000 0.000000 0.000000
# 2 -0.001854 0.015692 -0.006777 0.000000 0.000000 0.000000
# 3 -0.004827 -0.006777 0.016474 0.000000 0.000000 0.000000
# 4 0.000000 0.000000 0.000000 0.045182 0.000000 0.000000
# 5 0.000000 0.000000 0.000000 0.000000 0.057413 0.000000
# 6 0.000000 0.000000 0.000000 0.000000 0.000000 0.075026
#
#
# Mechanical properties :
#
#
# Convention : Reuss Voigt Hill
#
# Bulk Modulus (GPa) = 51.99057 52.42714 52.20886
# Shear Modulus (GPa) = 19.44778 21.01469 20.23124
#
# Velocity S-wave (km/s) = 3.35300 3.48546 3.41987
# Velocity P-wave (km/s) = 6.71160 6.81951 6.76577
#
# Compressibility (1/GPa) = 0.01923426
#
# Stress axis : x y z
#
# Youngs Moduli (GPa) = 71.51307 63.72563 60.70061
#
# Poissons Ratio (x) = 0.11813 0.29301
# Poissons Ratio (y) = 0.13256 0.41137
# Poissons Ratio (z) = 0.34520 0.43188
#
# Static dielectric constant tensor:
#      x y z
#    x 3.344910 0.000000 0.000000 
#    y 0.000000 3.320370 0.000000 
#    z 0.000000 0.000000 3.075840 
# 
# 
# High freq. dielectric constant tensor:
#      x y z
#    x 1.669510 0.000000 0.000000 
#    y 0.000000 1.665480 0.000000 
#    z 0.000000 0.000000 1.650160 
# 
# From -- ./inp_files/17850.got.cif
#   From: 2010.06.25/outbox.cif.g09.slc.cpg/sg58_9_cif.got.tgz:17850.got - 2010.06.26 21:38:00.
