data_PCOD8235587
_publ_section_title
;
Structure prediction by ZEFSAII (Michael W. Deem and Ramdas Pophale) SiO2 
 PCOD8235587
Probable space group: P N N M
;
_chemical_formula_sum "Si O2"
_cell_formula_units_Z 64
_cell_length_a 12.781947
_cell_length_b 28.990986
_cell_length_c 9.531946
_cell_angle_alpha 90.000000
_cell_angle_beta 90.000000
_cell_angle_gamma 90.000000
_cell_volume 3532.169792
_symmetry_space_group_name_H-M "P N N M"
_symmetry_group_IT_number 58
_symmetry_cell_setting 'orthorhombic'
loop_
_space_group_symop_operation_xyz
x,y,z
-x,-y,z
1/2+x,1/2-y,1/2-z
1/2-x,1/2+y,1/2-z
-x,-y,-z
x,y,-z
1/2-x,1/2+y,1/2+z
1/2+x,1/2-y,1/2+z
loop_
_atom_site_type_symbol
_atom_site_label
_atom_site_fract_x
_atom_site_fract_y
_atom_site_fract_z
Si Si1 0.963813 0.604229 0.334678
Si Si2 0.326854 0.323420 0.156222
Si Si3 0.399217 0.427112 0.843874
Si Si4 0.868598 0.698911 0.665753
Si Si5 0.683459 0.933353 0.838357
Si Si6 0.550863 0.295454 0.834087
Si Si7 0.875713 0.893805 0.333245
Si Si8 0.219694 0.461028 0.339229
O O1 0.964192 0.596167 0.500000
O O2 0.948798 0.657908 0.293268
O O3 0.867334 0.573762 0.273900
O O4 0.075991 0.587953 0.275876
O O5 0.347741 0.377287 0.153021
O O6 0.242721 0.311970 0.271382
O O7 0.429829 0.296942 0.208316
O O8 0.292698 0.307066 0.000000
O O9 0.519827 0.422908 0.793416
O O10 0.330432 0.458888 0.741760
O O11 0.395962 0.448871 0.000000
O O12 0.855927 0.701548 0.500000
O O13 0.905072 0.747849 0.729668
O O14 0.778336 0.915358 0.745668
O O15 0.673104 0.988102 0.825155
O O16 0.701742 0.918561 0.000000
O O17 0.612008 0.340820 0.779451
O O18 0.560035 0.295465 0.000000
O O19 0.857849 0.895466 0.500000
O O20 0.243687 0.448032 0.500000
#
# Coordination Sequence:
#
# PCOD8235587 Si02
#       8
#     8   8   8   8   8   8   8   8
#     4   9  18  33  52  75 104 136 168 207 258 309
#     4   9  17  32  51  72 101 133 165 208 257 299
#     4   9  18  33  54  75 100 135 173 213 256 305
#     4  10  18  31  54  79  99 128 173 212 249 306
#     4  10  21  35  52  76 107 139 171 211 260 309
#     4   8  17  33  52  73 100 135 168 203 254 310
#     4   9  19  37  54  71 102 141 173 207 259 312
#     4  10  19  33  54  78 103 134 173 216 258 304
#
# _framework density 18.119174999999998
#
# number of rings (size 3 to 8) (size 9 to 14) (size 15 to 20)
#    0.000    2.750    1.250    1.875    0.000    4.000 
#    0.000    8.125    0.000    1.500    0.000    0.000 
#    0.000    0.000    0.000    0.000    0.000    0.000 
#
# Total GULP energy -793346.102183 kJ/mol
# GULP energy per Si atom -12396.032847 kJ/mol
# Density = 1.807793 g / cm^3
# Si number density = 18.119175 Si / 1000 Ang^3
#
#
#
# Elastic Constant Matrix: (Units=GPa)
#
#
# Indices 1 2 3 4 5 6 
#
# 1 118.2450 36.4643 35.9480 0.0000 0.0000 0.0000
# 2 36.4643 56.4339 22.9351 0.0000 0.0000 0.0000
# 3 35.9480 22.9351 35.3976 0.0000 0.0000 0.0000
# 4 0.0000 0.0000 0.0000 20.1062 0.0000 0.0000
# 5 0.0000 0.0000 0.0000 0.0000 26.8803 0.0000
# 6 0.0000 0.0000 0.0000 0.0000 0.0000 13.9647
#
#
#
# Elastic Compliance Matrix: (Units=1/GPa)
#
#
# Indices 1 2 3 4 5 6 
#
# 1 0.012893 -0.004085 -0.010446 0.000000 0.000000 0.000000
# 2 -0.004085 0.025348 -0.012275 0.000000 0.000000 0.000000
# 3 -0.010446 -0.012275 0.046813 0.000000 0.000000 0.000000
# 4 0.000000 0.000000 0.000000 0.049736 0.000000 0.000000
# 5 0.000000 0.000000 0.000000 0.000000 0.037202 0.000000
# 6 0.000000 0.000000 0.000000 0.000000 0.000000 0.071609
#
#
# Mechanical properties :
#
#
# Convention : Reuss Voigt Hill
#
# Bulk Modulus (GPa) = 31.80623 44.53013 38.16818
# Shear Modulus (GPa) = 16.24995 19.83884 18.04440
#
# Velocity S-wave (km/s) = 2.99797 3.31253 3.15917
# Velocity P-wave (km/s) = 5.43836 6.26579 5.86668
#
# Compressibility (1/GPa) = 0.03144038
#
# Stress axis : x y z
#
# Youngs Moduli (GPa) = 77.56434 39.45076 21.36174
#
# Poissons Ratio (x) = 0.16116 0.22315
# Poissons Ratio (y) = 0.31685 0.26222
# Poissons Ratio (z) = 0.81025 0.48427
#
# Static dielectric constant tensor:
#      x y z
#    x 3.579410 0.000000 0.000000 
#    y 0.000000 3.625000 0.000000 
#    z 0.000000 0.000000 3.199930 
# 
# 
# High freq. dielectric constant tensor:
#      x y z
#    x 1.705490 0.000000 0.000000 
#    y 0.000000 1.706410 0.000000 
#    z 0.000000 0.000000 1.668580 
# 
# From -- ./inp_files/4736.got.cif
#   From: 2010.06.25/outbox.cif.g09.slc.cpg/sg58_3_cif.got.tgz:4736.got - 2010.06.26 21:38:00.
