data_PCOD8235265
_publ_section_title
;
Structure prediction by ZEFSAII (Michael W. Deem and Ramdas Pophale) SiO2 
 PCOD8235265
Probable space group: P N N M
;
_chemical_formula_sum "Si O2"
_cell_formula_units_Z 56
_cell_length_a 8.918563
_cell_length_b 18.985782
_cell_length_c 18.449578
_cell_angle_alpha 90.000000
_cell_angle_beta 90.000000
_cell_angle_gamma 90.000000
_cell_volume 3123.991268
_symmetry_space_group_name_H-M "P N N M"
_symmetry_group_IT_number 58
_symmetry_cell_setting 'orthorhombic'
loop_
_space_group_symop_operation_xyz
x,y,z
-x,-y,z
1/2+x,1/2-y,1/2-z
1/2-x,1/2+y,1/2-z
-x,-y,-z
x,y,-z
1/2-x,1/2+y,1/2+z
1/2+x,1/2-y,1/2+z
loop_
_atom_site_type_symbol
_atom_site_label
_atom_site_fract_x
_atom_site_fract_y
_atom_site_fract_z
Si Si1 0.812666 0.200149 0.081323
Si Si2 0.642801 0.251428 0.583222
Si Si3 0.616511 0.094427 0.640848
Si Si4 0.192308 0.546782 0.916175
Si Si5 0.404801 0.669508 0.918322
Si Si6 0.824585 0.663532 0.281199
Si Si7 0.610577 0.749555 0.814793
O O1 0.730767 0.275084 0.088240
O O2 0.735545 0.144832 0.137803
O O3 0.985835 0.211663 0.101069
O O4 0.795122 0.169469 0.000000
O O5 0.684650 0.260390 0.500000
O O6 0.643608 0.169278 0.603907
O O7 0.772319 0.288915 0.631008
O O8 0.442955 0.074161 0.633516
O O9 0.661821 0.097823 0.726434
O O10 0.721684 0.035193 0.603290
O O11 0.340712 0.591995 0.900203
O O12 0.144252 0.554822 0.000000
O O13 0.533559 0.686202 0.860470
O O14 0.471300 0.671481 0.000000
O O15 0.703078 0.719856 0.252774
O O16 0.990336 0.696307 0.284316
#
# Coordination Sequence:
#
# PCOD8235265 Si02
#       7
#     8   8   8   8   8   8   8
#     4   9  17  31  50  68  92 123 159 198 246 295
#     4  10  17  29  47  71  96 127 163 199 243 293
#     4  10  18  28  46  70 100 134 168 198 233 280
#     4  10  18  30  49  73  99 135 173 197 224 277
#     4   9  17  30  47  70  97 130 163 194 232 278
#     4  10  20  32  44  68  95 130 163 204 247 293
#     4  10  20  29  46  65  99 129 165 198 248 287
#
# _framework density 17.925788000000001
#
# number of rings (size 3 to 8) (size 9 to 14) (size 15 to 20)
#    0.000    2.286    1.429    3.857    2.000    0.571 
#    0.000    2.857    0.000    7.714    0.000    2.000 
#    0.000    2.286    0.000    0.000    0.000    0.286 
#
# Total GULP energy -694096.235456 kJ/mol
# GULP energy per Si atom -12394.575633 kJ/mol
# Density = 1.788499 g / cm^3
# Si number density = 17.925788 Si / 1000 Ang^3
#
#
#
# Elastic Constant Matrix: (Units=GPa)
#
#
# Indices 1 2 3 4 5 6 
#
# 1 86.2358 6.5836 41.9180 0.0000 0.0000 0.0000
# 2 6.5836 27.9433 19.6384 0.0000 0.0000 0.0000
# 3 41.9180 19.6384 108.1853 0.0000 0.0000 0.0000
# 4 0.0000 0.0000 0.0000 28.1353 0.0000 0.0000
# 5 0.0000 0.0000 0.0000 0.0000 40.2962 0.0000
# 6 0.0000 0.0000 0.0000 0.0000 0.0000 18.7691
#
#
#
# Elastic Compliance Matrix: (Units=1/GPa)
#
#
# Indices 1 2 3 4 5 6 
#
# 1 0.014296 0.000601 -0.005648 0.000000 0.000000 0.000000
# 2 0.000601 0.041045 -0.007684 0.000000 0.000000 0.000000
# 3 -0.005648 -0.007684 0.012827 0.000000 0.000000 0.000000
# 4 0.000000 0.000000 0.000000 0.035543 0.000000 0.000000
# 5 0.000000 0.000000 0.000000 0.000000 0.024816 0.000000
# 6 0.000000 0.000000 0.000000 0.000000 0.000000 0.053279
#
#
# Mechanical properties :
#
#
# Convention : Reuss Voigt Hill
#
# Bulk Modulus (GPa) = 23.41572 39.84938 31.63255
# Shear Modulus (GPa) = 22.57316 27.72175 25.14745
#
# Velocity S-wave (km/s) = 3.55245 3.93679 3.74955
# Velocity P-wave (km/s) = 5.46969 6.55308 6.03574
#
# Compressibility (1/GPa) = 0.04270636
#
# Stress axis : x y z
#
# Youngs Moduli (GPa) = 69.95090 24.36341 77.96238
#
# Poissons Ratio (x) = -0.01465 0.44035
# Poissons Ratio (y) = -0.04207 0.59904
# Poissons Ratio (z) = 0.39510 0.18720
#
# Static dielectric constant tensor:
#      x y z
#    x 3.466410 0.000000 0.000000 
#    y 0.000000 2.939610 0.000000 
#    z 0.000000 0.000000 3.670740 
# 
# 
# High freq. dielectric constant tensor:
#      x y z
#    x 1.705780 0.000000 0.000000 
#    y 0.000000 1.626430 0.000000 
#    z 0.000000 0.000000 1.706980 
# 
# From -- ./inp_files/25692.got.cif
#   From: 2010.06.25/outbox.cif.g09.slc.cpg/sg58_13_cif.got.tgz:25692.got - 2010.06.26 21:38:00.
