data_PCOD8235446
_publ_section_title
;
Structure prediction by ZEFSAII (Michael W. Deem and Ramdas Pophale) SiO2 
 PCOD8235446
Probable space group: P N N M
;
_chemical_formula_sum "Si O2"
_cell_formula_units_Z 64
_cell_length_a 18.218201
_cell_length_b 20.666937
_cell_length_c 8.824828
_cell_angle_alpha 90.000000
_cell_angle_beta 90.000000
_cell_angle_gamma 90.000000
_cell_volume 3322.674928
_symmetry_space_group_name_H-M "P N N M"
_symmetry_group_IT_number 58
_symmetry_cell_setting 'orthorhombic'
loop_
_space_group_symop_operation_xyz
x,y,z
-x,-y,z
1/2+x,1/2-y,1/2-z
1/2-x,1/2+y,1/2-z
-x,-y,-z
x,y,-z
1/2-x,1/2+y,1/2+z
1/2+x,1/2-y,1/2+z
loop_
_atom_site_type_symbol
_atom_site_label
_atom_site_fract_x
_atom_site_fract_y
_atom_site_fract_z
Si Si1 0.200249 0.993147 0.827225
Si Si2 0.148136 0.494611 0.823389
Si Si3 0.857678 0.636833 0.323683
Si Si4 0.149633 0.625252 0.321062
Si Si5 0.425348 0.738758 0.320380
Si Si6 0.185219 0.853000 0.171753
Si Si7 0.815131 0.866948 0.825418
Si Si8 0.422290 0.258292 0.823437
O O1 0.265152 0.994823 0.706336
O O2 0.153567 0.059261 0.803749
O O3 0.154504 0.926800 0.804782
O O4 0.233402 0.992615 0.000000
O O5 0.114020 0.431721 0.741534
O O6 0.114865 0.561411 0.756580
O O7 0.130697 0.490501 0.000000
O O8 0.875914 0.639225 0.500000
O O9 0.904236 0.691604 0.241928
O O10 0.771613 0.647552 0.290863
O O11 0.151796 0.613911 0.500000
O O12 0.232566 0.637966 0.258778
O O13 0.099755 0.685839 0.275128
O O14 0.422742 0.739431 0.500000
O O15 0.370190 0.684616 0.249095
O O16 0.506820 0.719679 0.269145
O O17 0.144734 0.806160 0.287324
O O18 0.170707 0.829725 0.000000
O O19 0.811084 0.848009 0.000000
O O20 0.439602 0.262214 0.000000
#
# Coordination Sequence:
#
# PCOD8235446 Si02
#       8
#     8   8   8   8   8   8   8   8
#     4   8  15  31  53  78 107 136 170 212 260 313
#     4  10  18  29  51  83 110 131 164 213 264 309
#     4  10  20  36  57  80 108 140 174 213 261 317
#     4   9  18  35  56  76 101 136 176 213 257 315
#     4  11  22  36  54  77 107 141 180 224 265 310
#     4   9  18  33  56  82 106 135 173 219 262 306
#     4   8  15  31  56  80 101 132 173 215 260 312
#     4  11  23  37  53  74 106 146 182 218 263 316
#
# _framework density 19.261589000000001
#
# number of rings (size 3 to 8) (size 9 to 14) (size 15 to 20)
#    0.000    2.500    0.000    4.500    0.000    4.500 
#    0.000    7.500    0.000    7.500    0.000    0.000 
#    0.000    0.000    0.000    0.000    0.000    0.000 
#
# Total GULP energy -793297.496121 kJ/mol
# GULP energy per Si atom -12395.273377 kJ/mol
# Density = 1.921775 g / cm^3
# Si number density = 19.261589 Si / 1000 Ang^3
#
#
#
# Elastic Constant Matrix: (Units=GPa)
#
#
# Indices 1 2 3 4 5 6 
#
# 1 37.1407 10.2688 17.2894 0.0000 0.0000 0.0000
# 2 10.2688 97.0791 29.8471 0.0000 0.0000 0.0000
# 3 17.2894 29.8471 66.1489 0.0000 0.0000 0.0000
# 4 0.0000 0.0000 0.0000 30.0971 0.0000 0.0000
# 5 0.0000 0.0000 0.0000 0.0000 23.4000 0.0000
# 6 0.0000 0.0000 0.0000 0.0000 0.0000 5.3039
#
#
#
# Elastic Compliance Matrix: (Units=1/GPa)
#
#
# Indices 1 2 3 4 5 6 
#
# 1 0.030723 -0.000907 -0.007621 0.000000 0.000000 0.000000
# 2 -0.000907 0.011987 -0.005172 0.000000 0.000000 0.000000
# 3 -0.007621 -0.005172 0.019443 0.000000 0.000000 0.000000
# 4 0.000000 0.000000 0.000000 0.033226 0.000000 0.000000
# 5 0.000000 0.000000 0.000000 0.000000 0.042735 0.000000
# 6 0.000000 0.000000 0.000000 0.000000 0.000000 0.188541
#
#
# Mechanical properties :
#
#
# Convention : Reuss Voigt Hill
#
# Bulk Modulus (GPa) = 28.77365 35.01992 31.89679
# Shear Modulus (GPa) = 13.67473 21.29109 17.48291
#
# Velocity S-wave (km/s) = 2.66738 3.32831 3.01600
# Velocity P-wave (km/s) = 4.94543 5.74377 5.35949
#
# Compressibility (1/GPa) = 0.03475402
#
# Stress axis : x y z
#
# Youngs Moduli (GPa) = 32.54892 83.42504 51.43297
#
# Poissons Ratio (x) = 0.07564 0.39197
# Poissons Ratio (y) = 0.02951 0.26599
# Poissons Ratio (z) = 0.24805 0.43144
#
# Static dielectric constant tensor:
#      x y z
#    x 3.220470 0.000000 0.000000 
#    y 0.000000 3.958320 0.000000 
#    z 0.000000 0.000000 3.293500 
# 
# 
# High freq. dielectric constant tensor:
#      x y z
#    x 1.707440 0.000000 0.000000 
#    y 0.000000 1.772610 0.000000 
#    z 0.000000 0.000000 1.735000 
# 
# From -- ./inp_files/8262.got.cif
#   From: 2010.06.25/outbox.cif.g09.slc.cpg/sg58_5_cif.got.tgz:8262.got - 2010.06.26 21:38:00.
