data_PCOD8235159
_publ_section_title
;
Structure prediction by ZEFSAII (Michael W. Deem and Ramdas Pophale) SiO2 
 PCOD8235159
Probable space group: P B C M
;
_chemical_formula_sum "Si O2"
_cell_formula_units_Z 40
_cell_length_a 10.784408
_cell_length_b 17.649503
_cell_length_c 9.778169
_cell_angle_alpha 90.000000
_cell_angle_beta 90.000000
_cell_angle_gamma 90.000000
_cell_volume 1861.171225
_symmetry_space_group_name_H-M "P B C M"
_symmetry_group_IT_number 57
_symmetry_cell_setting 'orthorhombic'
loop_
_space_group_symop_operation_xyz
x,y,z
-x,-y,1/2+z
x,1/2-y,-z
-x,1/2+y,1/2-z
-x,-y,-z
x,y,1/2-z
-x,1/2+y,z
x,1/2-y,1/2+z
loop_
_atom_site_type_symbol
_atom_site_label
_atom_site_fract_x
_atom_site_fract_y
_atom_site_fract_z
Si Si1 0.073389 0.178660 0.250000
Si Si2 0.915203 0.167166 0.750000
Si Si3 0.265221 0.837388 0.497587
Si Si4 0.724831 0.667201 0.021795
Si Si5 0.144177 0.915161 0.750000
Si Si6 0.828507 0.591877 0.750000
Si Si7 0.493034 0.925744 0.909554
O O1 0.154622 0.182090 0.386080
O O2 0.973948 0.248243 0.250000
O O3 0.004518 0.097061 0.250000
O O4 0.825553 0.146642 0.873437
O O5 0.025868 0.107130 0.750000
O O6 0.296314 0.750000 0.500000
O O7 0.191541 0.868783 0.623413
O O8 0.398924 0.876703 0.499190
O O9 0.626148 0.614634 0.098275
O O10 0.664235 0.750000 0.000000
O O11 0.763205 0.627747 0.881080
O O12 0.188468 0.001533 0.750000
O O13 0.450043 0.939396 0.750000
O O14 0.500000 0.000000 0.000000
#
# Coordination Sequence:
#
# PCOD8235159 Si02
#       7
#     4   4   8   8   4   4   8
#     4  12  24  47  75 110 155 198 259 318 377 470
#     4  12  26  45  77 114 151 206 253 320 387 466
#     4  12  25  48  77 105 150 202 261 314 388 460
#     4  12  25  48  79 106 149 202 260 313 388 460
#     4  12  26  45  71 111 155 192 252 325 385 451
#     4  12  28  45  75 115 155 196 254 327 389 457
#     4  12  29  51  75 111 157 203 259 328 391 461
#
# _framework density 21.491845000000001
#
# number of rings (size 3 to 8) (size 9 to 14) (size 15 to 20)
#    0.000    0.000    6.000    3.000    2.800    4.800 
#    0.000    0.000    0.000    0.000    0.000    0.000 
#    0.000    0.000    0.000    0.000    0.000    0.000 
#
# Total GULP energy -495821.653335 kJ/mol
# GULP energy per Si atom -12395.541333 kJ/mol
# Density = 2.144293 g / cm^3
# Si number density = 21.491845 Si / 1000 Ang^3
#
#
#
# Elastic Constant Matrix: (Units=GPa)
#
#
# Indices 1 2 3 4 5 6 
#
# 1 115.8929 54.1512 57.2358 0.0000 0.0000 0.0000
# 2 54.1512 170.1723 66.5176 0.0000 0.0000 0.0000
# 3 57.2358 66.5176 156.7501 0.0000 0.0000 0.0000
# 4 0.0000 0.0000 0.0000 10.3648 0.0000 0.0000
# 5 0.0000 0.0000 0.0000 0.0000 35.7989 0.0000
# 6 0.0000 0.0000 0.0000 0.0000 0.0000 41.8742
#
#
#
# Elastic Compliance Matrix: (Units=1/GPa)
#
#
# Indices 1 2 3 4 5 6 
#
# 1 0.011273 -0.002372 -0.003110 0.000000 0.000000 0.000000
# 2 -0.002372 0.007544 -0.002335 0.000000 0.000000 0.000000
# 3 -0.003110 -0.002335 0.008506 0.000000 0.000000 0.000000
# 4 0.000000 0.000000 0.000000 0.096480 0.000000 0.000000
# 5 0.000000 0.000000 0.000000 0.000000 0.027934 0.000000
# 6 0.000000 0.000000 0.000000 0.000000 0.000000 0.023881
#
#
# Mechanical properties :
#
#
# Convention : Reuss Voigt Hill
#
# Bulk Modulus (GPa) = 85.54788 88.73604 87.14196
# Shear Modulus (GPa) = 25.62167 35.26830 30.44498
#
# Velocity S-wave (km/s) = 3.45651 4.05533 3.76784
# Velocity P-wave (km/s) = 7.47136 7.95647 7.71773
#
# Compressibility (1/GPa) = 0.01168936
#
# Stress axis : x y z
#
# Youngs Moduli (GPa) = 88.71113 132.55732 117.56323
#
# Poissons Ratio (x) = 0.31437 0.36558
# Poissons Ratio (y) = 0.21038 0.27455
# Poissons Ratio (z) = 0.27586 0.30957
#
# Static dielectric constant tensor:
#      x y z
#    x 4.180890 0.000000 0.000000 
#    y 0.000000 4.227600 0.000000 
#    z 0.000000 0.000000 4.034650 
# 
# 
# High freq. dielectric constant tensor:
#      x y z
#    x 1.861220 0.000000 0.000000 
#    y 0.000000 1.852090 0.000000 
#    z 0.000000 0.000000 1.858620 
# 
# From -- ./inp_files/2762.got.cif
#   From: 2010.03.12/outbox.cif.g09.slc.cpg/sg57_2_cif.got.tgz:2762.got - 2010.04.16 15:48:40.
