data_PCOD8235742
_publ_section_title
;
Structure prediction by ZEFSAII (Michael W. Deem and Ramdas Pophale) SiO2 
 PCOD8235742
Probable space group: P N N M
;
_chemical_formula_sum "Si O2"
_cell_formula_units_Z 56
_cell_length_a 21.376561
_cell_length_b 15.075194
_cell_length_c 9.138257
_cell_angle_alpha 90.000000
_cell_angle_beta 90.000000
_cell_angle_gamma 90.000000
_cell_volume 2944.856358
_symmetry_space_group_name_H-M "P N N M"
_symmetry_group_IT_number 58
_symmetry_cell_setting 'orthorhombic'
loop_
_space_group_symop_operation_xyz
x,y,z
-x,-y,z
1/2+x,1/2-y,1/2-z
1/2-x,1/2+y,1/2-z
-x,-y,-z
x,y,-z
1/2-x,1/2+y,1/2+z
1/2+x,1/2-y,1/2+z
loop_
_atom_site_type_symbol
_atom_site_label
_atom_site_fract_x
_atom_site_fract_y
_atom_site_fract_z
Si Si1 0.479192 0.134549 0.328134
Si Si2 0.431960 0.470800 0.169276
Si Si3 0.261385 0.231149 0.327938
Si Si4 0.896846 0.208633 0.174105
Si Si5 0.279030 0.921594 0.172502
Si Si6 0.903528 0.534021 0.827505
Si Si7 0.194265 0.054968 0.670070
O O1 0.470849 0.130553 0.500000
O O2 0.454102 0.228950 0.271013
O O3 0.551984 0.118426 0.288242
O O4 0.437219 0.054160 0.268578
O O5 0.500000 0.500000 0.230850
O O6 0.406409 0.386224 0.254874
O O7 0.381435 0.550955 0.189856
O O8 0.438251 0.444140 0.000000
O O9 0.262566 0.219338 0.500000
O O10 0.332745 0.243379 0.272027
O O11 0.222881 0.318392 0.282639
O O12 0.224931 0.145225 0.262975
O O13 0.895185 0.195504 0.000000
O O14 0.341409 0.962805 0.235213
O O15 0.220321 0.971070 0.242534
O O16 0.275635 0.934508 0.000000
O O17 0.888119 0.530926 0.000000
O O18 0.212133 0.044877 0.500000
#
# Coordination Sequence:
#
# PCOD8235742 Si02
#       7
#     8   8   8   8   8   8   8
#     4   8  16  31  55  80 103 140 188 225 256 318
#     4  10  22  38  56  80 110 144 185 230 276 331
#     4   9  19  34  55  79 105 142 185 226 274 331
#     4  10  18  34  57  79 105 141 186 229 276 327
#     4  11  21  34  53  82 113 138 172 228 284 324
#     4   9  17  33  54  78 108 143 183 222 265 324
#     4  10  20  38  60  78 105 150 194 226 271 336
#
# _framework density 19.016207999999999
#
# number of rings (size 3 to 8) (size 9 to 14) (size 15 to 20)
#    0.000    2.429    1.429    2.143    0.000    3.714 
#    0.000    7.857    0.000    0.000    0.000    0.000 
#    0.000    0.000    0.000    0.000    0.000    0.000 
#
# Total GULP energy -694054.657402 kJ/mol
# GULP energy per Si atom -12393.833168 kJ/mol
# Density = 1.897293 g / cm^3
# Si number density = 19.016208 Si / 1000 Ang^3
#
#
#
# Elastic Constant Matrix: (Units=GPa)
#
#
# Indices 1 2 3 4 5 6 
#
# 1 118.8091 47.8605 26.0724 0.0000 0.0000 0.0000
# 2 47.8605 105.0871 27.8161 0.0000 0.0000 0.0000
# 3 26.0724 27.8161 40.3918 0.0000 0.0000 0.0000
# 4 0.0000 0.0000 0.0000 23.1145 0.0000 0.0000
# 5 0.0000 0.0000 0.0000 0.0000 17.8206 0.0000
# 6 0.0000 0.0000 0.0000 0.0000 0.0000 30.1733
#
#
#
# Elastic Compliance Matrix: (Units=1/GPa)
#
#
# Indices 1 2 3 4 5 6 
#
# 1 0.010920 -0.003800 -0.004432 0.000000 0.000000 0.000000
# 2 -0.003800 0.012960 -0.006472 0.000000 0.000000 0.000000
# 3 -0.004432 -0.006472 0.032075 0.000000 0.000000 0.000000
# 4 0.000000 0.000000 0.000000 0.043263 0.000000 0.000000
# 5 0.000000 0.000000 0.000000 0.000000 0.056115 0.000000
# 6 0.000000 0.000000 0.000000 0.000000 0.000000 0.033142
#
#
# Mechanical properties :
#
#
# Convention : Reuss Voigt Hill
#
# Bulk Modulus (GPa) = 37.66866 51.97622 44.82244
# Shear Modulus (GPa) = 22.05251 25.05763 23.55507
#
# Velocity S-wave (km/s) = 3.40909 3.63395 3.52331
# Velocity P-wave (km/s) = 5.94538 6.70816 6.33825
#
# Compressibility (1/GPa) = 0.02654727
#
# Stress axis : x y z
#
# Youngs Moduli (GPa) = 91.57211 77.16154 31.17698
#
# Poissons Ratio (x) = 0.29325 0.13817
# Poissons Ratio (y) = 0.34802 0.20177
# Poissons Ratio (z) = 0.40582 0.49937
#
# Static dielectric constant tensor:
#      x y z
#    x 3.771940 0.000000 0.000000 
#    y 0.000000 3.760640 0.000000 
#    z 0.000000 0.000000 3.110260 
# 
# 
# High freq. dielectric constant tensor:
#      x y z
#    x 1.751610 0.000000 0.000000 
#    y 0.000000 1.739650 0.000000 
#    z 0.000000 0.000000 1.700590 
# 
# From -- ./inp_files/9086.got.cif
#   From: 2010.06.25/outbox.cif.g09.slc.cpg/sg58_5_cif.got.tgz:9086.got - 2010.06.26 21:38:00.
