data_PCOD8235408
_publ_section_title
;
Structure prediction by ZEFSAII (Michael W. Deem and Ramdas Pophale) SiO2 
 PCOD8235408
Probable space group: P N N M
;
_chemical_formula_sum "Si O2"
_cell_formula_units_Z 56
_cell_length_a 21.057810
_cell_length_b 18.253476
_cell_length_c 8.910785
_cell_angle_alpha 90.000000
_cell_angle_beta 90.000000
_cell_angle_gamma 90.000000
_cell_volume 3425.111761
_symmetry_space_group_name_H-M "P N N M"
_symmetry_group_IT_number 58
_symmetry_cell_setting 'orthorhombic'
loop_
_space_group_symop_operation_xyz
x,y,z
-x,-y,z
1/2+x,1/2-y,1/2-z
1/2-x,1/2+y,1/2-z
-x,-y,-z
x,y,-z
1/2-x,1/2+y,1/2+z
1/2+x,1/2-y,1/2+z
loop_
_atom_site_type_symbol
_atom_site_label
_atom_site_fract_x
_atom_site_fract_y
_atom_site_fract_z
Si Si1 0.254998 0.915941 0.676901
Si Si2 0.252984 0.066282 0.170378
Si Si3 0.005534 0.086030 0.326027
Si Si4 0.626071 0.344635 0.675122
Si Si5 0.687669 0.215605 0.175464
Si Si6 0.803401 0.285599 0.329124
Si Si7 0.123363 0.849374 0.672569
O O1 0.259588 0.906038 0.500000
O O2 0.309528 0.865512 0.751763
O O3 0.185313 0.891256 0.738168
O O4 0.267416 0.999857 0.719176
O O5 0.186713 0.104825 0.213116
O O6 0.309800 0.126677 0.191915
O O7 0.251392 0.036958 0.000000
O O8 0.015283 0.106924 0.500000
O O9 0.942325 0.123690 0.253877
O O10 0.064647 0.114104 0.233021
O O11 0.000000 0.000000 0.303367
O O12 0.620017 0.330380 0.500000
O O13 0.631585 0.265272 0.754722
O O14 0.753784 0.255678 0.209156
O O15 0.675964 0.207688 0.000000
O O16 0.777673 0.270518 0.500000
O O17 0.868434 0.239200 0.306176
O O18 0.118329 0.872014 0.500000
#
# Coordination Sequence:
#
# PCOD8235408 Si02
#       7
#     8   8   8   8   8   8   8
#     4  10  18  29  46  67  92 119 146 181 228 274
#     4   9  17  28  43  64  89 116 148 186 224 265
#     4  10  19  30  45  67  93 122 159 194 221 259
#     4  10  20  33  46  63  92 126 157 189 227 268
#     4  10  18  29  46  66  88 115 150 188 225 269
#     4   8  15  29  45  62  88 120 151 184 225 270
#     4   8  15  28  44  61  86 121 153 181 217 263
#
# _framework density 16.349830999999998
#
# number of rings (size 3 to 8) (size 9 to 14) (size 15 to 20)
#    0.000    2.714    0.000    4.714    0.000    4.286 
#    0.000    3.571    0.000    0.000    0.000    1.000 
#    0.000    8.000    0.000    0.000    0.000    0.000 
#
# Total GULP energy -693985.625461 kJ/mol
# GULP energy per Si atom -12392.600455 kJ/mol
# Density = 1.631262 g / cm^3
# Si number density = 16.349831 Si / 1000 Ang^3
#
#
#
# Elastic Constant Matrix: (Units=GPa)
#
#
# Indices 1 2 3 4 5 6 
#
# 1 52.4406 41.4775 24.9192 0.0000 0.0000 0.0000
# 2 41.4775 124.3721 48.2766 0.0000 0.0000 0.0000
# 3 24.9192 48.2766 72.6204 0.0000 0.0000 0.0000
# 4 0.0000 0.0000 0.0000 27.4100 0.0000 0.0000
# 5 0.0000 0.0000 0.0000 0.0000 17.6515 0.0000
# 6 0.0000 0.0000 0.0000 0.0000 0.0000 26.5829
#
#
#
# Elastic Compliance Matrix: (Units=1/GPa)
#
#
# Indices 1 2 3 4 5 6 
#
# 1 0.026907 -0.007264 -0.004404 0.000000 0.000000 0.000000
# 2 -0.007264 0.012798 -0.006015 0.000000 0.000000 0.000000
# 3 -0.004404 -0.006015 0.019280 0.000000 0.000000 0.000000
# 4 0.000000 0.000000 0.000000 0.036483 0.000000 0.000000
# 5 0.000000 0.000000 0.000000 0.000000 0.056652 0.000000
# 6 0.000000 0.000000 0.000000 0.000000 0.000000 0.037618
#
#
# Mechanical properties :
#
#
# Convention : Reuss Voigt Hill
#
# Bulk Modulus (GPa) = 42.33897 53.19775 47.76836
# Shear Modulus (GPa) = 21.46123 23.31287 22.38705
#
# Velocity S-wave (km/s) = 3.62695 3.78018 3.70436
# Velocity P-wave (km/s) = 6.59481 7.18755 6.89755
#
# Compressibility (1/GPa) = 0.02361890
#
# Stress axis : x y z
#
# Youngs Moduli (GPa) = 37.16447 78.13889 51.86662
#
# Poissons Ratio (x) = 0.56760 0.22843
# Poissons Ratio (y) = 0.26996 0.31198
# Poissons Ratio (z) = 0.16368 0.47001
#
# Static dielectric constant tensor:
#      x y z
#    x 2.943980 0.000000 0.000000 
#    y 0.000000 2.981820 0.000000 
#    z 0.000000 0.000000 2.953930 
# 
# 
# High freq. dielectric constant tensor:
#      x y z
#    x 1.585330 0.000000 0.000000 
#    y 0.000000 1.635560 0.000000 
#    z 0.000000 0.000000 1.622020 
# 
# From -- ./inp_files/8131.got.cif
#   From: 2010.06.25/outbox.cif.g09.slc.cpg/sg58_5_cif.got.tgz:8131.got - 2010.06.26 21:38:00.
