data_PCOD8235025
_publ_section_title
;
Structure prediction by ZEFSAII (Michael W. Deem and Ramdas Pophale) SiO2 
 PCOD8235025
Probable space group: P B C M
;
_chemical_formula_sum "Si O2"
_cell_formula_units_Z 40
_cell_length_a 13.009342
_cell_length_b 18.223422
_cell_length_c 9.188366
_cell_angle_alpha 90.000000
_cell_angle_beta 90.000000
_cell_angle_gamma 90.000000
_cell_volume 2178.329381
_symmetry_space_group_name_H-M "P B C M"
_symmetry_group_IT_number 57
_symmetry_cell_setting 'orthorhombic'
loop_
_space_group_symop_operation_xyz
x,y,z
-x,-y,1/2+z
x,1/2-y,-z
-x,1/2+y,1/2-z
-x,-y,-z
x,y,1/2-z
-x,1/2+y,z
x,1/2-y,1/2+z
loop_
_atom_site_type_symbol
_atom_site_label
_atom_site_fract_x
_atom_site_fract_y
_atom_site_fract_z
Si Si1 0.006192 0.325257 0.922273
Si Si2 0.596469 0.571457 0.584441
Si Si3 0.624154 0.424961 0.416340
Si Si4 0.181808 0.096932 0.915701
Si Si5 0.180795 0.573860 0.418909
O O1 0.010421 0.313577 0.750000
O O2 0.921100 0.384449 0.970871
O O3 0.976756 0.250000 0.000000
O O4 0.116557 0.353252 0.976126
O O5 0.597552 0.538300 0.750000
O O6 0.605101 0.508139 0.465452
O O7 0.487828 0.615163 0.561177
O O8 0.698393 0.621838 0.567332
O O9 0.658894 0.423378 0.250000
O O10 0.718403 0.389850 0.505909
O O11 0.143693 0.108902 0.750000
O O12 0.169695 0.011543 0.960514
O O13 0.198566 0.584793 0.250000
#
# Coordination Sequence:
#
# PCOD8235025 Si02
#       5
#     8   8   8   8   8
#     4  11  23  37  52  71  97 130 167 206 249 295
#     4   8  15  27  43  69 104 133 156 192 242 288
#     4   9  15  24  44  73 101 129 161 196 236 285
#     4   9  17  32  53  75 101 130 161 201 244 287
#     4   9  19  34  51  73 102 132 162 201 246 290
#
# _framework density 18.362696
#
# number of rings (size 3 to 8) (size 9 to 14) (size 15 to 20)
#    0.000    2.800    0.000    3.000    0.000    5.600 
#    0.000    0.000    0.000    1.200    0.000    2.800 
#    0.000    0.000    0.000    0.000    0.000    0.000 
#
# Total GULP energy -495607.181282 kJ/mol
# GULP energy per Si atom -12390.179532 kJ/mol
# Density = 1.832090 g / cm^3
# Si number density = 18.362696 Si / 1000 Ang^3
#
#
#
# Elastic Constant Matrix: (Units=GPa)
#
#
# Indices 1 2 3 4 5 6 
#
# 1 117.2681 15.8877 38.0651 0.0000 0.0000 0.0000
# 2 15.8877 33.0538 19.2581 0.0000 0.0000 0.0000
# 3 38.0651 19.2581 60.1880 0.0000 0.0000 0.0000
# 4 0.0000 0.0000 0.0000 20.5843 0.0000 0.0000
# 5 0.0000 0.0000 0.0000 0.0000 34.5889 0.0000
# 6 0.0000 0.0000 0.0000 0.0000 0.0000 4.4522
#
#
#
# Elastic Compliance Matrix: (Units=1/GPa)
#
#
# Indices 1 2 3 4 5 6 
#
# 1 0.010789 -0.001488 -0.006348 0.000000 0.000000 0.000000
# 2 -0.001488 0.037391 -0.011023 0.000000 0.000000 0.000000
# 3 -0.006348 -0.011023 0.024156 0.000000 0.000000 0.000000
# 4 0.000000 0.000000 0.000000 0.048581 0.000000 0.000000
# 5 0.000000 0.000000 0.000000 0.000000 0.028911 0.000000
# 6 0.000000 0.000000 0.000000 0.000000 0.000000 0.224609
#
#
# Mechanical properties :
#
#
# Convention : Reuss Voigt Hill
#
# Bulk Modulus (GPa) = 28.88511 39.65908 34.27209
# Shear Modulus (GPa) = 11.80096 21.07834 16.43965
#
# Velocity S-wave (km/s) = 2.53782 3.39173 2.99536
# Velocity P-wave (km/s) = 4.93476 6.08136 5.53782
#
# Compressibility (1/GPa) = 0.03461992
#
# Stress axis : x y z
#
# Youngs Moduli (GPa) = 92.68304 26.74437 41.39754
#
# Poissons Ratio (x) = 0.03979 0.26278
# Poissons Ratio (y) = 0.13789 0.45632
# Poissons Ratio (z) = 0.58832 0.29480
#
# Static dielectric constant tensor:
#      x y z
#    x 4.014910 0.000000 0.000000 
#    y 0.000000 2.908810 0.000000 
#    z 0.000000 0.000000 3.387760 
# 
# 
# High freq. dielectric constant tensor:
#      x y z
#    x 1.741720 0.000000 0.000000 
#    y 0.000000 1.639030 0.000000 
#    z 0.000000 0.000000 1.717700 
# 
# From -- ./inp_files/2643.got.cif
#   From: 2010.03.12/outbox.cif.g09.slc.cpg/sg57_2_cif.got.tgz:2643.got - 2010.04.16 15:48:40.
