data_PCOD8235817
_publ_section_title
;
Structure prediction by ZEFSAII (Michael W. Deem and Ramdas Pophale) SiO2 
 PCOD8235817
Probable space group: P N N M
;
_chemical_formula_sum "Si O2"
_cell_formula_units_Z 64
_cell_length_a 31.471392
_cell_length_b 9.382942
_cell_length_c 14.270355
_cell_angle_alpha 90.000000
_cell_angle_beta 90.000000
_cell_angle_gamma 90.000000
_cell_volume 4213.953717
_symmetry_space_group_name_H-M "P N N M"
_symmetry_group_IT_number 58
_symmetry_cell_setting 'orthorhombic'
loop_
_space_group_symop_operation_xyz
x,y,z
-x,-y,z
1/2+x,1/2-y,1/2-z
1/2-x,1/2+y,1/2-z
-x,-y,-z
x,y,-z
1/2-x,1/2+y,1/2+z
1/2+x,1/2-y,1/2+z
loop_
_atom_site_type_symbol
_atom_site_label
_atom_site_fract_x
_atom_site_fract_y
_atom_site_fract_z
Si Si1 0.817146 0.698212 0.204625
Si Si2 0.295826 0.521638 0.607647
Si Si3 0.012322 0.156199 0.889342
Si Si4 0.284933 0.062550 0.392831
Si Si5 0.780662 0.696428 0.604348
Si Si6 0.939141 0.355355 0.111083
Si Si7 0.146294 0.776872 0.110940
Si Si8 0.908515 0.662916 0.110808
O O1 0.794516 0.843968 0.174964
O O2 0.784110 0.581342 0.166445
O O3 0.817718 0.686204 0.317960
O O4 0.864682 0.683683 0.165622
O O5 0.301190 0.571027 0.500000
O O6 0.253683 0.428024 0.619464
O O7 0.337215 0.431919 0.641506
O O8 0.060603 0.203213 0.865637
O O9 0.981652 0.281250 0.848442
O O10 0.005652 0.149220 0.000000
O O11 0.000000 0.000000 0.847081
O O12 0.294351 0.021521 0.500000
O O13 0.241298 0.149380 0.384676
O O14 0.323416 0.154092 0.348347
O O15 0.800658 0.682816 0.500000
O O16 0.901297 0.251609 0.145608
O O17 0.931558 0.517275 0.145887
O O18 0.941551 0.361017 0.000000
O O19 0.150738 0.767140 0.000000
O O20 0.898624 0.655296 0.000000
#
# Coordination Sequence:
#
# PCOD8235817 Si02
#       8
#     8   8   8   8   8   8   8   8
#     4  12  19  27  46  69  86 108 152 192 215 247
#     4   9  18  29  43  64  89 112 139 181 221 256
#     4   9  18  28  39  57  87 124 149 169 206 255
#     4   9  16  29  45  63  86 113 144 177 214 261
#     4   9  20  35  45  57  86 122 149 177 223 268
#     4   9  15  26  41  56  83 122 149 165 199 254
#     4   8  14  25  40  59  85 117 142 164 208 257
#     4  10  19  28  40  64  90 114 148 182 210 249
#
# _framework density 15.187637
#
# number of rings (size 3 to 8) (size 9 to 14) (size 15 to 20)
#    0.000    2.625    1.250    3.750    1.750    1.500 
#    0.000    0.000    0.000    0.000    0.000    0.000 
#    0.000    2.500    0.000    0.000    0.000    0.125 
#
# Total GULP energy -793061.585760 kJ/mol
# GULP energy per Si atom -12391.587277 kJ/mol
# Density = 1.515307 g / cm^3
# Si number density = 15.187637 Si / 1000 Ang^3
#
#
#
# Elastic Constant Matrix: (Units=GPa)
#
#
# Indices 1 2 3 4 5 6 
#
# 1 65.2375 29.3211 33.7496 0.0000 0.0000 0.0000
# 2 29.3211 98.2392 34.9260 0.0000 0.0000 0.0000
# 3 33.7496 34.9260 65.3731 0.0000 0.0000 0.0000
# 4 0.0000 0.0000 0.0000 6.9414 0.0000 0.0000
# 5 0.0000 0.0000 0.0000 0.0000 13.5908 0.0000
# 6 0.0000 0.0000 0.0000 0.0000 0.0000 10.9687
#
#
#
# Elastic Compliance Matrix: (Units=1/GPa)
#
#
# Indices 1 2 3 4 5 6 
#
# 1 0.021639 -0.003070 -0.009531 0.000000 0.000000 0.000000
# 2 -0.003070 0.013002 -0.005361 0.000000 0.000000 0.000000
# 3 -0.009531 -0.005361 0.023082 0.000000 0.000000 0.000000
# 4 0.000000 0.000000 0.000000 0.144064 0.000000 0.000000
# 5 0.000000 0.000000 0.000000 0.000000 0.073579 0.000000
# 6 0.000000 0.000000 0.000000 0.000000 0.000000 0.091169
#
#
# Mechanical properties :
#
#
# Convention : Reuss Voigt Hill
#
# Bulk Modulus (GPa) = 45.87702 47.20480 46.54091
# Shear Modulus (GPa) = 12.20328 15.02370 13.61349
#
# Velocity S-wave (km/s) = 2.83768 3.14858 2.99716
# Velocity P-wave (km/s) = 6.40383 6.66082 6.53359
#
# Compressibility (1/GPa) = 0.02179741
#
# Stress axis : x y z
#
# Youngs Moduli (GPa) = 46.21208 76.91381 43.32421
#
# Poissons Ratio (x) = 0.23613 0.41294
# Poissons Ratio (y) = 0.14187 0.23227
# Poissons Ratio (z) = 0.44047 0.41235
#
# Static dielectric constant tensor:
#      x y z
#    x 2.911060 0.000000 0.000000 
#    y 0.000000 3.135300 0.000000 
#    z 0.000000 0.000000 2.492790 
# 
# 
# High freq. dielectric constant tensor:
#      x y z
#    x 1.568790 0.000000 0.000000 
#    y 0.000000 1.600290 0.000000 
#    z 0.000000 0.000000 1.514090 
# 
# From -- ./inp_files/20404.got.cif
#   From: 2010.06.25/outbox.cif.g09.slc.cpg/sg58_11_cif.got.tgz:20404.got - 2010.06.26 21:38:00.
