data_PCOD8235366
_publ_section_title
;
Structure prediction by ZEFSAII (Michael W. Deem and Ramdas Pophale) SiO2 
 PCOD8235366
Probable space group: P N N M
;
_chemical_formula_sum "Si O2"
_cell_formula_units_Z 56
_cell_length_a 9.440257
_cell_length_b 28.879825
_cell_length_c 13.077489
_cell_angle_alpha 90.000000
_cell_angle_beta 90.000000
_cell_angle_gamma 90.000000
_cell_volume 3565.354668
_symmetry_space_group_name_H-M "P N N M"
_symmetry_group_IT_number 58
_symmetry_cell_setting 'orthorhombic'
loop_
_space_group_symop_operation_xyz
x,y,z
-x,-y,z
1/2+x,1/2-y,1/2-z
1/2-x,1/2+y,1/2-z
-x,-y,-z
x,y,-z
1/2-x,1/2+y,1/2+z
1/2+x,1/2-y,1/2+z
loop_
_atom_site_type_symbol
_atom_site_label
_atom_site_fract_x
_atom_site_fract_y
_atom_site_fract_z
Si Si1 0.015177 0.302016 0.687463
Si Si2 0.736191 0.122910 0.119721
Si Si3 0.511814 0.340591 0.305707
Si Si4 0.003527 0.448837 0.620627
Si Si5 0.798613 0.371220 0.381623
Si Si6 0.937112 0.259681 0.115923
Si Si7 0.617346 0.289678 0.114882
O O1 0.140510 0.332980 0.644611
O O2 0.011316 0.253739 0.625923
O O3 0.864126 0.326364 0.673038
O O4 0.033915 0.290653 0.808476
O O5 0.651787 0.076149 0.148537
O O6 0.875428 0.125732 0.190758
O O7 0.776995 0.124047 0.000000
O O8 0.631820 0.370292 0.363246
O O9 0.471244 0.294260 0.367166
O O10 0.565066 0.330261 0.190717
O O11 0.988729 0.453746 0.500000
O O12 0.000000 0.500000 0.671437
O O13 0.871313 0.418219 0.662425
O O14 0.837737 0.367751 0.500000
O O15 0.773522 0.270566 0.141402
O O16 0.975444 0.273146 0.000000
O O17 0.610172 0.309703 0.000000
#
# Coordination Sequence:
#
# PCOD8235366 Si02
#       7
#     8   8   8   8   8   8   8
#     4  10  18  30  44  63  84 126 164 189 216 267
#     4  10  18  30  49  66  93 125 150 184 231 275
#     4  11  20  30  44  68  92 122 159 195 224 265
#     4   8  16  31  49  68  91 121 149 178 226 285
#     4  10  18  28  45  68  92 117 155 192 220 268
#     4  10  19  30  44  62  92 126 159 197 230 256
#     4  10  19  31  45  61  91 128 160 194 229 261
#
# _framework density 15.706713000000001
#
# number of rings (size 3 to 8) (size 9 to 14) (size 15 to 20)
#    0.000    2.143    2.857    3.429    0.000    0.000 
#    0.000    2.857    0.000    3.429    0.000    0.000 
#    0.000   21.714    0.000    0.000    0.000    0.000 
#
# Total GULP energy -694176.039074 kJ/mol
# GULP energy per Si atom -12396.000698 kJ/mol
# Density = 1.567096 g / cm^3
# Si number density = 15.706713 Si / 1000 Ang^3
#
#
#
# Elastic Constant Matrix: (Units=GPa)
#
#
# Indices 1 2 3 4 5 6 
#
# 1 89.6706 36.3644 22.1040 0.0000 0.0000 0.0000
# 2 36.3644 81.9868 27.5672 0.0000 0.0000 0.0000
# 3 22.1040 27.5672 73.7675 0.0000 0.0000 0.0000
# 4 0.0000 0.0000 0.0000 12.6792 0.0000 0.0000
# 5 0.0000 0.0000 0.0000 0.0000 22.1685 0.0000
# 6 0.0000 0.0000 0.0000 0.0000 0.0000 17.9882
#
#
#
# Elastic Compliance Matrix: (Units=1/GPa)
#
#
# Indices 1 2 3 4 5 6 
#
# 1 0.013883 -0.005443 -0.002126 0.000000 0.000000 0.000000
# 2 -0.005443 0.016084 -0.004380 0.000000 0.000000 0.000000
# 3 -0.002126 -0.004380 0.015830 0.000000 0.000000 0.000000
# 4 0.000000 0.000000 0.000000 0.078869 0.000000 0.000000
# 5 0.000000 0.000000 0.000000 0.000000 0.045109 0.000000
# 6 0.000000 0.000000 0.000000 0.000000 0.000000 0.055592
#
#
# Mechanical properties :
#
#
# Convention : Reuss Voigt Hill
#
# Bulk Modulus (GPa) = 45.66250 46.38843 46.02547
# Shear Modulus (GPa) = 19.48828 21.19313 20.34071
#
# Velocity S-wave (km/s) = 3.52627 3.67727 3.60256
# Velocity P-wave (km/s) = 6.76125 6.90131 6.83164
#
# Compressibility (1/GPa) = 0.02189981
#
# Stress axis : x y z
#
# Youngs Moduli (GPa) = 72.02903 62.17417 63.17183
#
# Poissons Ratio (x) = 0.33841 0.13430
# Poissons Ratio (y) = 0.39205 0.27667
# Poissons Ratio (z) = 0.15313 0.27230
#
# Static dielectric constant tensor:
#      x y z
#    x 3.070340 0.000000 0.000000 
#    y 0.000000 2.968690 0.000000 
#    z 0.000000 0.000000 2.866450 
# 
# 
# High freq. dielectric constant tensor:
#      x y z
#    x 1.608120 0.000000 0.000000 
#    y 0.000000 1.572700 0.000000 
#    z 0.000000 0.000000 1.581280 
# 
# From -- ./inp_files/20371.got.cif
#   From: 2010.06.25/outbox.cif.g09.slc.cpg/sg58_11_cif.got.tgz:20371.got - 2010.06.26 21:38:00.
