data_PCOD8235538
_publ_section_title
;
Structure prediction by ZEFSAII (Michael W. Deem and Ramdas Pophale) SiO2 
 PCOD8235538
Probable space group: P N N M
;
_chemical_formula_sum "Si O2"
_cell_formula_units_Z 48
_cell_length_a 13.657232
_cell_length_b 23.902179
_cell_length_c 8.399240
_cell_angle_alpha 90.000000
_cell_angle_beta 90.000000
_cell_angle_gamma 90.000000
_cell_volume 2741.827780
_symmetry_space_group_name_H-M "P N N M"
_symmetry_group_IT_number 58
_symmetry_cell_setting 'orthorhombic'
loop_
_space_group_symop_operation_xyz
x,y,z
-x,-y,z
1/2+x,1/2-y,1/2-z
1/2-x,1/2+y,1/2-z
-x,-y,-z
x,y,-z
1/2-x,1/2+y,1/2+z
1/2+x,1/2-y,1/2+z
loop_
_atom_site_type_symbol
_atom_site_label
_atom_site_fract_x
_atom_site_fract_y
_atom_site_fract_z
Si Si1 0.599396 0.230083 0.684648
Si Si2 0.386206 0.562700 0.688366
Si Si3 0.284400 0.667529 0.186050
Si Si4 0.393376 0.437720 0.311933
Si Si5 0.109196 0.729483 0.685029
Si Si6 0.279744 0.331470 0.686493
O O1 0.572982 0.229947 0.500000
O O2 0.637173 0.291311 0.733042
O O3 0.503030 0.214188 0.783318
O O4 0.680628 0.183219 0.720789
O O5 0.377338 0.572447 0.500000
O O6 0.313291 0.603796 0.779991
O O7 0.496644 0.573215 0.751231
O O8 0.355533 0.499382 0.736006
O O9 0.176836 0.677978 0.258350
O O10 0.282733 0.680321 0.000000
O O11 0.399798 0.433247 0.500000
O O12 0.319361 0.390711 0.245901
O O13 0.127794 0.740834 0.500000
O O14 0.137555 0.784982 0.782627
O O15 0.256659 0.334302 0.500000
#
# Coordination Sequence:
#
# PCOD8235538 Si02
#       6
#     8   8   8   8   8   8
#     4  11  21  34  50  71  98 131 164 202 245 290
#     4   9  16  31  51  73  99 132 166 199 238 286
#     4  11  21  33  49  74 102 131 163 200 242 290
#     4   8  16  29  50  74  99 130 165 198 238 288
#     4  11  21  34  51  73  98 129 163 202 246 292
#     4  10  18  31  50  75 102 131 163 199 239 290
#
# _framework density 17.506568999999999
#
# number of rings (size 3 to 8) (size 9 to 14) (size 15 to 20)
#    0.000    2.000    0.000    9.000    0.000    1.333 
#    0.000    4.167    0.000    1.000    0.000    7.000 
#    0.000    0.000    0.000    0.000    0.000    0.000 
#
# Total GULP energy -595252.300307 kJ/mol
# GULP energy per Si atom -12401.089590 kJ/mol
# Density = 1.746672 g / cm^3
# Si number density = 17.506569 Si / 1000 Ang^3
#
#
#
# Elastic Constant Matrix: (Units=GPa)
#
#
# Indices 1 2 3 4 5 6 
#
# 1 104.5112 59.6903 9.7612 0.0000 0.0000 0.0000
# 2 59.6903 122.1038 13.6031 0.0000 0.0000 0.0000
# 3 9.7612 13.6031 60.8249 0.0000 0.0000 0.0000
# 4 0.0000 0.0000 0.0000 24.3908 0.0000 0.0000
# 5 0.0000 0.0000 0.0000 0.0000 25.0870 0.0000
# 6 0.0000 0.0000 0.0000 0.0000 0.0000 26.3624
#
#
#
# Elastic Compliance Matrix: (Units=1/GPa)
#
#
# Indices 1 2 3 4 5 6 
#
# 1 0.013303 -0.006426 -0.000698 0.000000 0.000000 0.000000
# 2 -0.006426 0.011503 -0.001541 0.000000 0.000000 0.000000
# 3 -0.000698 -0.001541 0.016897 0.000000 0.000000 0.000000
# 4 0.000000 0.000000 0.000000 0.040999 0.000000 0.000000
# 5 0.000000 0.000000 0.000000 0.000000 0.039861 0.000000
# 6 0.000000 0.000000 0.000000 0.000000 0.000000 0.037933
#
#
# Mechanical properties :
#
#
# Convention : Reuss Voigt Hill
#
# Bulk Modulus (GPa) = 41.02769 50.39434 45.71102
# Shear Modulus (GPa) = 26.88883 28.79373 27.84128
#
# Velocity S-wave (km/s) = 3.92334 4.05994 3.99222
# Velocity P-wave (km/s) = 6.63400 7.12923 6.88607
#
# Compressibility (1/GPa) = 0.02437378
#
# Stress axis : x y z
#
# Youngs Moduli (GPa) = 75.16852 86.93677 59.18090
#
# Poissons Ratio (x) = 0.55862 0.04130
# Poissons Ratio (y) = 0.48300 0.09122
# Poissons Ratio (z) = 0.05246 0.13399
#
# Static dielectric constant tensor:
#      x y z
#    x 3.243520 0.000000 0.000000 
#    y 0.000000 3.398300 0.000000 
#    z 0.000000 0.000000 3.140780 
# 
# 
# High freq. dielectric constant tensor:
#      x y z
#    x 1.666180 0.000000 0.000000 
#    y 0.000000 1.666330 0.000000 
#    z 0.000000 0.000000 1.675850 
# 
# From -- ./inp_files/4267.got.cif
#   From: 2010.06.25/outbox.cif.g09.slc.cpg/sg58_3_cif.got.tgz:4267.got - 2010.06.26 21:38:00.
