data_PCOD8235299
_publ_section_title
;
Structure prediction by ZEFSAII (Michael W. Deem and Ramdas Pophale) SiO2 
 PCOD8235299
Probable space group: P N N M
;
_chemical_formula_sum "Si O2"
_cell_formula_units_Z 36
_cell_length_a 15.785081
_cell_length_b 7.490112
_cell_length_c 15.538268
_cell_angle_alpha 90.000000
_cell_angle_beta 90.000000
_cell_angle_gamma 90.000000
_cell_volume 1837.120885
_symmetry_space_group_name_H-M "P N N M"
_symmetry_group_IT_number 58
_symmetry_cell_setting 'orthorhombic'
loop_
_space_group_symop_operation_xyz
x,y,z
-x,-y,z
1/2+x,1/2-y,1/2-z
1/2-x,1/2+y,1/2-z
-x,-y,-z
x,y,-z
1/2-x,1/2+y,1/2+z
1/2+x,1/2-y,1/2+z
loop_
_atom_site_type_symbol
_atom_site_label
_atom_site_fract_x
_atom_site_fract_y
_atom_site_fract_z
Si Si1 0.000000 0.000000 0.341343
Si Si2 0.141642 0.082316 0.779226
Si Si3 0.674896 0.126008 0.596647
Si Si4 0.177170 0.671648 0.773312
Si Si5 0.861984 0.252092 0.593785
O O1 0.943907 0.125896 0.402163
O O2 0.059938 0.119449 0.279681
O O3 0.134306 0.188355 0.869365
O O4 0.221495 0.162488 0.728040
O O5 0.149655 0.871479 0.798146
O O6 0.642437 0.094378 0.500000
O O7 0.777225 0.131567 0.600377
O O8 0.640878 0.964493 0.656113
O O9 0.140261 0.618437 0.677555
O O10 0.863527 0.351724 0.500000
#
# Coordination Sequence:
#
# PCOD8235299 Si02
#       5
#     4   8   8   8   8
#     4  10  17  32  55  82 116 148 173 224 293 332
#     4  10  19  33  57  79 108 150 184 226 273 332
#     4  10  20  36  58  82 108 147 194 235 268 320
#     4  10  17  34  58  78 110 149 187 218 274 330
#     4   9  18  31  54  82 110 143 178 222 277 332
#
# _framework density 19.595880999999999
#
# number of rings (size 3 to 8) (size 9 to 14) (size 15 to 20)
#    0.000    2.222    6.667    0.333    0.000    0.889 
#    0.000    5.000    0.000   14.667    0.000    0.000 
#    0.000    0.000    0.000    0.000    0.000    0.000 
#
# Total GULP energy -446048.764929 kJ/mol
# GULP energy per Si atom -12390.243470 kJ/mol
# Density = 1.955128 g / cm^3
# Si number density = 19.595881 Si / 1000 Ang^3
#
#
#
# Elastic Constant Matrix: (Units=GPa)
#
#
# Indices 1 2 3 4 5 6 
#
# 1 56.3861 9.0360 22.2832 0.0000 0.0000 0.0000
# 2 9.0360 95.0479 69.7894 0.0000 0.0000 0.0000
# 3 22.2832 69.7894 194.8196 0.0000 0.0000 0.0000
# 4 0.0000 0.0000 0.0000 35.3462 0.0000 0.0000
# 5 0.0000 0.0000 0.0000 0.0000 16.1614 0.0000
# 6 0.0000 0.0000 0.0000 0.0000 0.0000 24.7924
#
#
#
# Elastic Compliance Matrix: (Units=1/GPa)
#
#
# Indices 1 2 3 4 5 6 
#
# 1 0.018580 -0.000279 -0.002025 0.000000 0.000000 0.000000
# 2 -0.000279 0.014280 -0.005084 0.000000 0.000000 0.000000
# 3 -0.002025 -0.005084 0.007186 0.000000 0.000000 0.000000
# 4 0.000000 0.000000 0.000000 0.028292 0.000000 0.000000
# 5 0.000000 0.000000 0.000000 0.000000 0.061876 0.000000
# 6 0.000000 0.000000 0.000000 0.000000 0.000000 0.040335
#
#
# Mechanical properties :
#
#
# Convention : Reuss Voigt Hill
#
# Bulk Modulus (GPa) = 39.57322 60.94123 50.25722
# Shear Modulus (GPa) = 25.80676 31.60298 28.70487
#
# Velocity S-wave (km/s) = 3.63292 4.02025 3.83148
# Velocity P-wave (km/s) = 6.15109 7.26060 6.72875
#
# Compressibility (1/GPa) = 0.02526962
#
# Stress axis : x y z
#
# Youngs Moduli (GPa) = 53.82156 70.02693 139.16630
#
# Poissons Ratio (x) = 0.01957 0.28182
# Poissons Ratio (y) = 0.01504 0.70746
# Poissons Ratio (z) = 0.10899 0.35599
#
# Static dielectric constant tensor:
#      x y z
#    x 3.489470 0.000000 0.000000 
#    y 0.000000 3.339350 0.000000 
#    z 0.000000 0.000000 3.939090 
# 
# 
# High freq. dielectric constant tensor:
#      x y z
#    x 1.747070 0.000000 0.000000 
#    y 0.000000 1.728710 0.000000 
#    z 0.000000 0.000000 1.768350 
# 
# From -- ./inp_files/21845.got.cif
#   From: 2010.06.25/outbox.cif.g09.slc.cpg/sg58_11_cif.got.tgz:21845.got - 2010.06.26 21:38:00.
