data_PCOD8235188
_publ_section_title
;
Structure prediction by ZEFSAII (Michael W. Deem and Ramdas Pophale) SiO2 
 PCOD8235188
Probable space group: P B C M
;
_chemical_formula_sum "Si O2"
_cell_formula_units_Z 48
_cell_length_a 30.000000
_cell_length_b 9.000000
_cell_length_c 9.000000
_cell_angle_alpha 90.000000
_cell_angle_beta 90.000000
_cell_angle_gamma 90.000000
_cell_volume 2430.000000
_symmetry_space_group_name_H-M "P B C M"
_symmetry_group_IT_number 57
_symmetry_cell_setting 'orthorhombic'
loop_
_space_group_symop_operation_xyz
x,y,z
-x,-y,1/2+z
x,1/2-y,-z
-x,1/2+y,1/2-z
-x,-y,-z
x,y,1/2-z
-x,1/2+y,z
x,1/2-y,1/2+z
loop_
_atom_site_type_symbol
_atom_site_label
_atom_site_fract_x
_atom_site_fract_y
_atom_site_fract_z
Si Si1 0.294540 0.909644 0.573679
Si Si2 0.220725 0.093154 0.079571
Si Si3 0.039631 0.087676 0.927567
Si Si4 0.123169 0.094741 0.079870
Si Si5 0.621243 0.401188 0.418292
Si Si6 0.464733 0.401786 0.583468
O O1 0.296860 0.750000 0.500000
O O2 0.293645 0.904819 0.750000
O O3 0.339473 0.985919 0.510452
O O4 0.250677 0.986267 0.515762
O O5 0.237052 0.110009 0.250000
O O6 0.171488 0.017288 0.076529
O O7 0.222028 0.250000 0.000000
O O8 0.035864 0.091093 0.750000
O O9 0.039742 0.250000 0.000000
O O10 0.085491 0.007483 0.983588
O O11 0.000000 0.000000 0.000000
O O12 0.106658 0.116583 0.250000
O O13 0.130603 0.250000 0.000000
O O14 0.606086 0.250000 0.500000
O O15 0.636883 0.362616 0.250000
O O16 0.581498 0.514680 0.414326
O O17 0.457408 0.250000 0.500000
O O18 0.500000 0.500000 0.500000
O O19 0.481912 0.370181 0.750000
#
# Coordination Sequence:
#
# PCOD8235188 Si02
#       6
#     8   8   8   8   8   8
#     4  11  22  37  58  82 112 149 186 227 276 329
#     4  10  20  35  56  82 111 142 181 226 270 322
#     4  11  21  35  55  79 108 141 179 223 271 325
#     4   9  17  31  52  77 105 139 178 220 268 322
#     4  10  21  38  59  83 111 146 187 229 275 328
#     4  11  24  40  61  87 117 151 188 231 277 328
#
# _framework density 19.753086
#
# number of rings (size 3 to 8) (size 9 to 14) (size 15 to 20)
#    0.000    1.667    0.000    7.500    0.000    6.667 
#    0.000    2.500    0.000    4.000    0.000    0.000 
#    0.000    0.000    0.000    0.000    0.000    0.000 
#
# Total GULP energy -594820.749990 kJ/mol
# GULP energy per Si atom -12392.098958 kJ/mol
# Density = 1.970813 g / cm^3
# Si number density = 19.753086 Si / 1000 Ang^3
#
#
#
# Elastic Constant Matrix: (Units=GPa)
#
#
# Indices 1 2 3 4 5 6 
#
# 1 107.2719 26.6820 74.6503 0.0000 0.0000 0.0000
# 2 26.6820 29.8786 43.9666 0.0000 0.0000 0.0000
# 3 74.6503 43.9666 231.2128 0.0000 0.0000 0.0000
# 4 0.0000 0.0000 0.0000 31.5787 0.0000 0.0000
# 5 0.0000 0.0000 0.0000 0.0000 39.3416 0.0000
# 6 0.0000 0.0000 0.0000 0.0000 0.0000 32.0864
#
#
#
# Elastic Compliance Matrix: (Units=1/GPa)
#
#
# Indices 1 2 3 4 5 6 
#
# 1 0.013171 -0.007643 -0.002799 0.000000 0.000000 0.000000
# 2 -0.007643 0.050908 -0.007213 0.000000 0.000000 0.000000
# 3 -0.002799 -0.007213 0.006600 0.000000 0.000000 0.000000
# 4 0.000000 0.000000 0.000000 0.031667 0.000000 0.000000
# 5 0.000000 0.000000 0.000000 0.000000 0.025418 0.000000
# 6 0.000000 0.000000 0.000000 0.000000 0.000000 0.031166
#
#
# Mechanical properties :
#
#
# Convention : Reuss Voigt Hill
#
# Bulk Modulus (GPa) = 28.27307 73.21789 50.74548
# Shear Modulus (GPa) = 24.26830 35.47228 29.87029
#
# Velocity S-wave (km/s) = 3.50892 4.24227 3.89290
# Velocity P-wave (km/s) = 5.54626 7.81939 6.77878
#
# Compressibility (1/GPa) = 0.03536934
#
# Stress axis : x y z
#
# Youngs Moduli (GPa) = 75.92398 19.64333 151.50832
#
# Poissons Ratio (x) = 0.15014 0.42408
# Poissons Ratio (y) = 0.58029 1.09279
# Poissons Ratio (z) = 0.21252 0.14168
#
# Static dielectric constant tensor:
#      x y z
#    x 4.921050 0.000000 0.000000 
#    y 0.000000 3.070890 0.000000 
#    z 0.000000 0.000000 2.907070 
# 
# 
# High freq. dielectric constant tensor:
#      x y z
#    x 1.786040 0.000000 0.000000 
#    y 0.000000 1.725920 0.000000 
#    z 0.000000 0.000000 1.800460 
# 
# From -- ./inp_files/9963.got.cif
#   From: 2010.03.12/outbox.ucp.g09.slc.cvg/sg57_5_cif.got.tgz:9963.got - 2010.05.04 19:26:41.
