data_PCOD8235623
_publ_section_title
;
Structure prediction by ZEFSAII (Michael W. Deem and Ramdas Pophale) SiO2 
 PCOD8235623
Probable space group: P N N M
;
_chemical_formula_sum "Si O2"
_cell_formula_units_Z 52
_cell_length_a 14.199518
_cell_length_b 20.815174
_cell_length_c 9.790473
_cell_angle_alpha 90.000000
_cell_angle_beta 90.000000
_cell_angle_gamma 90.000000
_cell_volume 2893.725439
_symmetry_space_group_name_H-M "P N N M"
_symmetry_group_IT_number 58
_symmetry_cell_setting 'orthorhombic'
loop_
_space_group_symop_operation_xyz
x,y,z
-x,-y,z
1/2+x,1/2-y,1/2-z
1/2-x,1/2+y,1/2-z
-x,-y,-z
x,y,-z
1/2-x,1/2+y,1/2+z
1/2+x,1/2-y,1/2+z
loop_
_atom_site_type_symbol
_atom_site_label
_atom_site_fract_x
_atom_site_fract_y
_atom_site_fract_z
Si Si1 0.500102 0.346862 0.338084
Si Si2 0.644852 0.901297 0.651540
Si Si3 0.319548 0.574988 0.661645
Si Si4 0.991098 0.701202 0.842410
Si Si5 0.625443 0.111885 0.845113
Si Si6 0.000000 0.500000 0.253508
Si Si7 0.670973 0.570062 0.661741
O O1 0.494675 0.351476 0.500000
O O2 0.597076 0.378761 0.287640
O O3 0.495680 0.273564 0.288494
O O4 0.411275 0.385437 0.274903
O O5 0.689810 0.902635 0.500000
O O6 0.724032 0.903751 0.765930
O O7 0.590262 0.834574 0.675583
O O8 0.572188 0.960570 0.659405
O O9 0.301659 0.579630 0.500000
O O10 0.347105 0.503125 0.707050
O O11 0.911282 0.668314 0.751304
O O12 0.957623 0.699533 0.000000
O O13 0.727517 0.093242 0.785113
O O14 0.558250 0.049460 0.846845
O O15 0.631700 0.137671 0.000000
O O16 0.669780 0.574355 0.500000
#
# Coordination Sequence:
#
# PCOD8235623 Si02
#       7
#     8   8   8   8   8   4   8
#     4   9  18  34  55  73 102 140 178 215 248 302
#     4  10  20  33  52  77 106 138 171 210 258 313
#     4  10  19  33  55  82 103 130 173 221 264 301
#     4   9  20  36  51  74 104 142 178 205 249 312
#     4  10  19  31  53  81 107 131 164 216 265 303
#     4  10  18  32  52  78 104 136 168 210 252 312
#     4   9  17  31  52  81 103 129 172 217 260 299
#
# _framework density 17.969915
#
# number of rings (size 3 to 8) (size 9 to 14) (size 15 to 20)
#    0.000    2.462    1.538    0.923    0.000    6.154 
#    0.000    2.308    0.000    4.615    0.000    0.000 
#    0.000    0.000    0.000    0.000    0.000    0.000 
#
# Total GULP energy -644767.241666 kJ/mol
# GULP energy per Si atom -12399.370032 kJ/mol
# Density = 1.792901 g / cm^3
# Si number density = 17.969915 Si / 1000 Ang^3
#
#
#
# Elastic Constant Matrix: (Units=GPa)
#
#
# Indices 1 2 3 4 5 6 
#
# 1 133.7550 76.0590 38.2041 0.0000 0.0000 0.0000
# 2 76.0590 152.8765 39.5105 0.0000 0.0000 0.0000
# 3 38.2041 39.5105 53.3563 0.0000 0.0000 0.0000
# 4 0.0000 0.0000 0.0000 18.4599 0.0000 0.0000
# 5 0.0000 0.0000 0.0000 0.0000 16.8277 0.0000
# 6 0.0000 0.0000 0.0000 0.0000 0.0000 22.6922
#
#
#
# Elastic Compliance Matrix: (Units=1/GPa)
#
#
# Indices 1 2 3 4 5 6 
#
# 1 0.011371 -0.004394 -0.004888 0.000000 0.000000 0.000000
# 2 -0.004394 0.009787 -0.004101 0.000000 0.000000 0.000000
# 3 -0.004888 -0.004101 0.025279 0.000000 0.000000 0.000000
# 4 0.000000 0.000000 0.000000 0.054171 0.000000 0.000000
# 5 0.000000 0.000000 0.000000 0.000000 0.059426 0.000000
# 6 0.000000 0.000000 0.000000 0.000000 0.000000 0.044068
#
#
# Mechanical properties :
#
#
# Convention : Reuss Voigt Hill
#
# Bulk Modulus (GPa) = 50.83775 71.94832 61.39303
# Shear Modulus (GPa) = 21.05912 24.01024 22.53468
#
# Velocity S-wave (km/s) = 3.42703 3.65928 3.54506
# Velocity P-wave (km/s) = 6.63410 7.61439 7.14109
#
# Compressibility (1/GPa) = 0.01967042
#
# Stress axis : x y z
#
# Youngs Moduli (GPa) = 87.94137 102.17288 39.55854
#
# Poissons Ratio (x) = 0.44895 0.19337
# Poissons Ratio (y) = 0.38642 0.16224
# Poissons Ratio (z) = 0.42987 0.41904
#
# Static dielectric constant tensor:
#      x y z
#    x 3.428400 0.000000 0.000000 
#    y 0.000000 3.483400 0.000000 
#    z 0.000000 0.000000 2.954520 
# 
# 
# High freq. dielectric constant tensor:
#      x y z
#    x 1.699780 0.000000 0.000000 
#    y 0.000000 1.701650 0.000000 
#    z 0.000000 0.000000 1.658900 
# 
# From -- ./inp_files/6206.got.cif
#   From: 2010.06.25/outbox.cif.g09.slc.cpg/sg58_4_cif.got.tgz:6206.got - 2010.06.26 21:38:00.
