data_PCOD8235656
_publ_section_title
;
Structure prediction by ZEFSAII (Michael W. Deem and Ramdas Pophale) SiO2 
 PCOD8235656
Probable space group: P N N M
;
_chemical_formula_sum "Si O2"
_cell_formula_units_Z 48
_cell_length_a 28.493356
_cell_length_b 7.695278
_cell_length_c 9.910548
_cell_angle_alpha 90.000000
_cell_angle_beta 90.000000
_cell_angle_gamma 90.000000
_cell_volume 2173.029326
_symmetry_space_group_name_H-M "P N N M"
_symmetry_group_IT_number 58
_symmetry_cell_setting 'orthorhombic'
loop_
_space_group_symop_operation_xyz
x,y,z
-x,-y,z
1/2+x,1/2-y,1/2-z
1/2-x,1/2+y,1/2-z
-x,-y,-z
x,y,-z
1/2-x,1/2+y,1/2+z
1/2+x,1/2-y,1/2+z
loop_
_atom_site_type_symbol
_atom_site_label
_atom_site_fract_x
_atom_site_fract_y
_atom_site_fract_z
Si Si1 0.587572 0.313440 0.148630
Si Si2 0.510128 0.798845 0.156391
Si Si3 0.306128 0.427372 0.355073
Si Si4 0.891934 0.190218 0.283630
Si Si5 0.759791 0.433661 0.152426
Si Si6 0.158930 0.466297 0.347630
O O1 0.535340 0.305497 0.213865
O O2 0.606431 0.508689 0.135653
O O3 0.624422 0.180415 0.217150
O O4 0.580512 0.233020 0.000000
O O5 0.554697 0.746807 0.249488
O O6 0.500000 0.000000 0.173276
O O7 0.522129 0.750554 0.000000
O O8 0.301955 0.524835 0.500000
O O9 0.359654 0.355868 0.345812
O O10 0.290751 0.546990 0.228255
O O11 0.270033 0.268312 0.354900
O O12 0.866674 0.346799 0.362469
O O13 0.798285 0.530238 0.243748
O O14 0.757459 0.513003 0.000000
O O15 0.176007 0.416248 0.500000
#
# Coordination Sequence:
#
# PCOD8235656 Si02
#       6
#     8   8   8   8   8   8
#     4  10  20  32  54  87 121 160 204 250 300 360
#     4  10  18  32  54  84 124 163 203 253 309 358
#     4  10  24  44  64  90 125 160 201 256 310 374
#     4  11  21  35  58  86 119 160 205 253 307 361
#     4  10  23  41  62  89 120 158 203 249 308 371
#     4  10  20  36  57  84 122 161 199 251 307 360
#
# _framework density 22.088979999999999
#
# number of rings (size 3 to 8) (size 9 to 14) (size 15 to 20)
#    0.000    1.833    1.667    2.500    2.333    6.000 
#    0.000    0.000    0.000    3.500    0.000    0.000 
#    0.000    0.000    0.000    0.000    0.000    0.000 
#
# Total GULP energy -594634.201898 kJ/mol
# GULP energy per Si atom -12388.212540 kJ/mol
# Density = 2.203870 g / cm^3
# Si number density = 22.088980 Si / 1000 Ang^3
#
#
#
# Elastic Constant Matrix: (Units=GPa)
#
#
# Indices 1 2 3 4 5 6 
#
# 1 120.6253 35.2900 46.9216 0.0000 0.0000 0.0000
# 2 35.2900 87.0639 11.5945 0.0000 0.0000 0.0000
# 3 46.9216 11.5945 112.9016 0.0000 0.0000 0.0000
# 4 0.0000 0.0000 0.0000 14.7566 0.0000 0.0000
# 5 0.0000 0.0000 0.0000 0.0000 15.0821 0.0000
# 6 0.0000 0.0000 0.0000 0.0000 0.0000 38.9616
#
#
#
# Elastic Compliance Matrix: (Units=1/GPa)
#
#
# Indices 1 2 3 4 5 6 
#
# 1 0.011073 -0.003929 -0.004198 0.000000 0.000000 0.000000
# 2 -0.003929 0.013039 0.000294 0.000000 0.000000 0.000000
# 3 -0.004198 0.000294 0.010572 0.000000 0.000000 0.000000
# 4 0.000000 0.000000 0.000000 0.067766 0.000000 0.000000
# 5 0.000000 0.000000 0.000000 0.000000 0.066304 0.000000
# 6 0.000000 0.000000 0.000000 0.000000 0.000000 0.025666
#
#
# Mechanical properties :
#
#
# Convention : Reuss Voigt Hill
#
# Bulk Modulus (GPa) = 52.58498 56.46700 54.52599
# Shear Modulus (GPa) = 23.10257 28.87905 25.99081
#
# Velocity S-wave (km/s) = 3.23753 3.61972 3.43394
# Velocity P-wave (km/s) = 6.15086 6.56420 6.36089
#
# Compressibility (1/GPa) = 0.01901684
#
# Stress axis : x y z
#
# Youngs Moduli (GPa) = 90.31237 76.69142 94.59052
#
# Poissons Ratio (x) = 0.30132 0.39712
# Poissons Ratio (y) = 0.35484 -0.02779
# Poissons Ratio (z) = 0.37916 -0.02253
#
# Static dielectric constant tensor:
#      x y z
#    x 4.335690 0.000000 0.000000 
#    y 0.000000 3.914650 0.000000 
#    z 0.000000 0.000000 3.668230 
# 
# 
# High freq. dielectric constant tensor:
#      x y z
#    x 1.889480 0.000000 0.000000 
#    y 0.000000 1.875800 0.000000 
#    z 0.000000 0.000000 1.807720 
# 
# From -- ./inp_files/17403.got.cif
#   From: 2010.06.25/outbox.cif.g09.slc.cpg/sg58_9_cif.got.tgz:17403.got - 2010.06.26 21:38:00.
