data_PCOD8235350
_publ_section_title
;
Structure prediction by ZEFSAII (Michael W. Deem and Ramdas Pophale) SiO2 
 PCOD8235350
Probable space group: P N N M
;
_chemical_formula_sum "Si O2"
_cell_formula_units_Z 56
_cell_length_a 13.695235
_cell_length_b 8.777169
_cell_length_c 29.144433
_cell_angle_alpha 90.000000
_cell_angle_beta 90.000000
_cell_angle_gamma 90.000000
_cell_volume 3503.317996
_symmetry_space_group_name_H-M "P N N M"
_symmetry_group_IT_number 58
_symmetry_cell_setting 'orthorhombic'
loop_
_space_group_symop_operation_xyz
x,y,z
-x,-y,z
1/2+x,1/2-y,1/2-z
1/2-x,1/2+y,1/2-z
-x,-y,-z
x,y,-z
1/2-x,1/2+y,1/2+z
1/2+x,1/2-y,1/2+z
loop_
_atom_site_type_symbol
_atom_site_label
_atom_site_fract_x
_atom_site_fract_y
_atom_site_fract_z
Si Si1 0.607956 0.431580 0.000000
Si Si2 0.604216 0.928741 0.727532
Si Si3 0.895784 0.071259 0.772468
Si Si4 0.281483 0.428349 0.816942
Si Si5 0.392044 0.931580 0.000000
Si Si6 0.393869 0.069919 0.091733
Si Si7 0.106131 0.930081 0.591733
Si Si8 0.281483 0.071651 0.183058
O O1 0.500000 0.500000 0.000000
O O2 0.607991 0.250000 0.000000
O O3 0.657369 0.496096 0.046505
O O4 0.593343 0.750000 0.724349
O O5 0.642831 0.981156 0.777518
O O6 0.500000 0.000000 0.717599
O O7 0.679320 0.984657 0.688617
O O8 0.857169 0.018844 0.722482
O O9 0.820680 0.015343 0.811383
O O10 0.000000 0.000000 0.782401
O O11 0.325515 0.473663 0.865835
O O12 0.260832 0.250000 0.812844
O O13 0.500000 0.000000 0.000000
O O14 0.342631 0.996096 0.046505
O O15 0.404815 0.250000 0.085277
O O16 0.325515 0.026337 0.134165
O O17 0.500000 0.000000 0.100865
O O18 0.000000 0.000000 0.600865
#
# Coordination Sequence:
#
# PCOD8235350 Si02
#       8
#     4   8   8   8   4   8   8   8
#     4  10  18  28  42  62  89 118 149 182 220 266
#     4  10  19  31  47  66  91 120 150 186 223 261
#     4  10  19  31  47  66  91 120 150 186 223 261
#     4   9  19  32  46  66  90 119 153 185 220 263
#     4  10  18  28  42  62  89 118 149 182 220 266
#     4  10  18  29  45  65  91 120 150 184 222 264
#     4  10  18  29  45  65  91 120 150 184 222 264
#     4   9  19  32  46  66  90 119 153 185 220 263
#
# _framework density 15.984848
#
# number of rings (size 3 to 8) (size 9 to 14) (size 15 to 20)
#    0.000    2.286    0.000    5.571    0.000    3.429 
#    0.000    0.000    0.000    0.000    0.000    1.000 
#    0.000    0.000    0.000    0.000    0.000    0.000 
#
# Total GULP energy -694369.625741 kJ/mol
# GULP energy per Si atom -12399.457603 kJ/mol
# Density = 1.594847 g / cm^3
# Si number density = 15.984848 Si / 1000 Ang^3
#
#
#
# Elastic Constant Matrix: (Units=GPa)
#
#
# Indices 1 2 3 4 5 6 
#
# 1 108.2346 48.1419 61.5570 0.0000 0.0000 0.0000
# 2 48.1419 83.8365 57.1892 0.0000 0.0000 0.0000
# 3 61.5570 57.1892 139.7454 0.0000 0.0000 0.0000
# 4 0.0000 0.0000 0.0000 26.6879 0.0000 0.0000
# 5 0.0000 0.0000 0.0000 0.0000 -29.7135 0.0000
# 6 0.0000 0.0000 0.0000 0.0000 0.0000 25.8777
#
#
#
# Elastic Compliance Matrix: (Units=1/GPa)
#
#
# Indices 1 2 3 4 5 6 
#
# 1 0.013812 -0.005245 -0.003937 0.000000 0.000000 0.000000
# 2 -0.005245 0.018539 -0.005277 0.000000 0.000000 0.000000
# 3 -0.003937 -0.005277 0.011050 0.000000 0.000000 0.000000
# 4 0.000000 0.000000 0.000000 0.037470 0.000000 0.000000
# 5 0.000000 0.000000 0.000000 0.000000 -0.033655 0.000000
# 6 0.000000 0.000000 0.000000 0.000000 0.000000 0.038643
#
#
# Mechanical properties :
#
#
# Convention : Reuss Voigt Hill
#
# Bulk Modulus (GPa) = 69.04975 73.95474 71.50225
# Shear Modulus (GPa) = 41.80430 15.56564 28.68497
#
# Velocity S-wave (km/s) = 5.11949 3.12392 4.24076
# Velocity P-wave (km/s) = 8.84513 7.70570 8.29501
#
# Compressibility (1/GPa) = 0.01448231
#
# Stress axis : x y z
#
# Youngs Moduli (GPa) = 72.40329 53.93925 90.50093
#
# Poissons Ratio (x) = 0.28292 0.35633
# Poissons Ratio (y) = 0.37977 0.47753
# Poissons Ratio (z) = 0.28508 0.28461
#
# Static dielectric constant tensor:
#      x y z
#    x 2.796660 0.000000 0.000000 
#    y 0.000000 3.144190 0.000000 
#    z 0.000000 0.000000 3.493650 
# 
# 
# High freq. dielectric constant tensor:
#      x y z
#    x 1.580300 0.000000 0.000000 
#    y 0.000000 1.630020 0.000000 
#    z 0.000000 0.000000 1.616190 
# 
# From -- ./inp_files/35082.got.cif
#   From: 2010.06.25/outbox.cif.g09.slc.cpg/sg58_18_cif.got.tgz:35082.got - 2010.06.26 21:38:00.
