data_PCOD8235312
_publ_section_title
;
Structure prediction by ZEFSAII (Michael W. Deem and Ramdas Pophale) SiO2 
 PCOD8235312
Probable space group: P N N M
;
_chemical_formula_sum "Si O2"
_cell_formula_units_Z 64
_cell_length_a 11.620256
_cell_length_b 9.645130
_cell_length_c 28.474806
_cell_angle_alpha 90.000000
_cell_angle_beta 90.000000
_cell_angle_gamma 90.000000
_cell_volume 3191.424358
_symmetry_space_group_name_H-M "P N N M"
_symmetry_group_IT_number 58
_symmetry_cell_setting 'orthorhombic'
loop_
_space_group_symop_operation_xyz
x,y,z
-x,-y,z
1/2+x,1/2-y,1/2-z
1/2-x,1/2+y,1/2-z
-x,-y,-z
x,y,-z
1/2-x,1/2+y,1/2+z
1/2+x,1/2-y,1/2+z
loop_
_atom_site_type_symbol
_atom_site_label
_atom_site_fract_x
_atom_site_fract_y
_atom_site_fract_z
Si Si1 0.031583 0.346689 0.050299
Si Si2 0.742115 0.562507 0.073698
Si Si3 0.424664 0.363330 0.793851
Si Si4 0.916565 0.130531 0.890337
Si Si5 0.980550 0.162466 0.395057
Si Si6 0.204343 0.252458 0.446002
Si Si7 0.452762 0.215753 0.301299
Si Si8 0.679828 0.059500 0.320186
O O1 0.168907 0.342564 0.045404
O O2 0.000000 0.500000 0.065544
O O3 0.991552 0.258077 0.093069
O O4 0.976302 0.301691 0.000000
O O5 0.627421 0.656847 0.069231
O O6 0.742288 0.408153 0.051663
O O7 0.776148 0.541539 0.127347
O O8 0.500000 0.500000 0.788835
O O9 0.451487 0.280647 0.842848
O O10 0.459329 0.262176 0.752153
O O11 0.289391 0.398368 0.788825
O O12 0.794443 0.143244 0.918844
O O13 0.903433 0.158798 0.834576
O O14 0.000000 0.000000 0.901434
O O15 0.082726 0.252978 0.417966
O O16 0.000000 0.000000 0.386618
O O17 0.190075 0.304876 0.500000
O O18 0.581866 0.176301 0.316914
O O19 0.366421 0.087465 0.302850
#
# Coordination Sequence:
#
# PCOD8235312 Si02
#       8
#     8   8   8   8   8   8   8   8
#     4  11  20  33  57  85 116 157 202 251 306 364
#     4  10  17  35  58  87 117 150 206 255 305 358
#     4  10  22  37  60  90 121 157 197 254 313 367
#     4  12  25  39  57  88 124 164 205 255 310 375
#     4   8  19  35  56  85 120 153 196 256 312 360
#     4  11  21  35  60  88 124 162 201 256 317 378
#     4  11  22  39  62  86 119 166 209 252 307 374
#     4  10  21  38  62  87 119 164 198 255 315 367
#
# _framework density 20.053740999999999
#
# number of rings (size 3 to 8) (size 9 to 14) (size 15 to 20)
#    0.000    1.625    3.750    1.875    1.750    3.750 
#    0.000    0.000    0.000    0.750    0.000    1.750 
#    0.000    0.000    0.000    0.000    0.000    0.000 
#
# Total GULP energy -792838.118439 kJ/mol
# GULP energy per Si atom -12388.095601 kJ/mol
# Density = 2.000810 g / cm^3
# Si number density = 20.053741 Si / 1000 Ang^3
#
#
#
# Elastic Constant Matrix: (Units=GPa)
#
#
# Indices 1 2 3 4 5 6 
#
# 1 136.3155 27.9939 31.6104 0.0000 0.0000 0.0000
# 2 27.9939 38.2017 30.0226 0.0000 0.0000 0.0000
# 3 31.6104 30.0226 101.7262 0.0000 0.0000 0.0000
# 4 0.0000 0.0000 0.0000 26.5049 0.0000 0.0000
# 5 0.0000 0.0000 0.0000 0.0000 26.2265 0.0000
# 6 0.0000 0.0000 0.0000 0.0000 0.0000 28.5241
#
#
#
# Elastic Compliance Matrix: (Units=1/GPa)
#
#
# Indices 1 2 3 4 5 6 
#
# 1 0.008724 -0.005550 -0.001073 0.000000 0.000000 0.000000
# 2 -0.005550 0.037612 -0.009376 0.000000 0.000000 0.000000
# 3 -0.001073 -0.009376 0.012931 0.000000 0.000000 0.000000
# 4 0.000000 0.000000 0.000000 0.037729 0.000000 0.000000
# 5 0.000000 0.000000 0.000000 0.000000 0.038129 0.000000
# 6 0.000000 0.000000 0.000000 0.000000 0.000000 0.035058
#
#
# Mechanical properties :
#
#
# Convention : Reuss Voigt Hill
#
# Bulk Modulus (GPa) = 36.67067 50.61079 43.64073
# Shear Modulus (GPa) = 23.66616 28.69220 26.17918
#
# Velocity S-wave (km/s) = 3.43904 3.78665 3.61702
# Velocity P-wave (km/s) = 5.83911 6.66413 6.26522
#
# Compressibility (1/GPa) = 0.02726975
#
# Stress axis : x y z
#
# Youngs Moduli (GPa) = 114.61978 26.58699 77.33394
#
# Poissons Ratio (x) = 0.14756 0.08299
# Poissons Ratio (y) = 0.63613 0.72509
# Poissons Ratio (z) = 0.12300 0.24928
#
# Static dielectric constant tensor:
#      x y z
#    x 1.837280 0.000000 0.000000 
#    y 0.000000 3.121070 0.000000 
#    z 0.000000 0.000000 3.790080 
# 
# 
# High freq. dielectric constant tensor:
#      x y z
#    x 1.800990 0.000000 0.000000 
#    y 0.000000 1.728210 0.000000 
#    z 0.000000 0.000000 1.794440 
# 
# From -- ./inp_files/34960.got.cif
#   From: 2010.06.25/outbox.cif.g09.slc.cpg/sg58_18_cif.got.tgz:34960.got - 2010.06.26 21:38:00.
