data_PCOD8235754
_publ_section_title
;
Structure prediction by ZEFSAII (Michael W. Deem and Ramdas Pophale) SiO2 
 PCOD8235754
Probable space group: P N N M
;
_chemical_formula_sum "Si O2"
_cell_formula_units_Z 64
_cell_length_a 23.906437
_cell_length_b 15.413114
_cell_length_c 8.907081
_cell_angle_alpha 90.000000
_cell_angle_beta 90.000000
_cell_angle_gamma 90.000000
_cell_volume 3282.015640
_symmetry_space_group_name_H-M "P N N M"
_symmetry_group_IT_number 58
_symmetry_cell_setting 'orthorhombic'
loop_
_space_group_symop_operation_xyz
x,y,z
-x,-y,z
1/2+x,1/2-y,1/2-z
1/2-x,1/2+y,1/2-z
-x,-y,-z
x,y,-z
1/2-x,1/2+y,1/2+z
1/2+x,1/2-y,1/2+z
loop_
_atom_site_type_symbol
_atom_site_label
_atom_site_fract_x
_atom_site_fract_y
_atom_site_fract_z
Si Si1 0.369431 0.919297 0.177728
Si Si2 0.752235 0.647402 0.322238
Si Si3 0.860228 0.895138 0.174803
Si Si4 0.555003 0.739684 0.678317
Si Si5 0.126862 0.596600 0.176473
Si Si6 0.365702 0.410786 0.675359
Si Si7 0.750432 0.846908 0.323454
Si Si8 0.934965 0.750711 0.677194
O O1 0.306985 0.901340 0.242188
O O2 0.409756 0.841257 0.229017
O O3 0.393249 0.007947 0.246457
O O4 0.368797 0.927302 0.000000
O O5 0.752684 0.638973 0.500000
O O6 0.695777 0.605863 0.252760
O O7 0.755061 0.747265 0.275117
O O8 0.795893 0.899109 0.227207
O O9 0.893799 0.826931 0.273061
O O10 0.885699 0.990948 0.204464
O O11 0.863967 0.870495 0.000000
O O12 0.549693 0.736377 0.500000
O O13 0.586615 0.826376 0.732297
O O14 0.588952 0.656312 0.741515
O O15 0.494178 0.735997 0.747324
O O16 0.190016 0.617955 0.224551
O O17 0.121886 0.585368 0.000000
O O18 0.359862 0.390559 0.500000
O O19 0.761638 0.859198 0.500000
O O20 0.941306 0.755348 0.500000
#
# Coordination Sequence:
#
# PCOD8235754 Si02
#       8
#     8   8   8   8   8   8   8   8
#     4  10  21  37  59  82 112 153 191 230 280 345
#     4   9  15  31  58  83 110 150 188 219 268 342
#     4  11  22  36  59  89 117 148 191 239 279 333
#     4  10  21  40  62  83 110 149 195 240 284 336
#     4  10  21  36  60  89 117 149 186 235 287 335
#     4   9  18  34  59  86 112 147 190 228 276 341
#     4  10  18  34  59  86 119 154 185 223 283 347
#     4  11  24  42  60  80 111 154 196 238 291 342
#
# _framework density 19.500212000000001
#
# number of rings (size 3 to 8) (size 9 to 14) (size 15 to 20)
#    0.000    2.000    2.500    1.500    0.000    4.000 
#    0.000    6.250    0.000    1.500    0.000    0.000 
#    0.000    0.000    0.000    0.000    0.000    0.000 
#
# Total GULP energy -793662.427336 kJ/mol
# GULP energy per Si atom -12400.975427 kJ/mol
# Density = 1.945583 g / cm^3
# Si number density = 19.500212 Si / 1000 Ang^3
#
#
#
# Elastic Constant Matrix: (Units=GPa)
#
#
# Indices 1 2 3 4 5 6 
#
# 1 75.0119 9.7732 2.8626 0.0000 0.0000 0.0000
# 2 9.7732 86.4961 15.5493 0.0000 0.0000 0.0000
# 3 2.8626 15.5493 12.4751 0.0000 0.0000 0.0000
# 4 0.0000 0.0000 0.0000 22.7914 0.0000 0.0000
# 5 0.0000 0.0000 0.0000 0.0000 28.4343 0.0000
# 6 0.0000 0.0000 0.0000 0.0000 0.0000 14.1740
#
#
#
# Elastic Compliance Matrix: (Units=1/GPa)
#
#
# Indices 1 2 3 4 5 6 
#
# 1 0.013554 -0.001253 -0.001548 0.000000 0.000000 0.000000
# 2 -0.001253 0.015016 -0.018428 0.000000 0.000000 0.000000
# 3 -0.001548 -0.018428 0.103484 0.000000 0.000000 0.000000
# 4 0.000000 0.000000 0.000000 0.043876 0.000000 0.000000
# 5 0.000000 0.000000 0.000000 0.000000 0.035169 0.000000
# 6 0.000000 0.000000 0.000000 0.000000 0.000000 0.070552
#
#
# Mechanical properties :
#
#
# Convention : Reuss Voigt Hill
#
# Bulk Modulus (GPa) = 11.16142 25.59480 18.37811
# Shear Modulus (GPa) = 14.12533 22.79980 18.46257
#
# Velocity S-wave (km/s) = 2.69433 3.42308 3.08033
# Velocity P-wave (km/s) = 3.92624 5.36444 4.70067
#
# Compressibility (1/GPa) = 0.08959431
#
# Stress axis : x y z
#
# Youngs Moduli (GPa) = 73.78129 66.59725 9.66332
#
# Poissons Ratio (x) = 0.08345 0.01496
# Poissons Ratio (y) = 0.09246 0.17808
# Poissons Ratio (z) = 0.11422 1.22727
#
# Static dielectric constant tensor:
#      x y z
#    x 3.673180 0.000000 0.000000 
#    y 0.000000 3.719970 0.000000 
#    z 0.000000 0.000000 3.172170 
# 
# 
# High freq. dielectric constant tensor:
#      x y z
#    x 1.762480 0.000000 0.000000 
#    y 0.000000 1.774910 0.000000 
#    z 0.000000 0.000000 1.725590 
# 
# From -- ./inp_files/6818.got.cif
#   From: 2010.06.25/outbox.cif.g09.slc.cpg/sg58_4_cif.got.tgz:6818.got - 2010.06.26 21:38:00.
