data_PCOD8235246
_publ_section_title
;
Structure prediction by ZEFSAII (Michael W. Deem and Ramdas Pophale) SiO2 
 PCOD8235246
Probable space group: P N N M
;
_chemical_formula_sum "Si O2"
_cell_formula_units_Z 56
_cell_length_a 22.658902
_cell_length_b 17.768657
_cell_length_c 8.683191
_cell_angle_alpha 90.000000
_cell_angle_beta 90.000000
_cell_angle_gamma 90.000000
_cell_volume 3496.011231
_symmetry_space_group_name_H-M "P N N M"
_symmetry_group_IT_number 58
_symmetry_cell_setting 'orthorhombic'
loop_
_space_group_symop_operation_xyz
x,y,z
-x,-y,z
1/2+x,1/2-y,1/2-z
1/2-x,1/2+y,1/2-z
-x,-y,-z
x,y,-z
1/2-x,1/2+y,1/2+z
1/2+x,1/2-y,1/2+z
loop_
_atom_site_type_symbol
_atom_site_label
_atom_site_fract_x
_atom_site_fract_y
_atom_site_fract_z
Si Si1 0.684825 0.279120 0.820616
Si Si2 0.693510 0.733592 0.821231
Si Si3 0.066165 0.498267 0.183273
Si Si4 0.847062 0.373051 0.817772
Si Si5 0.149258 0.366985 0.819247
Si Si6 0.278466 0.426817 0.823665
Si Si7 0.276232 0.578774 0.679642
O O1 0.750936 0.253057 0.784510
O O2 0.640365 0.214365 0.760815
O O3 0.675439 0.359513 0.735348
O O4 0.675008 0.291243 0.000000
O O5 0.642718 0.791383 0.764627
O O6 0.678009 0.645306 0.797283
O O7 0.709688 0.747860 0.000000
O O8 0.100586 0.572589 0.239720
O O9 0.098917 0.423195 0.243695
O O10 0.000000 0.500000 0.250804
O O11 0.065821 0.496500 0.000000
O O12 0.785109 0.409953 0.769662
O O13 0.848286 0.362515 0.000000
O O14 0.212369 0.402762 0.777009
O O15 0.144274 0.353756 0.000000
O O16 0.300475 0.495400 0.717888
O O17 0.280240 0.453644 0.000000
O O18 0.264846 0.587647 0.500000
#
# Coordination Sequence:
#
# PCOD8235246 Si02
#       7
#     8   8   8   8   8   8   8
#     4  10  18  27  40  58  81 109 142 173 209 255
#     4   9  17  28  41  58  81 110 141 172 210 255
#     4   9  17  29  46  65  84 113 151 185 216 250
#     4  10  17  28  43  59  82 111 144 180 214 248
#     4   9  16  29  44  58  82 111 143 180 215 249
#     4   9  16  27  41  59  83 112 141 172 209 249
#     4  11  19  26  40  61  85 112 142 172 209 255
#
# _framework density 16.018256999999998
#
# number of rings (size 3 to 8) (size 9 to 14) (size 15 to 20)
#    0.000    2.429    1.429    6.000    0.000    2.857 
#    0.000    0.000    0.000    3.857    0.000    0.000 
#    0.000    1.143    0.000   13.143    0.000    3.286 
#
# Total GULP energy -694009.101121 kJ/mol
# GULP energy per Si atom -12393.019663 kJ/mol
# Density = 1.598180 g / cm^3
# Si number density = 16.018257 Si / 1000 Ang^3
#
#
#
# Elastic Constant Matrix: (Units=GPa)
#
#
# Indices 1 2 3 4 5 6 
#
# 1 51.8114 46.0935 11.0735 0.0000 0.0000 0.0000
# 2 46.0935 163.2012 43.0349 0.0000 0.0000 0.0000
# 3 11.0735 43.0349 55.8073 0.0000 0.0000 0.0000
# 4 0.0000 0.0000 0.0000 31.1966 0.0000 0.0000
# 5 0.0000 0.0000 0.0000 0.0000 8.8919 0.0000
# 6 0.0000 0.0000 0.0000 0.0000 0.0000 17.3864
#
#
#
# Elastic Compliance Matrix: (Units=1/GPa)
#
#
# Indices 1 2 3 4 5 6 
#
# 1 0.025795 -0.007451 0.000627 0.000000 0.000000 0.000000
# 2 -0.007451 0.009844 -0.006112 0.000000 0.000000 0.000000
# 3 0.000627 -0.006112 0.022508 0.000000 0.000000 0.000000
# 4 0.000000 0.000000 0.000000 0.032055 0.000000 0.000000
# 5 0.000000 0.000000 0.000000 0.000000 0.112462 0.000000
# 6 0.000000 0.000000 0.000000 0.000000 0.000000 0.057516
#
#
# Mechanical properties :
#
#
# Convention : Reuss Voigt Hill
#
# Bulk Modulus (GPa) = 30.98401 52.35819 41.67110
# Shear Modulus (GPa) = 16.84579 22.86950 19.85765
#
# Velocity S-wave (km/s) = 3.24645 3.78261 3.52474
# Velocity P-wave (km/s) = 5.78252 7.19966 6.52965
#
# Compressibility (1/GPa) = 0.03227471
#
# Stress axis : x y z
#
# Youngs Moduli (GPa) = 38.76679 101.58961 44.42922
#
# Poissons Ratio (x) = 0.75693 -0.02787
# Poissons Ratio (y) = 0.28885 0.27156
# Poissons Ratio (z) = -0.02431 0.62094
#
# Static dielectric constant tensor:
#      x y z
#    x 2.659180 0.000000 0.000000 
#    y 0.000000 3.683340 0.000000 
#    z 0.000000 0.000000 2.928570 
# 
# 
# High freq. dielectric constant tensor:
#      x y z
#    x 1.533520 0.000000 0.000000 
#    y 0.000000 1.639460 0.000000 
#    z 0.000000 0.000000 1.613060 
# 
# From -- ./inp_files/10120.got.cif
#   From: 2010.06.25/outbox.cif.g09.slc.cpg/sg58_6_cif.got.tgz:10120.got - 2010.06.26 21:38:00.
