data_PCOD8235974
_publ_section_title
;
Structure prediction by ZEFSAII (Michael W. Deem and Ramdas Pophale) SiO2 
 PCOD8235974
Probable space group: P N N M
;
_chemical_formula_sum "Si O2"
_cell_formula_units_Z 64
_cell_length_a 12.115632
_cell_length_b 29.226270
_cell_length_c 9.129714
_cell_angle_alpha 90.000000
_cell_angle_beta 90.000000
_cell_angle_gamma 90.000000
_cell_volume 3232.783633
_symmetry_space_group_name_H-M "P N N M"
_symmetry_group_IT_number 58
_symmetry_cell_setting 'orthorhombic'
loop_
_space_group_symop_operation_xyz
x,y,z
-x,-y,z
1/2+x,1/2-y,1/2-z
1/2-x,1/2+y,1/2-z
-x,-y,-z
x,y,-z
1/2-x,1/2+y,1/2+z
1/2+x,1/2-y,1/2+z
loop_
_atom_site_type_symbol
_atom_site_label
_atom_site_fract_x
_atom_site_fract_y
_atom_site_fract_z
Si Si1 0.041485 0.226896 0.331536
Si Si2 0.651085 0.109784 0.669025
Si Si3 0.477233 0.183909 0.327880
Si Si4 0.116850 0.850564 0.666425
Si Si5 0.026237 0.931747 0.168372
Si Si6 0.736182 0.025214 0.831198
Si Si7 0.810514 0.941908 0.673997
Si Si8 0.264735 0.660819 0.826115
O O1 0.064934 0.238629 0.500000
O O2 0.039936 0.273811 0.244227
O O3 0.139022 0.194384 0.268674
O O4 0.922939 0.201644 0.312164
O O5 0.650564 0.094778 0.500000
O O6 0.541273 0.137227 0.712158
O O7 0.753912 0.143908 0.701369
O O8 0.655763 0.063888 0.765166
O O9 0.479499 0.192430 0.500000
O O10 0.352776 0.179286 0.267781
O O11 0.090151 0.866613 0.500000
O O12 0.043440 0.880259 0.776212
O O13 0.931055 0.955330 0.264255
O O14 0.138301 0.959288 0.190351
O O15 0.988375 0.931512 0.000000
O O16 0.722198 0.977544 0.743313
O O17 0.704599 0.017982 0.000000
O O18 0.807939 0.946612 0.500000
O O19 0.781673 0.890949 0.730343
O O20 0.266195 0.659402 0.000000
#
# Coordination Sequence:
#
# PCOD8235974 Si02
#       8
#     8   8   8   8   8   8   8   8
#     4  10  20  36  57  81 112 145 180 225 281 336
#     4   9  19  36  57  80 108 144 188 232 271 323
#     4  10  22  39  59  82 109 143 188 234 273 325
#     4   9  17  32  53  77 107 142 179 220 268 324
#     4  10  19  31  49  78 115 146 176 224 278 326
#     4  10  21  35  53  81 115 147 184 231 283 335
#     4  11  20  34  56  79 109 152 192 228 277 332
#     4   9  20  39  58  80 112 148 185 227 275 331
#
# _framework density 19.797180000000001
#
# number of rings (size 3 to 8) (size 9 to 14) (size 15 to 20)
#    0.000    2.250    1.250    1.500    1.750    4.000 
#    0.000    1.875    0.000    3.750    0.000    0.000 
#    0.000    0.000    0.000    0.000    0.000    0.000 
#
# Total GULP energy -793570.231069 kJ/mol
# GULP energy per Si atom -12399.534860 kJ/mol
# Density = 1.975212 g / cm^3
# Si number density = 19.797180 Si / 1000 Ang^3
#
#
#
# Elastic Constant Matrix: (Units=GPa)
#
#
# Indices 1 2 3 4 5 6 
#
# 1 70.8381 27.5680 16.0851 0.0000 0.0000 0.0000
# 2 27.5680 108.5047 41.9917 0.0000 0.0000 0.0000
# 3 16.0851 41.9917 67.5253 0.0000 0.0000 0.0000
# 4 0.0000 0.0000 0.0000 33.7902 0.0000 0.0000
# 5 0.0000 0.0000 0.0000 0.0000 16.8241 0.0000
# 6 0.0000 0.0000 0.0000 0.0000 0.0000 18.3843
#
#
#
# Elastic Compliance Matrix: (Units=1/GPa)
#
#
# Indices 1 2 3 4 5 6 
#
# 1 0.015807 -0.003370 -0.001670 0.000000 0.000000 0.000000
# 2 -0.003370 0.012856 -0.007192 0.000000 0.000000 0.000000
# 3 -0.001670 -0.007192 0.019679 0.000000 0.000000 0.000000
# 4 0.000000 0.000000 0.000000 0.029594 0.000000 0.000000
# 5 0.000000 0.000000 0.000000 0.000000 0.059438 0.000000
# 6 0.000000 0.000000 0.000000 0.000000 0.000000 0.054394
#
#
# Mechanical properties :
#
#
# Convention : Reuss Voigt Hill
#
# Bulk Modulus (GPa) = 41.87725 46.46199 44.16962
# Shear Modulus (GPa) = 22.30230 24.54794 23.42512
#
# Velocity S-wave (km/s) = 3.36004 3.52514 3.44358
# Velocity P-wave (km/s) = 6.02098 6.33157 6.17823
#
# Compressibility (1/GPa) = 0.02387931
#
# Stress axis : x y z
#
# Youngs Moduli (GPa) = 63.26171 77.78692 50.81481
#
# Poissons Ratio (x) = 0.26214 0.08485
# Poissons Ratio (y) = 0.21319 0.36545
# Poissons Ratio (z) = 0.10563 0.55942
#
# Static dielectric constant tensor:
#      x y z
#    x 3.585260 0.000000 0.000000 
#    y 0.000000 3.579330 0.000000 
#    z 0.000000 0.000000 3.440970 
# 
# 
# High freq. dielectric constant tensor:
#      x y z
#    x 1.756910 0.000000 0.000000 
#    y 0.000000 1.774120 0.000000 
#    z 0.000000 0.000000 1.754640 
# 
# From -- ./inp_files/4729.got.cif
#   From: 2010.06.25/outbox.cif.g09.slc.cpg/sg58_3_cif.got.tgz:4729.got - 2010.06.26 21:38:00.
