data_PCOD8235254
_publ_section_title
;
Structure prediction by ZEFSAII (Michael W. Deem and Ramdas Pophale) SiO2 
 PCOD8235254
Probable space group: P N N M
;
_chemical_formula_sum "Si O2"
_cell_formula_units_Z 64
_cell_length_a 17.073327
_cell_length_b 22.327965
_cell_length_c 9.344465
_cell_angle_alpha 90.000000
_cell_angle_beta 90.000000
_cell_angle_gamma 90.000000
_cell_volume 3562.228244
_symmetry_space_group_name_H-M "P N N M"
_symmetry_group_IT_number 58
_symmetry_cell_setting 'orthorhombic'
loop_
_space_group_symop_operation_xyz
x,y,z
-x,-y,z
1/2+x,1/2-y,1/2-z
1/2-x,1/2+y,1/2-z
-x,-y,-z
x,y,-z
1/2-x,1/2+y,1/2+z
1/2+x,1/2-y,1/2+z
loop_
_atom_site_type_symbol
_atom_site_label
_atom_site_fract_x
_atom_site_fract_y
_atom_site_fract_z
Si Si1 0.578106 0.871599 0.164184
Si Si2 0.191783 0.140793 0.835581
Si Si3 0.727880 0.097061 0.172028
Si Si4 0.962727 0.796401 0.167223
Si Si5 0.585363 0.177436 0.165844
Si Si6 0.201810 0.534138 0.332584
Si Si7 0.872528 0.164802 0.158817
Si Si8 0.312632 0.206382 0.340794
O O1 0.484676 0.871580 0.183429
O O2 0.611113 0.817972 0.259890
O O3 0.619823 0.933874 0.212984
O O4 0.601794 0.858953 0.000000
O O5 0.233257 0.191552 0.742034
O O6 0.098950 0.149029 0.813783
O O7 0.223887 0.075593 0.786446
O O8 0.215510 0.151506 0.000000
O O9 0.662365 0.144181 0.225945
O O10 0.709004 0.031473 0.238268
O O11 0.814949 0.115396 0.230700
O O12 0.727737 0.097544 0.000000
O O13 0.044402 0.821073 0.236439
O O14 0.932419 0.737266 0.246044
O O15 0.974697 0.779517 0.000000
O O16 0.594497 0.195968 0.000000
O O17 0.203208 0.523221 0.500000
O O18 0.817932 0.222799 0.151770
O O19 0.894695 0.142489 0.000000
O O20 0.309512 0.178626 0.500000
#
# Coordination Sequence:
#
# PCOD8235254 Si02
#       8
#     8   8   8   8   8   8   8   8
#     4   9  17  29  46  71  99 124 153 192 234 280
#     4   9  18  31  48  69  93 122 157 195 235 278
#     4   9  17  29  46  69  96 124 157 200 237 274
#     4  10  19  32  48  69  99 128 153 192 241 287
#     4  10  19  30  48  74 100 123 156 198 236 281
#     4   8  15  29  46  65  93 126 159 193 235 279
#     4   9  17  28  43  66  95 124 154 190 236 281
#     4  10  17  28  48  70  94 123 155 188 234 286
#
# _framework density 17.966283000000001
#
# number of rings (size 3 to 8) (size 9 to 14) (size 15 to 20)
#    0.000    2.750    1.250    1.875    0.000    2.000 
#    0.000    3.125    0.000    6.750    0.000    4.375 
#    0.000    5.000    0.000    0.000    0.000    0.000 
#
# Total GULP energy -792959.237543 kJ/mol
# GULP energy per Si atom -12389.988087 kJ/mol
# Density = 1.792539 g / cm^3
# Si number density = 17.966283 Si / 1000 Ang^3
#
#
#
# Elastic Constant Matrix: (Units=GPa)
#
#
# Indices 1 2 3 4 5 6 
#
# 1 131.6208 55.9120 19.3438 0.0000 0.0000 0.0000
# 2 55.9120 81.0543 13.3214 0.0000 0.0000 0.0000
# 3 19.3438 13.3214 39.0887 0.0000 0.0000 0.0000
# 4 0.0000 0.0000 0.0000 15.2438 0.0000 0.0000
# 5 0.0000 0.0000 0.0000 0.0000 16.1098 0.0000
# 6 0.0000 0.0000 0.0000 0.0000 0.0000 23.8210
#
#
#
# Elastic Compliance Matrix: (Units=1/GPa)
#
#
# Indices 1 2 3 4 5 6 
#
# 1 0.011079 -0.007142 -0.003049 0.000000 0.000000 0.000000
# 2 -0.007142 0.017673 -0.002489 0.000000 0.000000 0.000000
# 3 -0.003049 -0.002489 0.027940 0.000000 0.000000 0.000000
# 4 0.000000 0.000000 0.000000 0.065600 0.000000 0.000000
# 5 0.000000 0.000000 0.000000 0.000000 0.062074 0.000000
# 6 0.000000 0.000000 0.000000 0.000000 0.000000 0.041980
#
#
# Mechanical properties :
#
#
# Convention : Reuss Voigt Hill
#
# Bulk Modulus (GPa) = 31.91479 47.65756 39.78617
# Shear Modulus (GPa) = 19.07311 21.91403 20.49357
#
# Velocity S-wave (km/s) = 3.26176 3.49625 3.38104
# Velocity P-wave (km/s) = 5.65577 6.54844 6.11841
#
# Compressibility (1/GPa) = 0.03133344
#
# Stress axis : x y z
#
# Youngs Moduli (GPa) = 90.25777 56.58431 35.79112
#
# Poissons Ratio (x) = 0.40410 0.10913
# Poissons Ratio (y) = 0.64458 0.08907
# Poissons Ratio (z) = 0.27520 0.14082
#
# Static dielectric constant tensor:
#      x y z
#    x 3.600530 0.000000 0.000000 
#    y 0.000000 3.319040 0.000000 
#    z 0.000000 0.000000 3.022940 
# 
# 
# High freq. dielectric constant tensor:
#      x y z
#    x 1.708130 0.000000 0.000000 
#    y 0.000000 1.678700 0.000000 
#    z 0.000000 0.000000 1.649920 
# 
# From -- ./inp_files/8270.got.cif
#   From: 2010.06.25/outbox.cif.g09.slc.cpg/sg58_5_cif.got.tgz:8270.got - 2010.06.26 21:38:00.
