data_PCOD8235758
_publ_section_title
;
Structure prediction by ZEFSAII (Michael W. Deem and Ramdas Pophale) SiO2 
 PCOD8235758
Probable space group: P N N M
;
_chemical_formula_sum "Si O2"
_cell_formula_units_Z 36
_cell_length_a 6.682742
_cell_length_b 14.999840
_cell_length_c 17.492896
_cell_angle_alpha 90.000000
_cell_angle_beta 90.000000
_cell_angle_gamma 90.000000
_cell_volume 1753.488958
_symmetry_space_group_name_H-M "P N N M"
_symmetry_group_IT_number 58
_symmetry_cell_setting 'orthorhombic'
loop_
_space_group_symop_operation_xyz
x,y,z
-x,-y,z
1/2+x,1/2-y,1/2-z
1/2-x,1/2+y,1/2-z
-x,-y,-z
x,y,-z
1/2-x,1/2+y,1/2+z
1/2+x,1/2-y,1/2+z
loop_
_atom_site_type_symbol
_atom_site_label
_atom_site_fract_x
_atom_site_fract_y
_atom_site_fract_z
Si Si1 0.000000 0.000000 0.687864
Si Si2 0.661448 0.345180 0.912688
Si Si3 0.973355 0.200207 0.087808
Si Si4 0.757136 0.628367 0.286020
Si Si5 0.373572 0.219673 0.824122
O O1 0.866454 0.933543 0.637452
O O2 0.172005 0.954139 0.738671
O O3 0.501239 0.272723 0.886406
O O4 0.883254 0.301316 0.905216
O O5 0.617158 0.371189 0.000000
O O6 0.179014 0.187247 0.132462
O O7 0.826504 0.128244 0.127360
O O8 0.000766 0.173149 0.000000
O O9 0.682952 0.721299 0.248837
O O10 0.999906 0.634094 0.291816
#
# Coordination Sequence:
#
# PCOD8235758 Si02
#       5
#     4   8   8   8   8
#     4  10  21  36  59  92 128 158 188 246 307 370
#     4   9  19  35  57  88 124 155 188 240 307 369
#     4  10  20  36  60  86 113 154 207 252 290 346
#     4  10  20  35  58  85 117 154 201 243 296 352
#     4  10  18  34  60  83 111 158 204 246 286 354
#
# _framework density 20.530498000000001
#
# number of rings (size 3 to 8) (size 9 to 14) (size 15 to 20)
#    0.000    2.222    2.222    1.000    0.000    0.889 
#    0.000   10.556    0.000   13.333    0.000    0.000 
#    0.000    0.000    0.000    0.000    0.000    0.000 
#
# Total GULP energy -446149.740910 kJ/mol
# GULP energy per Si atom -12393.048359 kJ/mol
# Density = 2.048377 g / cm^3
# Si number density = 20.530498 Si / 1000 Ang^3
#
#
#
# Elastic Constant Matrix: (Units=GPa)
#
#
# Indices 1 2 3 4 5 6 
#
# 1 104.6456 11.5149 27.9227 0.0000 0.0000 0.0000
# 2 11.5149 42.5176 26.9215 0.0000 0.0000 0.0000
# 3 27.9227 26.9215 112.3351 0.0000 0.0000 0.0000
# 4 0.0000 0.0000 0.0000 19.9684 0.0000 0.0000
# 5 0.0000 0.0000 0.0000 0.0000 34.5681 0.0000
# 6 0.0000 0.0000 0.0000 0.0000 0.0000 19.7980
#
#
#
# Elastic Compliance Matrix: (Units=1/GPa)
#
#
# Indices 1 2 3 4 5 6 
#
# 1 0.010303 -0.001378 -0.002231 0.000000 0.000000 0.000000
# 2 -0.001378 0.027911 -0.006347 0.000000 0.000000 0.000000
# 3 -0.002231 -0.006347 0.010977 0.000000 0.000000 0.000000
# 4 0.000000 0.000000 0.000000 0.050079 0.000000 0.000000
# 5 0.000000 0.000000 0.000000 0.000000 0.028928 0.000000
# 6 0.000000 0.000000 0.000000 0.000000 0.000000 0.050510
#
#
# Mechanical properties :
#
#
# Convention : Reuss Voigt Hill
#
# Bulk Modulus (GPa) = 34.15135 43.57960 38.86547
# Shear Modulus (GPa) = 23.99459 27.74283 25.86871
#
# Velocity S-wave (km/s) = 3.42238 3.67999 3.55352
# Velocity P-wave (km/s) = 5.68220 6.27130 5.98401
#
# Compressibility (1/GPa) = 0.02928142
#
# Stress axis : x y z
#
# Youngs Moduli (GPa) = 97.05991 35.82766 91.09625
#
# Poissons Ratio (x) = 0.04936 0.20321
# Poissons Ratio (y) = 0.13373 0.57815
# Poissons Ratio (z) = 0.21652 0.22738
#
# Static dielectric constant tensor:
#      x y z
#    x 3.989490 0.000000 0.000000 
#    y 0.000000 3.352750 0.000000 
#    z 0.000000 0.000000 3.961930 
# 
# 
# High freq. dielectric constant tensor:
#      x y z
#    x 1.810100 0.000000 0.000000 
#    y 0.000000 1.756960 0.000000 
#    z 0.000000 0.000000 1.822340 
# 
# From -- ./inp_files/27999.got.cif
#   From: 2010.06.25/outbox.cif.g09.slc.cpg/sg58_14_cif.got.tgz:27999.got - 2010.06.26 21:38:00.
