data_PCOD8235331
_publ_section_title
;
Structure prediction by ZEFSAII (Michael W. Deem and Ramdas Pophale) SiO2 
 PCOD8235331
Probable space group: P N N M
;
_chemical_formula_sum "Si O2"
_cell_formula_units_Z 64
_cell_length_a 26.839230
_cell_length_b 18.322572
_cell_length_c 8.881611
_cell_angle_alpha 90.000000
_cell_angle_beta 90.000000
_cell_angle_gamma 90.000000
_cell_volume 4367.654101
_symmetry_space_group_name_H-M "P N N M"
_symmetry_group_IT_number 58
_symmetry_cell_setting 'orthorhombic'
loop_
_space_group_symop_operation_xyz
x,y,z
-x,-y,z
1/2+x,1/2-y,1/2-z
1/2-x,1/2+y,1/2-z
-x,-y,-z
x,y,-z
1/2-x,1/2+y,1/2+z
1/2+x,1/2-y,1/2+z
loop_
_atom_site_type_symbol
_atom_site_label
_atom_site_fract_x
_atom_site_fract_y
_atom_site_fract_z
Si Si1 0.053690 0.418425 0.321760
Si Si2 0.646730 0.834177 0.323439
Si Si3 0.647807 0.161602 0.825621
Si Si4 0.252371 0.916155 0.822747
Si Si5 0.211005 0.211066 0.327993
Si Si6 0.201233 0.790015 0.324045
Si Si7 0.942918 0.415820 0.677976
Si Si8 0.241529 0.567680 0.828440
O O1 0.051198 0.413817 0.500000
O O2 0.095777 0.364428 0.250276
O O3 0.068055 0.500669 0.275410
O O4 0.998751 0.395944 0.264452
O O5 0.644152 0.822335 0.500000
O O6 0.655500 0.754998 0.248080
O O7 0.594612 0.863881 0.264622
O O8 0.690999 0.890481 0.280985
O O9 0.694757 0.115494 0.762691
O O10 0.657595 0.248886 0.799876
O O11 0.642687 0.142686 0.000000
O O12 0.207114 0.870978 0.746771
O O13 0.248424 0.000642 0.780546
O O14 0.247426 0.907398 0.000000
O O15 0.228970 0.229721 0.500000
O O16 0.248799 0.245169 0.209440
O O17 0.211283 0.123509 0.308561
O O18 0.191960 0.797828 0.500000
O O19 0.936507 0.404401 0.500000
O O20 0.237944 0.539805 0.000000
#
# Coordination Sequence:
#
# PCOD8235331 Si02
#       8
#     8   8   8   8   8   8   8   8
#     4   8  14  24  39  59  82 106 137 175 205 234
#     4  10  19  30  42  57  81 110 139 171 205 240
#     4   8  13  23  39  56  75 104 136 163 196 234
#     4  10  18  27  41  60  81 105 134 165 198 239
#     4   8  15  27  40  56  80 106 134 168 201 234
#     4  10  18  28  42  58  78 104 134 166 200 239
#     4   9  16  26  40  59  81 106 139 176 207 235
#     4   9  17  27  38  55  79 105 133 166 200 233
#
# _framework density 14.653174999999999
#
# number of rings (size 3 to 8) (size 9 to 14) (size 15 to 20)
#    0.000    3.000    0.000    4.875    0.000    3.500 
#    0.000    1.250    0.000    3.750    0.000    0.000 
#    0.000    1.000    0.000   11.750    0.000    2.250 
#
# Total GULP energy -792968.488363 kJ/mol
# GULP energy per Si atom -12390.132631 kJ/mol
# Density = 1.461982 g / cm^3
# Si number density = 14.653175 Si / 1000 Ang^3
#
#
#
# Elastic Constant Matrix: (Units=GPa)
#
#
# Indices 1 2 3 4 5 6 
#
# 1 92.6322 57.8617 25.7395 0.0000 0.0000 0.0000
# 2 57.8617 97.6244 34.8994 0.0000 0.0000 0.0000
# 3 25.7395 34.8994 54.0821 0.0000 0.0000 0.0000
# 4 0.0000 0.0000 0.0000 21.5946 0.0000 0.0000
# 5 0.0000 0.0000 0.0000 0.0000 15.5182 0.0000
# 6 0.0000 0.0000 0.0000 0.0000 0.0000 28.7512
#
#
#
# Elastic Compliance Matrix: (Units=1/GPa)
#
#
# Indices 1 2 3 4 5 6 
#
# 1 0.017324 -0.009515 -0.002105 0.000000 0.000000 0.000000
# 2 -0.009515 0.018541 -0.007436 0.000000 0.000000 0.000000
# 3 -0.002105 -0.007436 0.024291 0.000000 0.000000 0.000000
# 4 0.000000 0.000000 0.000000 0.046308 0.000000 0.000000
# 5 0.000000 0.000000 0.000000 0.000000 0.064441 0.000000
# 6 0.000000 0.000000 0.000000 0.000000 0.000000 0.034781
#
#
# Mechanical properties :
#
#
# Convention : Reuss Voigt Hill
#
# Bulk Modulus (GPa) = 45.36490 53.48222 49.42356
# Shear Modulus (GPa) = 19.90872 21.56198 20.73535
#
# Velocity S-wave (km/s) = 3.69000 3.84016 3.76583
# Velocity P-wave (km/s) = 7.01293 7.49936 7.26022
#
# Compressibility (1/GPa) = 0.02204347
#
# Stress axis : x y z
#
# Youngs Moduli (GPa) = 57.72363 53.93320 41.16807
#
# Poissons Ratio (x) = 0.51320 0.08665
# Poissons Ratio (y) = 0.54927 0.30613
# Poissons Ratio (z) = 0.12149 0.40106
#
# Static dielectric constant tensor:
#      x y z
#    x 2.934830 0.000000 0.000000 
#    y 0.000000 2.947950 0.000000 
#    z 0.000000 0.000000 2.647580 
# 
# 
# High freq. dielectric constant tensor:
#      x y z
#    x 1.529470 0.000000 0.000000 
#    y 0.000000 1.550870 0.000000 
#    z 0.000000 0.000000 1.547730 
# 
# From -- ./inp_files/8536.got.cif
#   From: 2010.06.25/outbox.cif.g09.slc.cpg/sg58_5_cif.got.tgz:8536.got - 2010.06.26 21:38:00.
