data_PCOD8235197
_publ_section_title
;
Structure prediction by ZEFSAII (Michael W. Deem and Ramdas Pophale) SiO2 
 PCOD8235197
Probable space group: P N N M
;
_chemical_formula_sum "Si O2"
_cell_formula_units_Z 48
_cell_length_a 5.009270
_cell_length_b 21.426055
_cell_length_c 29.146928
_cell_angle_alpha 90.000000
_cell_angle_beta 90.000000
_cell_angle_gamma 90.000000
_cell_volume 3128.307561
_symmetry_space_group_name_H-M "P N N M"
_symmetry_group_IT_number 58
_symmetry_cell_setting 'orthorhombic'
loop_
_space_group_symop_operation_xyz
x,y,z
-x,-y,z
1/2+x,1/2-y,1/2-z
1/2-x,1/2+y,1/2-z
-x,-y,-z
x,y,-z
1/2-x,1/2+y,1/2+z
1/2+x,1/2-y,1/2+z
loop_
_atom_site_type_symbol
_atom_site_label
_atom_site_fract_x
_atom_site_fract_y
_atom_site_fract_z
Si Si1 0.193043 0.326430 0.728798
Si Si2 0.796416 0.615808 0.500000
Si Si3 0.186640 0.698515 0.597293
Si Si4 0.186300 0.886707 0.097743
Si Si5 0.746928 0.541928 0.310141
Si Si6 0.203407 0.196310 0.000000
Si Si7 0.806460 0.760556 0.191336
O O1 0.246574 0.399581 0.724414
O O2 0.227654 0.305075 0.781930
O O3 0.396967 0.287723 0.696995
O O4 0.894949 0.312112 0.711804
O O5 0.729725 0.579728 0.452307
O O6 0.607651 0.677824 0.500000
O O7 0.107603 0.634534 0.500000
O O8 0.387560 0.639786 0.601932
O O9 0.227949 0.732636 0.547597
O O10 0.244473 0.748916 0.637352
O O11 0.889685 0.671401 0.602652
O O12 0.233245 0.937419 0.136867
O O13 0.500000 0.500000 0.296054
O O14 0.000000 0.500000 0.301597
#
# Coordination Sequence:
#
# PCOD8235197 Si02
#       7
#     8   4   8   8   8   4   8
#     4  10  20  31  44  67  81 107 140 174 215 250
#     4   8  16  28  42  55  78 104 136 183 204 242
#     4  10  15  28  45  63  84 106 132 174 207 255
#     4  10  18  30  43  60  79 107 145 172 214 243
#     4  12  22  32  44  60  84 113 142 178 212 251
#     4   8  16  22  40  65  82 104 130 157 218 254
#     4  10  17  30  50  63  85 103 135 181 210 247
#
# _framework density 15.343761000000001
#
# number of rings (size 3 to 8) (size 9 to 14) (size 15 to 20)
#    0.000    2.000    3.333    2.000    0.000    0.000 
#    0.000    0.833    0.000    0.000    0.000    0.000 
#    0.000    0.000    0.000    1.500    0.000    0.000 
#
# Total GULP energy -594859.449585 kJ/mol
# GULP energy per Si atom -12392.905200 kJ/mol
# Density = 1.530884 g / cm^3
# Si number density = 15.343761 Si / 1000 Ang^3
#
#
#
# Elastic Constant Matrix: (Units=GPa)
#
#
# Indices 1 2 3 4 5 6 
#
# 1 72.7802 15.0536 12.4302 0.0000 0.0000 0.0000
# 2 15.0536 64.3690 51.9010 0.0000 0.0000 0.0000
# 3 12.4302 51.9010 103.8881 0.0000 0.0000 0.0000
# 4 0.0000 0.0000 0.0000 22.6335 0.0000 0.0000
# 5 0.0000 0.0000 0.0000 0.0000 19.3550 0.0000
# 6 0.0000 0.0000 0.0000 0.0000 0.0000 17.2291
#
#
#
# Elastic Compliance Matrix: (Units=1/GPa)
#
#
# Indices 1 2 3 4 5 6 
#
# 1 0.014439 -0.003322 -0.000068 0.000000 0.000000 0.000000
# 2 -0.003322 0.026779 -0.012981 0.000000 0.000000 0.000000
# 3 -0.000068 -0.012981 0.016119 0.000000 0.000000 0.000000
# 4 0.000000 0.000000 0.000000 0.044182 0.000000 0.000000
# 5 0.000000 0.000000 0.000000 0.000000 0.051666 0.000000
# 6 0.000000 0.000000 0.000000 0.000000 0.000000 0.058041
#
#
# Mechanical properties :
#
#
# Convention : Reuss Voigt Hill
#
# Bulk Modulus (GPa) = 40.65870 44.42298 42.54084
# Shear Modulus (GPa) = 19.82822 22.62036 21.22429
#
# Velocity S-wave (km/s) = 3.59871 3.84375 3.72324
# Velocity P-wave (km/s) = 6.61994 6.97953 6.80211
#
# Compressibility (1/GPa) = 0.02459498
#
# Stress axis : x y z
#
# Youngs Moduli (GPa) = 69.25829 37.34301 62.03891
#
# Poissons Ratio (x) = 0.12405 0.00422
# Poissons Ratio (y) = 0.23006 0.80532
# Poissons Ratio (z) = 0.00471 0.48474
#
# Static dielectric constant tensor:
#      x y z
#    x 3.182490 0.000000 0.000000 
#    y 0.000000 2.464530 0.000000 
#    z 0.000000 0.000000 3.408910 
# 
# 
# High freq. dielectric constant tensor:
#      x y z
#    x 1.620320 0.000000 0.000000 
#    y 0.000000 1.508450 0.000000 
#    z 0.000000 0.000000 1.596170 
# 
# From -- ./inp_files/31019.got.cif
#   From: 2010.06.25/outbox.cif.g09.slc.cpg/sg58_16_cif.got.tgz:31019.got - 2010.06.26 21:38:00.
