data_PCOD8235762
_publ_section_title
;
Structure prediction by ZEFSAII (Michael W. Deem and Ramdas Pophale) SiO2 
 PCOD8235762
Probable space group: P N N M
;
_chemical_formula_sum "Si O2"
_cell_formula_units_Z 64
_cell_length_a 15.326162
_cell_length_b 23.777483
_cell_length_c 9.235031
_cell_angle_alpha 90.000000
_cell_angle_beta 90.000000
_cell_angle_gamma 90.000000
_cell_volume 3365.407430
_symmetry_space_group_name_H-M "P N N M"
_symmetry_group_IT_number 58
_symmetry_cell_setting 'orthorhombic'
loop_
_space_group_symop_operation_xyz
x,y,z
-x,-y,z
1/2+x,1/2-y,1/2-z
1/2-x,1/2+y,1/2-z
-x,-y,-z
x,y,-z
1/2-x,1/2+y,1/2+z
1/2+x,1/2-y,1/2+z
loop_
_atom_site_type_symbol
_atom_site_label
_atom_site_fract_x
_atom_site_fract_y
_atom_site_fract_z
Si Si1 0.901250 0.499953 0.669261
Si Si2 0.347321 0.387470 0.328811
Si Si3 0.102618 0.008289 0.835937
Si Si4 0.002157 0.315981 0.830449
Si Si5 0.344764 0.106422 0.667105
Si Si6 0.851675 0.880355 0.331932
Si Si7 0.006300 0.186932 0.170774
Si Si8 0.654501 0.124220 0.831239
O O1 0.898058 0.486916 0.500000
O O2 0.846142 0.451957 0.747381
O O3 0.859478 0.559346 0.709117
O O4 0.000000 0.500000 0.727265
O O5 0.357570 0.390189 0.500000
O O6 0.354341 0.451429 0.271583
O O7 0.424782 0.348763 0.266591
O O8 0.253866 0.360808 0.286666
O O9 0.129107 0.058549 0.732010
O O10 0.135371 0.020949 0.000000
O O11 0.000000 0.000000 0.836526
O O12 0.986419 0.251275 0.790908
O O13 0.090591 0.335853 0.755908
O O14 0.918870 0.351149 0.772975
O O15 0.014246 0.324561 0.000000
O O16 0.362024 0.092665 0.500000
O O17 0.250275 0.134765 0.688995
O O18 0.877836 0.880555 0.500000
O O19 0.905856 0.832457 0.249934
O O20 0.019121 0.177479 0.000000
O O21 0.636848 0.134514 0.000000
#
# Coordination Sequence:
#
# PCOD8235762 Si02
#       8
#     8   8   8   8   8   8   8   8
#     4  10  19  33  56  86 115 144 182 228 274 326
#     4   9  18  34  58  84 107 141 186 224 266 326
#     4  10  18  34  61  86 110 146 188 222 266 331
#     4  10  22  39  58  78 106 145 191 234 273 326
#     4  10  22  38  56  82 115 152 185 221 278 339
#     4  11  23  37  56  86 118 146 180 227 284 334
#     4  10  21  40  60  78 104 145 193 235 273 323
#     4  10  20  35  57  84 113 143 179 226 279 329
#
# _framework density 19.017012999999999
#
# number of rings (size 3 to 8) (size 9 to 14) (size 15 to 20)
#    0.000    2.000    2.500    1.125    0.000    4.500 
#    0.000    3.750    0.000    0.000    0.000    0.000 
#    0.000    0.000    0.000    0.000    0.000    0.000 
#
# Total GULP energy -793714.337738 kJ/mol
# GULP energy per Si atom -12401.786527 kJ/mol
# Density = 1.897373 g / cm^3
# Si number density = 19.017013 Si / 1000 Ang^3
#
#
#
# Elastic Constant Matrix: (Units=GPa)
#
#
# Indices 1 2 3 4 5 6 
#
# 1 101.9838 34.0176 28.6133 0.0000 0.0000 0.0000
# 2 34.0176 89.7221 39.4908 0.0000 0.0000 0.0000
# 3 28.6133 39.4908 45.5825 0.0000 0.0000 0.0000
# 4 0.0000 0.0000 0.0000 2.1496 0.0000 0.0000
# 5 0.0000 0.0000 0.0000 0.0000 27.5881 0.0000
# 6 0.0000 0.0000 0.0000 0.0000 0.0000 17.8921
#
#
#
# Elastic Compliance Matrix: (Units=1/GPa)
#
#
# Indices 1 2 3 4 5 6 
#
# 1 0.012123 -0.002015 -0.005864 0.000000 0.000000 0.000000
# 2 -0.002015 0.018350 -0.014633 0.000000 0.000000 0.000000
# 3 -0.005864 -0.014633 0.038296 0.000000 0.000000 0.000000
# 4 0.000000 0.000000 0.000000 0.465193 0.000000 0.000000
# 5 0.000000 0.000000 0.000000 0.000000 0.036248 0.000000
# 6 0.000000 0.000000 0.000000 0.000000 0.000000 0.055890
#
#
# Mechanical properties :
#
#
# Convention : Reuss Voigt Hill
#
# Bulk Modulus (GPa) = 42.11322 49.05910 45.58616
# Shear Modulus (GPa) = 7.36334 18.53708 12.95021
#
# Velocity S-wave (km/s) = 1.96987 3.12551 2.61239
# Velocity P-wave (km/s) = 5.23134 6.23527 5.75524
#
# Compressibility (1/GPa) = 0.02374552
#
# Stress axis : x y z
#
# Youngs Moduli (GPa) = 82.48827 54.49545 26.11225
#
# Poissons Ratio (x) = 0.10983 0.15312
# Poissons Ratio (y) = 0.16625 0.38209
# Poissons Ratio (z) = 0.48370 0.79741
#
# Static dielectric constant tensor:
#      x y z
#    x 3.808780 0.000000 0.000000 
#    y 0.000000 3.494530 0.000000 
#    z 0.000000 0.000000 3.306530 
# 
# 
# High freq. dielectric constant tensor:
#      x y z
#    x 1.755290 0.000000 0.000000 
#    y 0.000000 1.736420 0.000000 
#    z 0.000000 0.000000 1.715180 
# 
# From -- ./inp_files/6886.got.cif
#   From: 2010.06.25/outbox.cif.g09.slc.cpg/sg58_4_cif.got.tgz:6886.got - 2010.06.26 21:38:00.
