data_PCOD8235327
_publ_section_title
;
Structure prediction by ZEFSAII (Michael W. Deem and Ramdas Pophale) SiO2 
 PCOD8235327
Probable space group: P N N M
;
_chemical_formula_sum "Si O2"
_cell_formula_units_Z 56
_cell_length_a 9.336765
_cell_length_b 13.711797
_cell_length_c 32.072828
_cell_angle_alpha 90.000000
_cell_angle_beta 90.000000
_cell_angle_gamma 90.000000
_cell_volume 4106.086161
_symmetry_space_group_name_H-M "P N N M"
_symmetry_group_IT_number 58
_symmetry_cell_setting 'orthorhombic'
loop_
_space_group_symop_operation_xyz
x,y,z
-x,-y,z
1/2+x,1/2-y,1/2-z
1/2-x,1/2+y,1/2-z
-x,-y,-z
x,y,-z
1/2-x,1/2+y,1/2+z
1/2+x,1/2-y,1/2+z
loop_
_atom_site_type_symbol
_atom_site_label
_atom_site_fract_x
_atom_site_fract_y
_atom_site_fract_z
Si Si1 0.162340 0.891369 0.877231
Si Si2 0.666953 0.227047 0.186697
Si Si3 0.333047 0.227047 0.813303
Si Si4 0.168469 1.000000 0.045579
Si Si5 0.333885 0.112214 0.269757
Si Si6 0.333885 0.887786 0.730243
Si Si7 0.837660 0.891369 0.122769
O O1 0.270412 0.816725 0.855822
O O2 1.000000 0.851631 0.872619
O O3 0.206379 0.903624 0.926502
O O4 0.172128 1.000000 0.856671
O O5 0.500000 0.245495 0.180472
O O6 0.741269 0.330226 0.196159
O O7 0.700511 0.151394 0.223655
O O8 0.299489 0.151394 0.776345
O O9 0.258731 0.330226 0.803841
O O10 0.270412 0.183275 0.855822
O O11 0.206380 0.096376 0.073498
O O12 0.245529 0.000000 0.000000
O O13 0.000000 0.000000 0.038880
O O14 0.500000 0.127276 0.280513
O O15 0.288164 1.000000 0.271704
#
# Coordination Sequence:
#
# PCOD8235327 Si02
#       7
#     8   8   8   8   8   8   8
#     4   8  15  25  40  59  79 106 134 161 192 233
#     4  10  18  27  40  58  79 103 133 168 205 241
#     4  10  18  27  40  58  79 103 133 168 205 241
#     4   7  12  24  41  61  83 107 135 165 195 231
#     4   9  18  30  41  53  74 105 139 173 202 231
#     4   9  18  30  41  53  74 105 139 173 202 231
#     4   8  15  25  40  59  79 106 134 161 192 233
#
# _framework density 13.638291000000001
#
# number of rings (size 3 to 8) (size 9 to 14) (size 15 to 20)
#    0.857    2.429    0.000    1.714    0.000    3.429 
#    0.000    0.000    0.000    1.714    0.000    0.000 
#    0.000    1.143    0.000   13.143    0.000    3.714 
#
# Total GULP energy -693744.038441 kJ/mol
# GULP energy per Si atom -12388.286401 kJ/mol
# Density = 1.360725 g / cm^3
# Si number density = 13.638291 Si / 1000 Ang^3
#
#
#
# Elastic Constant Matrix: (Units=GPa)
#
#
# Indices 1 2 3 4 5 6 
#
# 1 58.5456 41.3061 39.0418 0.0000 0.0000 0.0000
# 2 41.3061 86.6280 44.0902 0.0000 0.0000 0.0000
# 3 39.0418 44.0902 91.2589 0.0000 0.0000 0.0000
# 4 0.0000 0.0000 0.0000 11.7714 0.0000 0.0000
# 5 0.0000 0.0000 0.0000 0.0000 13.4706 0.0000
# 6 0.0000 0.0000 0.0000 0.0000 0.0000 19.4307
#
#
#
# Elastic Compliance Matrix: (Units=1/GPa)
#
#
# Indices 1 2 3 4 5 6 
#
# 1 0.029298 -0.010066 -0.007671 0.000000 0.000000 0.000000
# 2 -0.010066 0.018766 -0.004760 0.000000 0.000000 0.000000
# 3 -0.007671 -0.004760 0.016539 0.000000 0.000000 0.000000
# 4 0.000000 0.000000 0.000000 0.084951 0.000000 0.000000
# 5 0.000000 0.000000 0.000000 0.000000 0.074236 0.000000
# 6 0.000000 0.000000 0.000000 0.000000 0.000000 0.051465
#
#
# Mechanical properties :
#
#
# Convention : Reuss Voigt Hill
#
# Bulk Modulus (GPa) = 50.99568 53.92319 52.45943
# Shear Modulus (GPa) = 15.30056 16.40084 15.85070
#
# Velocity S-wave (km/s) = 3.35309 3.47155 3.41283
# Velocity P-wave (km/s) = 7.24318 7.46276 7.35379
#
# Compressibility (1/GPa) = 0.01960950
#
# Stress axis : x y z
#
# Youngs Moduli (GPa) = 34.13213 53.28813 60.46171
#
# Poissons Ratio (x) = 0.53638 0.46380
# Poissons Ratio (y) = 0.34356 0.28781
# Poissons Ratio (z) = 0.26183 0.25366
#
# Static dielectric constant tensor:
#      x y z
#    x 2.594280 0.000000 0.000000 
#    y 0.000000 2.551500 0.000000 
#    z 0.000000 0.000000 2.760300 
# 
# 
# High freq. dielectric constant tensor:
#      x y z
#    x 1.516820 0.000000 0.000000 
#    y 0.000000 1.496910 0.000000 
#    z 0.000000 0.000000 1.495200 
# 
# From -- ./inp_files/34802.got.cif
#   From: 2010.06.25/outbox.cif.g09.slc.cpg/sg58_18_cif.got.tgz:34802.got - 2010.06.26 21:38:00.
