data_PCOD8235252
_publ_section_title
;
Structure prediction by ZEFSAII (Michael W. Deem and Ramdas Pophale) SiO2 
 PCOD8235252
Probable space group: P N N M
;
_chemical_formula_sum "Si O2"
_cell_formula_units_Z 40
_cell_length_a 20.986462
_cell_length_b 12.682030
_cell_length_c 8.843435
_cell_angle_alpha 90.000000
_cell_angle_beta 90.000000
_cell_angle_gamma 90.000000
_cell_volume 2353.688544
_symmetry_space_group_name_H-M "P N N M"
_symmetry_group_IT_number 58
_symmetry_cell_setting 'orthorhombic'
loop_
_space_group_symop_operation_xyz
x,y,z
-x,-y,z
1/2+x,1/2-y,1/2-z
1/2-x,1/2+y,1/2-z
-x,-y,-z
x,y,-z
1/2-x,1/2+y,1/2+z
1/2+x,1/2-y,1/2+z
loop_
_atom_site_type_symbol
_atom_site_label
_atom_site_fract_x
_atom_site_fract_y
_atom_site_fract_z
Si Si1 0.706185 0.377265 0.675948
Si Si2 0.843408 0.310231 0.321070
Si Si3 0.326277 0.847717 0.324137
Si Si4 0.694671 0.605294 0.322282
Si Si5 0.428660 0.018755 0.677112
O O1 0.718272 0.392395 0.500000
O O2 0.776734 0.356081 0.745435
O O3 0.660464 0.276897 0.708937
O O4 0.675103 0.486774 0.734193
O O5 0.845570 0.309372 0.500000
O O6 0.849562 0.189562 0.263650
O O7 0.901545 0.378815 0.259792
O O8 0.306766 0.862720 0.500000
O O9 0.268985 0.884631 0.218640
O O10 0.388688 0.913970 0.281961
O O11 0.685067 0.621708 0.500000
O O12 0.427485 0.042162 0.500000
O O13 0.500000 0.000000 0.736146
#
# Coordination Sequence:
#
# PCOD8235252 Si02
#       5
#     8   8   8   8   8
#     4   8  15  27  45  68  95 122 150 193 241 291
#     4  10  19  32  47  69  98 128 163 198 243 292
#     4   9  17  30  46  68  98 128 158 195 244 291
#     4  10  17  28  47  71  97 122 153 196 245 294
#     4  10  20  33  50  72  99 131 168 206 241 286
#
# _framework density 16.994600999999999
#
# number of rings (size 3 to 8) (size 9 to 14) (size 15 to 20)
#    0.000    2.600    2.000    2.400    0.000    0.400 
#    0.000    1.000    0.000    1.200    0.000    8.400 
#    0.000    0.000    0.000    0.000    0.000    0.000 
#
# Total GULP energy -495738.349352 kJ/mol
# GULP energy per Si atom -12393.458734 kJ/mol
# Density = 1.695592 g / cm^3
# Si number density = 16.994601 Si / 1000 Ang^3
#
#
#
# Elastic Constant Matrix: (Units=GPa)
#
#
# Indices 1 2 3 4 5 6 
#
# 1 72.8002 48.4621 20.9742 0.0000 0.0000 0.0000
# 2 48.4621 156.4672 30.1537 0.0000 0.0000 0.0000
# 3 20.9742 30.1537 40.2034 0.0000 0.0000 0.0000
# 4 0.0000 0.0000 0.0000 21.8982 0.0000 0.0000
# 5 0.0000 0.0000 0.0000 0.0000 18.0982 0.0000
# 6 0.0000 0.0000 0.0000 0.0000 0.0000 24.4156
#
#
#
# Elastic Compliance Matrix: (Units=1/GPa)
#
#
# Indices 1 2 3 4 5 6 
#
# 1 0.018569 -0.004541 -0.006282 0.000000 0.000000 0.000000
# 2 -0.004541 0.008581 -0.004067 0.000000 0.000000 0.000000
# 3 -0.006282 -0.004067 0.031201 0.000000 0.000000 0.000000
# 4 0.000000 0.000000 0.000000 0.045666 0.000000 0.000000
# 5 0.000000 0.000000 0.000000 0.000000 0.055254 0.000000
# 6 0.000000 0.000000 0.000000 0.000000 0.000000 0.040957
#
#
# Mechanical properties :
#
#
# Convention : Reuss Voigt Hill
#
# Bulk Modulus (GPa) = 34.99945 52.07232 43.53589
# Shear Modulus (GPa) = 20.87404 24.20780 22.54092
#
# Velocity S-wave (km/s) = 3.50848 3.77827 3.64587
# Velocity P-wave (km/s) = 6.08701 7.05272 6.58758
#
# Compressibility (1/GPa) = 0.02857188
#
# Stress axis : x y z
#
# Youngs Moduli (GPa) = 53.85419 116.53227 32.04992
#
# Poissons Ratio (x) = 0.52913 0.20133
# Poissons Ratio (y) = 0.24453 0.13036
# Poissons Ratio (z) = 0.33830 0.47398
#
# Static dielectric constant tensor:
#      x y z
#    x 2.859380 0.000000 0.000000 
#    y 0.000000 3.712270 0.000000 
#    z 0.000000 0.000000 3.017950 
# 
# 
# High freq. dielectric constant tensor:
#      x y z
#    x 1.602330 0.000000 0.000000 
#    y 0.000000 1.677980 0.000000 
#    z 0.000000 0.000000 1.644020 
# 
# From -- ./inp_files/3814.got.cif
#   From: 2010.06.25/outbox.cif.g09.slc.cpg/sg58_2_cif.got.tgz:3814.got - 2010.06.26 21:38:00.
