data_PCOD8235093
_publ_section_title
;
Structure prediction by ZEFSAII (Michael W. Deem and Ramdas Pophale) SiO2 
 PCOD8235093
Probable space group: P B C M
;
_chemical_formula_sum "Si O2"
_cell_formula_units_Z 32
_cell_length_a 18.243561
_cell_length_b 8.829800
_cell_length_c 9.151228
_cell_angle_alpha 90.000000
_cell_angle_beta 90.000000
_cell_angle_gamma 90.000000
_cell_volume 1474.143818
_symmetry_space_group_name_H-M "P B C M"
_symmetry_group_IT_number 57
_symmetry_cell_setting 'orthorhombic'
loop_
_space_group_symop_operation_xyz
x,y,z
-x,-y,1/2+z
x,1/2-y,-z
-x,1/2+y,1/2-z
-x,-y,-z
x,y,1/2-z
-x,1/2+y,z
x,1/2-y,1/2+z
loop_
_atom_site_type_symbol
_atom_site_label
_atom_site_fract_x
_atom_site_fract_y
_atom_site_fract_z
Si Si1 0.816340 0.405548 0.415701
Si Si2 0.652334 0.073804 0.975894
Si Si3 0.400957 0.066123 0.750000
Si Si4 0.446640 0.416468 0.750000
Si Si5 0.934301 0.909912 0.427475
O O1 0.828105 0.250000 0.500000
O O2 0.848609 0.396773 0.250000
O O3 0.730804 0.445925 0.399798
O O4 0.856681 0.528302 0.515326
O O5 0.586328 0.000078 0.888317
O O6 0.634046 0.250000 0.000000
O O7 0.653929 0.972164 0.119592
O O8 0.429976 0.237544 0.750000
O O9 0.466611 0.943370 0.750000
O O10 0.944212 0.750000 0.500000
O O11 0.937379 0.907927 0.250000
O O12 0.000000 0.000000 0.500000
#
# Coordination Sequence:
#
# PCOD8235093 Si02
#       5
#     8   8   4   4   8
#     4  11  24  44  71 101 138 180 229 281 346 416
#     4  11  24  43  68  96 134 177 228 282 348 417
#     4  12  26  40  70  92 135 174 229 286 352 418
#     4  12  24  46  62 100 129 178 225 288 348 420
#     4  12  26  46  72 104 144 186 234 285 343 405
#
# _framework density 21.707516999999999
#
# number of rings (size 3 to 8) (size 9 to 14) (size 15 to 20)
#    0.000    0.500    1.250    7.500    7.000    2.000 
#    0.000    0.000    0.000    0.000    0.000    0.000 
#    0.000    0.000    0.000    0.000    0.000    0.000 
#
# Total GULP energy -396689.430241 kJ/mol
# GULP energy per Si atom -12396.544695 kJ/mol
# Density = 2.165811 g / cm^3
# Si number density = 21.707517 Si / 1000 Ang^3
#
#
#
# Elastic Constant Matrix: (Units=GPa)
#
#
# Indices 1 2 3 4 5 6 
#
# 1 64.0023 47.1612 31.7648 0.0000 0.0000 0.0000
# 2 47.1612 154.5161 49.5459 0.0000 0.0000 0.0000
# 3 31.7648 49.5459 195.3014 0.0000 0.0000 0.0000
# 4 0.0000 0.0000 0.0000 36.5564 0.0000 0.0000
# 5 0.0000 0.0000 0.0000 0.0000 39.8564 0.0000
# 6 0.0000 0.0000 0.0000 0.0000 0.0000 24.7898
#
#
#
# Elastic Compliance Matrix: (Units=1/GPa)
#
#
# Indices 1 2 3 4 5 6 
#
# 1 0.020806 -0.005731 -0.001930 0.000000 0.000000 0.000000
# 2 -0.005731 0.008624 -0.001256 0.000000 0.000000 0.000000
# 3 -0.001930 -0.001256 0.005753 0.000000 0.000000 0.000000
# 4 0.000000 0.000000 0.000000 0.027355 0.000000 0.000000
# 5 0.000000 0.000000 0.000000 0.000000 0.025090 0.000000
# 6 0.000000 0.000000 0.000000 0.000000 0.000000 0.040339
#
#
# Mechanical properties :
#
#
# Convention : Reuss Voigt Hill
#
# Bulk Modulus (GPa) = 57.64280 74.52930 66.08605
# Shear Modulus (GPa) = 32.98526 39.26371 36.12448
#
# Velocity S-wave (km/s) = 3.90235 4.25757 4.08382
# Velocity P-wave (km/s) = 6.84955 7.65357 7.26269
#
# Compressibility (1/GPa) = 0.01734822
#
# Stress axis : x y z
#
# Youngs Moduli (GPa) = 48.06399 115.95877 173.83122
#
# Poissons Ratio (x) = 0.66461 0.33548
# Poissons Ratio (y) = 0.27548 0.21826
# Poissons Ratio (z) = 0.09276 0.14559
#
# Static dielectric constant tensor:
#      x y z
#    x 4.057000 0.000000 0.000000 
#    y 0.000000 4.295530 0.000000 
#    z 0.000000 0.000000 4.161010 
# 
# 
# High freq. dielectric constant tensor:
#      x y z
#    x 1.858870 0.000000 0.000000 
#    y 0.000000 1.860560 0.000000 
#    z 0.000000 0.000000 1.877450 
# 
# From -- ./inp_files/7560.got.cif
#   From: 2010.03.12/outbox.cif.g09.slc.cpg/sg57_4_cif.got.tgz:7560.got - 2010.04.16 15:48:40.
