data_PCOD8235214
_publ_section_title
;
Structure prediction by ZEFSAII (Michael W. Deem and Ramdas Pophale) SiO2 
 PCOD8235214
Probable space group: P N N M
;
_chemical_formula_sum "Si O2"
_cell_formula_units_Z 40
_cell_length_a 5.036845
_cell_length_b 33.696968
_cell_length_c 17.627512
_cell_angle_alpha 90.000000
_cell_angle_beta 90.000000
_cell_angle_gamma 90.000000
_cell_volume 2991.854237
_symmetry_space_group_name_H-M "P N N M"
_symmetry_group_IT_number 58
_symmetry_cell_setting 'orthorhombic'
loop_
_space_group_symop_operation_xyz
x,y,z
-x,-y,z
1/2+x,1/2-y,1/2-z
1/2-x,1/2+y,1/2-z
-x,-y,-z
x,y,-z
1/2-x,1/2+y,1/2+z
1/2+x,1/2-y,1/2+z
loop_
_atom_site_type_symbol
_atom_site_label
_atom_site_fract_x
_atom_site_fract_y
_atom_site_fract_z
Si Si1 0.936004 0.678647 0.852953
Si Si2 0.537171 0.906657 0.411485
Si Si3 0.524304 0.543711 0.088285
Si Si4 0.538476 0.770445 0.777481
Si Si5 0.436558 0.723053 0.912646
O O1 0.975486 0.632171 0.863232
O O2 0.966825 0.687445 0.762007
O O3 0.645844 0.690465 0.882825
O O4 0.146711 0.704574 0.900346
O O5 0.553572 0.894593 0.500000
O O6 0.808122 0.925495 0.378957
O O7 0.315022 0.939650 0.396753
O O8 0.500000 0.500000 0.126076
O O9 0.456351 0.539580 0.000000
O O10 0.850128 0.761863 0.765356
O O11 0.471086 0.764975 0.866885
O O12 0.482141 0.733041 0.000000
#
# Coordination Sequence:
#
# PCOD8235214 Si02
#       5
#     8   8   8   8   8
#     4  10  18  27  37  53  73  91 116 151 182 205
#     4  10  17  24  36  51  65  85 114 144 172 198
#     4   9  17  27  36  47  65  87 111 139 170 205
#     4   8  16  27  37  49  69  94 115 140 177 213
#     4  10  17  26  39  53  70  93 121 149 175 204
#
# _framework density 13.369634
#
# number of rings (size 3 to 8) (size 9 to 14) (size 15 to 20)
#    0.000    2.600    0.000    3.600    0.000    4.000 
#    0.000    0.000    0.000    0.000    0.000    0.000 
#    0.000    0.000    0.000    0.000    0.000    6.000 
#
# Total GULP energy -495682.779036 kJ/mol
# GULP energy per Si atom -12392.069476 kJ/mol
# Density = 1.333920 g / cm^3
# Si number density = 13.369634 Si / 1000 Ang^3
#
#
#
# Elastic Constant Matrix: (Units=GPa)
#
#
# Indices 1 2 3 4 5 6 
#
# 1 48.2947 -2.1895 -1.4309 0.0000 0.0000 0.0000
# 2 -2.1895 66.6063 29.2604 0.0000 0.0000 0.0000
# 3 -1.4309 29.2604 49.9164 0.0000 0.0000 0.0000
# 4 0.0000 0.0000 0.0000 14.1670 0.0000 0.0000
# 5 0.0000 0.0000 0.0000 0.0000 11.3729 0.0000
# 6 0.0000 0.0000 0.0000 0.0000 0.0000 17.1214
#
#
#
# Elastic Compliance Matrix: (Units=1/GPa)
#
#
# Indices 1 2 3 4 5 6 
#
# 1 0.020740 0.000566 0.000262 0.000000 0.000000 0.000000
# 2 0.000566 0.020236 -0.011846 0.000000 0.000000 0.000000
# 3 0.000262 -0.011846 0.026985 0.000000 0.000000 0.000000
# 4 0.000000 0.000000 0.000000 0.070587 0.000000 0.000000
# 5 0.000000 0.000000 0.000000 0.000000 0.087928 0.000000
# 6 0.000000 0.000000 0.000000 0.000000 0.000000 0.058406
#
#
# Mechanical properties :
#
#
# Convention : Reuss Voigt Hill
#
# Bulk Modulus (GPa) = 21.77382 24.01083 22.89232
# Shear Modulus (GPa) = 15.51712 17.81077 16.66395
#
# Velocity S-wave (km/s) = 3.41049 3.65387 3.53427
# Velocity P-wave (km/s) = 5.64180 5.98324 5.81503
#
# Compressibility (1/GPa) = 0.04592672
#
# Stress axis : x y z
#
# Youngs Moduli (GPa) = 48.21681 49.41648 37.05771
#
# Poissons Ratio (x) = -0.02799 -0.00973
# Poissons Ratio (y) = -0.02731 0.43898
# Poissons Ratio (z) = -0.01266 0.58538
#
# Static dielectric constant tensor:
#      x y z
#    x 2.878610 0.000000 0.000000 
#    y 0.000000 2.589310 0.000000 
#    z 0.000000 0.000000 2.543030 
# 
# 
# High freq. dielectric constant tensor:
#      x y z
#    x 1.537410 0.000000 0.000000 
#    y 0.000000 1.486550 0.000000 
#    z 0.000000 0.000000 1.459880 
# 
# From -- ./inp_files/18655.got.cif
#   From: 2010.06.25/outbox.cif.g09.slc.cpg/sg58_10_cif.got.tgz:18655.got - 2010.06.26 21:38:00.
