data_PCOD8235942
_publ_section_title
;
Structure prediction by ZEFSAII (Michael W. Deem and Ramdas Pophale) SiO2 
 PCOD8235942
Probable space group: P N N M
;
_chemical_formula_sum "Si O2"
_cell_formula_units_Z 48
_cell_length_a 9.836728
_cell_length_b 22.019104
_cell_length_c 13.469219
_cell_angle_alpha 90.000000
_cell_angle_beta 90.000000
_cell_angle_gamma 90.000000
_cell_volume 2917.378108
_symmetry_space_group_name_H-M "P N N M"
_symmetry_group_IT_number 58
_symmetry_cell_setting 'orthorhombic'
loop_
_space_group_symop_operation_xyz
x,y,z
-x,-y,z
1/2+x,1/2-y,1/2-z
1/2-x,1/2+y,1/2-z
-x,-y,-z
x,y,-z
1/2-x,1/2+y,1/2+z
1/2+x,1/2-y,1/2+z
loop_
_atom_site_type_symbol
_atom_site_label
_atom_site_fract_x
_atom_site_fract_y
_atom_site_fract_z
Si Si1 0.104033 0.949178 0.386290
Si Si2 0.360115 0.028907 0.385935
Si Si3 0.794980 0.271662 0.389588
Si Si4 0.510542 0.745856 0.388210
Si Si5 0.018191 0.826308 0.303210
Si Si6 0.206069 0.656418 0.197943
O O1 0.071664 0.930754 0.500000
O O2 0.087847 0.891271 0.316349
O O3 0.254404 0.974506 0.373886
O O4 0.000000 0.000000 0.349184
O O5 0.366836 0.051533 0.500000
O O6 0.321762 0.085425 0.316668
O O7 0.500000 0.000000 0.349352
O O8 0.807175 0.299079 0.500000
O O9 0.649214 0.238183 0.374980
O O10 0.813634 0.327574 0.313884
O O11 0.912032 0.222167 0.375263
O O12 0.540354 0.722833 0.500000
O O13 0.546254 0.692178 0.311225
O O14 0.600239 0.805430 0.367979
O O15 0.860020 0.828139 0.333888
#
# Coordination Sequence:
#
# PCOD8235942 Si02
#       6
#     8   8   8   8   8   8
#     4  10  19  31  48  71  96 123 157 197 237 280
#     4  10  21  33  48  71  97 127 160 196 240 288
#     4   9  19  33  51  74  97 126 161 199 240 282
#     4   9  19  33  50  72  99 128 159 198 240 284
#     4  10  19  32  51  73  98 127 161 198 240 286
#     4  10  19  33  51  72  99 129 159 196 241 287
#
# _framework density 16.453130000000002
#
# number of rings (size 3 to 8) (size 9 to 14) (size 15 to 20)
#    0.000    2.333    1.667    1.000    2.333    2.000 
#    0.000    0.000    0.000    2.000    0.000    0.000 
#    0.000    0.000    0.000    0.000    0.000    0.000 
#
# Total GULP energy -595208.601508 kJ/mol
# GULP energy per Si atom -12400.179198 kJ/mol
# Density = 1.641568 g / cm^3
# Si number density = 16.453130 Si / 1000 Ang^3
#
#
#
# Elastic Constant Matrix: (Units=GPa)
#
#
# Indices 1 2 3 4 5 6 
#
# 1 92.8975 36.6801 35.5893 0.0000 0.0000 0.0000
# 2 36.6801 89.4521 46.1418 0.0000 0.0000 0.0000
# 3 35.5893 46.1418 94.6101 0.0000 0.0000 0.0000
# 4 0.0000 0.0000 0.0000 20.4045 0.0000 0.0000
# 5 0.0000 0.0000 0.0000 0.0000 20.8029 0.0000
# 6 0.0000 0.0000 0.0000 0.0000 0.0000 25.2608
#
#
#
# Elastic Compliance Matrix: (Units=1/GPa)
#
#
# Indices 1 2 3 4 5 6 
#
# 1 0.013526 -0.003904 -0.003184 0.000000 0.000000 0.000000
# 2 -0.003904 0.016064 -0.006366 0.000000 0.000000 0.000000
# 3 -0.003184 -0.006366 0.014872 0.000000 0.000000 0.000000
# 4 0.000000 0.000000 0.000000 0.049009 0.000000 0.000000
# 5 0.000000 0.000000 0.000000 0.000000 0.048070 0.000000
# 6 0.000000 0.000000 0.000000 0.000000 0.000000 0.039587
#
#
# Mechanical properties :
#
#
# Convention : Reuss Voigt Hill
#
# Bulk Modulus (GPa) = 56.96688 57.08690 57.02689
# Shear Modulus (GPa) = 23.37691 23.86354 23.62023
#
# Velocity S-wave (km/s) = 3.77346 3.81254 3.79305
# Velocity P-wave (km/s) = 7.32696 7.35884 7.34292
#
# Compressibility (1/GPa) = 0.01755406
#
# Stress axis : x y z
#
# Youngs Moduli (GPa) = 73.93287 62.25246 67.24018
#
# Poissons Ratio (x) = 0.24303 0.21409
# Poissons Ratio (y) = 0.28863 0.42804
# Poissons Ratio (z) = 0.23540 0.39629
#
# Static dielectric constant tensor:
#      x y z
#    x 3.311180 0.000000 0.000000 
#    y 0.000000 2.937270 0.000000 
#    z 0.000000 0.000000 3.089870 
# 
# 
# High freq. dielectric constant tensor:
#      x y z
#    x 1.651430 0.000000 0.000000 
#    y 0.000000 1.616960 0.000000 
#    z 0.000000 0.000000 1.620110 
# 
# From -- ./inp_files/19976.got.cif
#   From: 2010.06.25/outbox.cif.g09.slc.cpg/sg58_10_cif.got.tgz:19976.got - 2010.06.26 21:38:00.
