data_PCOD8235055
_publ_section_title
;
Structure prediction by ZEFSAII (Michael W. Deem and Ramdas Pophale) SiO2 
 PCOD8235055
Probable space group: P B C M
;
_chemical_formula_sum "Si O2"
_cell_formula_units_Z 32
_cell_length_a 18.730883
_cell_length_b 8.555123
_cell_length_c 9.132271
_cell_angle_alpha 90.000000
_cell_angle_beta 90.000000
_cell_angle_gamma 90.000000
_cell_volume 1463.400839
_symmetry_space_group_name_H-M "P B C M"
_symmetry_group_IT_number 57
_symmetry_cell_setting 'orthorhombic'
loop_
_space_group_symop_operation_xyz
x,y,z
-x,-y,1/2+z
x,1/2-y,-z
-x,1/2+y,1/2-z
-x,-y,-z
x,y,1/2-z
-x,1/2+y,z
x,1/2-y,1/2+z
loop_
_atom_site_type_symbol
_atom_site_label
_atom_site_fract_x
_atom_site_fract_y
_atom_site_fract_z
Si Si1 0.902301 0.925975 0.250000
Si Si2 0.567194 0.919272 0.427335
Si Si3 0.844061 0.066518 0.976105
Si Si4 0.052923 0.066873 0.250000
Si Si5 0.702545 0.907890 0.916208
O O1 0.929331 0.749570 0.250000
O O2 0.848782 0.961900 0.380563
O O3 0.967987 0.047461 0.250000
O O4 0.571176 0.750000 0.500000
O O5 0.562256 0.920720 0.250000
O O6 0.640645 0.997171 0.488110
O O7 0.500000 0.000000 0.500000
O O8 0.914599 0.019814 0.888630
O O9 0.770122 0.021829 0.898663
O O10 0.845850 0.250000 0.000000
O O11 0.675743 0.869972 0.750000
O O12 0.725184 0.750000 0.000000
#
# Coordination Sequence:
#
# PCOD8235055 Si02
#       5
#     4   8   8   4   8
#     4  12  26  42  74  90 137 170 225 276 340 412
#     4  11  23  42  68 101 139 182 231 281 342 407
#     4  12  26  43  65  98 135 172 223 281 340 404
#     4  12  24  48  64 102 123 180 219 278 342 410
#     4  11  23  42  67  96 132 175 228 277 341 410
#
# _framework density 21.866873999999999
#
# number of rings (size 3 to 8) (size 9 to 14) (size 15 to 20)
#    0.000    0.500    1.250    9.750    3.500    1.000 
#    0.000    2.500    0.000    0.000    0.000    0.000 
#    0.000    0.000    0.000    0.000    0.000    0.000 
#
# Total GULP energy -396659.367421 kJ/mol
# GULP energy per Si atom -12395.605232 kJ/mol
# Density = 2.181710 g / cm^3
# Si number density = 21.866874 Si / 1000 Ang^3
#
#
#
# Elastic Constant Matrix: (Units=GPa)
#
#
# Indices 1 2 3 4 5 6 
#
# 1 113.2123 21.4777 32.1995 0.0000 0.0000 0.0000
# 2 21.4777 110.9768 27.0916 0.0000 0.0000 0.0000
# 3 32.1995 27.0916 184.6820 0.0000 0.0000 0.0000
# 4 0.0000 0.0000 0.0000 30.5160 0.0000 0.0000
# 5 0.0000 0.0000 0.0000 0.0000 40.3164 0.0000
# 6 0.0000 0.0000 0.0000 0.0000 0.0000 34.9152
#
#
#
# Elastic Compliance Matrix: (Units=1/GPa)
#
#
# Indices 1 2 3 4 5 6 
#
# 1 0.009526 -0.001492 -0.001442 0.000000 0.000000 0.000000
# 2 -0.001492 0.009579 -0.001145 0.000000 0.000000 0.000000
# 3 -0.001442 -0.001145 0.005834 0.000000 0.000000 0.000000
# 4 0.000000 0.000000 0.000000 0.032770 0.000000 0.000000
# 5 0.000000 0.000000 0.000000 0.000000 0.024804 0.000000
# 6 0.000000 0.000000 0.000000 0.000000 0.000000 0.028641
#
#
# Mechanical properties :
#
#
# Convention : Reuss Voigt Hill
#
# Bulk Modulus (GPa) = 59.58858 63.37878 61.48368
# Shear Modulus (GPa) = 40.03037 43.02300 41.52669
#
# Velocity S-wave (km/s) = 4.28324 4.44046 4.36256
# Velocity P-wave (km/s) = 7.19523 7.43889 7.31807
#
# Compressibility (1/GPa) = 0.01678174
#
# Stress axis : x y z
#
# Youngs Moduli (GPa) = 104.97494 104.39384 171.40535
#
# Poissons Ratio (x) = 0.15571 0.24718
# Poissons Ratio (y) = 0.15658 0.19628
# Poissons Ratio (z) = 0.15138 0.11954
#
# Static dielectric constant tensor:
#      x y z
#    x 11.896080 0.000000 0.000000 
#    y 0.000000 3.779460 0.000000 
#    z 0.000000 0.000000 4.375160 
# 
# 
# High freq. dielectric constant tensor:
#      x y z
#    x 1.877740 0.000000 0.000000 
#    y 0.000000 1.844490 0.000000 
#    z 0.000000 0.000000 1.883980 
# 
# From -- ./inp_files/7557.got.cif
#   From: 2010.03.12/outbox.cif.g09.slc.cpg/sg57_4_cif.got.tgz:7557.got - 2010.04.16 15:48:40.
