data_PCOD8235718
_publ_section_title
;
Structure prediction by ZEFSAII (Michael W. Deem and Ramdas Pophale) SiO2 
 PCOD8235718
Probable space group: P N N M
;
_chemical_formula_sum "Si O2"
_cell_formula_units_Z 64
_cell_length_a 21.193910
_cell_length_b 7.623132
_cell_length_c 18.491195
_cell_angle_alpha 90.000000
_cell_angle_beta 90.000000
_cell_angle_gamma 90.000000
_cell_volume 2987.510939
_symmetry_space_group_name_H-M "P N N M"
_symmetry_group_IT_number 58
_symmetry_cell_setting 'orthorhombic'
loop_
_space_group_symop_operation_xyz
x,y,z
-x,-y,z
1/2+x,1/2-y,1/2-z
1/2-x,1/2+y,1/2-z
-x,-y,-z
x,y,-z
1/2-x,1/2+y,1/2+z
1/2+x,1/2-y,1/2+z
loop_
_atom_site_type_symbol
_atom_site_label
_atom_site_fract_x
_atom_site_fract_y
_atom_site_fract_z
Si Si1 0.480995 0.703490 0.081372
Si Si2 0.879166 0.938487 0.667154
Si Si3 0.601315 0.826604 0.855082
Si Si4 0.867218 0.353844 0.196631
Si Si5 0.733316 0.227926 0.199584
Si Si6 0.073908 0.999764 0.173915
Si Si7 0.728585 0.935180 0.083816
Si Si8 0.169122 0.293967 0.149636
O O1 0.500000 0.500000 0.091040
O O2 0.415370 0.718807 0.124994
O O3 0.531419 0.844003 0.111644
O O4 0.467127 0.754961 0.000000
O O5 0.805485 0.888794 0.665601
O O6 0.915302 0.960053 0.742540
O O7 0.879739 0.125785 0.630199
O O8 0.596075 0.893687 0.771889
O O9 0.653733 0.925371 0.902331
O O10 0.799309 0.297851 0.228914
O O11 0.861730 0.512334 0.137459
O O12 0.900235 0.193692 0.153971
O O13 0.689816 0.172825 0.266912
O O14 0.752159 0.081350 0.140676
O O15 0.114496 0.150223 0.133192
O O16 0.000000 0.000000 0.153215
O O17 0.769948 0.759078 0.101484
O O18 0.739812 0.987244 0.000000
#
# Coordination Sequence:
#
# PCOD8235718 Si02
#       8
#     8   8   8   8   8   8   8   8
#     4   9  17  31  49  75 120 171 210 247 301 369
#     4   9  19  32  56  82 119 163 220 257 298 364
#     4  10  18  33  57  86 116 166 217 262 308 365
#     4  11  20  35  65  91 121 160 217 263 310 377
#     4  11  20  37  58  89 119 167 215 263 315 371
#     4  10  21  37  60  96 128 153 203 273 319 370
#     4  12  24  38  58  93 133 164 210 275 332 381
#     4  11  21  39  64  89 122 170 209 260 324 381
#
# _framework density 21.422514
#
# number of rings (size 3 to 8) (size 9 to 14) (size 15 to 20)
#    0.000    1.625    3.750    3.000    1.750    1.500 
#    0.000    2.500    0.000    1.875    0.000    0.875 
#    0.000    0.000    0.000    0.000    0.000    0.000 
#
# Total GULP energy -792929.106108 kJ/mol
# GULP energy per Si atom -12389.517283 kJ/mol
# Density = 2.137376 g / cm^3
# Si number density = 21.422514 Si / 1000 Ang^3
#
#
#
# Elastic Constant Matrix: (Units=GPa)
#
#
# Indices 1 2 3 4 5 6 
#
# 1 67.3041 16.6135 -7.1879 0.0000 0.0000 0.0000
# 2 16.6135 74.6763 6.7406 0.0000 0.0000 0.0000
# 3 -7.1879 6.7406 49.9251 0.0000 0.0000 0.0000
# 4 0.0000 0.0000 0.0000 17.0714 0.0000 0.0000
# 5 0.0000 0.0000 0.0000 0.0000 23.3926 0.0000
# 6 0.0000 0.0000 0.0000 0.0000 0.0000 36.9146
#
#
#
# Elastic Compliance Matrix: (Units=1/GPa)
#
#
# Indices 1 2 3 4 5 6 
#
# 1 0.016109 -0.003840 0.002838 0.000000 0.000000 0.000000
# 2 -0.003840 0.014472 -0.002507 0.000000 0.000000 0.000000
# 3 0.002838 -0.002507 0.020777 0.000000 0.000000 0.000000
# 4 0.000000 0.000000 0.000000 0.058577 0.000000 0.000000
# 5 0.000000 0.000000 0.000000 0.000000 0.042748 0.000000
# 6 0.000000 0.000000 0.000000 0.000000 0.000000 0.027090
#
#
# Mechanical properties :
#
#
# Convention : Reuss Voigt Hill
#
# Bulk Modulus (GPa) = 22.55321 24.91533 23.73427
# Shear Modulus (GPa) = 24.80518 27.19169 25.99843
#
# Velocity S-wave (km/s) = 3.40649 3.56659 3.48746
# Velocity P-wave (km/s) = 5.10126 5.34944 5.22682
#
# Compressibility (1/GPa) = 0.04433958
#
# Stress axis : x y z
#
# Youngs Moduli (GPa) = 62.07766 69.10049 48.13014
#
# Poissons Ratio (x) = 0.26534 -0.13658
# Poissons Ratio (y) = 0.23837 0.12065
# Poissons Ratio (z) = -0.17616 0.17322
#
# Static dielectric constant tensor:
#      x y z
#    x 4.018370 0.000000 0.000000 
#    y 0.000000 4.071800 0.000000 
#    z 0.000000 0.000000 3.390330 
# 
# 
# High freq. dielectric constant tensor:
#      x y z
#    x 1.846600 0.000000 0.000000 
#    y 0.000000 1.844930 0.000000 
#    z 0.000000 0.000000 1.780060 
# 
# From -- ./inp_files/27541.got.cif
#   From: 2010.06.25/outbox.cif.g09.slc.cpg/sg58_14_cif.got.tgz:27541.got - 2010.06.26 21:38:00.
