data_PCOD8235012
_publ_section_title
;
Structure prediction by ZEFSAII (Michael W. Deem and Ramdas Pophale) SiO2 
 PCOD8235012
Probable space group: P B C M
;
_chemical_formula_sum "Si O2"
_cell_formula_units_Z 48
_cell_length_a 16.564478
_cell_length_b 9.863272
_cell_length_c 14.225572
_cell_angle_alpha 90.000000
_cell_angle_beta 90.000000
_cell_angle_gamma 90.000000
_cell_volume 2324.173271
_symmetry_space_group_name_H-M "P B C M"
_symmetry_group_IT_number 57
_symmetry_cell_setting 'orthorhombic'
loop_
_space_group_symop_operation_xyz
x,y,z
-x,-y,1/2+z
x,1/2-y,-z
-x,1/2+y,1/2-z
-x,-y,-z
x,y,1/2-z
-x,1/2+y,z
x,1/2-y,1/2+z
loop_
_atom_site_type_symbol
_atom_site_label
_atom_site_fract_x
_atom_site_fract_y
_atom_site_fract_z
Si Si1 0.009872 0.372974 0.565214
Si Si2 0.158525 0.783316 0.641154
Si Si3 0.325958 0.386885 0.945339
Si Si4 0.422577 0.720722 0.250000
Si Si5 0.167664 0.473405 0.857180
Si Si6 0.415738 0.451807 0.750000
Si Si7 0.676054 0.364995 0.929569
O O1 0.035627 0.250000 0.500000
O O2 0.081474 0.399154 0.639112
O O3 0.000000 0.500000 0.500000
O O4 0.928172 0.347260 0.621818
O O5 0.177688 0.790299 0.750000
O O6 0.160142 0.627902 0.605707
O O7 0.227572 0.867427 0.588257
O O8 0.230600 0.395166 0.923410
O O9 0.369730 0.410018 0.845592
O O10 0.348269 0.250000 0.000000
O O11 0.352020 0.496326 0.022802
O O12 0.506394 0.642571 0.250000
O O13 0.432352 0.885266 0.250000
O O14 0.372464 0.666078 0.336748
O O15 0.198726 0.472140 0.750000
O O16 0.650043 0.250000 0.000000
#
# Coordination Sequence:
#
# PCOD8235012 Si02
#       7
#     8   8   8   4   8   4   8
#     4  12  23  39  59  95 136 176 234 289 342 410
#     4  11  22  41  68  97 135 184 240 294 342 417
#     4  12  27  47  76 107 147 190 235 296 359 425
#     4  12  28  48  78 113 146 186 235 296 351 430
#     4  11  22  42  68  95 137 185 236 292 355 410
#     4  12  28  52  76 109 152 184 233 296 359 422
#     4  12  23  46  77 105 136 190 245 280 351 431
#
# _framework density 20.652505000000001
#
# number of rings (size 3 to 8) (size 9 to 14) (size 15 to 20)
#    0.000    0.333    6.667    2.500    2.333    1.333 
#    0.000    1.667    0.000    0.000    0.000    0.000 
#    0.000    0.000    0.000    0.000    0.000    0.000 
#
# Total GULP energy -595155.906075 kJ/mol
# GULP energy per Si atom -12399.081377 kJ/mol
# Density = 2.060550 g / cm^3
# Si number density = 20.652505 Si / 1000 Ang^3
#
#
#
# Elastic Constant Matrix: (Units=GPa)
#
#
# Indices 1 2 3 4 5 6 
#
# 1 120.3496 52.3073 58.5277 0.0000 0.0000 0.0000
# 2 52.3073 158.7004 71.7488 0.0000 0.0000 0.0000
# 3 58.5277 71.7488 139.2878 0.0000 0.0000 0.0000
# 4 0.0000 0.0000 0.0000 38.3832 0.0000 0.0000
# 5 0.0000 0.0000 0.0000 0.0000 53.2234 0.0000
# 6 0.0000 0.0000 0.0000 0.0000 0.0000 45.8157
#
#
#
# Elastic Compliance Matrix: (Units=1/GPa)
#
#
# Indices 1 2 3 4 5 6 
#
# 1 0.010902 -0.001984 -0.003559 0.000000 0.000000 0.000000
# 2 -0.001984 0.008575 -0.003583 0.000000 0.000000 0.000000
# 3 -0.003559 -0.003583 0.010521 0.000000 0.000000 0.000000
# 4 0.000000 0.000000 0.000000 0.026053 0.000000 0.000000
# 5 0.000000 0.000000 0.000000 0.000000 0.018789 0.000000
# 6 0.000000 0.000000 0.000000 0.000000 0.000000 0.021827
#
#
# Mechanical properties :
#
#
# Convention : Reuss Voigt Hill
#
# Bulk Modulus (GPa) = 85.14340 87.05614 86.09977
# Shear Modulus (GPa) = 42.07514 43.20141 42.63828
#
# Velocity S-wave (km/s) = 4.51853 4.57861 4.54867
# Velocity P-wave (km/s) = 8.27883 8.37830 8.32871
#
# Compressibility (1/GPa) = 0.01174489
#
# Stress axis : x y z
#
# Youngs Moduli (GPa) = 91.72345 116.61387 95.05106
#
# Poissons Ratio (x) = 0.23141 0.33828
# Poissons Ratio (y) = 0.18202 0.34061
# Poissons Ratio (z) = 0.32643 0.41788
#
# Static dielectric constant tensor:
#      x y z
#    x 3.501110 0.000000 0.000000 
#    y 0.000000 4.024470 0.000000 
#    z 0.000000 0.000000 3.852070 
# 
# 
# High freq. dielectric constant tensor:
#      x y z
#    x 1.811350 0.000000 0.000000 
#    y 0.000000 1.807220 0.000000 
#    z 0.000000 0.000000 1.830870 
# 
# From -- ./inp_files/19010.got.cif
#   From: 2010.03.12/outbox.cif.g09.slc.cpg/sg57_10_cif.got.tgz:19010.got - 2010.04.16 15:48:40.
