data_PCOD8235323
_publ_section_title
;
Structure prediction by ZEFSAII (Michael W. Deem and Ramdas Pophale) SiO2 
 PCOD8235323
Probable space group: P N N M
;
_chemical_formula_sum "Si O2"
_cell_formula_units_Z 56
_cell_length_a 13.772034
_cell_length_b 8.690967
_cell_length_c 30.781602
_cell_angle_alpha 90.000000
_cell_angle_beta 90.000000
_cell_angle_gamma 90.000000
_cell_volume 3684.320526
_symmetry_space_group_name_H-M "P N N M"
_symmetry_group_IT_number 58
_symmetry_cell_setting 'orthorhombic'
loop_
_space_group_symop_operation_xyz
x,y,z
-x,-y,z
1/2+x,1/2-y,1/2-z
1/2-x,1/2+y,1/2-z
-x,-y,-z
x,y,-z
1/2-x,1/2+y,1/2+z
1/2+x,1/2-y,1/2+z
loop_
_atom_site_type_symbol
_atom_site_label
_atom_site_fract_x
_atom_site_fract_y
_atom_site_fract_z
Si Si1 0.608120 0.693635 0.182785
Si Si2 0.652902 0.406657 0.126907
Si Si3 0.700868 0.827952 0.695735
Si Si4 0.484224 0.173367 0.894892
Si Si5 0.101688 0.914514 0.547981
Si Si6 0.706811 0.159184 0.731076
Si Si7 0.507220 0.821252 0.264056
O O1 0.599788 0.522852 0.161009
O O2 0.581857 0.823577 0.147961
O O3 0.717740 0.733203 0.197154
O O4 0.536935 0.710805 0.224077
O O5 0.756077 0.351142 0.147188
O O6 0.584004 0.262355 0.116783
O O7 0.673268 0.497173 0.081645
O O8 0.762605 0.694440 0.719220
O O9 0.584395 0.795069 0.696218
O O10 0.713362 0.976340 0.726368
O O11 0.423451 0.245135 0.934691
O O12 0.500000 0.000000 0.909339
O O13 0.149898 0.906562 0.500000
O O14 0.000000 0.000000 0.546078
O O15 0.600189 0.227744 0.720207
O O16 0.500000 0.000000 0.249166
#
# Coordination Sequence:
#
# PCOD8235323 Si02
#       7
#     8   8   8   8   8   8   8
#     4   9  16  26  38  54  76 105 137 162 194 238
#     4   9  17  28  42  58  79 108 137 162 194 242
#     4   9  17  28  40  55  76 104 138 167 198 232
#     4  10  18  26  40  59  79 105 133 165 198 231
#     4   8  15  28  43  60  82 106 130 157 195 244
#     4   9  17  26  38  54  75 102 134 169 198 226
#     4   9  16  26  40  57  76 100 134 175 205 225
#
# _framework density 15.199547000000001
#
# number of rings (size 3 to 8) (size 9 to 14) (size 15 to 20)
#    0.000    3.000    0.000    2.571    0.000    3.714 
#    0.000    2.143    0.000    0.000    0.000    0.000 
#    0.000   28.000    0.000    0.000    0.000   72.000 
#
# Total GULP energy -693793.836577 kJ/mol
# GULP energy per Si atom -12389.175653 kJ/mol
# Density = 1.516495 g / cm^3
# Si number density = 15.199547 Si / 1000 Ang^3
#
#
#
# Elastic Constant Matrix: (Units=GPa)
#
#
# Indices 1 2 3 4 5 6 
#
# 1 88.8102 21.0214 35.9136 0.0000 0.0000 0.0000
# 2 21.0214 60.6871 30.4000 0.0000 0.0000 0.0000
# 3 35.9136 30.4000 95.3696 0.0000 0.0000 0.0000
# 4 0.0000 0.0000 0.0000 11.7614 0.0000 0.0000
# 5 0.0000 0.0000 0.0000 0.0000 14.8338 0.0000
# 6 0.0000 0.0000 0.0000 0.0000 0.0000 14.2230
#
#
#
# Elastic Compliance Matrix: (Units=1/GPa)
#
#
# Indices 1 2 3 4 5 6 
#
# 1 0.013608 -0.002555 -0.004310 0.000000 0.000000 0.000000
# 2 -0.002555 0.020089 -0.005441 0.000000 0.000000 0.000000
# 3 -0.004310 -0.005441 0.013843 0.000000 0.000000 0.000000
# 4 0.000000 0.000000 0.000000 0.085024 0.000000 0.000000
# 5 0.000000 0.000000 0.000000 0.000000 0.067414 0.000000
# 6 0.000000 0.000000 0.000000 0.000000 0.000000 0.070309
#
#
# Mechanical properties :
#
#
# Convention : Reuss Voigt Hill
#
# Bulk Modulus (GPa) = 43.61617 46.61525 45.11571
# Shear Modulus (GPa) = 16.52675 18.66576 17.59625
#
# Velocity S-wave (km/s) = 3.30103 3.50815 3.40616
# Velocity P-wave (km/s) = 6.57929 6.86622 6.72428
#
# Compressibility (1/GPa) = 0.02292728
#
# Stress axis : x y z
#
# Youngs Moduli (GPa) = 73.48887 49.77940 72.23837
#
# Poissons Ratio (x) = 0.12716 0.31134
# Poissons Ratio (y) = 0.18773 0.39308
# Poissons Ratio (z) = 0.31673 0.27087
#
# Static dielectric constant tensor:
#      x y z
#    x 3.008290 0.000000 0.000000 
#    y 0.000000 2.871040 0.000000 
#    z 0.000000 0.000000 3.019360 
# 
# 
# High freq. dielectric constant tensor:
#      x y z
#    x 1.563930 0.000000 0.000000 
#    y 0.000000 1.577510 0.000000 
#    z 0.000000 0.000000 1.553060 
# 
# From -- ./inp_files/34790.got.cif
#   From: 2010.06.25/outbox.cif.g09.slc.cpg/sg58_18_cif.got.tgz:34790.got - 2010.06.26 21:38:00.
