data_PCOD8235369
_publ_section_title
;
Structure prediction by ZEFSAII (Michael W. Deem and Ramdas Pophale) SiO2 
 PCOD8235369
Probable space group: P N N M
;
_chemical_formula_sum "Si O2"
_cell_formula_units_Z 64
_cell_length_a 26.968913
_cell_length_b 10.468607
_cell_length_c 13.466667
_cell_angle_alpha 90.000000
_cell_angle_beta 90.000000
_cell_angle_gamma 90.000000
_cell_volume 3802.003040
_symmetry_space_group_name_H-M "P N N M"
_symmetry_group_IT_number 58
_symmetry_cell_setting 'orthorhombic'
loop_
_space_group_symop_operation_xyz
x,y,z
-x,-y,z
1/2+x,1/2-y,1/2-z
1/2-x,1/2+y,1/2-z
-x,-y,-z
x,y,-z
1/2-x,1/2+y,1/2+z
1/2+x,1/2-y,1/2+z
loop_
_atom_site_type_symbol
_atom_site_label
_atom_site_fract_x
_atom_site_fract_y
_atom_site_fract_z
Si Si1 0.903619 0.758080 0.387972
Si Si2 0.724116 0.665401 0.614358
Si Si3 0.506763 0.641236 0.882303
Si Si4 0.177109 0.343846 0.745559
Si Si5 0.714841 0.403885 0.695744
Si Si6 0.680263 0.874909 0.744468
Si Si7 0.888784 0.245588 0.385539
Si Si8 0.167713 0.012300 0.608979
O O1 0.901183 0.703551 0.500000
O O2 0.873826 0.663638 0.316135
O O3 0.880914 0.899993 0.383139
O O4 0.960503 0.769132 0.351486
O O5 0.733257 0.696380 0.500000
O O6 0.776552 0.671195 0.670395
O O7 0.700138 0.522701 0.625199
O O8 0.685550 0.770040 0.657492
O O9 0.500000 0.500000 0.835217
O O10 0.557267 0.706183 0.844241
O O11 0.509548 0.626817 0.000000
O O12 0.181554 0.224065 0.823252
O O13 0.177257 0.480622 0.800609
O O14 0.772365 0.367781 0.681692
O O15 0.708654 0.449297 0.810579
O O16 0.631797 0.855074 0.812825
O O17 0.891624 0.292590 0.500000
O O18 0.849886 0.131082 0.373868
O O19 0.192332 0.027318 0.500000
#
# Coordination Sequence:
#
# PCOD8235369 Si02
#       8
#     8   8   8   8   8   8   8   8
#     4   9  15  25  44  68  94 127 161 192 233 282
#     4  10  19  33  51  69  93 127 166 205 242 279
#     4   9  15  25  42  68  98 127 163 204 236 272
#     4   9  19  32  48  67  98 128 161 194 241 291
#     4   9  18  32  49  67  91 123 166 205 233 275
#     4  10  20  32  46  66  98 130 162 202 238 287
#     4  10  18  28  45  70  99 130 162 197 237 281
#     4   9  15  26  47  71  93 122 159 195 234 278
#
# _framework density 16.833233
#
# number of rings (size 3 to 8) (size 9 to 14) (size 15 to 20)
#    0.000    2.625    2.500    0.375    0.000    5.500 
#    0.000    1.250    0.000    2.250    0.000    0.000 
#    0.000   14.500    0.000    0.000    0.000    0.000 
#
# Total GULP energy -793154.016169 kJ/mol
# GULP energy per Si atom -12393.031503 kJ/mol
# Density = 1.679492 g / cm^3
# Si number density = 16.833233 Si / 1000 Ang^3
#
#
#
# Elastic Constant Matrix: (Units=GPa)
#
#
# Indices 1 2 3 4 5 6 
#
# 1 88.7775 27.0822 17.6527 0.0000 0.0000 0.0000
# 2 27.0822 108.6228 20.6302 0.0000 0.0000 0.0000
# 3 17.6527 20.6302 35.0820 0.0000 0.0000 0.0000
# 4 0.0000 0.0000 0.0000 11.2654 0.0000 0.0000
# 5 0.0000 0.0000 0.0000 0.0000 20.5375 0.0000
# 6 0.0000 0.0000 0.0000 0.0000 0.0000 19.5180
#
#
#
# Elastic Compliance Matrix: (Units=1/GPa)
#
#
# Indices 1 2 3 4 5 6 
#
# 1 0.012986 -0.002248 -0.005213 0.000000 0.000000 0.000000
# 2 -0.002248 0.010753 -0.005192 0.000000 0.000000 0.000000
# 3 -0.005213 -0.005192 0.034181 0.000000 0.000000 0.000000
# 4 0.000000 0.000000 0.000000 0.088767 0.000000 0.000000
# 5 0.000000 0.000000 0.000000 0.000000 0.048691 0.000000
# 6 0.000000 0.000000 0.000000 0.000000 0.000000 0.051235
#
#
# Mechanical properties :
#
#
# Convention : Reuss Voigt Hill
#
# Bulk Modulus (GPa) = 30.66107 40.35694 35.50900
# Shear Modulus (GPa) = 17.68094 21.40531 19.54312
#
# Velocity S-wave (km/s) = 3.24444 3.56983 3.41102
# Velocity P-wave (km/s) = 5.68237 6.40455 6.05424
#
# Compressibility (1/GPa) = 0.03261465
#
# Stress axis : x y z
#
# Youngs Moduli (GPa) = 77.00407 92.99977 29.25612
#
# Poissons Ratio (x) = 0.20904 0.15250
# Poissons Ratio (y) = 0.17309 0.15190
# Poissons Ratio (z) = 0.40140 0.48287
#
# Static dielectric constant tensor:
#      x y z
#    x 3.107180 0.000000 0.000000 
#    y 0.000000 3.396490 0.000000 
#    z 0.000000 0.000000 2.746630 
# 
# 
# High freq. dielectric constant tensor:
#      x y z
#    x 1.631180 0.000000 0.000000 
#    y 0.000000 1.659650 0.000000 
#    z 0.000000 0.000000 1.590160 
# 
# From -- ./inp_files/17854.got.cif
#   From: 2010.06.25/outbox.cif.g09.slc.cpg/sg58_9_cif.got.tgz:17854.got - 2010.06.26 21:38:00.
