data_PCOD8235000
_publ_section_title
;
Structure prediction by ZEFSAII (Michael W. Deem and Ramdas Pophale) SiO2 
 PCOD8235000
Probable space group: P B C M
;
_chemical_formula_sum "Si O2"
_cell_formula_units_Z 56
_cell_length_a 9.425715
_cell_length_b 21.548200
_cell_length_c 14.148150
_cell_angle_alpha 90.000000
_cell_angle_beta 90.000000
_cell_angle_gamma 90.000000
_cell_volume 2873.591018
_symmetry_space_group_name_H-M "P B C M"
_symmetry_group_IT_number 57
_symmetry_cell_setting 'orthorhombic'
loop_
_space_group_symop_operation_xyz
x,y,z
-x,-y,1/2+z
x,1/2-y,-z
-x,1/2+y,1/2-z
-x,-y,-z
x,y,1/2-z
-x,1/2+y,z
x,1/2-y,1/2+z
loop_
_atom_site_type_symbol
_atom_site_label
_atom_site_fract_x
_atom_site_fract_y
_atom_site_fract_z
Si Si1 0.499998 0.899493 0.500000
Si Si2 0.984662 0.635870 0.354763
Si Si3 0.609818 0.500000 0.137003
Si Si4 0.057811 0.500000 0.604684
Si Si5 0.224570 0.677819 0.491028
Si Si6 0.015336 0.864130 0.145237
Si Si7 0.224573 0.177819 0.991028
O O1 0.464923 0.939817 0.407371
O O2 0.369682 0.856804 0.530643
O O3 0.630312 0.856802 0.469358
O O4 0.535076 0.939817 0.592630
O O5 0.970483 0.663990 0.250000
O O6 0.119378 0.667012 0.403746
O O7 0.002664 0.561510 0.345774
O O8 0.842627 0.651320 0.412617
O O9 0.591696 0.500000 0.250000
O O10 0.772887 0.500001 0.106731
O O11 0.997336 0.561510 0.654226
O O12 0.000000 0.500000 0.500000
O O13 0.256173 0.750000 0.500000
O O14 0.157369 0.651321 0.587382
O O15 0.029514 0.836010 0.250000
O O16 0.880617 0.832990 0.096255
O O17 0.256172 0.250000 0.000000
#
# Coordination Sequence:
#
# PCOD8235000 Si02
#       7
#     8   8   8   8   8   8   8
#     4  11  23  42  64  90 125 165 208 254 310 385
#     4  11  22  39  64  91 122 160 205 259 316 370
#     4  11  23  40  64  93 127 163 201 261 323 373
#     4  12  19  38  65  95 124 156 202 256 322 374
#     4  11  24  41  61  88 124 166 212 257 302 365
#     4  11  22  39  64  91 122 160 205 259 316 370
#     4  11  24  41  61  88 124 166 212 257 302 365
#
# _framework density 19.487811000000001
#
# number of rings (size 3 to 8) (size 9 to 14) (size 15 to 20)
#    0.000    0.857    5.714    3.429    0.000    4.571 
#    0.000    0.000    0.000    5.143    0.000    0.000 
#    0.000    0.000    0.000    0.000    0.000    0.000 
#
# Total GULP energy -694542.478940 kJ/mol
# GULP energy per Si atom -12402.544267 kJ/mol
# Density = 1.944346 g / cm^3
# Si number density = 19.487811 Si / 1000 Ang^3
#
#
#
# Elastic Constant Matrix: (Units=GPa)
#
#
# Indices 1 2 3 4 5 6 
#
# 1 121.6670 39.9707 48.1362 0.0000 0.0000 0.0000
# 2 39.9707 133.5113 28.8056 0.0000 0.0000 0.0000
# 3 48.1362 28.8056 167.0736 0.0000 0.0000 0.0000
# 4 0.0000 0.0000 0.0000 -12.4722 0.0000 0.0000
# 5 0.0000 0.0000 0.0000 0.0000 2.3659 0.0000
# 6 0.0000 0.0000 0.0000 0.0000 0.0000 7.9190
#
#
#
# Elastic Compliance Matrix: (Units=1/GPa)
#
#
# Indices 1 2 3 4 5 6 
#
# 1 0.010001 -0.002464 -0.002456 0.000000 0.000000 0.000000
# 2 -0.002464 0.008386 -0.000736 0.000000 0.000000 0.000000
# 3 -0.002456 -0.000736 0.006820 0.000000 0.000000 0.000000
# 4 0.000000 0.000000 0.000000 -0.080178 0.000000 0.000000
# 5 0.000000 0.000000 0.000000 0.000000 0.422673 0.000000
# 6 0.000000 0.000000 0.000000 0.000000 0.000000 0.126279
#
#
# Mechanical properties :
#
#
# Convention : Reuss Voigt Hill
#
# Bulk Modulus (GPa) = 71.97310 72.89743 72.43526
# Shear Modulus (GPa) = 9.80536 19.91850 14.86193
#
# Velocity S-wave (km/s) = 2.24554 3.20050 2.76457
# Velocity P-wave (km/s) = 6.61331 7.15161 6.88772
#
# Compressibility (1/GPa) = 0.01389408
#
# Stress axis : x y z
#
# Youngs Moduli (GPa) = 99.99499 119.23969 146.62702
#
# Poissons Ratio (x) = 0.29380 0.36018
# Poissons Ratio (y) = 0.24638 0.10792
# Poissons Ratio (z) = 0.24563 0.08776
#
# Static dielectric constant tensor:
#      x y z
#    x 3.591330 0.000000 0.000000 
#    y 0.000000 3.980850 0.000000 
#    z 0.000000 0.000000 3.849680 
# 
# 
# High freq. dielectric constant tensor:
#      x y z
#    x 1.756230 0.000000 0.000000 
#    y 0.000000 1.775330 0.000000 
#    z 0.000000 0.000000 1.756830 
# 
# From -- ./inp_files/16688.got.cif
#   From: 2010.03.12/outbox.cif.g09.slc.cpg/sg57_9_cif.got.tgz:16688.got - 2010.04.16 15:48:40.
