data_PCOD8235564
_publ_section_title
;
Structure prediction by ZEFSAII (Michael W. Deem and Ramdas Pophale) SiO2 
 PCOD8235564
Probable space group: P N N M
;
_chemical_formula_sum "Si O2"
_cell_formula_units_Z 64
_cell_length_a 18.592480
_cell_length_b 21.544552
_cell_length_c 8.803886
_cell_angle_alpha 90.000000
_cell_angle_beta 90.000000
_cell_angle_gamma 90.000000
_cell_volume 3526.543141
_symmetry_space_group_name_H-M "P N N M"
_symmetry_group_IT_number 58
_symmetry_cell_setting 'orthorhombic'
loop_
_space_group_symop_operation_xyz
x,y,z
-x,-y,z
1/2+x,1/2-y,1/2-z
1/2-x,1/2+y,1/2-z
-x,-y,-z
x,y,-z
1/2-x,1/2+y,1/2+z
1/2+x,1/2-y,1/2+z
loop_
_atom_site_type_symbol
_atom_site_label
_atom_site_fract_x
_atom_site_fract_y
_atom_site_fract_z
Si Si1 0.319137 0.411861 0.679338
Si Si2 0.417481 0.514396 0.822452
Si Si3 0.533265 0.810524 0.167572
Si Si4 0.531117 0.066132 0.180193
Si Si5 0.421687 0.644435 0.319948
Si Si6 0.575046 0.693737 0.677619
Si Si7 0.326739 0.883291 0.679382
Si Si8 0.371880 0.761776 0.829266
O O1 0.304744 0.413260 0.500000
O O2 0.369666 0.468523 0.723614
O O3 0.357579 0.347556 0.730003
O O4 0.245010 0.418820 0.769668
O O5 0.500000 0.500000 0.785188
O O6 0.397546 0.583139 0.767998
O O7 0.400240 0.506692 0.000000
O O8 0.527273 0.881136 0.231040
O O9 0.583666 0.764641 0.264497
O O10 0.452936 0.785042 0.166680
O O11 0.566869 0.811201 0.000000
O O12 0.606406 0.075968 0.263729
O O13 0.500000 0.000000 0.229326
O O14 0.544629 0.071264 0.000000
O O15 0.417602 0.634275 0.500000
O O16 0.501913 0.661765 0.262360
O O17 0.366990 0.698925 0.269458
O O18 0.569657 0.697781 0.500000
O O19 0.330971 0.877170 0.500000
O O20 0.323701 0.814613 0.751406
O O21 0.343215 0.749747 0.000000
#
# Coordination Sequence:
#
# PCOD8235564 Si02
#       8
#     8   8   8   8   8   8   8   8
#     4  11  22  37  55  75 105 148 190 230 278 333
#     4  11  22  34  51  79 113 149 190 233 276 325
#     4   8  15  27  48  77 104 129 162 210 261 310
#     4   9  18  35  59  84 109 142 183 224 272 333
#     4  10  18  31  52  79 108 139 179 226 271 315
#     4   9  18  30  48  74 103 136 174 217 266 317
#     4  11  22  36  55  82 111 140 181 231 282 336
#     4   9  17  32  53  77 103 135 173 217 267 317
#
# _framework density 18.148083
#
# number of rings (size 3 to 8) (size 9 to 14) (size 15 to 20)
#    0.000    2.250    1.250    3.375    0.000    5.250 
#    0.000    0.000    2.750    0.000    0.000    0.000 
#    0.000    0.000    0.000    0.000    0.000    0.000 
#
# Total GULP energy -793511.749109 kJ/mol
# GULP energy per Si atom -12398.621080 kJ/mol
# Density = 1.810678 g / cm^3
# Si number density = 18.148083 Si / 1000 Ang^3
#
#
#
# Elastic Constant Matrix: (Units=GPa)
#
#
# Indices 1 2 3 4 5 6 
#
# 1 61.6712 36.8254 26.7623 0.0000 0.0000 0.0000
# 2 36.8254 134.6729 28.7438 0.0000 0.0000 0.0000
# 3 26.7623 28.7438 62.1375 0.0000 0.0000 0.0000
# 4 0.0000 0.0000 0.0000 31.1983 0.0000 0.0000
# 5 0.0000 0.0000 0.0000 0.0000 21.1079 0.0000
# 6 0.0000 0.0000 0.0000 0.0000 0.0000 18.8556
#
#
#
# Elastic Compliance Matrix: (Units=1/GPa)
#
#
# Indices 1 2 3 4 5 6 
#
# 1 0.022113 -0.004454 -0.007464 0.000000 0.000000 0.000000
# 2 -0.004454 0.009136 -0.002308 0.000000 0.000000 0.000000
# 3 -0.007464 -0.002308 0.020376 0.000000 0.000000 0.000000
# 4 0.000000 0.000000 0.000000 0.032053 0.000000 0.000000
# 5 0.000000 0.000000 0.000000 0.000000 0.047376 0.000000
# 6 0.000000 0.000000 0.000000 0.000000 0.000000 0.053035
#
#
# Mechanical properties :
#
#
# Convention : Reuss Voigt Hill
#
# Bulk Modulus (GPa) = 43.15218 49.23829 46.19523
# Shear Modulus (GPa) = 22.70006 25.30903 24.00455
#
# Velocity S-wave (km/s) = 3.54054 3.73846 3.64085
# Velocity P-wave (km/s) = 6.36736 6.76943 6.57147
#
# Compressibility (1/GPa) = 0.02317380
#
# Stress axis : x y z
#
# Youngs Moduli (GPa) = 45.22143 109.45922 49.07829
#
# Poissons Ratio (x) = 0.48750 0.36632
# Poissons Ratio (y) = 0.20140 0.11327
# Poissons Ratio (z) = 0.33753 0.25262
#
# Static dielectric constant tensor:
#      x y z
#    x 3.154970 0.000000 0.000000 
#    y 0.000000 3.630630 0.000000 
#    z 0.000000 0.000000 3.373300 
# 
# 
# High freq. dielectric constant tensor:
#      x y z
#    x 1.662930 0.000000 0.000000 
#    y 0.000000 1.711380 0.000000 
#    z 0.000000 0.000000 1.707620 
# 
# From -- ./inp_files/8382.got.cif
#   From: 2010.06.25/outbox.cif.g09.slc.cpg/sg58_5_cif.got.tgz:8382.got - 2010.06.26 21:38:00.
