data_PCOD8235034
_publ_section_title
;
Structure prediction by ZEFSAII (Michael W. Deem and Ramdas Pophale) SiO2 
 PCOD8235034
Probable space group: P B C M
;
_chemical_formula_sum "Si O2"
_cell_formula_units_Z 52
_cell_length_a 9.355681
_cell_length_b 10.829842
_cell_length_c 27.797303
_cell_angle_alpha 90.000000
_cell_angle_beta 90.000000
_cell_angle_gamma 90.000000
_cell_volume 2816.437946
_symmetry_space_group_name_H-M "P B C M"
_symmetry_group_IT_number 57
_symmetry_cell_setting 'orthorhombic'
loop_
_space_group_symop_operation_xyz
x,y,z
-x,-y,1/2+z
x,1/2-y,-z
-x,1/2+y,1/2-z
-x,-y,-z
x,y,1/2-z
-x,1/2+y,z
x,1/2-y,1/2+z
loop_
_atom_site_type_symbol
_atom_site_label
_atom_site_fract_x
_atom_site_fract_y
_atom_site_fract_z
Si Si1 0.124018 0.401593 0.803683
Si Si2 0.720786 0.250000 0.000000
Si Si3 0.281344 0.104874 0.102804
Si Si4 0.558370 0.050958 0.049783
Si Si5 0.096260 0.122662 0.804138
Si Si6 0.216547 0.376963 0.097583
Si Si7 0.067758 0.940019 0.453505
O O1 0.187377 0.409507 0.750000
O O2 0.257807 0.408386 0.839984
O O3 0.043560 0.267150 0.810335
O O4 0.025374 0.520558 0.813237
O O5 0.619010 0.313492 0.960497
O O6 0.817002 0.159864 0.968820
O O7 0.433312 0.046317 0.089220
O O8 0.286258 0.245959 0.085857
O O9 0.146856 0.044790 0.076506
O O10 0.692362 0.976164 0.069346
O O11 0.500000 0.000000 0.000000
O O12 0.158785 0.104807 0.750000
O O13 0.216837 0.097924 0.844689
O O14 0.053174 0.377789 0.079330
O O15 0.000000 0.000000 0.500000
#
# Coordination Sequence:
#
# PCOD8235034 Si02
#       7
#     8   4   8   8   8   8   8
#     4   9  18  36  61  91 121 153 195 246 301 355
#     4  12  24  38  60  82 120 156 200 248 292 348
#     4  11  23  39  59  86 118 159 195 238 300 357
#     4  12  24  41  57  83 119 164 199 238 295 360
#     4   9  18  34  60  90 120 151 194 249 302 350
#     4  11  23  39  61  86 118 154 197 247 298 349
#     4  12  22  38  58  87 113 150 201 248 290 341
#
# _framework density 18.463037
#
# number of rings (size 3 to 8) (size 9 to 14) (size 15 to 20)
#    0.000    1.231    4.615    1.846    0.000    1.231 
#    0.000    0.769    0.000    0.000    0.000    1.077 
#    0.000    0.000    0.000    0.000    0.000    0.000 
#
# Total GULP energy -644578.350420 kJ/mol
# GULP energy per Si atom -12395.737508 kJ/mol
# Density = 1.842101 g / cm^3
# Si number density = 18.463037 Si / 1000 Ang^3
#
#
#
# Elastic Constant Matrix: (Units=GPa)
#
#
# Indices 1 2 3 4 5 6 
#
# 1 87.8008 33.9503 45.4651 0.0000 0.0000 0.0000
# 2 33.9503 96.1434 45.1146 0.0000 0.0000 0.0000
# 3 45.4651 45.1146 116.5792 0.0000 0.0000 0.0000
# 4 0.0000 0.0000 0.0000 29.5890 0.0000 0.0000
# 5 0.0000 0.0000 0.0000 0.0000 27.9167 0.0000
# 6 0.0000 0.0000 0.0000 0.0000 0.0000 31.8436
#
#
#
# Elastic Compliance Matrix: (Units=1/GPa)
#
#
# Indices 1 2 3 4 5 6 
#
# 1 0.014999 -0.003118 -0.004643 0.000000 0.000000 0.000000
# 2 -0.003118 0.013357 -0.003953 0.000000 0.000000 0.000000
# 3 -0.004643 -0.003953 0.011918 0.000000 0.000000 0.000000
# 4 0.000000 0.000000 0.000000 0.033796 0.000000 0.000000
# 5 0.000000 0.000000 0.000000 0.000000 0.035821 0.000000
# 6 0.000000 0.000000 0.000000 0.000000 0.000000 0.031403
#
#
# Mechanical properties :
#
#
# Convention : Reuss Voigt Hill
#
# Bulk Modulus (GPa) = 59.35841 61.06482 60.21162
# Shear Modulus (GPa) = 29.35323 29.60275 29.47799
#
# Velocity S-wave (km/s) = 3.99160 4.00853 4.00008
# Velocity P-wave (km/s) = 7.31187 7.38717 7.34962
#
# Compressibility (1/GPa) = 0.01684681
#
# Stress axis : x y z
#
# Youngs Moduli (GPa) = 66.66984 74.86678 83.90385
#
# Poissons Ratio (x) = 0.23342 0.38957
# Poissons Ratio (y) = 0.20787 0.33168
# Poissons Ratio (z) = 0.30955 0.29595
#
# Static dielectric constant tensor:
#      x y z
#    x 2.860000 0.000000 0.000000 
#    y 0.000000 3.799630 0.000000 
#    z 0.000000 0.000000 3.865770 
# 
# 
# High freq. dielectric constant tensor:
#      x y z
#    x 1.688750 0.000000 0.000000 
#    y 0.000000 1.734050 0.000000 
#    z 0.000000 0.000000 1.730710 
# 
# From -- ./inp_files/28326.got.cif
#   From: 2010.03.12/outbox.cif.g09.slc.cpg/sg57_15_cif.got.tgz:28326.got - 2010.04.16 15:48:40.
