data_PCOD8235650
_publ_section_title
;
Structure prediction by ZEFSAII (Michael W. Deem and Ramdas Pophale) SiO2 
 PCOD8235650
Probable space group: P N N M
;
_chemical_formula_sum "Si O2"
_cell_formula_units_Z 64
_cell_length_a 12.663049
_cell_length_b 29.737578
_cell_length_c 9.131219
_cell_angle_alpha 90.000000
_cell_angle_beta 90.000000
_cell_angle_gamma 90.000000
_cell_volume 3438.528596
_symmetry_space_group_name_H-M "P N N M"
_symmetry_group_IT_number 58
_symmetry_cell_setting 'orthorhombic'
loop_
_space_group_symop_operation_xyz
x,y,z
-x,-y,z
1/2+x,1/2-y,1/2-z
1/2-x,1/2+y,1/2-z
-x,-y,-z
x,y,-z
1/2-x,1/2+y,1/2+z
1/2+x,1/2-y,1/2+z
loop_
_atom_site_type_symbol
_atom_site_label
_atom_site_fract_x
_atom_site_fract_y
_atom_site_fract_z
Si Si1 0.038166 0.711378 0.826710
Si Si2 0.867752 0.383362 0.169989
Si Si3 0.383661 0.305279 0.335872
Si Si4 0.596456 0.083992 0.672970
Si Si5 0.147117 0.328399 0.665221
Si Si6 0.321003 0.568704 0.672320
Si Si7 0.765850 0.032325 0.172766
Si Si8 0.949829 0.099294 0.825043
O O1 0.112657 0.668835 0.788323
O O2 0.083629 0.758080 0.762114
O O3 0.928546 0.706786 0.743379
O O4 0.018160 0.711959 0.000000
O O5 0.767578 0.399556 0.259789
O O6 0.971645 0.413096 0.210785
O O7 0.841673 0.388806 0.000000
O O8 0.428822 0.304839 0.500000
O O9 0.258698 0.304655 0.336466
O O10 0.429902 0.350460 0.259677
O O11 0.613642 0.083759 0.500000
O O12 0.656214 0.126316 0.742031
O O13 0.654040 0.040961 0.744906
O O14 0.109215 0.339597 0.500000
O O15 0.316015 0.575459 0.500000
O O16 0.301610 0.517398 0.716823
O O17 0.436618 0.582433 0.731943
O O18 0.857463 0.065908 0.230040
O O19 0.747084 0.037525 0.000000
O O20 0.944731 0.099854 0.000000
#
# Coordination Sequence:
#
# PCOD8235650 Si02
#       8
#     8   8   8   8   8   8   8   8
#     4   9  19  35  53  76 106 143 179 217 270 327
#     4   9  20  37  52  70 106 147 177 215 273 326
#     4   9  17  31  55  80 103 137 179 217 264 323
#     4  10  20  35  56  79 104 140 181 222 268 322
#     4  10  18  32  54  79 104 137 177 223 270 314
#     4  10  21  34  54  81 109 141 180 221 265 322
#     4  10  19  34  56  82 108 138 177 224 271 319
#     4   9  17  33  55  80 108 140 176 219 273 323
#
# _framework density 18.612611999999999
#
# number of rings (size 3 to 8) (size 9 to 14) (size 15 to 20)
#    0.000    2.500    1.250    1.875    0.000    6.000 
#    0.000    4.375    0.000    1.500    0.000    0.000 
#    0.000    0.000    0.000    0.000    0.000    0.000 
#
# Total GULP energy -793344.129816 kJ/mol
# GULP energy per Si atom -12396.002028 kJ/mol
# Density = 1.857025 g / cm^3
# Si number density = 18.612612 Si / 1000 Ang^3
#
#
#
# Elastic Constant Matrix: (Units=GPa)
#
#
# Indices 1 2 3 4 5 6 
#
# 1 67.5863 47.0210 14.2447 0.0000 0.0000 0.0000
# 2 47.0210 123.5208 22.4927 0.0000 0.0000 0.0000
# 3 14.2447 22.4927 32.2171 0.0000 0.0000 0.0000
# 4 0.0000 0.0000 0.0000 19.3945 0.0000 0.0000
# 5 0.0000 0.0000 0.0000 0.0000 22.6072 0.0000
# 6 0.0000 0.0000 0.0000 0.0000 0.0000 26.2461
#
#
#
# Elastic Compliance Matrix: (Units=1/GPa)
#
#
# Indices 1 2 3 4 5 6 
#
# 1 0.020602 -0.007085 -0.004163 0.000000 0.000000 0.000000
# 2 -0.007085 0.011711 -0.005044 0.000000 0.000000 0.000000
# 3 -0.004163 -0.005044 0.036401 0.000000 0.000000 0.000000
# 4 0.000000 0.000000 0.000000 0.051561 0.000000 0.000000
# 5 0.000000 0.000000 0.000000 0.000000 0.044234 0.000000
# 6 0.000000 0.000000 0.000000 0.000000 0.000000 0.038101
#
#
# Mechanical properties :
#
#
# Convention : Reuss Voigt Hill
#
# Bulk Modulus (GPa) = 27.67638 43.42678 35.55158
# Shear Modulus (GPa) = 20.22349 22.95395 21.58872
#
# Velocity S-wave (km/s) = 3.29986 3.51557 3.40942
# Velocity P-wave (km/s) = 5.42409 6.31360 5.88567
#
# Compressibility (1/GPa) = 0.03613190
#
# Stress axis : x y z
#
# Youngs Moduli (GPa) = 48.53847 85.38845 27.47146
#
# Poissons Ratio (x) = 0.60495 0.11436
# Poissons Ratio (y) = 0.34388 0.13856
# Poissons Ratio (z) = 0.20207 0.43068
#
# Static dielectric constant tensor:
#      x y z
#    x 3.470210 0.000000 0.000000 
#    y 0.000000 3.637070 0.000000 
#    z 0.000000 0.000000 3.210350 
# 
# 
# High freq. dielectric constant tensor:
#      x y z
#    x 1.724870 0.000000 0.000000 
#    y 0.000000 1.728470 0.000000 
#    z 0.000000 0.000000 1.692330 
# 
# From -- ./inp_files/4795.got.cif
#   From: 2010.06.25/outbox.cif.g09.slc.cpg/sg58_3_cif.got.tgz:4795.got - 2010.06.26 21:38:00.
