data_PCOD8235672
_publ_section_title
;
Structure prediction by ZEFSAII (Michael W. Deem and Ramdas Pophale) SiO2 
 PCOD8235672
Probable space group: P N N M
;
_chemical_formula_sum "Si O2"
_cell_formula_units_Z 48
_cell_length_a 14.962407
_cell_length_b 17.685971
_cell_length_c 9.043889
_cell_angle_alpha 90.000000
_cell_angle_beta 90.000000
_cell_angle_gamma 90.000000
_cell_volume 2393.236380
_symmetry_space_group_name_H-M "P N N M"
_symmetry_group_IT_number 58
_symmetry_cell_setting 'orthorhombic'
loop_
_space_group_symop_operation_xyz
x,y,z
-x,-y,z
1/2+x,1/2-y,1/2-z
1/2-x,1/2+y,1/2-z
-x,-y,-z
x,y,-z
1/2-x,1/2+y,1/2+z
1/2+x,1/2-y,1/2+z
loop_
_atom_site_type_symbol
_atom_site_label
_atom_site_fract_x
_atom_site_fract_y
_atom_site_fract_z
Si Si1 0.213039 0.052651 0.332514
Si Si2 0.555529 0.169154 0.326309
Si Si3 0.828583 0.106593 0.666802
Si Si4 0.191187 0.200918 0.170279
Si Si5 0.331212 0.944066 0.826071
Si Si6 0.603943 0.758843 0.831545
O O1 0.239627 0.072398 0.500000
O O2 0.167546 0.124562 0.258115
O O3 0.141390 0.982019 0.326850
O O4 0.303926 0.025300 0.246511
O O5 0.558698 0.154574 0.500000
O O6 0.624336 0.234133 0.274289
O O7 0.577875 0.090272 0.242822
O O8 0.456441 0.194069 0.279813
O O9 0.791611 0.124966 0.500000
O O10 0.746370 0.116563 0.781829
O O11 0.906129 0.167847 0.701176
O O12 0.293210 0.222709 0.201220
O O13 0.173562 0.183526 0.000000
O O14 0.341630 0.954301 0.000000
O O15 0.576559 0.778072 0.000000
#
# Coordination Sequence:
#
# PCOD8235672 Si02
#       6
#     8   8   8   8   8   8
#     4   9  18  33  56  82 109 145 183 225 277 327
#     4  11  22  37  56  83 115 146 184 230 277 323
#     4   8  16  34  55  76 106 144 179 221 275 321
#     4  10  20  37  57  80 114 147 179 228 278 325
#     4  10  18  32  56  80 105 143 185 219 269 329
#     4  10  20  37  58  81 111 146 185 226 277 331
#
# _framework density 20.056522000000001
#
# number of rings (size 3 to 8) (size 9 to 14) (size 15 to 20)
#    1.000    1.333    1.667    2.000    0.000    2.667 
#    0.000    1.667    0.000   10.000    0.000    0.000 
#    0.000    0.000    0.000    0.000    0.000    0.000 
#
# Total GULP energy -594628.886666 kJ/mol
# GULP energy per Si atom -12388.101806 kJ/mol
# Density = 2.001087 g / cm^3
# Si number density = 20.056522 Si / 1000 Ang^3
#
#
#
# Elastic Constant Matrix: (Units=GPa)
#
#
# Indices 1 2 3 4 5 6 
#
# 1 31.0453 -22.1406 1.3159 0.0000 0.0000 0.0000
# 2 -22.1406 37.9340 9.2832 0.0000 0.0000 0.0000
# 3 1.3159 9.2832 80.0664 0.0000 0.0000 0.0000
# 4 0.0000 0.0000 0.0000 33.1965 0.0000 0.0000
# 5 0.0000 0.0000 0.0000 0.0000 21.1906 0.0000
# 6 0.0000 0.0000 0.0000 0.0000 0.0000 10.4245
#
#
#
# Elastic Compliance Matrix: (Units=1/GPa)
#
#
# Indices 1 2 3 4 5 6 
#
# 1 0.057013 0.034484 -0.004935 0.000000 0.000000 0.000000
# 2 0.034484 0.047989 -0.006131 0.000000 0.000000 0.000000
# 3 -0.004935 -0.006131 0.013282 0.000000 0.000000 0.000000
# 4 0.000000 0.000000 0.000000 0.030124 0.000000 0.000000
# 5 0.000000 0.000000 0.000000 0.000000 0.047191 0.000000
# 6 0.000000 0.000000 0.000000 0.000000 0.000000 0.095928
#
#
# Mechanical properties :
#
#
# Convention : Reuss Voigt Hill
#
# Bulk Modulus (GPa) = 6.05622 13.99588 10.02605
# Shear Modulus (GPa) = 16.68170 23.66813 20.17491
#
# Velocity S-wave (km/s) = 2.88711 3.43894 3.17504
# Velocity P-wave (km/s) = 3.76032 4.77093 4.29545
#
# Compressibility (1/GPa) = 0.16511961
#
# Stress axis : x y z
#
# Youngs Moduli (GPa) = 17.53982 20.83816 75.29232
#
# Poissons Ratio (x) = -0.71858 0.37159
# Poissons Ratio (y) = -0.60484 0.46160
# Poissons Ratio (z) = 0.08656 0.12775
#
# Static dielectric constant tensor:
#      x y z
#    x 3.184500 0.000000 0.000000 
#    y 0.000000 3.803210 0.000000 
#    z 0.000000 0.000000 3.492470 
# 
# 
# High freq. dielectric constant tensor:
#      x y z
#    x 1.735170 0.000000 0.000000 
#    y 0.000000 1.789930 0.000000 
#    z 0.000000 0.000000 1.779710 
# 
# From -- ./inp_files/6044.got.cif
#   From: 2010.06.25/outbox.cif.g09.slc.cpg/sg58_4_cif.got.tgz:6044.got - 2010.06.26 21:38:00.
