data_PCOD8235995
_publ_section_title
;
Structure prediction by ZEFSAII (Michael W. Deem and Ramdas Pophale) SiO2 
 PCOD8235995
Probable space group: P N N M
;
_chemical_formula_sum "Si O2"
_cell_formula_units_Z 40
_cell_length_a 9.047156
_cell_length_b 25.759291
_cell_length_c 9.318957
_cell_angle_alpha 90.000000
_cell_angle_beta 90.000000
_cell_angle_gamma 90.000000
_cell_volume 2171.767311
_symmetry_space_group_name_H-M "P N N M"
_symmetry_group_IT_number 58
_symmetry_cell_setting 'orthorhombic'
loop_
_space_group_symop_operation_xyz
x,y,z
-x,-y,z
1/2+x,1/2-y,1/2-z
1/2-x,1/2+y,1/2-z
-x,-y,-z
x,y,-z
1/2-x,1/2+y,1/2+z
1/2+x,1/2-y,1/2+z
loop_
_atom_site_type_symbol
_atom_site_label
_atom_site_fract_x
_atom_site_fract_y
_atom_site_fract_z
Si Si1 0.147129 0.698455 0.165118
Si Si2 0.155257 0.294438 0.668560
Si Si3 0.339878 0.598956 0.166386
Si Si4 0.824284 0.998253 0.842026
Si Si5 0.359370 0.388940 0.668898
O O1 0.263615 0.741786 0.215805
O O2 0.216216 0.642142 0.190621
O O3 0.001372 0.703710 0.256900
O O4 0.105050 0.707553 0.000000
O O5 0.127440 0.296478 0.500000
O O6 0.252908 0.343090 0.720179
O O7 0.272436 0.545237 0.229261
O O8 0.487837 0.616568 0.246366
O O9 0.377446 0.590758 0.000000
O O10 0.775788 0.056479 0.795433
O O11 0.760376 0.984382 0.000000
O O12 0.000000 0.000000 0.848723
O O13 0.396652 0.385680 0.500000
#
# Coordination Sequence:
#
# PCOD8235995 Si02
#       5
#     8   8   8   8   8
#     4  10  22  37  52  76 106 131 164 210 253 299
#     4  10  21  37  56  76  99 132 171 207 250 303
#     4  10  19  31  50  77 106 135 167 203 248 301
#     4   8  15  29  49  73 101 132 168 209 246 285
#     4   9  18  33  53  77 102 130 170 213 247 289
#
# _framework density 18.418178000000001
#
# number of rings (size 3 to 8) (size 9 to 14) (size 15 to 20)
#    0.000    2.600    0.000    3.000    0.000    6.800 
#    0.000    1.000    0.000    6.000    0.000    0.000 
#    0.000    0.000    0.000    0.000    0.000    0.000 
#
# Total GULP energy -495955.428769 kJ/mol
# GULP energy per Si atom -12398.885719 kJ/mol
# Density = 1.837626 g / cm^3
# Si number density = 18.418178 Si / 1000 Ang^3
#
#
#
# Elastic Constant Matrix: (Units=GPa)
#
#
# Indices 1 2 3 4 5 6 
#
# 1 58.3732 9.3713 34.7914 0.0000 0.0000 0.0000
# 2 9.3713 91.6560 29.9044 0.0000 0.0000 0.0000
# 3 34.7914 29.9044 66.9767 0.0000 0.0000 0.0000
# 4 0.0000 0.0000 0.0000 31.0551 0.0000 0.0000
# 5 0.0000 0.0000 0.0000 0.0000 29.5354 0.0000
# 6 0.0000 0.0000 0.0000 0.0000 0.0000 24.2547
#
#
#
# Elastic Compliance Matrix: (Units=1/GPa)
#
#
# Indices 1 2 3 4 5 6 
#
# 1 0.025116 0.001977 -0.013929 0.000000 0.000000 0.000000
# 2 0.001977 0.012926 -0.006798 0.000000 0.000000 0.000000
# 3 -0.013929 -0.006798 0.025201 0.000000 0.000000 0.000000
# 4 0.000000 0.000000 0.000000 0.032201 0.000000 0.000000
# 5 0.000000 0.000000 0.000000 0.000000 0.033858 0.000000
# 6 0.000000 0.000000 0.000000 0.000000 0.000000 0.041229
#
#
# Mechanical properties :
#
#
# Convention : Reuss Voigt Hill
#
# Bulk Modulus (GPa) = 38.84673 40.57111 39.70892
# Shear Modulus (GPa) = 23.08263 26.49830 24.79046
#
# Velocity S-wave (km/s) = 3.54397 3.79714 3.67274
# Velocity P-wave (km/s) = 6.15497 6.42650 6.29220
#
# Compressibility (1/GPa) = 0.02574220
#
# Stress axis : x y z
#
# Youngs Moduli (GPa) = 39.81565 77.36170 39.68029
#
# Poissons Ratio (x) = -0.15292 0.55271
# Poissons Ratio (y) = -0.07870 0.26976
# Poissons Ratio (z) = 0.55459 0.52592
#
# Static dielectric constant tensor:
#      x y z
#    x 3.007470 0.000000 0.000000 
#    y 0.000000 4.005390 0.000000 
#    z 0.000000 0.000000 3.385390 
# 
# 
# High freq. dielectric constant tensor:
#      x y z
#    x 1.682770 0.000000 0.000000 
#    y 0.000000 1.738270 0.000000 
#    z 0.000000 0.000000 1.710770 
# 
# From -- ./inp_files/2447.got.cif
#   From: 2010.06.25/outbox.cif.g09.slc.cpg/sg58_2_cif.got.tgz:2447.got - 2010.06.26 21:38:00.
