data_PCOD8235717
_publ_section_title
;
Structure prediction by ZEFSAII (Michael W. Deem and Ramdas Pophale) SiO2 
 PCOD8235717
Probable space group: P N N M
;
_chemical_formula_sum "Si O2"
_cell_formula_units_Z 48
_cell_length_a 8.324437
_cell_length_b 14.798357
_cell_length_c 18.473992
_cell_angle_alpha 90.000000
_cell_angle_beta 90.000000
_cell_angle_gamma 90.000000
_cell_volume 2275.773952
_symmetry_space_group_name_H-M "P N N M"
_symmetry_group_IT_number 58
_symmetry_cell_setting 'orthorhombic'
loop_
_space_group_symop_operation_xyz
x,y,z
-x,-y,z
1/2+x,1/2-y,1/2-z
1/2-x,1/2+y,1/2-z
-x,-y,-z
x,y,-z
1/2-x,1/2+y,1/2+z
1/2+x,1/2-y,1/2+z
loop_
_atom_site_type_symbol
_atom_site_label
_atom_site_fract_x
_atom_site_fract_y
_atom_site_fract_z
Si Si1 0.324345 0.460428 0.580330
Si Si2 0.417222 0.908096 0.582567
Si Si3 0.814665 0.134642 0.293561
Si Si4 0.176208 0.523972 0.716435
Si Si5 0.511941 0.714598 0.581285
Si Si6 0.139155 0.193600 0.232600
O O1 0.500000 0.500000 0.599080
O O2 0.272350 0.487839 0.500000
O O3 0.190466 0.506556 0.630678
O O4 0.330677 0.349798 0.588265
O O5 0.364239 0.924593 0.500000
O O6 0.253196 0.882806 0.625492
O O7 0.542733 0.823177 0.588939
O O8 0.500000 0.000000 0.613112
O O9 0.701981 0.206174 0.250783
O O10 0.996760 0.171384 0.289425
O O11 0.810060 0.041168 0.251009
O O12 0.213447 0.624599 0.743748
O O13 0.000000 0.500000 0.745034
O O14 0.436507 0.697143 0.500000
O O15 0.399007 0.683668 0.647145
#
# Coordination Sequence:
#
# PCOD8235717 Si02
#       6
#     8   8   8   8   8   8
#     4  10  18  33  57  84 116 154 192 232 290 357
#     4   9  19  36  60  90 119 154 203 254 305 359
#     4  11  22  38  59  87 117 154 198 245 299 355
#     4  12  23  37  56  85 120 157 200 242 289 351
#     4   9  17  33  60  86 113 153 197 236 290 357
#     4  11  22  39  61  86 118 155 196 243 299 357
#
# _framework density 21.091725
#
# number of rings (size 3 to 8) (size 9 to 14) (size 15 to 20)
#    0.000    1.667    3.333    2.000    0.000    1.667 
#    0.000    0.000    0.000    6.000    0.000    0.000 
#    0.000    0.000    0.000    0.000    0.000    0.000 
#
# Total GULP energy -594668.107921 kJ/mol
# GULP energy per Si atom -12388.918915 kJ/mol
# Density = 2.104372 g / cm^3
# Si number density = 21.091725 Si / 1000 Ang^3
#
#
#
# Elastic Constant Matrix: (Units=GPa)
#
#
# Indices 1 2 3 4 5 6 
#
# 1 69.4793 15.9210 20.4398 0.0000 0.0000 0.0000
# 2 15.9210 109.8191 22.1175 0.0000 0.0000 0.0000
# 3 20.4398 22.1175 72.6364 0.0000 0.0000 0.0000
# 4 0.0000 0.0000 0.0000 23.7908 0.0000 0.0000
# 5 0.0000 0.0000 0.0000 0.0000 16.4381 0.0000
# 6 0.0000 0.0000 0.0000 0.0000 0.0000 30.6122
#
#
#
# Elastic Compliance Matrix: (Units=1/GPa)
#
#
# Indices 1 2 3 4 5 6 
#
# 1 0.015920 -0.001498 -0.004024 0.000000 0.000000 0.000000
# 2 -0.001498 0.009842 -0.002575 0.000000 0.000000 0.000000
# 3 -0.004024 -0.002575 0.015684 0.000000 0.000000 0.000000
# 4 0.000000 0.000000 0.000000 0.042033 0.000000 0.000000
# 5 0.000000 0.000000 0.000000 0.000000 0.060834 0.000000
# 6 0.000000 0.000000 0.000000 0.000000 0.000000 0.032667
#
#
# Mechanical properties :
#
#
# Convention : Reuss Voigt Hill
#
# Bulk Modulus (GPa) = 39.60136 40.98793 40.29464
# Shear Modulus (GPa) = 24.80287 27.06533 25.93410
#
# Velocity S-wave (km/s) = 3.43294 3.58609 3.51035
# Velocity P-wave (km/s) = 5.87622 6.05162 5.96456
#
# Compressibility (1/GPa) = 0.02525166
#
# Stress axis : x y z
#
# Youngs Moduli (GPa) = 62.81532 101.60882 63.76063
#
# Poissons Ratio (x) = 0.15217 0.25656
# Poissons Ratio (y) = 0.09407 0.16420
# Poissons Ratio (z) = 0.25275 0.26168
#
# Static dielectric constant tensor:
#      x y z
#    x 3.293210 0.000000 0.000000 
#    y 0.000000 4.277740 0.000000 
#    z 0.000000 0.000000 3.921260 
# 
# 
# High freq. dielectric constant tensor:
#      x y z
#    x 1.765070 0.000000 0.000000 
#    y 0.000000 1.855090 0.000000 
#    z 0.000000 0.000000 1.831180 
# 
# From -- ./inp_files/28847.got.cif
#   From: 2010.06.25/outbox.cif.g09.slc.cpg/sg58_15_cif.got.tgz:28847.got - 2010.06.26 21:38:00.
