data_PCOD8235014
_publ_section_title
;
Structure prediction by ZEFSAII (Michael W. Deem and Ramdas Pophale) SiO2 
 PCOD8235014
Probable space group: P B C M
;
_chemical_formula_sum "Si O2"
_cell_formula_units_Z 60
_cell_length_a 9.163371
_cell_length_b 18.132426
_cell_length_c 15.869305
_cell_angle_alpha 90.000000
_cell_angle_beta 90.000000
_cell_angle_gamma 90.000000
_cell_volume 2636.750829
_symmetry_space_group_name_H-M "P B C M"
_symmetry_group_IT_number 57
_symmetry_cell_setting 'orthorhombic'
loop_
_space_group_symop_operation_xyz
x,y,z
-x,-y,1/2+z
x,1/2-y,-z
-x,1/2+y,1/2-z
-x,-y,-z
x,y,1/2-z
-x,1/2+y,z
x,1/2-y,1/2+z
loop_
_atom_site_type_symbol
_atom_site_label
_atom_site_fract_x
_atom_site_fract_y
_atom_site_fract_z
Si Si1 0.740985 0.750000 0.000000
Si Si2 0.801605 0.023045 0.429624
Si Si3 0.581148 0.113339 0.155217
Si Si4 0.287709 0.593240 0.587885
Si Si5 0.918327 0.803874 0.846224
Si Si6 0.768973 0.244434 0.400174
Si Si7 0.093618 0.027589 0.344384
Si Si8 0.591592 0.900738 0.005693
O O1 0.837094 0.745245 0.084686
O O2 0.635603 0.817231 0.018410
O O3 0.727745 0.953083 0.474617
O O4 0.714369 0.054328 0.348856
O O5 0.798249 0.089894 0.497962
O O6 0.964610 0.999506 0.405642
O O7 0.518272 0.114691 0.250000
O O8 0.631387 0.195493 0.128294
O O9 0.455512 0.086432 0.091362
O O10 0.255159 0.671534 0.632657
O O11 0.232277 0.526019 0.646068
O O12 0.459379 0.581263 0.569492
O O13 0.874277 0.782317 0.750000
O O14 0.869725 0.887723 0.866089
O O15 0.090762 0.792331 0.856659
O O16 0.781713 0.250000 0.500000
O O17 0.034227 0.023027 0.250000
#
# Coordination Sequence:
#
# PCOD8235014 Si02
#       8
#     4   8   8   8   8   8   8   8
#     4  12  26  46  72  98 142 192 228 298 356 416
#     4  11  22  41  69 101 136 182 231 283 343 421
#     4  11  22  41  71 101 137 182 235 293 348 417
#     4  11  23  41  70  97 136 181 232 279 338 421
#     4  11  25  44  69 105 140 183 240 294 357 426
#     4  12  20  39  70 107 138 180 231 290 353 422
#     4  11  24  44  70 104 138 176 234 297 352 409
#     4  11  25  45  68 102 138 185 239 274 352 433
#
# _framework density 22.755278000000001
#
# number of rings (size 3 to 8) (size 9 to 14) (size 15 to 20)
#    0.000    0.800    4.667    4.400    1.867    1.600 
#    0.000    6.000    0.000    0.000    0.000    0.000 
#    0.000    0.000    0.000    0.000    0.000    0.000 
#
# Total GULP energy -744066.513076 kJ/mol
# GULP energy per Si atom -12401.108551 kJ/mol
# Density = 2.270349 g / cm^3
# Si number density = 22.755278 Si / 1000 Ang^3
#
#
#
# Elastic Constant Matrix: (Units=GPa)
#
#
# Indices 1 2 3 4 5 6 
#
# 1 65.0937 15.8416 28.7715 0.0000 0.0000 0.0000
# 2 15.8416 108.6440 33.9134 0.0000 0.0000 0.0000
# 3 28.7715 33.9134 118.1367 0.0000 0.0000 0.0000
# 4 0.0000 0.0000 0.0000 28.6421 0.0000 0.0000
# 5 0.0000 0.0000 0.0000 0.0000 12.6280 0.0000
# 6 0.0000 0.0000 0.0000 0.0000 0.0000 46.2590
#
#
#
# Elastic Compliance Matrix: (Units=1/GPa)
#
#
# Indices 1 2 3 4 5 6 
#
# 1 0.017390 -0.001333 -0.003852 0.000000 0.000000 0.000000
# 2 -0.001333 0.010213 -0.002607 0.000000 0.000000 0.000000
# 3 -0.003852 -0.002607 0.010151 0.000000 0.000000 0.000000
# 4 0.000000 0.000000 0.000000 0.034914 0.000000 0.000000
# 5 0.000000 0.000000 0.000000 0.000000 0.079189 0.000000
# 6 0.000000 0.000000 0.000000 0.000000 0.000000 0.021617
#
#
# Mechanical properties :
#
#
# Convention : Reuss Voigt Hill
#
# Bulk Modulus (GPa) = 45.10912 49.88084 47.49498
# Shear Modulus (GPa) = 25.45199 31.72901 28.59050
#
# Velocity S-wave (km/s) = 3.34804 3.73816 3.54847
# Velocity P-wave (km/s) = 5.90021 6.37181 6.14054
#
# Compressibility (1/GPa) = 0.02216847
#
# Stress axis : x y z
#
# Youngs Moduli (GPa) = 57.50537 97.91875 98.50840
#
# Poissons Ratio (x) = 0.13053 0.37950
# Poissons Ratio (y) = 0.07666 0.25682
# Poissons Ratio (z) = 0.22154 0.25528
#
# Static dielectric constant tensor:
#      x y z
#    x 3.971420 0.000000 0.000000 
#    y 0.000000 4.307670 0.000000 
#    z 0.000000 0.000000 4.016310 
# 
# 
# High freq. dielectric constant tensor:
#      x y z
#    x 1.894360 0.000000 0.000000 
#    y 0.000000 1.906790 0.000000 
#    z 0.000000 0.000000 1.889200 
# 
# From -- ./inp_files/21262.got.cif
#   From: 2010.03.12/outbox.cif.g09.slc.cpg/sg57_11_cif.got.tgz:21262.got - 2010.04.16 15:48:40.
