data_PCOD8235710
_publ_section_title
;
Structure prediction by ZEFSAII (Michael W. Deem and Ramdas Pophale) SiO2 
 PCOD8235710
Probable space group: P N N M
;
_chemical_formula_sum "Si O2"
_cell_formula_units_Z 52
_cell_length_a 10.269547
_cell_length_b 20.819018
_cell_length_c 13.253579
_cell_angle_alpha 90.000000
_cell_angle_beta 90.000000
_cell_angle_gamma 90.000000
_cell_volume 2833.640158
_symmetry_space_group_name_H-M "P N N M"
_symmetry_group_IT_number 58
_symmetry_cell_setting 'orthorhombic'
loop_
_space_group_symop_operation_xyz
x,y,z
-x,-y,z
1/2+x,1/2-y,1/2-z
1/2-x,1/2+y,1/2-z
-x,-y,-z
x,y,-z
1/2-x,1/2+y,1/2+z
1/2+x,1/2-y,1/2+z
loop_
_atom_site_type_symbol
_atom_site_label
_atom_site_fract_x
_atom_site_fract_y
_atom_site_fract_z
Si Si1 0.976605 0.185701 0.614987
Si Si2 0.297403 0.804657 0.303674
Si Si3 0.837638 0.431020 0.615372
Si Si4 0.034776 0.626064 0.883572
Si Si5 0.433624 0.828633 0.889607
Si Si6 0.000000 0.500000 0.759379
Si Si7 0.714366 0.340002 0.755012
O O1 0.994604 0.163882 0.500000
O O2 0.990173 0.262144 0.627660
O O3 0.084062 0.148594 0.680711
O O4 0.833943 0.164747 0.652182
O O5 0.419403 0.821824 0.375124
O O6 0.319449 0.834741 0.192260
O O7 0.285639 0.728266 0.299396
O O8 0.805615 0.450727 0.500000
O O9 0.716960 0.393568 0.666213
O O10 0.963473 0.385189 0.622678
O O11 0.874130 0.492680 0.684396
O O12 0.983695 0.561133 0.831350
O O13 0.161984 0.653766 0.828824
O O14 0.068356 0.613263 0.000000
O O15 0.368019 0.830257 0.000000
#
# Coordination Sequence:
#
# PCOD8235710 Si02
#       7
#     8   8   8   8   8   4   8
#     4  10  19  30  49  75 112 145 172 212 272 335
#     4  11  18  33  51  81 109 145 184 224 269 330
#     4  10  18  33  56  80 104 139 182 230 275 323
#     4  11  22  36  57  81 112 146 190 231 272 322
#     4   9  17  31  49  73 105 140 172 217 272 318
#     4  10  20  36  54  84 108 142 186 240 278 312
#     4  10  19  34  51  79 112 145 175 223 280 335
#
# _framework density 18.350954999999999
#
# number of rings (size 3 to 8) (size 9 to 14) (size 15 to 20)
#    0.000    1.846    4.615    2.308    0.000    1.231 
#    0.000    0.769    0.000    3.692    0.000   10.769 
#    0.000    0.000    0.000    0.000    0.000    0.000 
#
# Total GULP energy -644643.329783 kJ/mol
# GULP energy per Si atom -12396.987111 kJ/mol
# Density = 1.830919 g / cm^3
# Si number density = 18.350955 Si / 1000 Ang^3
#
#
#
# Elastic Constant Matrix: (Units=GPa)
#
#
# Indices 1 2 3 4 5 6 
#
# 1 86.4548 -1.8460 21.9673 0.0000 0.0000 0.0000
# 2 -1.8460 29.0035 10.8604 0.0000 0.0000 0.0000
# 3 21.9673 10.8604 116.7173 0.0000 0.0000 0.0000
# 4 0.0000 0.0000 0.0000 23.4966 0.0000 0.0000
# 5 0.0000 0.0000 0.0000 0.0000 33.8966 0.0000
# 6 0.0000 0.0000 0.0000 0.0000 0.0000 18.8173
#
#
#
# Elastic Compliance Matrix: (Units=1/GPa)
#
#
# Indices 1 2 3 4 5 6 
#
# 1 0.012228 0.001699 -0.002460 0.000000 0.000000 0.000000
# 2 0.001699 0.035959 -0.003666 0.000000 0.000000 0.000000
# 3 -0.002460 -0.003666 0.009372 0.000000 0.000000 0.000000
# 4 0.000000 0.000000 0.000000 0.042559 0.000000 0.000000
# 5 0.000000 0.000000 0.000000 0.000000 0.029501 0.000000
# 6 0.000000 0.000000 0.000000 0.000000 0.000000 0.053143
#
#
# Mechanical properties :
#
#
# Convention : Reuss Voigt Hill
#
# Bulk Modulus (GPa) = 20.53095 32.68212 26.60654
# Shear Modulus (GPa) = 24.05576 28.65502 26.35539
#
# Velocity S-wave (km/s) = 3.62453 3.95587 3.79382
# Velocity P-wave (km/s) = 5.35990 6.22201 5.80697
#
# Compressibility (1/GPa) = 0.04870695
#
# Stress axis : x y z
#
# Youngs Moduli (GPa) = 81.77975 27.80912 106.70407
#
# Poissons Ratio (x) = -0.04726 0.26244
# Poissons Ratio (y) = -0.13897 0.39116
# Poissons Ratio (z) = 0.20114 0.10194
#
# Static dielectric constant tensor:
#      x y z
#    x 3.229930 0.000000 0.000000 
#    y 0.000000 3.240840 0.000000 
#    z 0.000000 0.000000 3.787760 
# 
# 
# High freq. dielectric constant tensor:
#      x y z
#    x 1.684340 0.000000 0.000000 
#    y 0.000000 1.687460 0.000000 
#    z 0.000000 0.000000 1.733120 
# 
# From -- ./inp_files/20213.got.cif
#   From: 2010.06.25/outbox.cif.g09.slc.cpg/sg58_11_cif.got.tgz:20213.got - 2010.06.26 21:38:00.
