data_PCOD8235828
_publ_section_title
;
Structure prediction by ZEFSAII (Michael W. Deem and Ramdas Pophale) SiO2 
 PCOD8235828
Probable space group: P N N M
;
_chemical_formula_sum "Si O2"
_cell_formula_units_Z 56
_cell_length_a 28.693912
_cell_length_b 11.565579
_cell_length_c 9.312202
_cell_angle_alpha 90.000000
_cell_angle_beta 90.000000
_cell_angle_gamma 90.000000
_cell_volume 3090.363243
_symmetry_space_group_name_H-M "P N N M"
_symmetry_group_IT_number 58
_symmetry_cell_setting 'orthorhombic'
loop_
_space_group_symop_operation_xyz
x,y,z
-x,-y,z
1/2+x,1/2-y,1/2-z
1/2-x,1/2+y,1/2-z
-x,-y,-z
x,y,-z
1/2-x,1/2+y,1/2+z
1/2+x,1/2-y,1/2+z
loop_
_atom_site_type_symbol
_atom_site_label
_atom_site_fract_x
_atom_site_fract_y
_atom_site_fract_z
Si Si1 0.617770 0.501571 0.329159
Si Si2 0.694474 0.913254 0.329387
Si Si3 0.109417 0.740957 0.829422
Si Si4 0.015693 0.625616 0.171023
Si Si5 0.568603 0.277759 0.328619
Si Si6 0.342763 0.849429 0.336300
Si Si7 0.711392 0.379424 0.336370
O O1 0.617548 0.504458 0.500000
O O2 0.606513 0.628594 0.266088
O O3 0.578250 0.409756 0.275452
O O4 0.669135 0.460115 0.279532
O O5 0.700121 0.917462 0.500000
O O6 0.658506 0.813469 0.281141
O O7 0.744724 0.892942 0.264600
O O8 0.674951 0.033056 0.263133
O O9 0.066649 0.662417 0.770674
O O10 0.105853 0.745381 0.000000
O O11 0.000000 0.500000 0.232225
O O12 0.980416 0.726340 0.224920
O O13 0.015534 0.619589 0.000000
O O14 0.571762 0.277051 0.500000
O O15 0.609429 0.195836 0.264565
O O16 0.354454 0.880232 0.500000
O O17 0.302769 0.754031 0.325438
O O18 0.724239 0.412051 0.500000
#
# Coordination Sequence:
#
# PCOD8235828 Si02
#       7
#     8   8   8   8   8   8   8
#     4   8  15  27  40  56  81 112 145 180 223 266
#     4  10  19  29  44  64  88 116 146 183 226 264
#     4   9  17  26  37  59  88 112 139 183 228 261
#     4   9  15  22  35  56  83 115 147 177 215 266
#     4   8  13  23  39  55  78 115 148 172 209 267
#     4   8  15  28  42  59  83 113 147 179 216 262
#     4   9  18  31  46  61  83 118 152 182 218 265
#
# _framework density 18.120846
#
# number of rings (size 3 to 8) (size 9 to 14) (size 15 to 20)
#    0.000    3.286    0.000    2.571    2.000    4.000 
#    0.000    2.857    0.000    0.000    0.000    0.000 
#    0.000    9.714    0.000    6.429    0.000    7.143 
#
# Total GULP energy -693897.723966 kJ/mol
# GULP energy per Si atom -12391.030785 kJ/mol
# Density = 1.807960 g / cm^3
# Si number density = 18.120846 Si / 1000 Ang^3
#
#
#
# Elastic Constant Matrix: (Units=GPa)
#
#
# Indices 1 2 3 4 5 6 
#
# 1 117.2498 59.4180 14.2320 0.0000 0.0000 0.0000
# 2 59.4180 139.0845 10.5759 0.0000 0.0000 0.0000
# 3 14.2320 10.5759 10.1335 0.0000 0.0000 0.0000
# 4 0.0000 0.0000 0.0000 7.3377 0.0000 0.0000
# 5 0.0000 0.0000 0.0000 0.0000 17.7169 0.0000
# 6 0.0000 0.0000 0.0000 0.0000 0.0000 23.1170
#
#
#
# Elastic Compliance Matrix: (Units=1/GPa)
#
#
# Indices 1 2 3 4 5 6 
#
# 1 0.012232 -0.004257 -0.012736 0.000000 0.000000 0.000000
# 2 -0.004257 0.009291 -0.003718 0.000000 0.000000 0.000000
# 3 -0.012736 -0.003718 0.120451 0.000000 0.000000 0.000000
# 4 0.000000 0.000000 0.000000 0.136283 0.000000 0.000000
# 5 0.000000 0.000000 0.000000 0.000000 0.056443 0.000000
# 6 0.000000 0.000000 0.000000 0.000000 0.000000 0.043258
#
#
# Mechanical properties :
#
#
# Convention : Reuss Voigt Hill
#
# Bulk Modulus (GPa) = 9.94516 48.32441 29.13478
# Shear Modulus (GPa) = 11.03997 21.78375 16.41186
#
# Velocity S-wave (km/s) = 2.47096 3.47095 3.01273
# Velocity P-wave (km/s) = 3.69337 6.54133 5.31178
#
# Compressibility (1/GPa) = 0.10055141
#
# Stress axis : x y z
#
# Youngs Moduli (GPa) = 81.75163 107.62759 8.30212
#
# Poissons Ratio (x) = 0.45819 0.10574
# Poissons Ratio (y) = 0.34803 0.03087
# Poissons Ratio (z) = 1.04123 0.40016
#
# Static dielectric constant tensor:
#      x y z
#    x 3.438190 0.000000 0.000000 
#    y 0.000000 3.804700 0.000000 
#    z 0.000000 0.000000 2.532090 
# 
# 
# High freq. dielectric constant tensor:
#      x y z
#    x 1.709410 0.000000 0.000000 
#    y 0.000000 1.720330 0.000000 
#    z 0.000000 0.000000 1.605370 
# 
# From -- ./inp_files/14862.got.cif
#   From: 2010.06.25/outbox.cif.g09.slc.cpg/sg58_8_cif.got.tgz:14862.got - 2010.06.26 21:38:00.
