data_PCOD8235693
_publ_section_title
;
Structure prediction by ZEFSAII (Michael W. Deem and Ramdas Pophale) SiO2 
 PCOD8235693
Probable space group: P N N M
;
_chemical_formula_sum "Si O2"
_cell_formula_units_Z 64
_cell_length_a 19.083838
_cell_length_b 23.148180
_cell_length_c 9.013512
_cell_angle_alpha 90.000000
_cell_angle_beta 90.000000
_cell_angle_gamma 90.000000
_cell_volume 3981.774063
_symmetry_space_group_name_H-M "P N N M"
_symmetry_group_IT_number 58
_symmetry_cell_setting 'orthorhombic'
loop_
_space_group_symop_operation_xyz
x,y,z
-x,-y,z
1/2+x,1/2-y,1/2-z
1/2-x,1/2+y,1/2-z
-x,-y,-z
x,y,-z
1/2-x,1/2+y,1/2+z
1/2+x,1/2-y,1/2+z
loop_
_atom_site_type_symbol
_atom_site_label
_atom_site_fract_x
_atom_site_fract_y
_atom_site_fract_z
Si Si1 0.646311 0.276140 0.672719
Si Si2 0.359684 0.936415 0.824069
Si Si3 0.996794 0.258150 0.823965
Si Si4 0.728879 0.160200 0.673851
Si Si5 0.645305 0.944571 0.672773
Si Si6 0.347332 0.277600 0.673806
Si Si7 0.236169 0.663012 0.827839
Si Si8 0.004352 0.388432 0.826813
O O1 0.649751 0.288406 0.500000
O O2 0.566037 0.275878 0.730571
O O3 0.678754 0.213947 0.711711
O O4 0.688952 0.327698 0.749647
O O5 0.300411 0.894800 0.759027
O O6 0.435974 0.921406 0.762409
O O7 0.339506 0.000642 0.774367
O O8 0.359921 0.931769 0.000000
O O9 0.928052 0.223317 0.771179
O O10 0.997208 0.323588 0.762849
O O11 0.995262 0.263286 0.000000
O O12 0.731794 0.147063 0.500000
O O13 0.806920 0.173467 0.733500
O O14 0.655368 0.960163 0.500000
O O15 0.700744 0.896208 0.725237
O O16 0.567348 0.921839 0.700662
O O17 0.340584 0.291773 0.500000
O O18 0.316434 0.214795 0.711520
O O19 0.251775 0.660979 0.000000
O O20 0.025428 0.388116 0.000000
#
# Coordination Sequence:
#
# PCOD8235693 Si02
#       8
#     8   8   8   8   8   8   8   8
#     4   9  17  29  48  70  95 126 160 195 237 284
#     4  12  24  34  46  68  98 130 166 209 247 278
#     4   9  15  28  50  73  97 130 163 192 231 287
#     4  10  19  33  50  68  94 128 165 199 237 290
#     4  10  20  34  52  69  91 132 173 201 235 288
#     4   9  16  29  50  73  97 122 157 201 241 279
#     4   9  17  30  48  70  94 122 160 201 240 280
#     4  10  18  33  51  68  95 133 173 199 227 283
#
# _framework density 16.073238
#
# number of rings (size 3 to 8) (size 9 to 14) (size 15 to 20)
#    0.000    2.250    2.500    1.875    0.000    3.000 
#    0.000    1.250    0.000    0.000    0.000    0.875 
#    0.000    7.000    0.000    0.000    0.000    0.000 
#
# Total GULP energy -793591.501291 kJ/mol
# GULP energy per Si atom -12399.867208 kJ/mol
# Density = 1.603665 g / cm^3
# Si number density = 16.073238 Si / 1000 Ang^3
#
#
#
# Elastic Constant Matrix: (Units=GPa)
#
#
# Indices 1 2 3 4 5 6 
#
# 1 131.7222 66.3082 48.2407 0.0000 0.0000 0.0000
# 2 66.3082 94.8864 49.4639 0.0000 0.0000 0.0000
# 3 48.2407 49.4639 63.7803 0.0000 0.0000 0.0000
# 4 0.0000 0.0000 0.0000 21.9636 0.0000 0.0000
# 5 0.0000 0.0000 0.0000 0.0000 23.5823 0.0000
# 6 0.0000 0.0000 0.0000 0.0000 0.0000 23.5230
#
#
#
# Elastic Compliance Matrix: (Units=1/GPa)
#
#
# Indices 1 2 3 4 5 6 
#
# 1 0.012428 -0.006353 -0.004473 0.000000 0.000000 0.000000
# 2 -0.006353 0.020939 -0.011434 0.000000 0.000000 0.000000
# 3 -0.004473 -0.011434 0.027929 0.000000 0.000000 0.000000
# 4 0.000000 0.000000 0.000000 0.045530 0.000000 0.000000
# 5 0.000000 0.000000 0.000000 0.000000 0.042405 0.000000
# 6 0.000000 0.000000 0.000000 0.000000 0.000000 0.042512
#
#
# Mechanical properties :
#
#
# Convention : Reuss Voigt Hill
#
# Bulk Modulus (GPa) = 59.60662 68.71274 64.15968
# Shear Modulus (GPa) = 20.67362 22.23883 21.45623
#
# Velocity S-wave (km/s) = 3.59027 3.72370 3.65760
# Velocity P-wave (km/s) = 7.37236 7.83138 7.60533
#
# Compressibility (1/GPa) = 0.01677666
#
# Stress axis : x y z
#
# Youngs Moduli (GPa) = 80.46337 47.75782 35.80490
#
# Poissons Ratio (x) = 0.30342 0.16015
# Poissons Ratio (y) = 0.51120 0.40938
# Poissons Ratio (z) = 0.35990 0.54605
#
# Static dielectric constant tensor:
#      x y z
#    x 3.229500 0.000000 0.000000 
#    y 0.000000 2.952700 0.000000 
#    z 0.000000 0.000000 2.913670 
# 
# 
# High freq. dielectric constant tensor:
#      x y z
#    x 1.617220 0.000000 0.000000 
#    y 0.000000 1.594870 0.000000 
#    z 0.000000 0.000000 1.605130 
# 
# From -- ./inp_files/8476.got.cif
#   From: 2010.06.25/outbox.cif.g09.slc.cpg/sg58_5_cif.got.tgz:8476.got - 2010.06.26 21:38:00.
