data_PCOD8235479
_publ_section_title
;
Structure prediction by ZEFSAII (Michael W. Deem and Ramdas Pophale) SiO2 
 PCOD8235479
Probable space group: P N N M
;
_chemical_formula_sum "Si O2"
_cell_formula_units_Z 64
_cell_length_a 17.419204
_cell_length_b 12.068262
_cell_length_c 17.154497
_cell_angle_alpha 90.000000
_cell_angle_beta 90.000000
_cell_angle_gamma 90.000000
_cell_volume 3606.210086
_symmetry_space_group_name_H-M "P N N M"
_symmetry_group_IT_number 58
_symmetry_cell_setting 'orthorhombic'
loop_
_space_group_symop_operation_xyz
x,y,z
-x,-y,z
1/2+x,1/2-y,1/2-z
1/2-x,1/2+y,1/2-z
-x,-y,-z
x,y,-z
1/2-x,1/2+y,1/2+z
1/2+x,1/2-y,1/2+z
loop_
_atom_site_type_symbol
_atom_site_label
_atom_site_fract_x
_atom_site_fract_y
_atom_site_fract_z
Si Si1 0.839089 0.771182 0.410153
Si Si2 0.841917 0.263614 0.087447
Si Si3 0.156097 0.904399 0.782636
Si Si4 0.552775 0.754828 0.203891
Si Si5 0.573430 0.923024 0.911599
Si Si6 0.933632 0.921828 0.691433
Si Si7 0.665151 0.066151 0.196168
Si Si8 0.424413 0.052306 0.679322
O O1 0.865437 0.747793 0.500000
O O2 0.748355 0.782112 0.406232
O O3 0.876204 0.885197 0.377934
O O4 0.865144 0.674133 0.350718
O O5 0.868887 0.155099 0.136142
O O6 0.877532 0.379698 0.115242
O O7 0.868890 0.240022 0.000000
O O8 0.131565 0.814731 0.716856
O O9 0.245548 0.928486 0.783621
O O10 0.111136 0.018651 0.763291
O O11 0.552392 0.797035 0.114216
O O12 0.477852 0.683959 0.226442
O O13 0.547395 0.865833 0.253538
O O14 0.500000 0.000000 0.897456
O O15 0.646847 0.963777 0.861375
O O16 0.600422 0.921828 0.000000
O O17 0.000000 0.000000 0.654633
O O18 0.624385 0.046492 0.279687
O O19 0.500000 0.000000 0.639150
#
# Coordination Sequence:
#
# PCOD8235479 Si02
#       8
#     8   8   8   8   8   8   8   8
#     4  10  19  31  48  73 103 131 162 201 242 290
#     4   9  19  34  51  72  97 124 159 207 257 296
#     4   9  19  33  51  71  94 128 168 206 240 288
#     4   9  18  32  48  72 101 129 161 199 244 289
#     4  10  19  31  49  75 106 134 161 198 245 298
#     4  10  19  32  50  72  99 134 172 202 238 290
#     4  10  18  31  51  75  98 127 166 201 245 292
#     4  10  18  30  50  73  96 123 159 202 245 293
#
# _framework density 17.747163
#
# number of rings (size 3 to 8) (size 9 to 14) (size 15 to 20)
#    0.000    2.375    0.000    4.125    0.000    3.500 
#    0.000    1.875    0.000   10.125    0.000    7.875 
#    0.000    0.000    0.000    0.000    0.000    0.000 
#
# Total GULP energy -793055.856080 kJ/mol
# GULP energy per Si atom -12391.497751 kJ/mol
# Density = 1.770677 g / cm^3
# Si number density = 17.747163 Si / 1000 Ang^3
#
#
#
# Elastic Constant Matrix: (Units=GPa)
#
#
# Indices 1 2 3 4 5 6 
#
# 1 80.5094 49.1031 50.4055 0.0000 0.0000 0.0000
# 2 49.1031 96.1831 54.2575 0.0000 0.0000 0.0000
# 3 50.4055 54.2575 103.1777 0.0000 0.0000 0.0000
# 4 0.0000 0.0000 0.0000 27.3013 0.0000 0.0000
# 5 0.0000 0.0000 0.0000 0.0000 20.6072 0.0000
# 6 0.0000 0.0000 0.0000 0.0000 0.0000 31.8783
#
#
#
# Elastic Compliance Matrix: (Units=1/GPa)
#
#
# Indices 1 2 3 4 5 6 
#
# 1 0.020688 -0.006910 -0.006473 0.000000 0.000000 0.000000
# 2 -0.006910 0.017090 -0.005611 0.000000 0.000000 0.000000
# 3 -0.006473 -0.005611 0.015805 0.000000 0.000000 0.000000
# 4 0.000000 0.000000 0.000000 0.036628 0.000000 0.000000
# 5 0.000000 0.000000 0.000000 0.000000 0.048527 0.000000
# 6 0.000000 0.000000 0.000000 0.000000 0.000000 0.031369
#
#
# Mechanical properties :
#
#
# Convention : Reuss Voigt Hill
#
# Bulk Modulus (GPa) = 64.12562 65.26693 64.69627
# Shear Modulus (GPa) = 23.44184 24.36429 23.90306
#
# Velocity S-wave (km/s) = 3.63833 3.70923 3.67395
# Velocity P-wave (km/s) = 7.33902 7.42969 7.38450
#
# Compressibility (1/GPa) = 0.01559439
#
# Stress axis : x y z
#
# Youngs Moduli (GPa) = 48.33706 58.51419 63.27130
#
# Poissons Ratio (x) = 0.40434 0.40955
# Poissons Ratio (y) = 0.33402 0.35502
# Poissons Ratio (z) = 0.31288 0.32833
#
# Static dielectric constant tensor:
#      x y z
#    x 3.300320 0.000000 0.000000 
#    y 0.000000 3.523710 0.000000 
#    z 0.000000 0.000000 3.294510 
# 
# 
# High freq. dielectric constant tensor:
#      x y z
#    x 1.689230 0.000000 0.000000 
#    y 0.000000 1.688150 0.000000 
#    z 0.000000 0.000000 1.663440 
# 
# From -- ./inp_files/27386.got.cif
#   From: 2010.06.25/outbox.cif.g09.slc.cpg/sg58_14_cif.got.tgz:27386.got - 2010.06.26 21:38:00.
