data_PCOD8235666
_publ_section_title
;
Structure prediction by ZEFSAII (Michael W. Deem and Ramdas Pophale) SiO2 
 PCOD8235666
Probable space group: P N N M
;
_chemical_formula_sum "Si O2"
_cell_formula_units_Z 48
_cell_length_a 14.981238
_cell_length_b 20.050913
_cell_length_c 8.822598
_cell_angle_alpha 90.000000
_cell_angle_beta 90.000000
_cell_angle_gamma 90.000000
_cell_volume 2650.198155
_symmetry_space_group_name_H-M "P N N M"
_symmetry_group_IT_number 58
_symmetry_cell_setting 'orthorhombic'
loop_
_space_group_symop_operation_xyz
x,y,z
-x,-y,z
1/2+x,1/2-y,1/2-z
1/2-x,1/2+y,1/2-z
-x,-y,-z
x,y,-z
1/2-x,1/2+y,1/2+z
1/2+x,1/2-y,1/2+z
loop_
_atom_site_type_symbol
_atom_site_label
_atom_site_fract_x
_atom_site_fract_y
_atom_site_fract_z
Si Si1 0.801430 0.663676 0.678058
Si Si2 0.415541 0.454828 0.176089
Si Si3 0.006814 0.302513 0.680623
Si Si4 0.106613 0.814428 0.820428
Si Si5 0.935716 0.442941 0.679122
Si Si6 0.761107 0.514914 0.677219
O O1 0.803388 0.670867 0.500000
O O2 0.890603 0.699187 0.742016
O O3 0.709070 0.696679 0.737734
O O4 0.804383 0.585856 0.721706
O O5 0.500000 0.500000 0.212500
O O6 0.425599 0.387500 0.272024
O O7 0.328456 0.496717 0.226726
O O8 0.408739 0.436388 0.000000
O O9 0.003035 0.299550 0.500000
O O10 0.956448 0.239583 0.746065
O O11 0.960760 0.370143 0.742917
O O12 0.100182 0.808949 0.000000
O O13 0.949711 0.443252 0.500000
O O14 0.832796 0.458224 0.721079
O O15 0.000000 0.500000 0.749643
O O16 0.736522 0.513079 0.500000
#
# Coordination Sequence:
#
# PCOD8235666 Si02
#       6
#     8   8   8   8   8   8
#     4   8  15  30  53  74  97 138 178 208 254 310
#     4  10  21  38  58  78 102 137 179 218 264 321
#     4  10  18  32  55  79 107 143 179 216 259 313
#     4  10  21  37  55  78 106 138 178 222 265 310
#     4   9  15  27  53  84 109 136 175 213 254 315
#     4   9  16  30  54  82 108 134 170 217 261 306
#
# _framework density 18.111853
#
# number of rings (size 3 to 8) (size 9 to 14) (size 15 to 20)
#    0.000    2.667    1.667    2.000    0.000    1.333 
#    3.000    5.000    0.000    1.000    0.000    0.000 
#    0.000    0.000    0.000    0.000    0.000    0.000 
#
# Total GULP energy -594968.311250 kJ/mol
# GULP energy per Si atom -12395.173151 kJ/mol
# Density = 1.807063 g / cm^3
# Si number density = 18.111853 Si / 1000 Ang^3
#
#
#
# Elastic Constant Matrix: (Units=GPa)
#
#
# Indices 1 2 3 4 5 6 
#
# 1 154.9594 74.7811 27.1644 0.0000 0.0000 0.0000
# 2 74.7811 74.4908 19.9920 0.0000 0.0000 0.0000
# 3 27.1644 19.9920 20.2223 0.0000 0.0000 0.0000
# 4 0.0000 0.0000 0.0000 21.7184 0.0000 0.0000
# 5 0.0000 0.0000 0.0000 0.0000 24.3039 0.0000
# 6 0.0000 0.0000 0.0000 0.0000 0.0000 31.4208
#
#
#
# Elastic Compliance Matrix: (Units=1/GPa)
#
#
# Indices 1 2 3 4 5 6 
#
# 1 0.013072 -0.011448 -0.006242 0.000000 0.000000 0.000000
# 2 -0.011448 0.028298 -0.012598 0.000000 0.000000 0.000000
# 3 -0.006242 -0.012598 0.070290 0.000000 0.000000 0.000000
# 4 0.000000 0.000000 0.000000 0.046044 0.000000 0.000000
# 5 0.000000 0.000000 0.000000 0.000000 0.041146 0.000000
# 6 0.000000 0.000000 0.000000 0.000000 0.000000 0.031826
#
#
# Mechanical properties :
#
#
# Convention : Reuss Voigt Hill
#
# Bulk Modulus (GPa) = 19.57557 54.83863 37.20710
# Shear Modulus (GPa) = 16.21903 24.00429 20.11166
#
# Velocity S-wave (km/s) = 2.99573 3.64447 3.33590
# Velocity P-wave (km/s) = 4.77467 6.93203 5.95191
#
# Compressibility (1/GPa) = 0.05108408
#
# Stress axis : x y z
#
# Youngs Moduli (GPa) = 76.49918 35.33838 14.22673
#
# Poissons Ratio (x) = 0.40454 0.08881
# Poissons Ratio (y) = 0.87574 0.17923
# Poissons Ratio (z) = 0.47753 0.44520
#
# Static dielectric constant tensor:
#      x y z
#    x 3.814790 0.000000 0.000000 
#    y 0.000000 3.004300 0.000000 
#    z 0.000000 0.000000 3.017910 
# 
# 
# High freq. dielectric constant tensor:
#      x y z
#    x 1.718190 0.000000 0.000000 
#    y 0.000000 1.685340 0.000000 
#    z 0.000000 0.000000 1.667870 
# 
# From -- ./inp_files/6051.got.cif
#   From: 2010.06.25/outbox.cif.g09.slc.cpg/sg58_4_cif.got.tgz:6051.got - 2010.06.26 21:38:00.
