data_PCOD8235545
_publ_section_title
;
Structure prediction by ZEFSAII (Michael W. Deem and Ramdas Pophale) SiO2 
 PCOD8235545
Probable space group: P N N M
;
_chemical_formula_sum "Si O2"
_cell_formula_units_Z 64
_cell_length_a 22.925087
_cell_length_b 18.848265
_cell_length_c 9.142668
_cell_angle_alpha 90.000000
_cell_angle_beta 90.000000
_cell_angle_gamma 90.000000
_cell_volume 3950.529608
_symmetry_space_group_name_H-M "P N N M"
_symmetry_group_IT_number 58
_symmetry_cell_setting 'orthorhombic'
loop_
_space_group_symop_operation_xyz
x,y,z
-x,-y,z
1/2+x,1/2-y,1/2-z
1/2-x,1/2+y,1/2-z
-x,-y,-z
x,y,-z
1/2-x,1/2+y,1/2+z
1/2+x,1/2-y,1/2+z
loop_
_atom_site_type_symbol
_atom_site_label
_atom_site_fract_x
_atom_site_fract_y
_atom_site_fract_z
Si Si1 0.723243 0.353225 0.169757
Si Si2 0.843185 0.274154 0.166667
Si Si3 0.558763 0.851755 0.829186
Si Si4 0.266841 0.353541 0.666909
Si Si5 0.059621 0.364359 0.169365
Si Si6 0.252525 0.010819 0.168195
Si Si7 0.885933 0.502942 0.670525
Si Si8 0.670224 0.228106 0.668670
O O1 0.787690 0.323527 0.200242
O O2 0.718421 0.431664 0.236211
O O3 0.676024 0.302243 0.245865
O O4 0.708128 0.356686 0.000000
O O5 0.894882 0.293606 0.275557
O O6 0.824957 0.192448 0.197512
O O7 0.864168 0.284717 0.000000
O O8 0.498909 0.838073 0.745991
O O9 0.581972 0.929876 0.792963
O O10 0.548567 0.840826 0.000000
O O11 0.245822 0.339464 0.500000
O O12 0.280903 0.436271 0.691262
O O13 0.214413 0.331002 0.771476
O O14 0.081946 0.436767 0.239625
O O15 0.105283 0.300816 0.191091
O O16 0.047582 0.379591 0.000000
O O17 0.319109 0.002758 0.221837
O O18 0.251547 0.035496 0.000000
O O19 0.889965 0.522477 0.500000
O O20 0.685053 0.241514 0.500000
#
# Coordination Sequence:
#
# PCOD8235545 Si02
#       8
#     8   8   8   8   8   8   8   8
#     4  10  20  32  50  73  99 129 163 202 248 294
#     4   9  18  32  48  69  96 126 162 203 242 285
#     4  11  22  34  49  69  95 133 172 204 243 287
#     4   9  18  32  51  73  98 130 162 199 248 293
#     4  11  23  35  49  70  96 131 171 210 246 285
#     4  10  18  31  51  74 103 134 164 199 242 294
#     4  10  20  33  48  69 100 135 170 203 236 285
#     4  10  20  33  49  70  96 127 165 206 248 291
#
# _framework density 16.20036
#
# number of rings (size 3 to 8) (size 9 to 14) (size 15 to 20)
#    0.000    2.000    2.500    2.625    0.000    7.000 
#    0.000    0.000    0.000    0.000    0.000    0.875 
#    0.000    7.000    0.000    0.000    0.000    0.000 
#
# Total GULP energy -793794.272236 kJ/mol
# GULP energy per Si atom -12403.035504 kJ/mol
# Density = 1.616349 g / cm^3
# Si number density = 16.200360 Si / 1000 Ang^3
#
#
#
# Elastic Constant Matrix: (Units=GPa)
#
#
# Indices 1 2 3 4 5 6 
#
# 1 75.1749 50.2668 53.7252 0.0000 0.0000 0.0000
# 2 50.2668 110.2551 60.2504 0.0000 0.0000 0.0000
# 3 53.7252 60.2504 96.6124 0.0000 0.0000 0.0000
# 4 0.0000 0.0000 0.0000 28.6786 0.0000 0.0000
# 5 0.0000 0.0000 0.0000 0.0000 26.4739 0.0000
# 6 0.0000 0.0000 0.0000 0.0000 0.0000 20.8363
#
#
#
# Elastic Compliance Matrix: (Units=1/GPa)
#
#
# Indices 1 2 3 4 5 6 
#
# 1 0.024135 -0.005566 -0.009950 0.000000 0.000000 0.000000
# 2 -0.005566 0.015042 -0.006286 0.000000 0.000000 0.000000
# 3 -0.009950 -0.006286 0.019804 0.000000 0.000000 0.000000
# 4 0.000000 0.000000 0.000000 0.034869 0.000000 0.000000
# 5 0.000000 0.000000 0.000000 0.000000 0.037773 0.000000
# 6 0.000000 0.000000 0.000000 0.000000 0.000000 0.047993
#
#
# Mechanical properties :
#
#
# Convention : Reuss Voigt Hill
#
# Bulk Modulus (GPa) = 65.02996 67.83635 66.43316
# Shear Modulus (GPa) = 21.89653 23.05109 22.47381
#
# Velocity S-wave (km/s) = 3.68041 3.77619 3.72861
# Velocity P-wave (km/s) = 7.63471 7.80878 7.72224
#
# Compressibility (1/GPa) = 0.01537753
#
# Stress axis : x y z
#
# Youngs Moduli (GPa) = 41.43307 66.47850 50.49562
#
# Poissons Ratio (x) = 0.37004 0.50244
# Poissons Ratio (y) = 0.23063 0.31740
# Poissons Ratio (z) = 0.41226 0.41786
#
# Static dielectric constant tensor:
#      x y z
#    x 2.901670 0.000000 0.000000 
#    y 0.000000 3.108790 0.000000 
#    z 0.000000 0.000000 3.148540 
# 
# 
# High freq. dielectric constant tensor:
#      x y z
#    x 1.594460 0.000000 0.000000 
#    y 0.000000 1.619500 0.000000 
#    z 0.000000 0.000000 1.634360 
# 
# From -- ./inp_files/8328.got.cif
#   From: 2010.06.25/outbox.cif.g09.slc.cpg/sg58_5_cif.got.tgz:8328.got - 2010.06.26 21:38:00.
