data_PCOD8235870
_publ_section_title
;
Structure prediction by ZEFSAII (Michael W. Deem and Ramdas Pophale) SiO2 
 PCOD8235870
Probable space group: P N N M
;
_chemical_formula_sum "Si O2"
_cell_formula_units_Z 56
_cell_length_a 14.828729
_cell_length_b 20.726395
_cell_length_c 9.679278
_cell_angle_alpha 90.000000
_cell_angle_beta 90.000000
_cell_angle_gamma 90.000000
_cell_volume 2974.888292
_symmetry_space_group_name_H-M "P N N M"
_symmetry_group_IT_number 58
_symmetry_cell_setting 'orthorhombic'
loop_
_space_group_symop_operation_xyz
x,y,z
-x,-y,z
1/2+x,1/2-y,1/2-z
1/2-x,1/2+y,1/2-z
-x,-y,-z
x,y,-z
1/2-x,1/2+y,1/2+z
1/2+x,1/2-y,1/2+z
loop_
_atom_site_type_symbol
_atom_site_label
_atom_site_fract_x
_atom_site_fract_y
_atom_site_fract_z
Si Si1 0.501186 0.733591 0.845066
Si Si2 0.750665 0.095285 0.838288
Si Si3 0.430615 0.057520 0.348421
Si Si4 0.552551 0.126559 0.151888
Si Si5 0.170883 0.162537 0.336392
Si Si6 0.267941 0.522774 0.837740
Si Si7 0.677134 0.736680 0.662923
O O1 0.438603 0.796797 0.855400
O O2 0.429793 0.681293 0.785082
O O3 0.583657 0.745600 0.743032
O O4 0.535952 0.715286 0.000000
O O5 0.645897 0.097070 0.792513
O O6 0.791494 0.164529 0.801740
O O7 0.801521 0.039426 0.749812
O O8 0.761413 0.079765 0.000000
O O9 0.419163 0.089219 0.500000
O O10 0.467099 0.111756 0.247097
O O11 0.335870 0.031471 0.296930
O O12 0.500000 0.000000 0.352080
O O13 0.532923 0.097787 0.000000
O O14 0.174468 0.168088 0.500000
O O15 0.183374 0.088438 0.288857
O O16 0.250493 0.210166 0.281013
O O17 0.283046 0.508912 0.000000
O O18 0.660203 0.745541 0.500000
#
# Coordination Sequence:
#
# PCOD8235870 Si02
#       7
#     8   8   8   8   8   8   8
#     4  10  20  36  57  82 107 136 183 234 271 317
#     4  10  20  35  55  78 107 143 179 217 267 325
#     4  10  19  30  46  75 109 137 172 219 266 318
#     4  10  19  32  52  76 104 140 176 214 268 329
#     4   9  18  36  59  79 107 147 184 220 271 332
#     4  10  20  34  53  77 108 145 181 220 269 323
#     4  10  20  38  61  82 107 146 187 223 273 329
#
# _framework density 18.824237
#
# number of rings (size 3 to 8) (size 9 to 14) (size 15 to 20)
#    0.000    2.143    2.857    0.857    0.000    3.143 
#    0.000    2.857    0.000    4.286    0.000    0.000 
#    0.000    0.000    0.000    0.000    0.000    0.000 
#
# Total GULP energy -694090.948404 kJ/mol
# GULP energy per Si atom -12394.481222 kJ/mol
# Density = 1.878139 g / cm^3
# Si number density = 18.824237 Si / 1000 Ang^3
#
#
#
# Elastic Constant Matrix: (Units=GPa)
#
#
# Indices 1 2 3 4 5 6 
#
# 1 54.4288 14.7868 23.9449 0.0000 0.0000 0.0000
# 2 14.7868 110.3846 36.0838 0.0000 0.0000 0.0000
# 3 23.9449 36.0838 50.2487 0.0000 0.0000 0.0000
# 4 0.0000 0.0000 0.0000 30.1626 0.0000 0.0000
# 5 0.0000 0.0000 0.0000 0.0000 48.4226 0.0000
# 6 0.0000 0.0000 0.0000 0.0000 0.0000 28.7239
#
#
#
# Elastic Compliance Matrix: (Units=1/GPa)
#
#
# Indices 1 2 3 4 5 6 
#
# 1 0.023283 0.000664 -0.011572 0.000000 0.000000 0.000000
# 2 0.000664 0.011857 -0.008831 0.000000 0.000000 0.000000
# 3 -0.011572 -0.008831 0.031757 0.000000 0.000000 0.000000
# 4 0.000000 0.000000 0.000000 0.033154 0.000000 0.000000
# 5 0.000000 0.000000 0.000000 0.000000 0.020652 0.000000
# 6 0.000000 0.000000 0.000000 0.000000 0.000000 0.034814
#
#
# Mechanical properties :
#
#
# Convention : Reuss Voigt Hill
#
# Bulk Modulus (GPa) = 36.47076 40.52144 38.49610
# Shear Modulus (GPa) = 24.49376 30.81158 27.65267
#
# Velocity S-wave (km/s) = 3.61110 4.05013 3.83690
# Velocity P-wave (km/s) = 6.06656 6.59123 6.33433
#
# Compressibility (1/GPa) = 0.02741922
#
# Stress axis : x y z
#
# Youngs Moduli (GPa) = 42.94972 84.33790 31.48939
#
# Poissons Ratio (x) = -0.05598 0.36438
# Poissons Ratio (y) = -0.02851 0.27808
# Poissons Ratio (z) = 0.49700 0.74478
#
# Static dielectric constant tensor:
#      x y z
#    x 3.381480 0.000000 0.000000 
#    y 0.000000 3.620370 0.000000 
#    z 0.000000 0.000000 3.340520 
# 
# 
# High freq. dielectric constant tensor:
#      x y z
#    x 1.716600 0.000000 0.000000 
#    y 0.000000 1.739140 0.000000 
#    z 0.000000 0.000000 1.708380 
# 
# From -- ./inp_files/6359.got.cif
#   From: 2010.06.25/outbox.cif.g09.slc.cpg/sg58_4_cif.got.tgz:6359.got - 2010.06.26 21:38:00.
