data_PCOD8235635
_publ_section_title
;
Structure prediction by ZEFSAII (Michael W. Deem and Ramdas Pophale) SiO2 
 PCOD8235635
Probable space group: P N N M
;
_chemical_formula_sum "Si O2"
_cell_formula_units_Z 64
_cell_length_a 24.601501
_cell_length_b 14.769343
_cell_length_c 8.889013
_cell_angle_alpha 90.000000
_cell_angle_beta 90.000000
_cell_angle_gamma 90.000000
_cell_volume 3229.805154
_symmetry_space_group_name_H-M "P N N M"
_symmetry_group_IT_number 58
_symmetry_cell_setting 'orthorhombic'
loop_
_space_group_symop_operation_xyz
x,y,z
-x,-y,z
1/2+x,1/2-y,1/2-z
1/2-x,1/2+y,1/2-z
-x,-y,-z
x,y,-z
1/2-x,1/2+y,1/2+z
1/2+x,1/2-y,1/2+z
loop_
_atom_site_type_symbol
_atom_site_label
_atom_site_fract_x
_atom_site_fract_y
_atom_site_fract_z
Si Si1 0.926325 0.535936 0.171740
Si Si2 0.300426 0.172113 0.678576
Si Si3 0.715473 0.623618 0.666957
Si Si4 0.990713 0.720182 0.171009
Si Si5 0.618328 0.308977 0.678377
Si Si6 0.084860 0.640193 0.323995
Si Si7 0.694588 0.441948 0.822620
Si Si8 0.160018 0.362922 0.666668
O O1 0.964388 0.621930 0.192863
O O2 0.946047 0.451882 0.273264
O O3 0.866264 0.563209 0.224045
O O4 0.925452 0.502640 0.000000
O O5 0.303862 0.167191 0.500000
O O6 0.294696 0.276124 0.733100
O O7 0.356273 0.136686 0.748020
O O8 0.249252 0.110659 0.733141
O O9 0.689000 0.612862 0.500000
O O10 0.693793 0.547938 0.781253
O O11 0.778815 0.607526 0.650676
O O12 0.945614 0.794668 0.221425
O O13 0.045981 0.723589 0.270163
O O14 0.008230 0.737534 0.000000
O O15 0.625181 0.297822 0.500000
O O16 0.641054 0.404159 0.737200
O O17 0.655841 0.235937 0.761431
O O18 0.092698 0.646140 0.500000
O O19 0.687115 0.430220 0.000000
O O20 0.132639 0.362757 0.500000
#
# Coordination Sequence:
#
# PCOD8235635 Si02
#       8
#     8   8   8   8   8   8   8   8
#     4  10  20  34  53  79 111 151 192 228 278 344
#     4  10  22  41  59  79 116 160 193 228 281 347
#     4  10  21  37  56  81 113 151 191 231 281 342
#     4   9  20  37  56  78 107 149 192 230 279 342
#     4  10  20  35  57  82 110 146 186 226 275 335
#     4  12  24  35  52  81 112 147 190 238 289 334
#     4  11  22  37  59  87 115 149 190 235 286 334
#     4  10  18  32  53  80 112 143 184 233 278 328
#
# _framework density 19.815436999999999
#
# number of rings (size 3 to 8) (size 9 to 14) (size 15 to 20)
#    0.000    1.750    1.250    4.500    0.000    9.000 
#    0.000    0.000    0.000    0.750    0.000    5.250 
#    0.000    0.000    0.000    0.000    0.000    0.000 
#
# Total GULP energy -793331.077474 kJ/mol
# GULP energy per Si atom -12395.798086 kJ/mol
# Density = 1.977034 g / cm^3
# Si number density = 19.815437 Si / 1000 Ang^3
#
#
#
# Elastic Constant Matrix: (Units=GPa)
#
#
# Indices 1 2 3 4 5 6 
#
# 1 42.0038 -1.5353 15.7999 0.0000 0.0000 0.0000
# 2 -1.5353 65.8770 18.3350 0.0000 0.0000 0.0000
# 3 15.7999 18.3350 51.6554 0.0000 0.0000 0.0000
# 4 0.0000 0.0000 0.0000 27.7329 0.0000 0.0000
# 5 0.0000 0.0000 0.0000 0.0000 18.8081 0.0000
# 6 0.0000 0.0000 0.0000 0.0000 0.0000 12.8426
#
#
#
# Elastic Compliance Matrix: (Units=1/GPa)
#
#
# Indices 1 2 3 4 5 6 
#
# 1 0.027539 0.003314 -0.009600 0.000000 0.000000 0.000000
# 2 0.003314 0.017242 -0.007134 0.000000 0.000000 0.000000
# 3 -0.009600 -0.007134 0.024827 0.000000 0.000000 0.000000
# 4 0.000000 0.000000 0.000000 0.036058 0.000000 0.000000
# 5 0.000000 0.000000 0.000000 0.000000 0.053169 0.000000
# 6 0.000000 0.000000 0.000000 0.000000 0.000000 0.077866
#
#
# Mechanical properties :
#
#
# Convention : Reuss Voigt Hill
#
# Bulk Modulus (GPa) = 23.38102 24.97062 24.17582
# Shear Modulus (GPa) = 17.99867 20.33916 19.16891
#
# Velocity S-wave (km/s) = 3.01710 3.20727 3.11364
# Velocity P-wave (km/s) = 4.89512 5.13268 5.01531
#
# Compressibility (1/GPa) = 0.04276973
#
# Stress axis : x y z
#
# Youngs Moduli (GPa) = 36.31158 57.99626 40.27802
#
# Poissons Ratio (x) = -0.19218 0.38666
# Poissons Ratio (y) = -0.12032 0.28733
# Poissons Ratio (z) = 0.34858 0.41373
#
# Static dielectric constant tensor:
#      x y z
#    x 3.652930 0.000000 0.000000 
#    y 0.000000 3.550410 0.000000 
#    z 0.000000 0.000000 3.653800 
# 
# 
# High freq. dielectric constant tensor:
#      x y z
#    x 1.765370 0.000000 0.000000 
#    y 0.000000 1.751300 0.000000 
#    z 0.000000 0.000000 1.772160 
# 
# From -- ./inp_files/9988.got.cif
#   From: 2010.06.25/outbox.cif.g09.slc.cpg/sg58_5_cif.got.tgz:9988.got - 2010.06.26 21:38:00.
