data_PCOD8235509
_publ_section_title
;
Structure prediction by ZEFSAII (Michael W. Deem and Ramdas Pophale) SiO2 
 PCOD8235509
Probable space group: P N N M
;
_chemical_formula_sum "Si O2"
_cell_formula_units_Z 56
_cell_length_a 16.879873
_cell_length_b 19.889169
_cell_length_c 9.153591
_cell_angle_alpha 90.000000
_cell_angle_beta 90.000000
_cell_angle_gamma 90.000000
_cell_volume 3073.104413
_symmetry_space_group_name_H-M "P N N M"
_symmetry_group_IT_number 58
_symmetry_cell_setting 'orthorhombic'
loop_
_space_group_symop_operation_xyz
x,y,z
-x,-y,z
1/2+x,1/2-y,1/2-z
1/2-x,1/2+y,1/2-z
-x,-y,-z
x,y,-z
1/2-x,1/2+y,1/2+z
1/2+x,1/2-y,1/2+z
loop_
_atom_site_type_symbol
_atom_site_label
_atom_site_fract_x
_atom_site_fract_y
_atom_site_fract_z
Si Si1 0.573754 0.543573 0.330332
Si Si2 0.737556 0.520210 0.826854
Si Si3 0.233492 0.748891 0.668573
Si Si4 0.088862 0.805094 0.831676
Si Si5 0.650074 0.136309 0.669359
Si Si6 0.812373 0.379236 0.827710
Si Si7 0.981362 0.332424 0.828482
O O1 0.500000 0.500000 0.271922
O O2 0.589690 0.528703 0.500000
O O3 0.651439 0.522597 0.243201
O O4 0.551568 0.621719 0.303508
O O5 0.793158 0.579411 0.760538
O O6 0.779269 0.450958 0.780725
O O7 0.727113 0.526698 0.000000
O O8 0.215260 0.734381 0.500000
O O9 0.165536 0.797165 0.731295
O O10 0.315139 0.789001 0.689886
O O11 0.240409 0.678369 0.752595
O O12 0.025854 0.746996 0.790205
O O13 0.115630 0.796544 0.000000
O O14 0.643282 0.117471 0.500000
O O15 0.562053 0.137371 0.742443
O O16 0.903526 0.372105 0.772216
O O17 0.807825 0.367592 0.000000
O O18 0.989333 0.341924 0.000000
#
# Coordination Sequence:
#
# PCOD8235509 Si02
#       7
#     8   8   8   8   8   8   8
#     4  10  21  35  53  78 106 140 179 217 264 320
#     4  10  20  35  53  77 108 140 175 216 267 320
#     4  10  18  30  52  76 100 133 173 219 262 309
#     4   9  17  32  52  72  99 133 169 213 263 314
#     4   9  17  29  50  79 104 131 172 217 260 306
#     4   9  19  34  52  74 105 141 174 213 262 315
#     4   8  15  29  49  74 100 130 170 213 255 299
#
# _framework density 18.222615999999999
#
# number of rings (size 3 to 8) (size 9 to 14) (size 15 to 20)
#    0.000    2.714    1.429    1.286    0.000    2.571 
#    0.000    5.714    0.000   12.000    0.000    5.000 
#    0.000    0.000    0.000    0.000    0.000    0.000 
#
# Total GULP energy -694153.364749 kJ/mol
# GULP energy per Si atom -12395.595799 kJ/mol
# Density = 1.818114 g / cm^3
# Si number density = 18.222616 Si / 1000 Ang^3
#
#
#
# Elastic Constant Matrix: (Units=GPa)
#
#
# Indices 1 2 3 4 5 6 
#
# 1 138.0148 82.5409 28.5220 0.0000 0.0000 0.0000
# 2 82.5409 134.7553 32.9734 0.0000 0.0000 0.0000
# 3 28.5220 32.9734 32.4072 0.0000 0.0000 0.0000
# 4 0.0000 0.0000 0.0000 23.6479 0.0000 0.0000
# 5 0.0000 0.0000 0.0000 0.0000 18.6660 0.0000
# 6 0.0000 0.0000 0.0000 0.0000 0.0000 26.0724
#
#
#
# Elastic Compliance Matrix: (Units=1/GPa)
#
#
# Indices 1 2 3 4 5 6 
#
# 1 0.011819 -0.006250 -0.004043 0.000000 0.000000 0.000000
# 2 -0.006250 0.013186 -0.007916 0.000000 0.000000 0.000000
# 3 -0.004043 -0.007916 0.042469 0.000000 0.000000 0.000000
# 4 0.000000 0.000000 0.000000 0.042287 0.000000 0.000000
# 5 0.000000 0.000000 0.000000 0.000000 0.053573 0.000000
# 6 0.000000 0.000000 0.000000 0.000000 0.000000 0.038355
#
#
# Mechanical properties :
#
#
# Convention : Reuss Voigt Hill
#
# Bulk Modulus (GPa) = 32.19842 65.91665 49.05754
# Shear Modulus (GPa) = 20.12404 24.42000 22.27202
#
# Velocity S-wave (km/s) = 3.32677 3.66470 3.49982
# Velocity P-wave (km/s) = 5.69775 7.35923 6.58113
#
# Compressibility (1/GPa) = 0.03105743
#
# Stress axis : x y z
#
# Youngs Moduli (GPa) = 84.60898 75.83696 23.54642
#
# Poissons Ratio (x) = 0.47400 0.09519
# Poissons Ratio (y) = 0.52883 0.18638
# Poissons Ratio (z) = 0.34205 0.60030
#
# Static dielectric constant tensor:
#      x y z
#    x 3.488240 0.000000 0.000000 
#    y 0.000000 3.567050 0.000000 
#    z 0.000000 0.000000 3.070160 
# 
# 
# High freq. dielectric constant tensor:
#      x y z
#    x 1.703080 0.000000 0.000000 
#    y 0.000000 1.715410 0.000000 
#    z 0.000000 0.000000 1.670540 
# 
# From -- ./inp_files/6343.got.cif
#   From: 2010.06.25/outbox.cif.g09.slc.cpg/sg58_4_cif.got.tgz:6343.got - 2010.06.26 21:38:00.
