data_PCOD8235629
_publ_section_title
;
Structure prediction by ZEFSAII (Michael W. Deem and Ramdas Pophale) SiO2 
 PCOD8235629
Probable space group: P N N M
;
_chemical_formula_sum "Si O2"
_cell_formula_units_Z 64
_cell_length_a 29.555747
_cell_length_b 12.219877
_cell_length_c 9.114491
_cell_angle_alpha 90.000000
_cell_angle_beta 90.000000
_cell_angle_gamma 90.000000
_cell_volume 3291.858776
_symmetry_space_group_name_H-M "P N N M"
_symmetry_group_IT_number 58
_symmetry_cell_setting 'orthorhombic'
loop_
_space_group_symop_operation_xyz
x,y,z
-x,-y,z
1/2+x,1/2-y,1/2-z
1/2-x,1/2+y,1/2-z
-x,-y,-z
x,y,-z
1/2-x,1/2+y,1/2+z
1/2+x,1/2-y,1/2+z
loop_
_atom_site_type_symbol
_atom_site_label
_atom_site_fract_x
_atom_site_fract_y
_atom_site_fract_z
Si Si1 0.933712 0.522711 0.166314
Si Si2 0.624176 0.320075 0.167107
Si Si3 0.721507 0.949110 0.174329
Si Si4 0.162812 0.380984 0.832764
Si Si5 0.968452 0.727737 0.668055
Si Si6 0.934405 0.302403 0.669756
Si Si7 0.690691 0.505149 0.829831
Si Si8 0.837013 0.241225 0.674254
O O1 0.880365 0.541320 0.178043
O O2 0.961049 0.624577 0.228528
O O3 0.946339 0.416883 0.257380
O O4 0.949197 0.505239 0.000000
O O5 0.651981 0.238230 0.270040
O O6 0.570129 0.318778 0.204053
O O7 0.642923 0.442196 0.190934
O O8 0.632029 0.281400 0.000000
O O9 0.772166 0.939637 0.235946
O O10 0.693024 0.843524 0.229221
O O11 0.701762 0.061659 0.238659
O O12 0.721839 0.955499 0.000000
O O13 0.179530 0.366896 0.000000
O O14 0.963389 0.688757 0.500000
O O15 0.020101 0.772306 0.693407
O O16 0.925170 0.325276 0.500000
O O17 0.888592 0.249847 0.736635
O O18 0.684325 0.627968 0.767184
O O19 0.705501 0.505974 0.000000
O O20 0.837997 0.236482 0.500000
#
# Coordination Sequence:
#
# PCOD8235629 Si02
#       8
#     8   8   8   8   8   8   8   8
#     4  10  19  30  47  76 112 144 176 221 272 321
#     4   9  19  36  56  80 112 146 184 227 272 322
#     4  11  22  37  58  83 109 141 182 225 277 336
#     4  10  20  34  54  80 110 144 180 222 274 326
#     4   9  18  31  51  78 108 145 186 224 267 326
#     4  10  18  32  53  76 106 146 186 223 271 327
#     4  10  22  40  59  80 110 147 184 229 277 326
#     4   9  20  38  58  80 110 145 181 226 277 327
#
# _framework density 19.441903
#
# number of rings (size 3 to 8) (size 9 to 14) (size 15 to 20)
#    0.000    2.250    1.250    1.500    1.750    3.500 
#    0.000    1.875    0.000    3.750    0.000    0.000 
#    0.000    6.000    0.000    0.000    0.000    0.000 
#
# Total GULP energy -793331.775512 kJ/mol
# GULP energy per Si atom -12395.808992 kJ/mol
# Density = 1.939765 g / cm^3
# Si number density = 19.441903 Si / 1000 Ang^3
#
#
#
# Elastic Constant Matrix: (Units=GPa)
#
#
# Indices 1 2 3 4 5 6 
#
# 1 139.0688 49.3679 32.9087 0.0000 0.0000 0.0000
# 2 49.3679 77.6386 25.5195 0.0000 0.0000 0.0000
# 3 32.9087 25.5195 63.3454 0.0000 0.0000 0.0000
# 4 0.0000 0.0000 0.0000 14.4939 0.0000 0.0000
# 5 0.0000 0.0000 0.0000 0.0000 23.4567 0.0000
# 6 0.0000 0.0000 0.0000 0.0000 0.0000 18.0190
#
#
#
# Elastic Compliance Matrix: (Units=1/GPa)
#
#
# Indices 1 2 3 4 5 6 
#
# 1 0.009745 -0.005224 -0.002958 0.000000 0.000000 0.000000
# 2 -0.005224 0.017647 -0.004395 0.000000 0.000000 0.000000
# 3 -0.002958 -0.004395 0.019094 0.000000 0.000000 0.000000
# 4 0.000000 0.000000 0.000000 0.068995 0.000000 0.000000
# 5 0.000000 0.000000 0.000000 0.000000 0.042632 0.000000
# 6 0.000000 0.000000 0.000000 0.000000 0.000000 0.055497
#
#
# Mechanical properties :
#
#
# Convention : Reuss Voigt Hill
#
# Bulk Modulus (GPa) = 46.88055 55.07167 50.97611
# Shear Modulus (GPa) = 20.33555 22.67770 21.50662
#
# Velocity S-wave (km/s) = 3.23765 3.41901 3.32957
# Velocity P-wave (km/s) = 6.17592 6.63129 6.40765
#
# Compressibility (1/GPa) = 0.02133081
#
# Stress axis : x y z
#
# Youngs Moduli (GPa) = 102.61375 56.66727 52.37287
#
# Poissons Ratio (x) = 0.29605 0.15492
# Poissons Ratio (y) = 0.53610 0.23018
# Poissons Ratio (z) = 0.30354 0.24906
#
# Static dielectric constant tensor:
#      x y z
#    x 3.916720 0.000000 0.000000 
#    y 0.000000 3.333240 0.000000 
#    z 0.000000 0.000000 3.417890 
# 
# 
# High freq. dielectric constant tensor:
#      x y z
#    x 1.774570 0.000000 0.000000 
#    y 0.000000 1.727040 0.000000 
#    z 0.000000 0.000000 1.740340 
# 
# From -- ./inp_files/4747.got.cif
#   From: 2010.06.25/outbox.cif.g09.slc.cpg/sg58_3_cif.got.tgz:4747.got - 2010.06.26 21:38:00.
