data_PCOD8235130
_publ_section_title
;
Structure prediction by ZEFSAII (Michael W. Deem and Ramdas Pophale) SiO2 
 PCOD8235130
Probable space group: P B C M
;
_chemical_formula_sum "Si O2"
_cell_formula_units_Z 24
_cell_length_a 13.985480
_cell_length_b 16.734004
_cell_length_c 5.267438
_cell_angle_alpha 90.000000
_cell_angle_beta 90.000000
_cell_angle_gamma 90.000000
_cell_volume 1232.754730
_symmetry_space_group_name_H-M "P B C M"
_symmetry_group_IT_number 57
_symmetry_cell_setting 'orthorhombic'
loop_
_space_group_symop_operation_xyz
x,y,z
-x,-y,1/2+z
x,1/2-y,-z
-x,1/2+y,1/2-z
-x,-y,-z
x,y,1/2-z
-x,1/2+y,z
x,1/2-y,1/2+z
loop_
_atom_site_type_symbol
_atom_site_label
_atom_site_fract_x
_atom_site_fract_y
_atom_site_fract_z
Si Si1 0.985740 0.704237 0.750000
Si Si2 0.415985 0.282057 0.750000
Si Si3 0.751904 0.558419 0.250000
Si Si4 0.236397 0.165400 0.750000
Si Si5 0.553886 0.971433 0.750000
Si Si6 0.949059 0.029955 0.750000
O O1 0.018588 0.750000 0.500000
O O2 0.871777 0.695259 0.750000
O O3 0.047431 0.624507 0.750000
O O4 0.470488 0.250000 0.500000
O O5 0.308445 0.241456 0.750000
O O6 0.423189 0.376938 0.750000
O O7 0.746078 0.613063 0.500237
O O8 0.662459 0.495687 0.250000
O O9 0.842423 0.501865 0.250000
O O10 0.500000 0.000000 0.500000
O O11 0.000000 0.000000 0.500000
#
# Coordination Sequence:
#
# PCOD8235130 Si02
#       6
#     4   4   4   4   4   4
#     4  12  24  37  60  98 142 171 219 267 328 403
#     4  12  21  38  65  96 132 165 204 278 343 384
#     4  12  23  41  67  96 133 171 221 271 338 398
#     4  12  21  37  65 103 132 161 210 283 347 388
#     4  12  26  43  63  95 139 174 222 274 339 400
#     4  12  23  42  64  96 140 180 216 261 335 417
#
# _framework density 19.468592999999998
#
# number of rings (size 3 to 8) (size 9 to 14) (size 15 to 20)
#    0.000    0.000    6.667    5.000    0.000    0.000 
#    0.000    0.000    0.000    6.000    0.000    0.000 
#    0.000    0.000    0.000    0.000    0.000    0.000 
#
# Total GULP energy -297405.036544 kJ/mol
# GULP energy per Si atom -12391.876523 kJ/mol
# Density = 1.942428 g / cm^3
# Si number density = 19.468593 Si / 1000 Ang^3
#
#
#
# Elastic Constant Matrix: (Units=GPa)
#
#
# Indices 1 2 3 4 5 6 
#
# 1 128.5290 75.5764 67.6864 0.0000 0.0000 0.0000
# 2 75.5764 150.4671 84.1122 0.0000 0.0000 0.0000
# 3 67.6864 84.1122 223.8762 0.0000 0.0000 0.0000
# 4 0.0000 0.0000 0.0000 46.3522 0.0000 0.0000
# 5 0.0000 0.0000 0.0000 0.0000 16.5283 0.0000
# 6 0.0000 0.0000 0.0000 0.0000 0.0000 46.1422
#
#
#
# Elastic Compliance Matrix: (Units=1/GPa)
#
#
# Indices 1 2 3 4 5 6 
#
# 1 0.011506 -0.004854 -0.001655 0.000000 0.000000 0.000000
# 2 -0.004854 0.010461 -0.002463 0.000000 0.000000 0.000000
# 3 -0.001655 -0.002463 0.005892 0.000000 0.000000 0.000000
# 4 0.000000 0.000000 0.000000 0.021574 0.000000 0.000000
# 5 0.000000 0.000000 0.000000 0.000000 0.060502 0.000000
# 6 0.000000 0.000000 0.000000 0.000000 0.000000 0.021672
#
#
# Mechanical properties :
#
#
# Convention : Reuss Voigt Hill
#
# Bulk Modulus (GPa) = 100.84965 106.40247 103.62606
# Shear Modulus (GPa) = 32.71047 40.17104 36.44076
#
# Velocity S-wave (km/s) = 4.10343 4.54737 4.33109
# Velocity P-wave (km/s) = 8.62349 9.07433 8.85178
#
# Compressibility (1/GPa) = 0.00991575
#
# Stress axis : x y z
#
# Youngs Moduli (GPa) = 86.90949 95.59584 169.71176
#
# Poissons Ratio (x) = 0.46404 0.28088
# Poissons Ratio (y) = 0.42187 0.41793
# Poissons Ratio (z) = 0.14384 0.23541
#
# Static dielectric constant tensor:
#      x y z
#    x 3.769850 0.000000 0.000000 
#    y 0.000000 3.405870 0.000000 
#    z 0.000000 0.000000 4.535620 
# 
# 
# High freq. dielectric constant tensor:
#      x y z
#    x 1.728490 0.000000 0.000000 
#    y 0.000000 1.754770 0.000000 
#    z 0.000000 0.000000 1.806480 
# 
# From -- ./inp_files/426.got.cif
#   From: 2010.03.12/outbox.cif.g09.slc.cpg/sg57_1_cif.got.tgz:426.got - 2010.04.16 15:48:40.
