data_PCOD8235178
_publ_section_title
;
Structure prediction by ZEFSAII (Michael W. Deem and Ramdas Pophale) SiO2 
 PCOD8235178
Probable space group: P B C M
;
_chemical_formula_sum "Si O2"
_cell_formula_units_Z 48
_cell_length_a 15.059087
_cell_length_b 9.422737
_cell_length_c 14.549073
_cell_angle_alpha 90.000000
_cell_angle_beta 90.000000
_cell_angle_gamma 90.000000
_cell_volume 2064.481687
_symmetry_space_group_name_H-M "P B C M"
_symmetry_group_IT_number 57
_symmetry_cell_setting 'orthorhombic'
loop_
_space_group_symop_operation_xyz
x,y,z
-x,-y,1/2+z
x,1/2-y,-z
-x,1/2+y,1/2-z
-x,-y,-z
x,y,1/2-z
-x,1/2+y,z
x,1/2-y,1/2+z
loop_
_atom_site_type_symbol
_atom_site_label
_atom_site_fract_x
_atom_site_fract_y
_atom_site_fract_z
Si Si1 0.402147 0.258327 0.890165
Si Si2 0.454858 0.962519 0.596277
Si Si3 0.899319 0.277423 0.358645
Si Si4 0.212019 0.294791 0.353186
Si Si5 0.062411 0.092576 0.360011
Si Si6 0.733627 0.100830 0.139864
O O1 0.471543 0.371624 0.849230
O O2 0.303589 0.295104 0.856373
O O3 0.431267 0.105810 0.848850
O O4 0.404963 0.250000 0.000000
O O5 0.361822 0.873906 0.590058
O O6 0.500000 0.000000 0.500000
O O7 0.904721 0.285037 0.250000
O O8 0.923170 0.432939 0.399673
O O9 0.800879 0.226972 0.389661
O O10 0.968680 0.157657 0.393366
O O11 0.179234 0.319898 0.250000
O O12 0.137687 0.197911 0.402003
O O13 0.226006 0.450520 0.397472
O O14 0.068800 0.086021 0.250000
O O15 0.720500 0.096409 0.250000
#
# Coordination Sequence:
#
# PCOD8235178 Si02
#       6
#     8   8   8   8   8   8
#     4   9  18  32  48  66  88 121 157 194 237 284
#     4   9  18  32  48  66  89 121 159 196 239 289
#     4   9  16  26  42  67  99 131 159 189 229 276
#     4   9  17  29  45  67  94 123 156 193 233 276
#     4   9  16  26  42  67  99 131 160 190 228 277
#     4   9  17  29  45  67  95 125 159 200 240 276
#
# _framework density 23.250387
#
# number of rings (size 3 to 8) (size 9 to 14) (size 15 to 20)
#    0.000    3.000    0.000    1.000    0.000    6.000 
#    0.000    0.000    0.000    0.000    0.000   22.167 
#    0.000    0.000    0.000    0.000    0.000    0.000 
#
# Total GULP energy -594684.519078 kJ/mol
# GULP energy per Si atom -12389.260814 kJ/mol
# Density = 2.319747 g / cm^3
# Si number density = 23.250387 Si / 1000 Ang^3
#
#
#
# Elastic Constant Matrix: (Units=GPa)
#
#
# Indices 1 2 3 4 5 6 
#
# 1 128.8188 21.1725 1.0992 0.0000 0.0000 0.0000
# 2 21.1725 68.7766 0.1231 0.0000 0.0000 0.0000
# 3 1.0992 0.1231 25.2433 0.0000 0.0000 0.0000
# 4 0.0000 0.0000 0.0000 4.8485 0.0000 0.0000
# 5 0.0000 0.0000 0.0000 0.0000 38.8388 0.0000
# 6 0.0000 0.0000 0.0000 0.0000 0.0000 55.4897
#
#
#
# Elastic Compliance Matrix: (Units=1/GPa)
#
#
# Indices 1 2 3 4 5 6 
#
# 1 0.008180 -0.002517 -0.000344 0.000000 0.000000 0.000000
# 2 -0.002517 0.015315 0.000035 0.000000 0.000000 0.000000
# 3 -0.000344 0.000035 0.039629 0.000000 0.000000 0.000000
# 4 0.000000 0.000000 0.000000 0.206249 0.000000 0.000000
# 5 0.000000 0.000000 0.000000 0.000000 0.025747 0.000000
# 6 0.000000 0.000000 0.000000 0.000000 0.000000 0.018021
#
#
# Mechanical properties :
#
#
# Convention : Reuss Voigt Hill
#
# Bulk Modulus (GPa) = 17.40012 29.73648 23.56830
# Shear Modulus (GPa) = 14.79505 33.19833 23.99669
#
# Velocity S-wave (km/s) = 2.52531 3.78280 3.21611
# Velocity P-wave (km/s) = 4.00037 5.64774 4.89387
#
# Compressibility (1/GPa) = 0.05747088
#
# Stress axis : x y z
#
# Youngs Moduli (GPa) = 122.25633 65.29656 25.23383
#
# Poissons Ratio (x) = 0.16438 0.00868
# Poissons Ratio (y) = 0.30777 -0.00088
# Poissons Ratio (z) = 0.04205 -0.00228
#
# Static dielectric constant tensor:
#      x y z
#    x 4.496420 0.000000 0.000000 
#    y 0.000000 4.728370 0.000000 
#    z 0.000000 0.000000 3.491060 
# 
# 
# High freq. dielectric constant tensor:
#      x y z
#    x 1.930770 0.000000 0.000000 
#    y 0.000000 1.917900 0.000000 
#    z 0.000000 0.000000 1.868530 
# 
# From -- ./inp_files/25262.got.cif
#   From: 2010.03.12/outbox.cif.g09.slc.cpg/sg57_13_cif.got.tgz:25262.got - 2010.04.16 15:48:40.
