data_PCOD8235549
_publ_section_title
;
Structure prediction by ZEFSAII (Michael W. Deem and Ramdas Pophale) SiO2 
 PCOD8235549
Probable space group: P N N M
;
_chemical_formula_sum "Si O2"
_cell_formula_units_Z 64
_cell_length_a 20.193526
_cell_length_b 19.661234
_cell_length_c 9.092486
_cell_angle_alpha 90.000000
_cell_angle_beta 90.000000
_cell_angle_gamma 90.000000
_cell_volume 3609.986443
_symmetry_space_group_name_H-M "P N N M"
_symmetry_group_IT_number 58
_symmetry_cell_setting 'orthorhombic'
loop_
_space_group_symop_operation_xyz
x,y,z
-x,-y,z
1/2+x,1/2-y,1/2-z
1/2-x,1/2+y,1/2-z
-x,-y,-z
x,y,-z
1/2-x,1/2+y,1/2+z
1/2+x,1/2-y,1/2+z
loop_
_atom_site_type_symbol
_atom_site_label
_atom_site_fract_x
_atom_site_fract_y
_atom_site_fract_z
Si Si1 0.777633 0.819081 0.337215
Si Si2 0.702019 0.479341 0.837471
Si Si3 0.456734 0.933050 0.833118
Si Si4 0.850457 0.336368 0.673832
Si Si5 0.172106 0.509756 0.670827
Si Si6 0.939591 0.956299 0.675454
Si Si7 0.925282 0.802499 0.673857
Si Si8 0.483860 0.192786 0.325470
O O1 0.758446 0.792261 0.500000
O O2 0.787276 0.899238 0.344123
O O3 0.718339 0.800768 0.224792
O O4 0.848019 0.786779 0.287999
O O5 0.759122 0.514530 0.742201
O O6 0.628923 0.491069 0.768139
O O7 0.706517 0.511222 0.000000
O O8 0.482825 0.878207 0.719280
O O9 0.500000 0.000000 0.822270
O O10 0.382083 0.953150 0.789062
O O11 0.460124 0.903903 0.000000
O O12 0.858445 0.327668 0.500000
O O13 0.851268 0.415483 0.723978
O O14 0.911459 0.299572 0.753573
O O15 0.185203 0.514424 0.500000
O O16 0.938373 0.958192 0.500000
O O17 0.945183 0.878270 0.726201
O O18 0.000000 0.000000 0.741405
O O19 0.937677 0.792550 0.500000
O O20 0.970345 0.752986 0.768051
O O21 0.477267 0.196274 0.500000
#
# Coordination Sequence:
#
# PCOD8235549 Si02
#       8
#     8   8   8   8   8   8   8   8
#     4   8  15  29  49  74  99 125 163 209 254 301
#     4   8  14  25  45  74 103 127 155 200 249 294
#     4  10  19  35  53  71  99 135 176 213 255 313
#     4  10  18  31  51  75 100 131 170 210 257 307
#     4   9  17  29  48  71  97 129 166 207 247 302
#     4   8  14  28  54  83 104 127 166 209 251 302
#     4   9  18  34  55  76 103 138 171 207 261 317
#     4  12  24  34  49  75 106 137 176 220 259 302
#
# _framework density 17.728598999999999
#
# number of rings (size 3 to 8) (size 9 to 14) (size 15 to 20)
#    0.000    2.750    1.250    3.000    0.000    1.750 
#    0.000    1.875    2.750    1.500    0.000    0.000 
#    0.000    0.000    0.000    0.000    0.000    0.000 
#
# Total GULP energy -793270.739277 kJ/mol
# GULP energy per Si atom -12394.855301 kJ/mol
# Density = 1.768825 g / cm^3
# Si number density = 17.728599 Si / 1000 Ang^3
#
#
#
# Elastic Constant Matrix: (Units=GPa)
#
#
# Indices 1 2 3 4 5 6 
#
# 1 169.4181 46.2467 65.0258 0.0000 0.0000 0.0000
# 2 46.2467 38.6147 21.4613 0.0000 0.0000 0.0000
# 3 65.0258 21.4613 70.6549 0.0000 0.0000 0.0000
# 4 0.0000 0.0000 0.0000 18.2382 0.0000 0.0000
# 5 0.0000 0.0000 0.0000 0.0000 29.0531 0.0000
# 6 0.0000 0.0000 0.0000 0.0000 0.0000 23.2545
#
#
#
# Elastic Compliance Matrix: (Units=1/GPa)
#
#
# Indices 1 2 3 4 5 6 
#
# 1 0.011402 -0.009413 -0.007635 0.000000 0.000000 0.000000
# 2 -0.009413 0.038927 -0.003161 0.000000 0.000000 0.000000
# 3 -0.007635 -0.003161 0.022140 0.000000 0.000000 0.000000
# 4 0.000000 0.000000 0.000000 0.054830 0.000000 0.000000
# 5 0.000000 0.000000 0.000000 0.000000 0.034420 0.000000
# 6 0.000000 0.000000 0.000000 0.000000 0.000000 0.043002
#
#
# Mechanical properties :
#
#
# Convention : Reuss Voigt Hill
#
# Bulk Modulus (GPa) = 31.19943 60.46167 45.83055
# Shear Modulus (GPa) = 19.54479 23.83943 21.69211
#
# Velocity S-wave (km/s) = 3.32391 3.67098 3.50175
# Velocity P-wave (km/s) = 5.68926 7.22123 6.50053
#
# Compressibility (1/GPa) = 0.03205186
#
# Stress axis : x y z
#
# Youngs Moduli (GPa) = 87.70109 25.68925 45.16693
#
# Poissons Ratio (x) = 0.24180 0.34484
# Poissons Ratio (y) = 0.82550 0.14278
# Poissons Ratio (z) = 0.66959 0.08121
#
# Static dielectric constant tensor:
#      x y z
#    x 4.237470 0.000000 0.000000 
#    y 0.000000 3.338720 0.000000 
#    z 0.000000 0.000000 3.177810 
# 
# 
# High freq. dielectric constant tensor:
#      x y z
#    x 1.705810 0.000000 0.000000 
#    y 0.000000 1.640120 0.000000 
#    z 0.000000 0.000000 1.666880 
# 
# From -- ./inp_files/9401.got.cif
#   From: 2010.06.25/outbox.cif.g09.slc.cpg/sg58_5_cif.got.tgz:9401.got - 2010.06.26 21:38:00.
