data_PCOD8235219
_publ_section_title
;
Structure prediction by ZEFSAII (Michael W. Deem and Ramdas Pophale) SiO2 
 PCOD8235219
Probable space group: P N N M
;
_chemical_formula_sum "Si O2"
_cell_formula_units_Z 48
_cell_length_a 9.159834
_cell_length_b 31.223352
_cell_length_c 8.820033
_cell_angle_alpha 90.000000
_cell_angle_beta 90.000000
_cell_angle_gamma 90.000000
_cell_volume 2522.535799
_symmetry_space_group_name_H-M "P N N M"
_symmetry_group_IT_number 58
_symmetry_cell_setting 'orthorhombic'
loop_
_space_group_symop_operation_xyz
x,y,z
-x,-y,z
1/2+x,1/2-y,1/2-z
1/2-x,1/2+y,1/2-z
-x,-y,-z
x,y,-z
1/2-x,1/2+y,1/2+z
1/2+x,1/2-y,1/2+z
loop_
_atom_site_type_symbol
_atom_site_label
_atom_site_fract_x
_atom_site_fract_y
_atom_site_fract_z
Si Si1 0.828855 0.713131 0.320731
Si Si2 0.356400 0.206452 0.322099
Si Si3 0.687647 0.367784 0.326430
Si Si4 0.345521 0.538220 0.675907
Si Si5 0.349596 0.369217 0.321800
Si Si6 0.659880 0.544515 0.821398
O O1 0.841414 0.712927 0.500000
O O2 0.748451 0.755805 0.262100
O O3 0.737131 0.672230 0.264351
O O4 0.988185 0.711995 0.253056
O O5 0.378064 0.209509 0.500000
O O6 0.287280 0.160937 0.280404
O O7 0.708081 0.352960 0.500000
O O8 0.741882 0.417110 0.305463
O O9 0.518898 0.363020 0.277489
O O10 0.385416 0.531084 0.500000
O O11 0.491764 0.542652 0.773482
O O12 0.259176 0.496718 0.742617
O O13 0.334355 0.376959 0.500000
O O14 0.277311 0.410306 0.238693
O O15 0.680299 0.541506 0.000000
#
# Coordination Sequence:
#
# PCOD8235219 Si02
#       6
#     8   8   8   8   8   8
#     4  10  22  39  57  77 104 139 175 211 256 313
#     4  11  23  37  56  81 106 134 171 216 263 308
#     4   9  18  33  54  78 106 140 176 214 256 307
#     4   9  16  28  46  69 101 141 179 211 250 305
#     4   9  18  34  54  75 103 141 180 213 252 309
#     4  10  17  25  43  74 107 135 169 217 265 300
#
# _framework density 19.028472000000001
#
# number of rings (size 3 to 8) (size 9 to 14) (size 15 to 20)
#    0.000    2.333    0.000    5.500    0.000    6.667 
#    0.000    0.000    0.000    1.000    0.000    7.000 
#    0.000    0.000    0.000    0.000    0.000    0.000 
#
# Total GULP energy -595017.560607 kJ/mol
# GULP energy per Si atom -12396.199179 kJ/mol
# Density = 1.898516 g / cm^3
# Si number density = 19.028472 Si / 1000 Ang^3
#
#
#
# Elastic Constant Matrix: (Units=GPa)
#
#
# Indices 1 2 3 4 5 6 
#
# 1 64.6670 31.1115 20.6483 0.0000 0.0000 0.0000
# 2 31.1115 126.2778 46.8676 0.0000 0.0000 0.0000
# 3 20.6483 46.8676 47.3406 0.0000 0.0000 0.0000
# 4 0.0000 0.0000 0.0000 29.7647 0.0000 0.0000
# 5 0.0000 0.0000 0.0000 0.0000 23.7704 0.0000
# 6 0.0000 0.0000 0.0000 0.0000 0.0000 16.0306
#
#
#
# Elastic Compliance Matrix: (Units=1/GPa)
#
#
# Indices 1 2 3 4 5 6 
#
# 1 0.018438 -0.002463 -0.005604 0.000000 0.000000 0.000000
# 2 -0.002463 0.012848 -0.011645 0.000000 0.000000 0.000000
# 3 -0.005604 -0.011645 0.035097 0.000000 0.000000 0.000000
# 4 0.000000 0.000000 0.000000 0.033597 0.000000 0.000000
# 5 0.000000 0.000000 0.000000 0.000000 0.042069 0.000000
# 6 0.000000 0.000000 0.000000 0.000000 0.000000 0.062381
#
#
# Mechanical properties :
#
#
# Convention : Reuss Voigt Hill
#
# Bulk Modulus (GPa) = 37.09380 48.39334 42.74357
# Shear Modulus (GPa) = 19.77537 23.22367 21.49952
#
# Velocity S-wave (km/s) = 3.22724 3.49731 3.36499
# Velocity P-wave (km/s) = 5.78126 6.46495 6.13264
#
# Compressibility (1/GPa) = 0.02695868
#
# Stress axis : x y z
#
# Youngs Moduli (GPa) = 54.23583 77.83325 28.49267
#
# Poissons Ratio (x) = 0.19169 0.15967
# Poissons Ratio (y) = 0.13357 0.33181
# Poissons Ratio (z) = 0.30393 0.90640
#
# Static dielectric constant tensor:
#      x y z
#    x 3.048490 0.000000 0.000000 
#    y 0.000000 4.396560 0.000000 
#    z 0.000000 0.000000 3.369880 
# 
# 
# High freq. dielectric constant tensor:
#      x y z
#    x 1.687330 0.000000 0.000000 
#    y 0.000000 1.770300 0.000000 
#    z 0.000000 0.000000 1.737140 
# 
# From -- ./inp_files/3016.got.cif
#   From: 2010.06.25/outbox.cif.g09.slc.cpg/sg58_2_cif.got.tgz:3016.got - 2010.06.26 21:38:00.
