data_PCOD8235553
_publ_section_title
;
Structure prediction by ZEFSAII (Michael W. Deem and Ramdas Pophale) SiO2 
 PCOD8235553
Probable space group: P N N M
;
_chemical_formula_sum "Si O2"
_cell_formula_units_Z 56
_cell_length_a 14.715715
_cell_length_b 21.979658
_cell_length_c 8.793483
_cell_angle_alpha 90.000000
_cell_angle_beta 90.000000
_cell_angle_gamma 90.000000
_cell_volume 2844.220270
_symmetry_space_group_name_H-M "P N N M"
_symmetry_group_IT_number 58
_symmetry_cell_setting 'orthorhombic'
loop_
_space_group_symop_operation_xyz
x,y,z
-x,-y,z
1/2+x,1/2-y,1/2-z
1/2-x,1/2+y,1/2-z
-x,-y,-z
x,y,-z
1/2-x,1/2+y,1/2+z
1/2+x,1/2-y,1/2+z
loop_
_atom_site_type_symbol
_atom_site_label
_atom_site_fract_x
_atom_site_fract_y
_atom_site_fract_z
Si Si1 0.805469 0.589105 0.175606
Si Si2 0.607892 0.836058 0.319315
Si Si3 0.916174 0.920962 0.680949
Si Si4 0.078937 0.307877 0.320587
Si Si5 0.114128 0.944757 0.680361
Si Si6 0.306409 0.693636 0.819084
Si Si7 0.910400 0.471241 0.175762
O O1 0.873365 0.629295 0.274309
O O2 0.701348 0.594709 0.234955
O O3 0.827604 0.517689 0.197457
O O4 0.817151 0.608654 0.000000
O O5 0.599236 0.834075 0.500000
O O6 0.521561 0.801581 0.248987
O O7 0.701336 0.803707 0.265317
O O8 0.612286 0.905274 0.254671
O O9 0.909425 0.920723 0.500000
O O10 0.855105 0.866651 0.749037
O O11 0.021625 0.911016 0.731152
O O12 0.883036 0.986174 0.745519
O O13 0.069656 0.304971 0.500000
O O14 0.140895 0.252797 0.257453
O O15 0.118775 0.950295 0.500000
O O16 0.310786 0.691110 0.000000
O O17 0.000000 0.500000 0.254451
O O18 0.932481 0.459670 0.000000
#
# Coordination Sequence:
#
# PCOD8235553 Si02
#       7
#     8   8   8   8   8   8   8
#     4  10  18  31  51  77 103 133 171 210 253 304
#     4  10  19  36  58  76  96 131 174 213 253 301
#     4   8  13  26  45  73 104 126 154 206 263 299
#     4  11  23  36  48  72 107 138 167 204 247 298
#     4   8  14  23  45  77 104 123 153 206 262 302
#     4   9  19  33  50  68  96 137 172 199 241 300
#     4   9  15  26  50  79  99 119 161 219 259 288
#
# _framework density 19.689052
#
# number of rings (size 3 to 8) (size 9 to 14) (size 15 to 20)
#    0.000    2.714    1.429    2.143    0.000    4.571 
#    0.000    4.286    0.000    0.000    0.000    5.000 
#    0.000    0.000    0.000    0.000    0.000    0.000 
#
# Total GULP energy -694031.843448 kJ/mol
# GULP energy per Si atom -12393.425776 kJ/mol
# Density = 1.964424 g / cm^3
# Si number density = 19.689052 Si / 1000 Ang^3
#
#
#
# Elastic Constant Matrix: (Units=GPa)
#
#
# Indices 1 2 3 4 5 6 
#
# 1 184.4293 62.9198 25.5901 0.0000 0.0000 0.0000
# 2 62.9198 93.3187 17.3712 0.0000 0.0000 0.0000
# 3 25.5901 17.3712 21.6850 0.0000 0.0000 0.0000
# 4 0.0000 0.0000 0.0000 12.3478 0.0000 0.0000
# 5 0.0000 0.0000 0.0000 0.0000 14.1118 0.0000
# 6 0.0000 0.0000 0.0000 0.0000 0.0000 34.3384
#
#
#
# Elastic Compliance Matrix: (Units=1/GPa)
#
#
# Indices 1 2 3 4 5 6 
#
# 1 0.007601 -0.004061 -0.005717 0.000000 0.000000 0.000000
# 2 -0.004061 0.014763 -0.007035 0.000000 0.000000 0.000000
# 3 -0.005717 -0.007035 0.058496 0.000000 0.000000 0.000000
# 4 0.000000 0.000000 0.000000 0.080986 0.000000 0.000000
# 5 0.000000 0.000000 0.000000 0.000000 0.070862 0.000000
# 6 0.000000 0.000000 0.000000 0.000000 0.000000 0.029122
#
#
# Mechanical properties :
#
#
# Convention : Reuss Voigt Hill
#
# Bulk Modulus (GPa) = 21.17003 56.79947 38.98475
# Shear Modulus (GPa) = 16.06684 25.06306 20.56495
#
# Velocity S-wave (km/s) = 2.85972 3.57170 3.23536
# Velocity P-wave (km/s) = 4.65613 6.77645 5.81377
#
# Compressibility (1/GPa) = 0.04723658
#
# Stress axis : x y z
#
# Youngs Moduli (GPa) = 131.56812 67.73564 17.09511
#
# Poissons Ratio (x) = 0.27504 0.09773
# Poissons Ratio (y) = 0.53424 0.12026
# Poissons Ratio (z) = 0.75212 0.47650
#
# Static dielectric constant tensor:
#      x y z
#    x 3.980650 0.000000 0.000000 
#    y 0.000000 3.658820 0.000000 
#    z 0.000000 0.000000 2.886400 
# 
# 
# High freq. dielectric constant tensor:
#      x y z
#    x 1.789870 0.000000 0.000000 
#    y 0.000000 1.759980 0.000000 
#    z 0.000000 0.000000 1.691330 
# 
# From -- ./inp_files/6238.got.cif
#   From: 2010.06.25/outbox.cif.g09.slc.cpg/sg58_4_cif.got.tgz:6238.got - 2010.06.26 21:38:00.
