data_PCOD8236180
_publ_section_title
;
Structure prediction by ZEFSAII (Michael W. Deem and Ramdas Pophale) SiO2 
 PCOD8236180
Probable space group: P N N M
;
_chemical_formula_sum "Si O2"
_cell_formula_units_Z 64
_cell_length_a 17.378621
_cell_length_b 20.664564
_cell_length_c 8.771420
_cell_angle_alpha 90.000000
_cell_angle_beta 90.000000
_cell_angle_gamma 90.000000
_cell_volume 3150.006612
_symmetry_space_group_name_H-M "P N N M"
_symmetry_group_IT_number 58
_symmetry_cell_setting 'orthorhombic'
loop_
_space_group_symop_operation_xyz
x,y,z
-x,-y,z
1/2+x,1/2-y,1/2-z
1/2-x,1/2+y,1/2-z
-x,-y,-z
x,y,-z
1/2-x,1/2+y,1/2+z
1/2+x,1/2-y,1/2+z
loop_
_atom_site_type_symbol
_atom_site_label
_atom_site_fract_x
_atom_site_fract_y
_atom_site_fract_z
Si Si1 0.947750 0.940593 0.674034
Si Si2 0.157105 0.603371 0.175814
Si Si3 0.727836 0.599236 0.820474
Si Si4 0.974052 0.298992 0.179064
Si Si5 0.915650 0.507451 0.669285
Si Si6 0.930047 0.168527 0.325802
Si Si7 0.371837 0.845858 0.170463
Si Si8 0.710977 0.458451 0.678009
O O1 0.919444 0.950786 0.500000
O O2 0.875845 0.939540 0.785593
O O3 0.994374 0.874773 0.693193
O O4 0.000000 0.000000 0.725451
O O5 0.090048 0.650001 0.242798
O O6 0.135100 0.528711 0.205746
O O7 0.239701 0.603897 0.260651
O O8 0.170516 0.618815 0.000000
O O9 0.644766 0.628060 0.776302
O O10 0.791441 0.651928 0.763298
O O11 0.735581 0.528494 0.745216
O O12 0.736772 0.590310 0.000000
O O13 0.939555 0.229037 0.214782
O O14 0.058791 0.305714 0.252625
O O15 0.984101 0.309072 0.000000
O O16 0.905977 0.476142 0.500000
O O17 0.898074 0.581527 0.661665
O O18 0.000000 0.500000 0.733600
O O19 0.921713 0.192512 0.500000
O O20 0.357896 0.817645 0.000000
O O21 0.724459 0.464675 0.500000
#
# Coordination Sequence:
#
# PCOD8236180 Si02
#       8
#     8   8   8   8   8   8   8   8
#     4  10  20  41  69  95 123 157 201 254 315 377
#     4  11  23  38  59  86 122 167 208 254 308 366
#     4  11  22  40  65  94 126 161 202 256 317 376
#     4  11  25  43  63  89 124 169 217 260 308 374
#     4  10  19  32  54  85 119 155 197 249 304 360
#     4  10  23  44  69  91 119 165 209 256 317 374
#     4  11  22  37  61  93 126 163 207 255 311 373
#     4  12  24  37  60  97 131 161 200 254 316 373
#
# _framework density 20.317416999999999
#
# number of rings (size 3 to 8) (size 9 to 14) (size 15 to 20)
#    0.000    1.250    3.750    2.625    0.000    4.000 
#    2.250    0.000    0.000    0.000    0.000    0.000 
#    0.000    0.000    0.000    0.000    0.000    0.000 
#
# Total GULP energy -793287.843998 kJ/mol
# GULP energy per Si atom -12395.122562 kJ/mol
# Density = 2.027117 g / cm^3
# Si number density = 20.317417 Si / 1000 Ang^3
#
#
#
# Elastic Constant Matrix: (Units=GPa)
#
#
# Indices 1 2 3 4 5 6 
#
# 1 122.9914 23.3835 39.9295 0.0000 0.0000 0.0000
# 2 23.3835 61.1599 25.3377 0.0000 0.0000 0.0000
# 3 39.9295 25.3377 93.7498 0.0000 0.0000 0.0000
# 4 0.0000 0.0000 0.0000 24.8680 0.0000 0.0000
# 5 0.0000 0.0000 0.0000 0.0000 12.5032 0.0000
# 6 0.0000 0.0000 0.0000 0.0000 0.0000 25.1199
#
#
#
# Elastic Compliance Matrix: (Units=1/GPa)
#
#
# Indices 1 2 3 4 5 6 
#
# 1 0.009703 -0.002249 -0.003525 0.000000 0.000000 0.000000
# 2 -0.002249 0.018934 -0.004159 0.000000 0.000000 0.000000
# 3 -0.003525 -0.004159 0.013292 0.000000 0.000000 0.000000
# 4 0.000000 0.000000 0.000000 0.040212 0.000000 0.000000
# 5 0.000000 0.000000 0.000000 0.000000 0.079979 0.000000
# 6 0.000000 0.000000 0.000000 0.000000 0.000000 0.039809
#
#
# Mechanical properties :
#
#
# Convention : Reuss Voigt Hill
#
# Bulk Modulus (GPa) = 45.32680 50.57804 47.95242
# Shear Modulus (GPa) = 21.81987 25.11494 23.46740
#
# Velocity S-wave (km/s) = 3.28067 3.51968 3.40227
# Velocity P-wave (km/s) = 6.05873 6.43937 6.25195
#
# Compressibility (1/GPa) = 0.02206200
#
# Stress axis : x y z
#
# Youngs Moduli (GPa) = 103.06551 52.81588 75.23371
#
# Poissons Ratio (x) = 0.11881 0.26516
# Poissons Ratio (y) = 0.23184 0.31291
# Poissons Ratio (z) = 0.36326 0.21967
#
# Static dielectric constant tensor:
#      x y z
#    x 4.044950 0.000000 0.000000 
#    y 0.000000 3.443430 0.000000 
#    z 0.000000 0.000000 3.788790 
# 
# 
# High freq. dielectric constant tensor:
#      x y z
#    x 1.816350 0.000000 0.000000 
#    y 0.000000 1.769420 0.000000 
#    z 0.000000 0.000000 1.790250 
# 
# From -- ./inp_files/8517.got.cif
#   From: 2010.06.25/outbox.cif.g09.slc.cpg/sg58_5_cif.got.tgz:8517.got - 2010.06.26 21:38:00.
