data_PCOD8236385
_publ_section_title
;
Structure prediction by ZEFSAII (Michael W. Deem and Ramdas Pophale) SiO2 
 PCOD8236385
Probable space group: P N N M
;
_chemical_formula_sum "Si O2"
_cell_formula_units_Z 52
_cell_length_a 17.667047
_cell_length_b 8.241589
_cell_length_c 17.957166
_cell_angle_alpha 90.000000
_cell_angle_beta 90.000000
_cell_angle_gamma 90.000000
_cell_volume 2614.644899
_symmetry_space_group_name_H-M "P N N M"
_symmetry_group_IT_number 58
_symmetry_cell_setting 'orthorhombic'
loop_
_space_group_symop_operation_xyz
x,y,z
-x,-y,z
1/2+x,1/2-y,1/2-z
1/2-x,1/2+y,1/2-z
-x,-y,-z
x,y,-z
1/2-x,1/2+y,1/2+z
1/2+x,1/2-y,1/2+z
loop_
_atom_site_type_symbol
_atom_site_label
_atom_site_fract_x
_atom_site_fract_y
_atom_site_fract_z
Si Si1 0.791465 0.586548 0.791085
Si Si2 0.454272 0.834499 0.231140
Si Si3 0.000000 0.000000 0.799360
Si Si4 0.125325 0.372738 0.584950
Si Si5 0.724473 0.833511 0.581588
Si Si6 0.372568 0.475498 0.580974
Si Si7 0.731640 0.894128 0.852167
O O1 0.874126 0.662001 0.774429
O O2 0.799305 0.457482 0.855860
O O3 0.728603 0.714373 0.819168
O O4 0.755014 0.515612 0.716828
O O5 0.498672 0.667620 0.251427
O O6 0.441799 0.826628 0.141539
O O7 0.500000 0.000000 0.251648
O O8 0.072001 0.003149 0.851583
O O9 0.095510 0.366032 0.500000
O O10 0.195727 0.252545 0.598995
O O11 0.154264 0.555933 0.605092
O O12 0.729811 0.917624 0.500000
O O13 0.656241 0.707414 0.580585
O O14 0.409304 0.516096 0.500000
O O15 0.301531 0.595449 0.591274
#
# Coordination Sequence:
#
# PCOD8236385 Si02
#       7
#     8   8   4   8   8   8   8
#     4  11  20  36  55  90 117 151 199 244 300 352
#     4  11  24  40  60  88 119 162 205 246 287 359
#     4  12  23  40  61  82 120 166 200 238 285 360
#     4   9  20  41  61  86 118 149 191 251 310 355
#     4   9  19  35  59  85 119 149 188 250 305 351
#     4  10  20  36  56  82 112 154 193 235 292 347
#     4  10  19  33  60  83 114 149 188 246 299 354
#
# _framework density 19.887978
#
# number of rings (size 3 to 8) (size 9 to 14) (size 15 to 20)
#    0.000    1.846    1.538    5.308    0.000    2.769 
#    0.000    0.385    0.000    3.231    0.000    0.000 
#    0.000    0.000    0.000    0.000    0.000    0.000 
#
# Total GULP energy -644469.318687 kJ/mol
# GULP energy per Si atom -12393.640744 kJ/mol
# Density = 1.984271 g / cm^3
# Si number density = 19.887978 Si / 1000 Ang^3
#
#
#
# Elastic Constant Matrix: (Units=GPa)
#
#
# Indices 1 2 3 4 5 6 
#
# 1 39.2014 10.2949 20.4650 0.0000 0.0000 0.0000
# 2 10.2949 93.5884 39.7263 0.0000 0.0000 0.0000
# 3 20.4650 39.7263 126.0970 0.0000 0.0000 0.0000
# 4 0.0000 0.0000 0.0000 5.5985 0.0000 0.0000
# 5 0.0000 0.0000 0.0000 0.0000 24.1580 0.0000
# 6 0.0000 0.0000 0.0000 0.0000 0.0000 15.1822
#
#
#
# Elastic Compliance Matrix: (Units=1/GPa)
#
#
# Indices 1 2 3 4 5 6 
#
# 1 0.028013 -0.001329 -0.004128 0.000000 0.000000 0.000000
# 2 -0.001329 0.012398 -0.003690 0.000000 0.000000 0.000000
# 3 -0.004128 -0.003690 0.009763 0.000000 0.000000 0.000000
# 4 0.000000 0.000000 0.000000 0.178620 0.000000 0.000000
# 5 0.000000 0.000000 0.000000 0.000000 0.041394 0.000000
# 6 0.000000 0.000000 0.000000 0.000000 0.000000 0.065866
#
#
# Mechanical properties :
#
#
# Convention : Reuss Voigt Hill
#
# Bulk Modulus (GPa) = 31.36808 44.42880 37.89844
# Shear Modulus (GPa) = 13.69955 21.54778 17.62367
#
# Velocity S-wave (km/s) = 2.62742 3.29516 2.98005
# Velocity P-wave (km/s) = 5.00110 6.07170 5.56222
#
# Compressibility (1/GPa) = 0.03187954
#
# Stress axis : x y z
#
# Youngs Moduli (GPa) = 35.69744 80.66019 102.42918
#
# Poissons Ratio (x) = 0.10723 0.42279
# Poissons Ratio (y) = 0.04746 0.37797
# Poissons Ratio (z) = 0.14734 0.29764
#
# Static dielectric constant tensor:
#      x y z
#    x 3.411950 0.000000 0.000000 
#    y 0.000000 3.583460 0.000000 
#    z 0.000000 0.000000 3.998890 
# 
# 
# High freq. dielectric constant tensor:
#      x y z
#    x 1.751840 0.000000 0.000000 
#    y 0.000000 1.762020 0.000000 
#    z 0.000000 0.000000 1.794720 
# 
# From -- ./inp_files/27252.got.cif
#   From: 2010.06.25/outbox.cif.g09.slc.cpg/sg58_14_cif.got.tgz:27252.got - 2010.06.26 21:38:00.
