data_PCOD8236249
_publ_section_title
;
Structure prediction by ZEFSAII (Michael W. Deem and Ramdas Pophale) SiO2 
 PCOD8236249
Probable space group: P N N M
;
_chemical_formula_sum "Si O2"
_cell_formula_units_Z 56
_cell_length_a 19.586026
_cell_length_b 7.938713
_cell_length_c 19.833137
_cell_angle_alpha 90.000000
_cell_angle_beta 90.000000
_cell_angle_gamma 90.000000
_cell_volume 3083.811617
_symmetry_space_group_name_H-M "P N N M"
_symmetry_group_IT_number 58
_symmetry_cell_setting 'orthorhombic'
loop_
_space_group_symop_operation_xyz
x,y,z
-x,-y,z
1/2+x,1/2-y,1/2-z
1/2-x,1/2+y,1/2-z
-x,-y,-z
x,y,-z
1/2-x,1/2+y,1/2+z
1/2+x,1/2-y,1/2+z
loop_
_atom_site_type_symbol
_atom_site_label
_atom_site_fract_x
_atom_site_fract_y
_atom_site_fract_z
Si Si1 0.475960 0.811169 0.362451
Si Si2 0.329886 0.815632 0.577310
Si Si3 0.235593 0.964263 0.077149
Si Si4 0.190848 0.555642 0.194803
Si Si5 0.061873 0.113594 0.741517
Si Si6 0.683139 0.211349 0.811258
Si Si7 0.108048 0.848901 0.153141
O O1 0.407578 0.765197 0.403370
O O2 0.466492 0.775243 0.282429
O O3 0.536262 0.682808 0.385326
O O4 0.500000 0.000000 0.376214
O O5 0.328806 0.872930 0.500000
O O6 0.277262 0.661978 0.589161
O O7 0.303196 0.970039 0.621479
O O8 0.298853 0.892486 0.121161
O O9 0.166351 0.869618 0.097341
O O10 0.253306 0.924709 0.000000
O O11 0.259943 0.654382 0.209681
O O12 0.176193 0.416463 0.250038
O O13 0.126437 0.681578 0.196222
O O14 0.111793 0.183895 0.682550
O O15 0.105197 0.005204 0.795725
O O16 0.000000 0.000000 0.710777
#
# Coordination Sequence:
#
# PCOD8236249 Si02
#       7
#     8   8   8   8   8   8   8
#     4  11  19  34  50  76 111 152 186 219 260 320
#     4  11  22  36  50  75 113 150 190 229 265 322
#     4  10  22  36  52  75 104 141 186 231 278 328
#     4  11  20  33  54  77 103 141 189 226 278 329
#     4  10  20  34  56  83 112 140 186 231 283 333
#     4  11  20  35  56  77 105 140 185 236 287 332
#     4  10  19  33  54  77 110 143 180 227 265 332
#
# _framework density 18.159345999999999
#
# number of rings (size 3 to 8) (size 9 to 14) (size 15 to 20)
#    0.000    1.429    4.286    2.571    0.000    3.143 
#    0.000    1.429    0.000    0.429    0.000    0.000 
#    0.000   13.143    0.000    0.000    0.000    0.286 
#
# Total GULP energy -694138.234687 kJ/mol
# GULP energy per Si atom -12395.325619 kJ/mol
# Density = 1.811801 g / cm^3
# Si number density = 18.159346 Si / 1000 Ang^3
#
#
#
# Elastic Constant Matrix: (Units=GPa)
#
#
# Indices 1 2 3 4 5 6 
#
# 1 61.8669 33.5534 36.9554 0.0000 0.0000 0.0000
# 2 33.5534 84.7315 39.2582 0.0000 0.0000 0.0000
# 3 36.9554 39.2582 72.2349 0.0000 0.0000 0.0000
# 4 0.0000 0.0000 0.0000 23.0789 0.0000 0.0000
# 5 0.0000 0.0000 0.0000 0.0000 25.1391 0.0000
# 6 0.0000 0.0000 0.0000 0.0000 0.0000 32.5558
#
#
#
# Elastic Compliance Matrix: (Units=1/GPa)
#
#
# Indices 1 2 3 4 5 6 
#
# 1 0.024938 -0.005298 -0.009879 0.000000 0.000000 0.000000
# 2 -0.005298 0.016900 -0.006474 0.000000 0.000000 0.000000
# 3 -0.009879 -0.006474 0.022416 0.000000 0.000000 0.000000
# 4 0.000000 0.000000 0.000000 0.043330 0.000000 0.000000
# 5 0.000000 0.000000 0.000000 0.000000 0.039779 0.000000
# 6 0.000000 0.000000 0.000000 0.000000 0.000000 0.030716
#
#
# Mechanical properties :
#
#
# Convention : Reuss Voigt Hill
#
# Bulk Modulus (GPa) = 47.72871 48.70749 48.21810
# Shear Modulus (GPa) = 21.89474 23.42586 22.66030
#
# Velocity S-wave (km/s) = 3.47609 3.59558 3.53634
# Velocity P-wave (km/s) = 6.51546 6.64214 6.57911
#
# Compressibility (1/GPa) = 0.02095175
#
# Stress axis : x y z
#
# Youngs Moduli (GPa) = 40.09893 59.17265 44.61052
#
# Poissons Ratio (x) = 0.31352 0.44070
# Poissons Ratio (y) = 0.21246 0.28881
# Poissons Ratio (z) = 0.39613 0.38308
#
# Static dielectric constant tensor:
#      x y z
#    x 3.486760 0.000000 0.000000 
#    y 0.000000 3.601230 0.000000 
#    z 0.000000 0.000000 3.061750 
# 
# 
# High freq. dielectric constant tensor:
#      x y z
#    x 1.696000 0.000000 0.000000 
#    y 0.000000 1.727030 0.000000 
#    z 0.000000 0.000000 1.659100 
# 
# From -- ./inp_files/27483.got.cif
#   From: 2010.06.25/outbox.cif.g09.slc.cpg/sg58_14_cif.got.tgz:27483.got - 2010.06.26 21:38:00.
