data_PCOD8236669
_publ_section_title
;
Structure prediction by ZEFSAII (Michael W. Deem and Ramdas Pophale) SiO2 
 PCOD8236669
Probable space group: P N N M
;
_chemical_formula_sum "Si O2"
_cell_formula_units_Z 40
_cell_length_a 17.279470
_cell_length_b 9.007727
_cell_length_c 13.715308
_cell_angle_alpha 90.000000
_cell_angle_beta 90.000000
_cell_angle_gamma 90.000000
_cell_volume 2134.770525
_symmetry_space_group_name_H-M "P N N M"
_symmetry_group_IT_number 58
_symmetry_cell_setting 'orthorhombic'
loop_
_space_group_symop_operation_xyz
x,y,z
-x,-y,z
1/2+x,1/2-y,1/2-z
1/2-x,1/2+y,1/2-z
-x,-y,-z
x,y,-z
1/2-x,1/2+y,1/2+z
1/2+x,1/2-y,1/2+z
loop_
_atom_site_type_symbol
_atom_site_label
_atom_site_fract_x
_atom_site_fract_y
_atom_site_fract_z
Si Si1 0.323952 0.277467 0.386570
Si Si2 0.075882 0.586117 0.249985
Si Si3 0.917056 0.932093 0.894419
Si Si4 0.346988 0.848474 0.888623
Si Si5 0.969955 0.835622 0.698996
O O1 0.330908 0.242434 0.500000
O O2 0.367435 0.140638 0.335178
O O3 0.360302 0.436782 0.360750
O O4 0.235245 0.286594 0.351447
O O5 0.124752 0.486063 0.323979
O O6 0.000000 0.500000 0.208316
O O7 0.044703 0.730189 0.307461
O O8 0.925839 0.816767 0.804856
O O9 0.890292 0.861630 0.000000
O O10 0.000000 0.000000 0.912676
O O11 0.408024 0.713120 0.881969
O O12 0.340614 0.903169 0.000000
O O13 0.000000 0.000000 0.678784
#
# Coordination Sequence:
#
# PCOD8236669 Si02
#       5
#     8   8   8   8   8
#     4  10  20  36  58  83 114 148 185 233 289 342
#     4  10  21  36  58  86 116 151 186 232 290 340
#     4   9  16  30  55  83 110 141 179 224 281 342
#     4  10  24  40  56  81 116 156 191 234 288 333
#     4  10  19  35  60  87 109 150 196 234 274 335
#
# _framework density 18.737376999999999
#
# number of rings (size 3 to 8) (size 9 to 14) (size 15 to 20)
#    0.000    2.200    4.000    0.000    2.800    4.400 
#    0.000    3.000    0.000    1.200    0.000    0.000 
#    0.000    0.000    0.000    0.000    0.000    0.000 
#
# Total GULP energy -495675.290699 kJ/mol
# GULP energy per Si atom -12391.882267 kJ/mol
# Density = 1.869473 g / cm^3
# Si number density = 18.737377 Si / 1000 Ang^3
#
#
#
# Elastic Constant Matrix: (Units=GPa)
#
#
# Indices 1 2 3 4 5 6 
#
# 1 138.7746 62.8029 45.2429 0.0000 0.0000 0.0000
# 2 62.8029 99.1424 29.8543 0.0000 0.0000 0.0000
# 3 45.2429 29.8543 71.8567 0.0000 0.0000 0.0000
# 4 0.0000 0.0000 0.0000 33.3126 0.0000 0.0000
# 5 0.0000 0.0000 0.0000 0.0000 29.8880 0.0000
# 6 0.0000 0.0000 0.0000 0.0000 0.0000 31.8440
#
#
#
# Elastic Compliance Matrix: (Units=1/GPa)
#
#
# Indices 1 2 3 4 5 6 
#
# 1 0.011368 -0.005768 -0.004762 0.000000 0.000000 0.000000
# 2 -0.005768 0.014455 -0.002374 0.000000 0.000000 0.000000
# 3 -0.004762 -0.002374 0.017901 0.000000 0.000000 0.000000
# 4 0.000000 0.000000 0.000000 0.030019 0.000000 0.000000
# 5 0.000000 0.000000 0.000000 0.000000 0.033458 0.000000
# 6 0.000000 0.000000 0.000000 0.000000 0.000000 0.031403
#
#
# Mechanical properties :
#
#
# Convention : Reuss Voigt Hill
#
# Bulk Modulus (GPa) = 55.81082 65.06376 60.43729
# Shear Modulus (GPa) = 29.34549 30.46715 29.90632
#
# Velocity S-wave (km/s) = 3.96175 4.03676 3.99943
# Velocity P-wave (km/s) = 7.12585 7.51842 7.32477
#
# Compressibility (1/GPa) = 0.01791767
#
# Stress axis : x y z
#
# Youngs Moduli (GPa) = 87.96263 69.18019 55.86272
#
# Poissons Ratio (x) = 0.39901 0.26600
# Poissons Ratio (y) = 0.50734 0.13263
# Poissons Ratio (z) = 0.41884 0.16424
#
# Static dielectric constant tensor:
#      x y z
#    x 3.989500 0.000000 0.000000 
#    y 0.000000 3.270250 0.000000 
#    z 0.000000 0.000000 3.652980 
# 
# 
# High freq. dielectric constant tensor:
#      x y z
#    x 1.735140 0.000000 0.000000 
#    y 0.000000 1.711750 0.000000 
#    z 0.000000 0.000000 1.716770 
# 
# From -- ./inp_files/19649.got.cif
#   From: 2010.06.25/outbox.cif.g09.slc.cpg/sg58_10_cif.got.tgz:19649.got - 2010.06.26 21:38:00.
