data_PCOD8236412
_publ_section_title
;
Structure prediction by ZEFSAII (Michael W. Deem and Ramdas Pophale) SiO2 
 PCOD8236412
Probable space group: P N N M
;
_chemical_formula_sum "Si O2"
_cell_formula_units_Z 32
_cell_length_a 20.527730
_cell_length_b 7.511123
_cell_length_c 10.583750
_cell_angle_alpha 90.000000
_cell_angle_beta 90.000000
_cell_angle_gamma 90.000000
_cell_volume 1631.869305
_symmetry_space_group_name_H-M "P N N M"
_symmetry_group_IT_number 58
_symmetry_cell_setting 'orthorhombic'
loop_
_space_group_symop_operation_xyz
x,y,z
-x,-y,z
1/2+x,1/2-y,1/2-z
1/2-x,1/2+y,1/2-z
-x,-y,-z
x,y,-z
1/2-x,1/2+y,1/2+z
1/2+x,1/2-y,1/2+z
loop_
_atom_site_type_symbol
_atom_site_label
_atom_site_fract_x
_atom_site_fract_y
_atom_site_fract_z
Si Si1 0.552857 0.851005 0.141988
Si Si2 0.808471 0.834585 0.856376
Si Si3 0.403657 0.360333 0.360431
Si Si4 0.823242 0.440896 0.230189
O O1 0.545240 0.694827 0.248975
O O2 0.625446 0.936808 0.152482
O O3 0.500000 0.000000 0.173095
O O4 0.543500 0.774545 0.000000
O O5 0.826589 0.630660 0.836198
O O6 0.750042 0.898811 0.768830
O O7 0.872453 0.950168 0.823826
O O8 0.787149 0.866333 0.000000
O O9 0.437140 0.368334 0.500000
O O10 0.346092 0.211936 0.367830
#
# Coordination Sequence:
#
# PCOD8236412 Si02
#       4
#     8   8   8   8
#     4   9  19  37  58  79 107 143 182 222 266 320
#     4  11  20  34  54  82 113 140 180 223 267 326
#     4   9  20  35  54  80 107 140 178 219 267 316
#     4  10  19  34  54  80 107 145 171 221 271 313
#
# _framework density 19.609413
#
# number of rings (size 3 to 8) (size 9 to 14) (size 15 to 20)
#    1.500    0.750    2.500    1.500    0.000    0.500 
#    0.000    3.750    0.000    6.000    0.000    0.000 
#    0.000    0.000    0.000    0.000    0.000    0.000 
#
# Total GULP energy -396437.951358 kJ/mol
# GULP energy per Si atom -12388.685980 kJ/mol
# Density = 1.956478 g / cm^3
# Si number density = 19.609413 Si / 1000 Ang^3
#
#
#
# Elastic Constant Matrix: (Units=GPa)
#
#
# Indices 1 2 3 4 5 6 
#
# 1 26.4101 -7.5956 2.5774 0.0000 0.0000 0.0000
# 2 -7.5956 90.2111 -5.1596 0.0000 0.0000 0.0000
# 3 2.5774 -5.1596 65.5005 0.0000 0.0000 0.0000
# 4 0.0000 0.0000 0.0000 1.1699 0.0000 0.0000
# 5 0.0000 0.0000 0.0000 0.0000 14.7838 0.0000
# 6 0.0000 0.0000 0.0000 0.0000 0.0000 23.3599
#
#
#
# Elastic Compliance Matrix: (Units=1/GPa)
#
#
# Indices 1 2 3 4 5 6 
#
# 1 0.038910 0.003203 -0.001279 0.000000 0.000000 0.000000
# 2 0.003203 0.011399 0.000772 0.000000 0.000000 0.000000
# 3 -0.001279 0.000772 0.015378 0.000000 0.000000 0.000000
# 4 0.000000 0.000000 0.000000 0.854790 0.000000 0.000000
# 5 0.000000 0.000000 0.000000 0.000000 0.067641 0.000000
# 6 0.000000 0.000000 0.000000 0.000000 0.000000 0.042808
#
#
# Mechanical properties :
#
#
# Convention : Reuss Voigt Hill
#
# Bulk Modulus (GPa) = 14.06873 17.97401 16.02137
# Shear Modulus (GPa) = 4.76541 20.68268 12.72404
#
# Velocity S-wave (km/s) = 1.56059 3.25119 2.55006
# Velocity P-wave (km/s) = 3.23068 4.82489 4.10590
#
# Compressibility (1/GPa) = 0.07107963
#
# Stress axis : x y z
#
# Youngs Moduli (GPa) = 25.70016 87.72739 65.02715
#
# Poissons Ratio (x) = -0.28099 0.08316
# Poissons Ratio (y) = -0.08232 -0.05019
# Poissons Ratio (z) = 0.03287 -0.06772
#
# Static dielectric constant tensor:
#      x y z
#    x 3.242170 0.000000 0.000000 
#    y 0.000000 3.535950 0.000000 
#    z 0.000000 0.000000 3.423120 
# 
# 
# High freq. dielectric constant tensor:
#      x y z
#    x 1.743430 0.000000 0.000000 
#    y 0.000000 1.763320 0.000000 
#    z 0.000000 0.000000 1.759630 
# 
# From -- ./inp_files/2370.got.cif
#   From: 2010.06.25/outbox.cif.g09.slc.cpg/sg58_2_cif.got.tgz:2370.got - 2010.06.26 21:38:00.
