data_PCOD8236530
_publ_section_title
;
Structure prediction by ZEFSAII (Michael W. Deem and Ramdas Pophale) SiO2 
 PCOD8236530
Probable space group: P N N M
;
_chemical_formula_sum "Si O2"
_cell_formula_units_Z 64
_cell_length_a 18.498533
_cell_length_b 15.008709
_cell_length_c 12.097500
_cell_angle_alpha 90.000000
_cell_angle_beta 90.000000
_cell_angle_gamma 90.000000
_cell_volume 3358.738997
_symmetry_space_group_name_H-M "P N N M"
_symmetry_group_IT_number 58
_symmetry_cell_setting 'orthorhombic'
loop_
_space_group_symop_operation_xyz
x,y,z
-x,-y,z
1/2+x,1/2-y,1/2-z
1/2-x,1/2+y,1/2-z
-x,-y,-z
x,y,-z
1/2-x,1/2+y,1/2+z
1/2+x,1/2-y,1/2+z
loop_
_atom_site_type_symbol
_atom_site_label
_atom_site_fract_x
_atom_site_fract_y
_atom_site_fract_z
Si Si1 0.674795 0.498382 0.629627
Si Si2 0.235383 0.683005 0.127452
Si Si3 0.625044 0.317704 0.735980
Si Si4 0.684743 0.150241 0.626984
Si Si5 0.548348 0.919251 0.125746
Si Si6 0.317751 0.023626 0.249617
Si Si7 0.012186 0.778639 0.626429
Si Si8 0.838251 0.171651 0.732972
O O1 0.660348 0.511556 0.500000
O O2 0.634367 0.410081 0.671499
O O3 0.760337 0.490851 0.651304
O O4 0.645083 0.582920 0.696987
O O5 0.316411 0.700671 0.168688
O O6 0.217191 0.579909 0.150558
O O7 0.176966 0.746927 0.184696
O O8 0.232579 0.705007 0.000000
O O9 0.635863 0.237254 0.649301
O O10 0.546331 0.321200 0.791517
O O11 0.675442 0.124347 0.500000
O O12 0.769760 0.162790 0.651690
O O13 0.654369 0.070072 0.702707
O O14 0.619049 0.916429 0.200391
O O15 0.504824 0.827749 0.137595
O O16 0.500000 0.000000 0.169413
O O17 0.572374 0.936230 0.000000
O O18 0.997420 0.808553 0.500000
O O19 0.092174 0.809707 0.658541
#
# Coordination Sequence:
#
# PCOD8236530 Si02
#       8
#     8   8   8   8   8   8   8   8
#     4  10  21  38  59  82 111 150 197 244 285 330
#     4  10  19  35  57  83 113 148 188 235 291 341
#     4  10  22  37  57  83 113 151 194 240 282 342
#     4  10  20  36  58  84 116 151 188 234 288 340
#     4  10  20  34  57  86 116 149 182 229 284 338
#     4  10  19  34  58  86 114 145 188 235 278 345
#     4  11  22  39  60  84 116 150 188 238 292 339
#     4  10  21  37  58  85 112 147 194 245 283 340
#
# _framework density 19.054769
#
# number of rings (size 3 to 8) (size 9 to 14) (size 15 to 20)
#    0.000    1.875    1.250    3.000    0.000    0.500 
#    0.000    9.375    0.000    1.500    0.000    0.000 
#    0.000    0.000    0.000    0.000    0.000    0.000 
#
# Total GULP energy -793721.019499 kJ/mol
# GULP energy per Si atom -12401.890930 kJ/mol
# Density = 1.901140 g / cm^3
# Si number density = 19.054769 Si / 1000 Ang^3
#
#
#
# Elastic Constant Matrix: (Units=GPa)
#
#
# Indices 1 2 3 4 5 6 
#
# 1 63.0683 7.7761 26.7810 0.0000 0.0000 0.0000
# 2 7.7761 94.7100 18.4845 0.0000 0.0000 0.0000
# 3 26.7810 18.4845 93.2575 0.0000 0.0000 0.0000
# 4 0.0000 0.0000 0.0000 20.5601 0.0000 0.0000
# 5 0.0000 0.0000 0.0000 0.0000 22.9139 0.0000
# 6 0.0000 0.0000 0.0000 0.0000 0.0000 24.5802
#
#
#
# Elastic Compliance Matrix: (Units=1/GPa)
#
#
# Indices 1 2 3 4 5 6 
#
# 1 0.018080 -0.000490 -0.005095 0.000000 0.000000 0.000000
# 2 -0.000490 0.010997 -0.002039 0.000000 0.000000 0.000000
# 3 -0.005095 -0.002039 0.012590 0.000000 0.000000 0.000000
# 4 0.000000 0.000000 0.000000 0.048638 0.000000 0.000000
# 5 0.000000 0.000000 0.000000 0.000000 0.043642 0.000000
# 6 0.000000 0.000000 0.000000 0.000000 0.000000 0.040683
#
#
# Mechanical properties :
#
#
# Convention : Reuss Voigt Hill
#
# Bulk Modulus (GPa) = 37.85158 39.67988 38.76573
# Shear Modulus (GPa) = 25.16567 26.81045 25.98806
#
# Velocity S-wave (km/s) = 3.63809 3.75510 3.69706
# Velocity P-wave (km/s) = 6.12824 6.29844 6.21392
#
# Compressibility (1/GPa) = 0.02641898
#
# Stress axis : x y z
#
# Youngs Moduli (GPa) = 55.31067 90.93624 79.42661
#
# Poissons Ratio (x) = 0.04456 0.40467
# Poissons Ratio (y) = 0.02711 0.16194
# Poissons Ratio (z) = 0.28180 0.18541
#
# Static dielectric constant tensor:
#      x y z
#    x 3.255420 0.000000 0.000000 
#    y 0.000000 3.613810 0.000000 
#    z 0.000000 0.000000 3.310560 
# 
# 
# High freq. dielectric constant tensor:
#      x y z
#    x 1.723760 0.000000 0.000000 
#    y 0.000000 1.755370 0.000000 
#    z 0.000000 0.000000 1.737780 
# 
# From -- ./inp_files/15889.got.cif
#   From: 2010.06.25/outbox.cif.g09.slc.cpg/sg58_8_cif.got.tgz:15889.got - 2010.06.26 21:38:00.
