data_PCOD8236771
_publ_section_title
;
Structure prediction by ZEFSAII (Michael W. Deem and Ramdas Pophale) SiO2 
 PCOD8236771
Probable space group: P N N M
;
_chemical_formula_sum "Si O2"
_cell_formula_units_Z 48
_cell_length_a 20.383134
_cell_length_b 15.044029
_cell_length_c 7.631465
_cell_angle_alpha 90.000000
_cell_angle_beta 90.000000
_cell_angle_gamma 90.000000
_cell_volume 2340.146456
_symmetry_space_group_name_H-M "P N N M"
_symmetry_group_IT_number 58
_symmetry_cell_setting 'orthorhombic'
loop_
_space_group_symop_operation_xyz
x,y,z
-x,-y,z
1/2+x,1/2-y,1/2-z
1/2-x,1/2+y,1/2-z
-x,-y,-z
x,y,-z
1/2-x,1/2+y,1/2+z
1/2+x,1/2-y,1/2+z
loop_
_atom_site_type_symbol
_atom_site_label
_atom_site_fract_x
_atom_site_fract_y
_atom_site_fract_z
Si Si1 0.765459 0.724253 0.294407
Si Si2 0.306246 0.099762 0.303840
Si Si3 0.702932 0.539243 0.293429
Si Si4 0.432549 0.538774 0.293021
Si Si5 0.599414 0.954369 0.000000
Si Si6 0.910243 0.760661 0.198932
Si Si7 0.462088 0.859191 0.000000
O O1 0.780961 0.725238 0.500000
O O2 0.718691 0.804765 0.238313
O O3 0.726957 0.636229 0.235345
O O4 0.834295 0.732291 0.195830
O O5 0.335503 0.106217 0.500000
O O6 0.245327 0.033084 0.307602
O O7 0.362334 0.066571 0.176416
O O8 0.712275 0.524061 0.500000
O O9 0.627300 0.525497 0.236001
O O10 0.500000 0.500000 0.210292
O O11 0.438492 0.539957 0.500000
O O12 0.418690 0.639016 0.228416
O O13 0.534831 0.896061 0.000000
O O14 0.588790 0.059759 0.000000
O O15 0.952280 0.697532 0.324296
O O16 0.937084 0.751426 0.000000
#
# Coordination Sequence:
#
# PCOD8236771 Si02
#       7
#     8   8   8   8   4   8   4
#     4  10  21  36  62  94 129 165 211 266 317 376
#     4  11  23  40  64  94 127 162 211 271 320 375
#     4  10  19  36  61  91 126 166 208 262 321 377
#     4   9  19  36  62  92 127 171 215 257 318 392
#     4  11  26  46  66  90 125 172 214 268 325 380
#     4  11  22  39  67  95 125 171 216 260 323 393
#     4  11  26  46  65  90 130 168 217 266 321 396
#
# _framework density 20.511537000000001
#
# number of rings (size 3 to 8) (size 9 to 14) (size 15 to 20)
#    0.000    1.667    3.333    1.000    1.167    4.667 
#    0.000    5.417    0.000    0.000    0.000    0.000 
#    0.000    0.000    0.000    0.000    0.000    0.000 
#
# Total GULP energy -595336.979258 kJ/mol
# GULP energy per Si atom -12402.853735 kJ/mol
# Density = 2.046485 g / cm^3
# Si number density = 20.511537 Si / 1000 Ang^3
#
#
#
# Elastic Constant Matrix: (Units=GPa)
#
#
# Indices 1 2 3 4 5 6 
#
# 1 92.3910 70.0214 30.3313 0.0000 0.0000 0.0000
# 2 70.0214 170.4970 28.9922 0.0000 0.0000 0.0000
# 3 30.3313 28.9922 70.3957 0.0000 0.0000 0.0000
# 4 0.0000 0.0000 0.0000 27.1145 0.0000 0.0000
# 5 0.0000 0.0000 0.0000 0.0000 7.9097 0.0000
# 6 0.0000 0.0000 0.0000 0.0000 0.0000 29.8884
#
#
#
# Elastic Compliance Matrix: (Units=1/GPa)
#
#
# Indices 1 2 3 4 5 6 
#
# 1 0.017109 -0.006208 -0.004815 0.000000 0.000000 0.000000
# 2 -0.006208 0.008559 -0.000850 0.000000 0.000000 0.000000
# 3 -0.004815 -0.000850 0.016630 0.000000 0.000000 0.000000
# 4 0.000000 0.000000 0.000000 0.036881 0.000000 0.000000
# 5 0.000000 0.000000 0.000000 0.000000 0.126427 0.000000
# 6 0.000000 0.000000 0.000000 0.000000 0.000000 0.033458
#
#
# Mechanical properties :
#
#
# Convention : Reuss Voigt Hill
#
# Bulk Modulus (GPa) = 53.90206 65.77483 59.83845
# Shear Modulus (GPa) = 18.58771 26.57844 22.58307
#
# Velocity S-wave (km/s) = 3.01359 3.60360 3.32172
# Velocity P-wave (km/s) = 6.20040 7.03217 6.62934
#
# Compressibility (1/GPa) = 0.01855217
#
# Stress axis : x y z
#
# Youngs Moduli (GPa) = 58.44854 116.83250 60.13108
#
# Poissons Ratio (x) = 0.72526 0.28954
# Poissons Ratio (y) = 0.36283 0.05113
# Poissons Ratio (z) = 0.28144 0.09935
#
# Static dielectric constant tensor:
#      x y z
#    x 3.729590 0.000000 0.000000 
#    y 0.000000 3.987030 0.000000 
#    z 0.000000 0.000000 3.568410 
# 
# 
# High freq. dielectric constant tensor:
#      x y z
#    x 1.795290 0.000000 0.000000 
#    y 0.000000 1.814760 0.000000 
#    z 0.000000 0.000000 1.796870 
# 
# From -- ./inp_files/5949.got.cif
#   From: 2010.06.25/outbox.cif.g09.slc.cpg/sg58_3_cif.got.tgz:5949.got - 2010.06.26 21:38:00.
