data_PCOD8236473
_publ_section_title
;
Structure prediction by ZEFSAII (Michael W. Deem and Ramdas Pophale) SiO2 
 PCOD8236473
Probable space group: P N N M
;
_chemical_formula_sum "Si O2"
_cell_formula_units_Z 48
_cell_length_a 16.432589
_cell_length_b 17.923960
_cell_length_c 9.003021
_cell_angle_alpha 90.000000
_cell_angle_beta 90.000000
_cell_angle_gamma 90.000000
_cell_volume 2651.723408
_symmetry_space_group_name_H-M "P N N M"
_symmetry_group_IT_number 58
_symmetry_cell_setting 'orthorhombic'
loop_
_space_group_symop_operation_xyz
x,y,z
-x,-y,z
1/2+x,1/2-y,1/2-z
1/2-x,1/2+y,1/2-z
-x,-y,-z
x,y,-z
1/2-x,1/2+y,1/2+z
1/2+x,1/2-y,1/2+z
loop_
_atom_site_type_symbol
_atom_site_label
_atom_site_fract_x
_atom_site_fract_y
_atom_site_fract_z
Si Si1 0.863978 0.323497 0.672138
Si Si2 0.248558 0.543856 0.671960
Si Si3 0.000198 0.585838 0.830509
Si Si4 0.173932 0.828369 0.824147
Si Si5 0.684067 0.096478 0.669974
Si Si6 0.913981 0.023867 0.825524
O O1 0.870764 0.302447 0.500000
O O2 0.782855 0.372608 0.703104
O O3 0.861046 0.249072 0.767599
O O4 0.943183 0.369194 0.718866
O O5 0.236224 0.521519 0.500000
O O6 0.195358 0.486929 0.768069
O O7 0.344186 0.537015 0.714591
O O8 0.909887 0.619558 0.815716
O O9 0.000000 0.500000 0.781317
O O10 0.032144 0.593332 0.000000
O O11 0.263790 0.842799 0.759809
O O12 0.114505 0.894849 0.768009
O O13 0.180040 0.826597 0.000000
O O14 0.712842 0.097268 0.500000
O O15 0.926834 0.028707 0.000000
O O16 0.000000 0.000000 0.750307
#
# Coordination Sequence:
#
# PCOD8236473 Si02
#       6
#     8   8   8   8   8   8
#     4  11  22  35  53  80 115 147 182 227 276 331
#     4   9  18  32  53  79 105 138 178 219 268 325
#     4  10  20  35  56  83 111 143 185 227 276 336
#     4  10  21  37  56  78 110 145 182 227 280 333
#     4  10  19  34  57  80 105 140 182 223 269 330
#     4   8  15  32  57  79  98 130 180 227 264 314
#
# _framework density 18.101434999999999
#
# number of rings (size 3 to 8) (size 9 to 14) (size 15 to 20)
#    0.000    2.333    1.667    2.500    0.000    2.333 
#    3.000    0.000    0.000   12.500    0.000    0.000 
#    0.000    0.000    0.000    0.000    0.000    0.000 
#
# Total GULP energy -595176.500738 kJ/mol
# GULP energy per Si atom -12399.510432 kJ/mol
# Density = 1.806024 g / cm^3
# Si number density = 18.101435 Si / 1000 Ang^3
#
#
#
# Elastic Constant Matrix: (Units=GPa)
#
#
# Indices 1 2 3 4 5 6 
#
# 1 119.2937 54.6965 38.3412 0.0000 0.0000 0.0000
# 2 54.6965 101.8292 38.8582 0.0000 0.0000 0.0000
# 3 38.3412 38.8582 74.3439 0.0000 0.0000 0.0000
# 4 0.0000 0.0000 0.0000 28.3549 0.0000 0.0000
# 5 0.0000 0.0000 0.0000 0.0000 26.3729 0.0000
# 6 0.0000 0.0000 0.0000 0.0000 0.0000 22.1308
#
#
#
# Elastic Compliance Matrix: (Units=1/GPa)
#
#
# Indices 1 2 3 4 5 6 
#
# 1 0.011794 -0.005014 -0.003462 0.000000 0.000000 0.000000
# 2 -0.005014 0.014399 -0.004940 0.000000 0.000000 0.000000
# 3 -0.003462 -0.004940 0.017818 0.000000 0.000000 0.000000
# 4 0.000000 0.000000 0.000000 0.035267 0.000000 0.000000
# 5 0.000000 0.000000 0.000000 0.000000 0.037918 0.000000
# 6 0.000000 0.000000 0.000000 0.000000 0.000000 0.045186
#
#
# Mechanical properties :
#
#
# Convention : Reuss Voigt Hill
#
# Bulk Modulus (GPa) = 58.20904 62.13983 60.17443
# Shear Modulus (GPa) = 25.64879 26.27645 25.96262
#
# Velocity S-wave (km/s) = 3.76832 3.81415 3.79130
# Velocity P-wave (km/s) = 7.15266 7.33486 7.24434
#
# Compressibility (1/GPa) = 0.01717946
#
# Stress axis : x y z
#
# Youngs Moduli (GPa) = 84.78656 69.45027 56.12166
#
# Poissons Ratio (x) = 0.34823 0.19428
# Poissons Ratio (y) = 0.42513 0.27724
# Poissons Ratio (z) = 0.29352 0.34309
#
# Static dielectric constant tensor:
#      x y z
#    x 3.565260 0.000000 0.000000 
#    y 0.000000 3.273560 0.000000 
#    z 0.000000 0.000000 3.255770 
# 
# 
# High freq. dielectric constant tensor:
#      x y z
#    x 1.705280 0.000000 0.000000 
#    y 0.000000 1.687250 0.000000 
#    z 0.000000 0.000000 1.693470 
# 
# From -- ./inp_files/5769.got.cif
#   From: 2010.06.25/outbox.cif.g09.slc.cpg/sg58_3_cif.got.tgz:5769.got - 2010.06.26 21:38:00.
