data_PCOD8236141
_publ_section_title
;
Structure prediction by ZEFSAII (Michael W. Deem and Ramdas Pophale) SiO2 
 PCOD8236141
Probable space group: P N N M
;
_chemical_formula_sum "Si O2"
_cell_formula_units_Z 56
_cell_length_a 14.019381
_cell_length_b 22.641046
_cell_length_c 9.008047
_cell_angle_alpha 90.000000
_cell_angle_beta 90.000000
_cell_angle_gamma 90.000000
_cell_volume 2859.275277
_symmetry_space_group_name_H-M "P N N M"
_symmetry_group_IT_number 58
_symmetry_cell_setting 'orthorhombic'
loop_
_space_group_symop_operation_xyz
x,y,z
-x,-y,z
1/2+x,1/2-y,1/2-z
1/2-x,1/2+y,1/2-z
-x,-y,-z
x,y,-z
1/2-x,1/2+y,1/2+z
1/2+x,1/2-y,1/2+z
loop_
_atom_site_type_symbol
_atom_site_label
_atom_site_fract_x
_atom_site_fract_y
_atom_site_fract_z
Si Si1 0.360901 0.229666 0.334537
Si Si2 0.303743 0.116682 0.825194
Si Si3 0.797116 0.619615 0.172364
Si Si4 0.087896 0.844166 0.674321
Si Si5 0.854887 0.730923 0.335125
Si Si6 0.610576 0.994725 0.327985
Si Si7 0.405737 0.655199 0.325998
O O1 0.406108 0.226020 0.500000
O O2 0.367759 0.165851 0.256670
O O3 0.414987 0.277027 0.233677
O O4 0.253139 0.249534 0.346816
O O5 0.192173 0.122603 0.780586
O O6 0.339664 0.053188 0.775186
O O7 0.316767 0.125122 0.000000
O O8 0.685646 0.622710 0.219745
O O9 0.861250 0.666007 0.263130
O O10 0.836398 0.555395 0.209149
O O11 0.807416 0.635970 0.000000
O O12 0.073326 0.843688 0.500000
O O13 0.996709 0.877278 0.748950
O O14 0.900881 0.729587 0.500000
O O15 0.908194 0.777245 0.230393
O O16 0.622877 0.977011 0.500000
O O17 0.500000 0.000000 0.285528
O O18 0.421326 0.654631 0.500000
#
# Coordination Sequence:
#
# PCOD8236141 Si02
#       7
#     8   8   8   8   8   8   8
#     4   9  17  31  52  77 107 142 176 213 261 316
#     4  10  21  37  56  79 109 144 182 226 270 314
#     4   9  19  36  55  77 108 143 179 223 273 322
#     4  10  19  32  53  81 111 142 178 221 268 321
#     4   9  17  30  51  78 106 139 177 216 261 312
#     4  10  22  40  60  79 101 136 181 225 272 326
#     4  10  20  34  53  79 112 147 180 217 267 324
#
# _framework density 19.585381999999999
#
# number of rings (size 3 to 8) (size 9 to 14) (size 15 to 20)
#    0.000    2.429    0.000    2.143    0.000    7.714 
#    0.000    5.000    0.000    4.286    0.000    0.000 
#    0.000    0.000    0.000    0.000    0.000    0.000 
#
# Total GULP energy -694320.001009 kJ/mol
# GULP energy per Si atom -12398.571447 kJ/mol
# Density = 1.954080 g / cm^3
# Si number density = 19.585382 Si / 1000 Ang^3
#
#
#
# Elastic Constant Matrix: (Units=GPa)
#
#
# Indices 1 2 3 4 5 6 
#
# 1 106.5852 43.5503 41.8452 0.0000 0.0000 0.0000
# 2 43.5503 99.9764 38.8130 0.0000 0.0000 0.0000
# 3 41.8452 38.8130 90.3461 0.0000 0.0000 0.0000
# 4 0.0000 0.0000 0.0000 31.0673 0.0000 0.0000
# 5 0.0000 0.0000 0.0000 0.0000 30.0150 0.0000
# 6 0.0000 0.0000 0.0000 0.0000 0.0000 19.5908
#
#
#
# Elastic Compliance Matrix: (Units=1/GPa)
#
#
# Indices 1 2 3 4 5 6 
#
# 1 0.012602 -0.003869 -0.004175 0.000000 0.000000 0.000000
# 2 -0.003869 0.013192 -0.003876 0.000000 0.000000 0.000000
# 3 -0.004175 -0.003876 0.014667 0.000000 0.000000 0.000000
# 4 0.000000 0.000000 0.000000 0.032188 0.000000 0.000000
# 5 0.000000 0.000000 0.000000 0.000000 0.033317 0.000000
# 6 0.000000 0.000000 0.000000 0.000000 0.000000 0.051044
#
#
# Mechanical properties :
#
#
# Convention : Reuss Voigt Hill
#
# Bulk Modulus (GPa) = 60.15713 60.59162 60.37437
# Shear Modulus (GPa) = 26.82556 27.64791 27.23673
#
# Velocity S-wave (km/s) = 3.70492 3.76128 3.73321
# Velocity P-wave (km/s) = 7.00599 7.06168 7.03389
#
# Compressibility (1/GPa) = 0.01662313
#
# Stress axis : x y z
#
# Youngs Moduli (GPa) = 79.35299 75.80260 68.17986
#
# Poissons Ratio (x) = 0.29326 0.28463
# Poissons Ratio (y) = 0.30700 0.26423
# Poissons Ratio (z) = 0.33128 0.29378
#
# Static dielectric constant tensor:
#      x y z
#    x 3.817480 0.000000 0.000000 
#    y 0.000000 3.332200 0.000000 
#    z 0.000000 0.000000 3.701810 
# 
# 
# High freq. dielectric constant tensor:
#      x y z
#    x 1.771340 0.000000 0.000000 
#    y 0.000000 1.734570 0.000000 
#    z 0.000000 0.000000 1.770900 
# 
# From -- ./inp_files/6307.got.cif
#   From: 2010.06.25/outbox.cif.g09.slc.cpg/sg58_4_cif.got.tgz:6307.got - 2010.06.26 21:38:00.
