data_PCOD8236033
_publ_section_title
;
Structure prediction by ZEFSAII (Michael W. Deem and Ramdas Pophale) SiO2 
 PCOD8236033
Probable space group: P N N M
;
_chemical_formula_sum "Si O2"
_cell_formula_units_Z 56
_cell_length_a 16.403400
_cell_length_b 19.272855
_cell_length_c 9.129435
_cell_angle_alpha 90.000000
_cell_angle_beta 90.000000
_cell_angle_gamma 90.000000
_cell_volume 2886.182774
_symmetry_space_group_name_H-M "P N N M"
_symmetry_group_IT_number 58
_symmetry_cell_setting 'orthorhombic'
loop_
_space_group_symop_operation_xyz
x,y,z
-x,-y,z
1/2+x,1/2-y,1/2-z
1/2-x,1/2+y,1/2-z
-x,-y,-z
x,y,-z
1/2-x,1/2+y,1/2+z
1/2+x,1/2-y,1/2+z
loop_
_atom_site_type_symbol
_atom_site_label
_atom_site_fract_x
_atom_site_fract_y
_atom_site_fract_z
Si Si1 0.370038 0.620318 0.337384
Si Si2 0.118356 0.963262 0.163238
Si Si3 0.018603 0.857179 0.666256
Si Si4 0.765300 0.592853 0.170562
Si Si5 0.591090 0.996086 0.671721
Si Si6 0.177270 0.768600 0.665202
Si Si7 0.702465 0.869985 0.673534
O O1 0.354087 0.651107 0.500000
O O2 0.405652 0.543214 0.348329
O O3 0.438237 0.666980 0.255686
O O4 0.288885 0.616875 0.244955
O O5 0.052745 0.927871 0.266917
O O6 0.208222 0.955621 0.231567
O O7 0.117371 0.929862 0.000000
O O8 0.992583 0.871349 0.500000
O O9 0.087280 0.799223 0.677659
O O10 0.857939 0.567339 0.205035
O O11 0.746973 0.674015 0.207100
O O12 0.743872 0.579613 0.000000
O O13 0.581086 0.986221 0.500000
O O14 0.638837 0.928197 0.732148
O O15 0.500000 0.000000 0.742873
O O16 0.193813 0.741879 0.500000
O O17 0.175427 0.706555 0.779847
O O18 0.711052 0.874085 0.500000
#
# Coordination Sequence:
#
# PCOD8236033 Si02
#       7
#     8   8   8   8   8   8   8
#     4  11  22  35  54  82 116 149 185 232 288 343
#     4  10  19  31  52  82 115 145 178 227 283 334
#     4  10  21  36  56  81 112 151 191 229 279 344
#     4   9  17  34  59  82 109 150 194 235 286 347
#     4   9  18  35  60  88 113 142 194 252 291 340
#     4   9  20  38  57  80 115 154 189 236 295 353
#     4  11  22  37  60  85 114 152 195 244 294 349
#
# _framework density 19.402788999999999
#
# number of rings (size 3 to 8) (size 9 to 14) (size 15 to 20)
#    0.000    2.143    1.429    3.000    0.000    6.286 
#    2.571    0.000    0.000    3.857    0.000    0.000 
#    0.000    0.000    0.000    0.000    0.000    0.000 
#
# Total GULP energy -694099.070320 kJ/mol
# GULP energy per Si atom -12394.626256 kJ/mol
# Density = 1.935863 g / cm^3
# Si number density = 19.402789 Si / 1000 Ang^3
#
#
#
# Elastic Constant Matrix: (Units=GPa)
#
#
# Indices 1 2 3 4 5 6 
#
# 1 143.2717 49.2740 45.2021 0.0000 0.0000 0.0000
# 2 49.2740 82.1835 36.4664 0.0000 0.0000 0.0000
# 3 45.2021 36.4664 98.6995 0.0000 0.0000 0.0000
# 4 0.0000 0.0000 0.0000 26.5581 0.0000 0.0000
# 5 0.0000 0.0000 0.0000 0.0000 12.1886 0.0000
# 6 0.0000 0.0000 0.0000 0.0000 0.0000 10.3805
#
#
#
# Elastic Compliance Matrix: (Units=1/GPa)
#
#
# Indices 1 2 3 4 5 6 
#
# 1 0.009335 -0.004425 -0.002640 0.000000 0.000000 0.000000
# 2 -0.004425 0.016652 -0.004126 0.000000 0.000000 0.000000
# 3 -0.002640 -0.004126 0.012865 0.000000 0.000000 0.000000
# 4 0.000000 0.000000 0.000000 0.037653 0.000000 0.000000
# 5 0.000000 0.000000 0.000000 0.000000 0.082044 0.000000
# 6 0.000000 0.000000 0.000000 0.000000 0.000000 0.096334
#
#
# Mechanical properties :
#
#
# Convention : Reuss Voigt Hill
#
# Bulk Modulus (GPa) = 60.71782 65.11552 62.91667
# Shear Modulus (GPa) = 17.68319 22.70627 20.19473
#
# Velocity S-wave (km/s) = 3.02217 3.42461 3.22967
# Velocity P-wave (km/s) = 6.59843 7.01926 6.81210
#
# Compressibility (1/GPa) = 0.01646963
#
# Stress axis : x y z
#
# Youngs Moduli (GPa) = 107.12829 60.05393 77.72946
#
# Poissons Ratio (x) = 0.26575 0.20521
# Poissons Ratio (y) = 0.47407 0.32068
# Poissons Ratio (z) = 0.28282 0.24776
#
# Static dielectric constant tensor:
#      x y z
#    x 3.768000 0.000000 0.000000 
#    y 0.000000 3.490230 0.000000 
#    z 0.000000 0.000000 3.617960 
# 
# 
# High freq. dielectric constant tensor:
#      x y z
#    x 1.759800 0.000000 0.000000 
#    y 0.000000 1.735000 0.000000 
#    z 0.000000 0.000000 1.748850 
# 
# From -- ./inp_files/6468.got.cif
#   From: 2010.06.25/outbox.cif.g09.slc.cpg/sg58_4_cif.got.tgz:6468.got - 2010.06.26 21:38:00.
