data_PCOD8236718
_publ_section_title
;
Structure prediction by ZEFSAII (Michael W. Deem and Ramdas Pophale) SiO2 
 PCOD8236718
Probable space group: P N N M
;
_chemical_formula_sum "Si O2"
_cell_formula_units_Z 48
_cell_length_a 12.303861
_cell_length_b 21.515580
_cell_length_c 9.274355
_cell_angle_alpha 90.000000
_cell_angle_beta 90.000000
_cell_angle_gamma 90.000000
_cell_volume 2455.150898
_symmetry_space_group_name_H-M "P N N M"
_symmetry_group_IT_number 58
_symmetry_cell_setting 'orthorhombic'
loop_
_space_group_symop_operation_xyz
x,y,z
-x,-y,z
1/2+x,1/2-y,1/2-z
1/2-x,1/2+y,1/2-z
-x,-y,-z
x,y,-z
1/2-x,1/2+y,1/2+z
1/2+x,1/2-y,1/2+z
loop_
_atom_site_type_symbol
_atom_site_label
_atom_site_fract_x
_atom_site_fract_y
_atom_site_fract_z
Si Si1 0.856521 0.645503 0.835876
Si Si2 0.743887 0.898622 0.829391
Si Si3 0.015114 0.069746 0.171039
Si Si4 0.410631 0.190004 0.333434
Si Si5 0.849489 0.172356 0.166263
Si Si6 0.624828 0.003065 0.336534
O O1 0.764661 0.680506 0.746356
O O2 0.832666 0.572746 0.822646
O O3 0.975751 0.662223 0.774835
O O4 0.849238 0.668888 0.000000
O O5 0.869805 0.901030 0.782789
O O6 0.688186 0.839069 0.756754
O O7 0.690936 0.962304 0.775646
O O8 0.729725 0.893880 0.000000
O O9 0.921448 0.115773 0.231050
O O10 0.007262 0.066649 0.000000
O O11 0.000000 0.000000 0.235372
O O12 0.393559 0.171339 0.500000
O O13 0.415338 0.263890 0.312621
O O14 0.823578 0.159653 0.000000
O O15 0.639656 0.977858 0.500000
O O16 0.500000 0.000000 0.291641
#
# Coordination Sequence:
#
# PCOD8236718 Si02
#       6
#     8   8   8   8   8   8
#     4  10  21  38  61  84 113 152 192 237 288 344
#     4  11  22  35  60  91 117 149 194 248 288 335
#     4   9  19  37  59  85 117 150 186 236 299 350
#     4  10  22  40  58  81 117 161 194 230 293 357
#     4  10  22  39  61  84 113 156 198 238 289 347
#     4  10  19  36  58  81 115 157 189 226 291 355
#
# _framework density 19.550733999999999
#
# number of rings (size 3 to 8) (size 9 to 14) (size 15 to 20)
#    0.000    2.000    1.667    1.500    2.333    3.667 
#    0.000    1.667    0.000    4.500    0.000    0.000 
#    0.000    0.000    0.000    0.000    0.000    0.000 
#
# Total GULP energy -595305.819143 kJ/mol
# GULP energy per Si atom -12402.204565 kJ/mol
# Density = 1.950624 g / cm^3
# Si number density = 19.550734 Si / 1000 Ang^3
#
#
#
# Elastic Constant Matrix: (Units=GPa)
#
#
# Indices 1 2 3 4 5 6 
#
# 1 132.1145 45.6783 46.6307 0.0000 0.0000 0.0000
# 2 45.6783 103.2053 28.5016 0.0000 0.0000 0.0000
# 3 46.6307 28.5016 55.7069 0.0000 0.0000 0.0000
# 4 0.0000 0.0000 0.0000 24.7157 0.0000 0.0000
# 5 0.0000 0.0000 0.0000 0.0000 28.5412 0.0000
# 6 0.0000 0.0000 0.0000 0.0000 0.0000 27.5416
#
#
#
# Elastic Compliance Matrix: (Units=1/GPa)
#
#
# Indices 1 2 3 4 5 6 
#
# 1 0.011401 -0.002807 -0.008108 0.000000 0.000000 0.000000
# 2 -0.002807 0.011975 -0.003777 0.000000 0.000000 0.000000
# 3 -0.008108 -0.003777 0.026670 0.000000 0.000000 0.000000
# 4 0.000000 0.000000 0.000000 0.040460 0.000000 0.000000
# 5 0.000000 0.000000 0.000000 0.000000 0.035037 0.000000
# 6 0.000000 0.000000 0.000000 0.000000 0.000000 0.036309
#
#
# Mechanical properties :
#
#
# Convention : Reuss Voigt Hill
#
# Bulk Modulus (GPa) = 48.39557 59.18310 53.78933
# Shear Modulus (GPa) = 25.23681 27.50744 26.37212
#
# Velocity S-wave (km/s) = 3.59672 3.75504 3.67673
# Velocity P-wave (km/s) = 6.48507 7.00983 6.75255
#
# Compressibility (1/GPa) = 0.02066305
#
# Stress axis : x y z
#
# Youngs Moduli (GPa) = 87.70876 83.50766 37.49520
#
# Poissons Ratio (x) = 0.23442 0.30399
# Poissons Ratio (y) = 0.24622 0.14162
# Poissons Ratio (z) = 0.71110 0.31541
#
# Static dielectric constant tensor:
#      x y z
#    x 3.697760 0.000000 0.000000 
#    y 0.000000 3.641490 0.000000 
#    z 0.000000 0.000000 3.323850 
# 
# 
# High freq. dielectric constant tensor:
#      x y z
#    x 1.768270 0.000000 0.000000 
#    y 0.000000 1.772060 0.000000 
#    z 0.000000 0.000000 1.734070 
# 
# From -- ./inp_files/4242.got.cif
#   From: 2010.06.25/outbox.cif.g09.slc.cpg/sg58_3_cif.got.tgz:4242.got - 2010.06.26 21:38:00.
