data_PCOD8236044
_publ_section_title
;
Structure prediction by ZEFSAII (Michael W. Deem and Ramdas Pophale) SiO2 
 PCOD8236044
Probable space group: P N N M
;
_chemical_formula_sum "Si O2"
_cell_formula_units_Z 64
_cell_length_a 20.649200
_cell_length_b 19.356581
_cell_length_c 9.141334
_cell_angle_alpha 90.000000
_cell_angle_beta 90.000000
_cell_angle_gamma 90.000000
_cell_volume 3653.772116
_symmetry_space_group_name_H-M "P N N M"
_symmetry_group_IT_number 58
_symmetry_cell_setting 'orthorhombic'
loop_
_space_group_symop_operation_xyz
x,y,z
-x,-y,z
1/2+x,1/2-y,1/2-z
1/2-x,1/2+y,1/2-z
-x,-y,-z
x,y,-z
1/2-x,1/2+y,1/2+z
1/2+x,1/2-y,1/2+z
loop_
_atom_site_type_symbol
_atom_site_label
_atom_site_fract_x
_atom_site_fract_y
_atom_site_fract_z
Si Si1 0.256811 0.076115 0.333438
Si Si2 0.871944 0.077979 0.171149
Si Si3 0.070394 0.200828 0.667804
Si Si4 0.763266 0.578718 0.170334
Si Si5 0.925351 0.202153 0.331000
Si Si6 0.685941 0.202727 0.828716
Si Si7 0.817226 0.283336 0.832127
Si Si8 0.374692 0.578321 0.669482
O O1 0.230986 0.081557 0.500000
O O2 0.310885 0.134377 0.305013
O O3 0.197121 0.090911 0.228365
O O4 0.287002 0.000224 0.304438
O O5 0.803695 0.092083 0.247252
O O6 0.922731 0.130315 0.242459
O O7 0.896871 0.000396 0.199146
O O8 0.863683 0.093740 0.000000
O O9 0.085868 0.184006 0.500000
O O10 0.122986 0.255502 0.726721
O O11 0.074684 0.128722 0.753619
O O12 0.998213 0.231389 0.687836
O O13 0.815347 0.630703 0.240205
O O14 0.753909 0.595225 0.000000
O O15 0.909010 0.188137 0.500000
O O16 0.875279 0.257881 0.269098
O O17 0.749986 0.246392 0.789622
O O18 0.681514 0.186300 0.000000
O O19 0.834828 0.267090 0.000000
O O20 0.373976 0.595788 0.500000
#
# Coordination Sequence:
#
# PCOD8236044 Si02
#       8
#     8   8   8   8   8   8   8   8
#     4   9  18  34  54  77 106 140 171 208 262 314
#     4  10  20  34  50  73 108 144 174 206 257 312
#     4  10  22  39  54  72 104 144 178 211 259 315
#     4  10  19  31  53  82 107 131 172 220 256 300
#     4  11  23  36  53  77 104 137 179 220 255 301
#     4  10  19  34  56  77 103 139 174 209 260 314
#     4  10  19  34  57  78 103 138 172 211 262 312
#     4  10  20  32  51  78 105 137 177 218 252 297
#
# _framework density 17.516144000000001
#
# number of rings (size 3 to 8) (size 9 to 14) (size 15 to 20)
#    0.000    2.000    2.500    1.500    0.000    4.500 
#    0.000    2.500    0.000    0.750    0.000    5.250 
#    0.000    0.000    0.000    0.000    0.000    0.000 
#
# Total GULP energy -793657.533966 kJ/mol
# GULP energy per Si atom -12400.898968 kJ/mol
# Density = 1.747628 g / cm^3
# Si number density = 17.516144 Si / 1000 Ang^3
#
#
#
# Elastic Constant Matrix: (Units=GPa)
#
#
# Indices 1 2 3 4 5 6 
#
# 1 95.1632 55.6923 44.8620 0.0000 0.0000 0.0000
# 2 55.6923 111.7501 48.9987 0.0000 0.0000 0.0000
# 3 44.8620 48.9987 83.6283 0.0000 0.0000 0.0000
# 4 0.0000 0.0000 0.0000 27.4359 0.0000 0.0000
# 5 0.0000 0.0000 0.0000 0.0000 23.4053 0.0000
# 6 0.0000 0.0000 0.0000 0.0000 0.0000 24.1992
#
#
#
# Elastic Compliance Matrix: (Units=1/GPa)
#
#
# Indices 1 2 3 4 5 6 
#
# 1 0.016479 -0.005836 -0.005421 0.000000 0.000000 0.000000
# 2 -0.005836 0.014109 -0.005136 0.000000 0.000000 0.000000
# 3 -0.005421 -0.005136 0.017875 0.000000 0.000000 0.000000
# 4 0.000000 0.000000 0.000000 0.036449 0.000000 0.000000
# 5 0.000000 0.000000 0.000000 0.000000 0.042725 0.000000
# 6 0.000000 0.000000 0.000000 0.000000 0.000000 0.041324
#
#
# Mechanical properties :
#
#
# Convention : Reuss Voigt Hill
#
# Bulk Modulus (GPa) = 63.78523 65.51643 64.65083
# Shear Modulus (GPa) = 24.15795 24.40732 24.28263
#
# Velocity S-wave (km/s) = 3.71776 3.73690 3.72734
# Velocity P-wave (km/s) = 7.41102 7.49025 7.45074
#
# Compressibility (1/GPa) = 0.01567761
#
# Stress axis : x y z
#
# Youngs Moduli (GPa) = 60.68322 70.87784 55.94436
#
# Poissons Ratio (x) = 0.41362 0.30327
# Poissons Ratio (y) = 0.35413 0.28733
# Poissons Ratio (z) = 0.32896 0.36403
#
# Static dielectric constant tensor:
#      x y z
#    x 2.989760 0.000000 0.000000 
#    y 0.000000 3.454290 0.000000 
#    z 0.000000 0.000000 3.325690 
# 
# 
# High freq. dielectric constant tensor:
#      x y z
#    x 1.646000 0.000000 0.000000 
#    y 0.000000 1.680730 0.000000 
#    z 0.000000 0.000000 1.684940 
# 
# From -- ./inp_files/8252.got.cif
#   From: 2010.06.25/outbox.cif.g09.slc.cpg/sg58_5_cif.got.tgz:8252.got - 2010.06.26 21:38:00.
