data_PCOD8236546
_publ_section_title
;
Structure prediction by ZEFSAII (Michael W. Deem and Ramdas Pophale) SiO2 
 PCOD8236546
Probable space group: P N N M
;
_chemical_formula_sum "Si O2"
_cell_formula_units_Z 64
_cell_length_a 24.592511
_cell_length_b 15.119924
_cell_length_c 9.019123
_cell_angle_alpha 90.000000
_cell_angle_beta 90.000000
_cell_angle_gamma 90.000000
_cell_volume 3353.642713
_symmetry_space_group_name_H-M "P N N M"
_symmetry_group_IT_number 58
_symmetry_cell_setting 'orthorhombic'
loop_
_space_group_symop_operation_xyz
x,y,z
-x,-y,z
1/2+x,1/2-y,1/2-z
1/2-x,1/2+y,1/2-z
-x,-y,-z
x,y,-z
1/2-x,1/2+y,1/2+z
1/2+x,1/2-y,1/2+z
loop_
_atom_site_type_symbol
_atom_site_label
_atom_site_fract_x
_atom_site_fract_y
_atom_site_fract_z
Si Si1 0.217279 0.536991 0.173986
Si Si2 0.889772 0.495204 0.324263
Si Si3 0.641632 0.289251 0.175309
Si Si4 0.065604 0.676946 0.829002
Si Si5 0.660170 0.489702 0.828085
Si Si6 0.261537 0.232607 0.675452
Si Si7 0.637571 0.659815 0.325857
Si Si8 0.060474 0.340273 0.828448
O O1 0.171252 0.485056 0.265980
O O2 0.276361 0.498002 0.212850
O O3 0.215707 0.638326 0.229859
O O4 0.204551 0.528527 0.000000
O O5 0.890612 0.500643 0.500000
O O6 0.910494 0.400328 0.271501
O O7 0.929453 0.569741 0.260226
O O8 0.638970 0.392828 0.217324
O O9 0.699934 0.250270 0.230321
O O10 0.595168 0.240393 0.265161
O O11 0.633497 0.274495 0.000000
O O12 0.091931 0.769689 0.777783
O O13 0.001727 0.686533 0.806123
O O14 0.080824 0.656120 0.000000
O O15 0.625163 0.564546 0.745097
O O16 0.650977 0.504135 0.000000
O O17 0.259407 0.226583 0.500000
O O18 0.303026 0.307435 0.731545
O O19 0.637773 0.647303 0.500000
O O20 0.074758 0.355785 0.000000
#
# Coordination Sequence:
#
# PCOD8236546 Si02
#       8
#     8   8   8   8   8   8   8   8
#     4   9  17  35  57  79 114 154 188 224 272 333
#     4  12  24  36  56  87 118 149 186 231 286 342
#     4   9  19  38  59  82 115 151 187 233 286 335
#     4  10  22  42  62  81 111 152 195 235 282 335
#     4   9  20  36  57  85 118 153 188 232 285 339
#     4   8  15  31  56  80 108 147 184 224 278 331
#     4  10  19  34  59  85 112 149 190 235 283 332
#     4  11  24  40  60  83 109 149 197 239 279 336
#
# _framework density 19.083725999999999
#
# number of rings (size 3 to 8) (size 9 to 14) (size 15 to 20)
#    0.000    2.250    1.250    3.375    1.750    4.000 
#    0.000    2.500    0.000    3.750    0.000    0.000 
#    0.000    0.000    0.000    0.000    0.000    0.000 
#
# Total GULP energy -793550.792137 kJ/mol
# GULP energy per Si atom -12399.231127 kJ/mol
# Density = 1.904029 g / cm^3
# Si number density = 19.083726 Si / 1000 Ang^3
#
#
#
# Elastic Constant Matrix: (Units=GPa)
#
#
# Indices 1 2 3 4 5 6 
#
# 1 98.0473 50.8836 48.7613 0.0000 0.0000 0.0000
# 2 50.8836 90.9723 43.8205 0.0000 0.0000 0.0000
# 3 48.7613 43.8205 82.6976 0.0000 0.0000 0.0000
# 4 0.0000 0.0000 0.0000 34.0822 0.0000 0.0000
# 5 0.0000 0.0000 0.0000 0.0000 16.3209 0.0000
# 6 0.0000 0.0000 0.0000 0.0000 0.0000 27.2307
#
#
#
# Elastic Compliance Matrix: (Units=1/GPa)
#
#
# Indices 1 2 3 4 5 6 
#
# 1 0.016656 -0.006157 -0.006558 0.000000 0.000000 0.000000
# 2 -0.006157 0.017036 -0.005397 0.000000 0.000000 0.000000
# 3 -0.006558 -0.005397 0.018819 0.000000 0.000000 0.000000
# 4 0.000000 0.000000 0.000000 0.029341 0.000000 0.000000
# 5 0.000000 0.000000 0.000000 0.000000 0.061271 0.000000
# 6 0.000000 0.000000 0.000000 0.000000 0.000000 0.036723
#
#
# Mechanical properties :
#
#
# Convention : Reuss Voigt Hill
#
# Bulk Modulus (GPa) = 61.40065 62.07202 61.73633
# Shear Modulus (GPa) = 22.57344 24.07688 23.32516
#
# Velocity S-wave (km/s) = 3.44301 3.55582 3.49987
# Velocity P-wave (km/s) = 6.93181 7.03244 6.98230
#
# Compressibility (1/GPa) = 0.01628647
#
# Stress axis : x y z
#
# Youngs Moduli (GPa) = 60.03757 58.70012 53.13810
#
# Poissons Ratio (x) = 0.36143 0.34850
# Poissons Ratio (y) = 0.36966 0.28676
# Poissons Ratio (z) = 0.39375 0.31678
#
# Static dielectric constant tensor:
#      x y z
#    x 3.567800 0.000000 0.000000 
#    y 0.000000 3.509510 0.000000 
#    z 0.000000 0.000000 3.245070 
# 
# 
# High freq. dielectric constant tensor:
#      x y z
#    x 1.739320 0.000000 0.000000 
#    y 0.000000 1.744440 0.000000 
#    z 0.000000 0.000000 1.721980 
# 
# From -- ./inp_files/10013.got.cif
#   From: 2010.06.25/outbox.cif.g09.slc.cpg/sg58_6_cif.got.tgz:10013.got - 2010.06.26 21:38:00.
