data_PCOD8236969
_publ_section_title
;
Structure prediction by ZEFSAII (Michael W. Deem and Ramdas Pophale) SiO2 
 PCOD8236969
Probable space group: P N N M
;
_chemical_formula_sum "Si O2"
_cell_formula_units_Z 64
_cell_length_a 18.209950
_cell_length_b 20.559270
_cell_length_c 9.146538
_cell_angle_alpha 90.000000
_cell_angle_beta 90.000000
_cell_angle_gamma 90.000000
_cell_volume 3424.310886
_symmetry_space_group_name_H-M "P N N M"
_symmetry_group_IT_number 58
_symmetry_cell_setting 'orthorhombic'
loop_
_space_group_symop_operation_xyz
x,y,z
-x,-y,z
1/2+x,1/2-y,1/2-z
1/2-x,1/2+y,1/2-z
-x,-y,-z
x,y,-z
1/2-x,1/2+y,1/2+z
1/2+x,1/2-y,1/2+z
loop_
_atom_site_type_symbol
_atom_site_label
_atom_site_fract_x
_atom_site_fract_y
_atom_site_fract_z
Si Si1 0.171468 0.992518 0.329556
Si Si2 0.909739 0.116904 0.828846
Si Si3 0.064824 0.246971 0.664751
Si Si4 0.339671 0.999598 0.330248
Si Si5 0.937265 0.895659 0.667515
Si Si6 0.595499 0.115523 0.836151
Si Si7 0.421192 0.113417 0.168121
Si Si8 0.920221 0.261479 0.831491
O O1 0.159652 0.977771 0.500000
O O2 0.153015 0.928081 0.239031
O O3 0.254676 0.012931 0.297020
O O4 0.120341 0.051541 0.273916
O O5 0.883218 0.191293 0.799182
O O6 0.987919 0.099902 0.757605
O O7 0.917459 0.103526 0.000000
O O8 0.029403 0.252675 0.500000
O O9 0.101629 0.175740 0.681629
O O10 0.120169 0.308314 0.683498
O O11 0.004870 0.252437 0.790578
O O12 0.357999 0.005962 0.500000
O O13 0.388608 0.050421 0.243967
O O14 0.360349 0.927043 0.279320
O O15 0.957916 0.910371 0.500000
O O16 0.508371 0.111638 0.807918
O O17 0.613781 0.091005 0.000000
O O18 0.386241 0.179260 0.237660
O O19 0.398747 0.111775 0.000000
O O20 0.913171 0.281048 0.000000
#
# Coordination Sequence:
#
# PCOD8236969 Si02
#       8
#     8   8   8   8   8   8   8   8
#     4  10  22  37  51  71 103 142 179 212 250 302
#     4  10  20  33  53  81 107 132 167 212 257 300
#     4   8  15  29  51  77 101 127 163 207 253 303
#     4  11  23  36  50  72 104 139 175 215 255 297
#     4   9  17  33  56  77 100 134 171 207 253 306
#     4   9  18  33  53  77 102 129 166 209 254 309
#     4  10  20  35  56  79 102 131 168 209 254 308
#     4   9  17  30  50  78 107 130 159 205 256 302
#
# _framework density 18.689893000000001
#
# number of rings (size 3 to 8) (size 9 to 14) (size 15 to 20)
#    0.000    2.500    0.000    3.000    0.000    8.500 
#    0.000    1.250    0.000    3.000    0.000    0.000 
#    0.000    0.000    0.000    0.000    0.000    0.000 
#
# Total GULP energy -793276.473846 kJ/mol
# GULP energy per Si atom -12394.944904 kJ/mol
# Density = 1.864735 g / cm^3
# Si number density = 18.689893 Si / 1000 Ang^3
#
#
#
# Elastic Constant Matrix: (Units=GPa)
#
#
# Indices 1 2 3 4 5 6 
#
# 1 31.8488 15.2587 24.2795 0.0000 0.0000 0.0000
# 2 15.2587 109.3392 43.8737 0.0000 0.0000 0.0000
# 3 24.2795 43.8737 85.8003 0.0000 0.0000 0.0000
# 4 0.0000 0.0000 0.0000 32.7040 0.0000 0.0000
# 5 0.0000 0.0000 0.0000 0.0000 18.9287 0.0000
# 6 0.0000 0.0000 0.0000 0.0000 0.0000 7.1196
#
#
#
# Elastic Compliance Matrix: (Units=1/GPa)
#
#
# Indices 1 2 3 4 5 6 
#
# 1 0.040184 -0.001315 -0.010699 0.000000 0.000000 0.000000
# 2 -0.001315 0.011550 -0.005534 0.000000 0.000000 0.000000
# 3 -0.010699 -0.005534 0.017512 0.000000 0.000000 0.000000
# 4 0.000000 0.000000 0.000000 0.030577 0.000000 0.000000
# 5 0.000000 0.000000 0.000000 0.000000 0.052830 0.000000
# 6 0.000000 0.000000 0.000000 0.000000 0.000000 0.140458
#
#
# Mechanical properties :
#
#
# Convention : Reuss Voigt Hill
#
# Bulk Modulus (GPa) = 29.28150 43.75689 36.51919
# Shear Modulus (GPa) = 14.72359 21.32222 18.02290
#
# Velocity S-wave (km/s) = 2.80979 3.38130 3.10871
# Velocity P-wave (km/s) = 5.12129 6.22151 5.69802
#
# Compressibility (1/GPa) = 0.03415126
#
# Stress axis : x y z
#
# Youngs Moduli (GPa) = 24.88524 86.58090 57.10286
#
# Poissons Ratio (x) = 0.11384 0.61094
# Poissons Ratio (y) = 0.03272 0.31600
# Poissons Ratio (z) = 0.26625 0.47913
#
# Static dielectric constant tensor:
#      x y z
#    x 3.001520 0.000000 0.000000 
#    y 0.000000 3.922180 0.000000 
#    z 0.000000 0.000000 3.479210 
# 
# 
# High freq. dielectric constant tensor:
#      x y z
#    x 1.673930 0.000000 0.000000 
#    y 0.000000 1.750850 0.000000 
#    z 0.000000 0.000000 1.730760 
# 
# From -- ./inp_files/8240.got.cif
#   From: 2010.06.25/outbox.cif.g09.slc.cpg/sg58_5_cif.got.tgz:8240.got - 2010.06.26 21:38:00.
