data_PCOD8236606
_publ_section_title
;
Structure prediction by ZEFSAII (Michael W. Deem and Ramdas Pophale) SiO2 
 PCOD8236606
Probable space group: P N N M
;
_chemical_formula_sum "Si O2"
_cell_formula_units_Z 64
_cell_length_a 15.200993
_cell_length_b 24.558817
_cell_length_c 8.833344
_cell_angle_alpha 90.000000
_cell_angle_beta 90.000000
_cell_angle_gamma 90.000000
_cell_volume 3297.649896
_symmetry_space_group_name_H-M "P N N M"
_symmetry_group_IT_number 58
_symmetry_cell_setting 'orthorhombic'
loop_
_space_group_symop_operation_xyz
x,y,z
-x,-y,z
1/2+x,1/2-y,1/2-z
1/2-x,1/2+y,1/2-z
-x,-y,-z
x,y,-z
1/2-x,1/2+y,1/2+z
1/2+x,1/2-y,1/2+z
loop_
_atom_site_type_symbol
_atom_site_label
_atom_site_fract_x
_atom_site_fract_y
_atom_site_fract_z
Si Si1 0.006224 0.161487 0.677006
Si Si2 0.832862 0.566054 0.825730
Si Si3 0.817094 0.441143 0.174159
Si Si4 0.467699 0.779973 0.827106
Si Si5 0.271689 0.751455 0.826715
Si Si6 0.009165 0.602958 0.319720
Si Si7 0.184110 0.139380 0.821353
Si Si8 0.187532 0.848818 0.675495
O O1 0.032397 0.164456 0.500000
O O2 0.998364 0.223260 0.744483
O O3 0.084697 0.130377 0.761582
O O4 0.913246 0.131322 0.703434
O O5 0.798203 0.504928 0.808337
O O6 0.917823 0.574243 0.722144
O O7 0.753643 0.604612 0.766984
O O8 0.857282 0.578883 0.000000
O O9 0.741749 0.411007 0.266878
O O10 0.912818 0.428907 0.240370
O O11 0.813998 0.422677 0.000000
O O12 0.362962 0.783519 0.807287
O O13 0.509020 0.834710 0.755004
O O14 0.496541 0.780294 0.000000
O O15 0.272039 0.695011 0.736610
O O16 0.198277 0.791877 0.762613
O O17 0.251178 0.737442 0.000000
O O18 0.020532 0.600944 0.500000
O O19 0.182671 0.140732 0.000000
O O20 0.203180 0.836455 0.500000
#
# Coordination Sequence:
#
# PCOD8236606 Si02
#       8
#     8   8   8   8   8   8   8   8
#     4   9  19  37  59  84 119 154 188 233 290 347
#     4  10  22  40  59  84 119 155 200 245 290 346
#     4  11  24  41  59  81 114 157 199 247 298 350
#     4   8  16  31  51  79 115 150 179 221 279 339
#     4  10  19  35  57  84 118 154 186 228 290 347
#     4  11  21  35  57  87 120 154 195 240 291 350
#     4  11  23  40  60  85 115 149 196 246 292 348
#     4  10  20  35  60  90 117 154 198 241 286 341
#
# _framework density 19.407758999999999
#
# number of rings (size 3 to 8) (size 9 to 14) (size 15 to 20)
#    0.000    2.000    1.250    3.375    1.750    3.000 
#    0.000    1.250    0.000    3.750    0.000    0.000 
#    0.000    0.000    0.000    0.000    0.000    0.000 
#
# Total GULP energy -793550.527572 kJ/mol
# GULP energy per Si atom -12399.226993 kJ/mol
# Density = 1.936359 g / cm^3
# Si number density = 19.407759 Si / 1000 Ang^3
#
#
#
# Elastic Constant Matrix: (Units=GPa)
#
#
# Indices 1 2 3 4 5 6 
#
# 1 121.9985 48.2286 47.6810 0.0000 0.0000 0.0000
# 2 48.2286 76.1689 31.3907 0.0000 0.0000 0.0000
# 3 47.6810 31.3907 94.8165 0.0000 0.0000 0.0000
# 4 0.0000 0.0000 0.0000 26.2512 0.0000 0.0000
# 5 0.0000 0.0000 0.0000 0.0000 23.7662 0.0000
# 6 0.0000 0.0000 0.0000 0.0000 0.0000 24.1772
#
#
#
# Elastic Compliance Matrix: (Units=1/GPa)
#
#
# Indices 1 2 3 4 5 6 
#
# 1 0.012192 -0.006014 -0.004140 0.000000 0.000000 0.000000
# 2 -0.006014 0.018169 -0.002991 0.000000 0.000000 0.000000
# 3 -0.004140 -0.002991 0.013619 0.000000 0.000000 0.000000
# 4 0.000000 0.000000 0.000000 0.038093 0.000000 0.000000
# 5 0.000000 0.000000 0.000000 0.000000 0.042076 0.000000
# 6 0.000000 0.000000 0.000000 0.000000 0.000000 0.041361
#
#
# Mechanical properties :
#
#
# Convention : Reuss Voigt Hill
#
# Bulk Modulus (GPa) = 56.52792 60.84272 58.68532
# Shear Modulus (GPa) = 25.29104 25.88451 25.58778
#
# Velocity S-wave (km/s) = 3.61382 3.65597 3.63496
# Velocity P-wave (km/s) = 6.82661 7.01707 6.92250
#
# Compressibility (1/GPa) = 0.01769037
#
# Stress axis : x y z
#
# Youngs Moduli (GPa) = 82.01892 55.03845 73.42676
#
# Poissons Ratio (x) = 0.33098 0.30401
# Poissons Ratio (y) = 0.49323 0.21963
# Poissons Ratio (z) = 0.33958 0.16463
#
# Static dielectric constant tensor:
#      x y z
#    x 3.535970 0.000000 0.000000 
#    y 0.000000 3.554310 0.000000 
#    z 0.000000 0.000000 3.447010 
# 
# 
# High freq. dielectric constant tensor:
#      x y z
#    x 1.756680 0.000000 0.000000 
#    y 0.000000 1.748740 0.000000 
#    z 0.000000 0.000000 1.744970 
# 
# From -- ./inp_files/6895.got.cif
#   From: 2010.06.25/outbox.cif.g09.slc.cpg/sg58_4_cif.got.tgz:6895.got - 2010.06.26 21:38:00.
