data_PCOD8236949
_publ_section_title
;
Structure prediction by ZEFSAII (Michael W. Deem and Ramdas Pophale) SiO2 
 PCOD8236949
Probable space group: P N N M
;
_chemical_formula_sum "Si O2"
_cell_formula_units_Z 64
_cell_length_a 15.969199
_cell_length_b 22.114027
_cell_length_c 9.386911
_cell_angle_alpha 90.000000
_cell_angle_beta 90.000000
_cell_angle_gamma 90.000000
_cell_volume 3314.924707
_symmetry_space_group_name_H-M "P N N M"
_symmetry_group_IT_number 58
_symmetry_cell_setting 'orthorhombic'
loop_
_space_group_symop_operation_xyz
x,y,z
-x,-y,z
1/2+x,1/2-y,1/2-z
1/2-x,1/2+y,1/2-z
-x,-y,-z
x,y,-z
1/2-x,1/2+y,1/2+z
1/2+x,1/2-y,1/2+z
loop_
_atom_site_type_symbol
_atom_site_label
_atom_site_fract_x
_atom_site_fract_y
_atom_site_fract_z
Si Si1 0.387471 0.668683 0.165316
Si Si2 0.405875 0.008539 0.838024
Si Si3 0.080615 0.298651 0.338854
Si Si4 0.737633 0.170085 0.663078
Si Si5 0.289270 0.222046 0.666245
Si Si6 0.751856 0.033074 0.662947
Si Si7 0.405225 0.147523 0.844620
Si Si8 0.581892 0.464217 0.829870
O O1 0.443416 0.728436 0.202572
O O2 0.293855 0.686129 0.214685
O O3 0.419091 0.605024 0.233367
O O4 0.387782 0.654594 0.000000
O O5 0.381696 0.078233 0.832543
O O6 0.500000 0.000000 0.774659
O O7 0.334318 0.975268 0.748716
O O8 0.404137 0.983272 0.000000
O O9 0.118937 0.296234 0.500000
O O10 0.145745 0.327540 0.230844
O O11 0.004035 0.343925 0.332324
O O12 0.731709 0.191387 0.500000
O O13 0.797719 0.214830 0.750369
O O14 0.776601 0.103410 0.673799
O O15 0.292889 0.235012 0.500000
O O16 0.366646 0.181536 0.711384
O O17 0.733845 0.014114 0.500000
O O18 0.831428 0.995520 0.723488
O O19 0.375018 0.172263 0.000000
O O20 0.500000 0.500000 0.770480
O O21 0.579586 0.466141 0.000000
#
# Coordination Sequence:
#
# PCOD8236949 Si02
#       8
#     8   8   8   8   8   8   8   8
#     4   8  15  29  49  71  94 126 166 206 252 305
#     4  10  21  36  55  80 111 149 186 219 266 331
#     4   9  18  33  53  75 102 137 173 212 262 321
#     4  10  20  34  52  76 105 134 172 221 272 323
#     4  10  20  34  53  75 102 137 175 217 266 323
#     4  10  21  35  53  79 109 142 179 225 277 323
#     4  10  20  33  51  78 109 138 174 220 267 318
#     4   9  17  30  50  76 103 131 169 215 261 313
#
# _framework density 19.306622999999998
#
# number of rings (size 3 to 8) (size 9 to 14) (size 15 to 20)
#    0.000    2.500    0.000    3.000    0.000    5.250 
#    0.000    3.750    0.000    0.375    0.000    0.000 
#    0.000    0.000    0.000    0.000    0.000    0.000 
#
# Total GULP energy -793155.345973 kJ/mol
# GULP energy per Si atom -12393.052281 kJ/mol
# Density = 1.926268 g / cm^3
# Si number density = 19.306623 Si / 1000 Ang^3
#
#
#
# Elastic Constant Matrix: (Units=GPa)
#
#
# Indices 1 2 3 4 5 6 
#
# 1 62.9226 8.8777 24.9226 0.0000 0.0000 0.0000
# 2 8.8777 79.3029 20.0195 0.0000 0.0000 0.0000
# 3 24.9226 20.0195 67.9563 0.0000 0.0000 0.0000
# 4 0.0000 0.0000 0.0000 23.7437 0.0000 0.0000
# 5 0.0000 0.0000 0.0000 0.0000 26.3658 0.0000
# 6 0.0000 0.0000 0.0000 0.0000 0.0000 28.4518
#
#
#
# Elastic Compliance Matrix: (Units=1/GPa)
#
#
# Indices 1 2 3 4 5 6 
#
# 1 0.018605 -0.000389 -0.006708 0.000000 0.000000 0.000000
# 2 -0.000389 0.013631 -0.003873 0.000000 0.000000 0.000000
# 3 -0.006708 -0.003873 0.018317 0.000000 0.000000 0.000000
# 4 0.000000 0.000000 0.000000 0.042116 0.000000 0.000000
# 5 0.000000 0.000000 0.000000 0.000000 0.037928 0.000000
# 6 0.000000 0.000000 0.000000 0.000000 0.000000 0.035147
#
#
# Mechanical properties :
#
#
# Convention : Reuss Voigt Hill
#
# Bulk Modulus (GPa) = 34.95147 35.31350 35.13248
# Shear Modulus (GPa) = 25.35215 26.13640 25.74427
#
# Velocity S-wave (km/s) = 3.62765 3.68333 3.65559
# Velocity P-wave (km/s) = 5.97404 6.03488 6.00454
#
# Compressibility (1/GPa) = 0.02861110
#
# Stress axis : x y z
#
# Youngs Moduli (GPa) = 53.75025 73.36144 54.59536
#
# Poissons Ratio (x) = 0.02855 0.36625
# Poissons Ratio (y) = 0.02092 0.21144
# Poissons Ratio (z) = 0.36058 0.28412
#
# Static dielectric constant tensor:
#      x y z
#    x 3.383050 0.000000 0.000000 
#    y 0.000000 3.763160 0.000000 
#    z 0.000000 0.000000 3.319270 
# 
# 
# High freq. dielectric constant tensor:
#      x y z
#    x 1.736380 0.000000 0.000000 
#    y 0.000000 1.769090 0.000000 
#    z 0.000000 0.000000 1.719710 
# 
# From -- ./inp_files/8357.got.cif
#   From: 2010.06.25/outbox.cif.g09.slc.cpg/sg58_5_cif.got.tgz:8357.got - 2010.06.26 21:38:00.
