data_PCOD8236139
_publ_section_title
;
Structure prediction by ZEFSAII (Michael W. Deem and Ramdas Pophale) SiO2 
 PCOD8236139
Probable space group: P N N M
;
_chemical_formula_sum "Si O2"
_cell_formula_units_Z 56
_cell_length_a 21.868165
_cell_length_b 14.452118
_cell_length_c 9.359474
_cell_angle_alpha 90.000000
_cell_angle_beta 90.000000
_cell_angle_gamma 90.000000
_cell_volume 2957.980340
_symmetry_space_group_name_H-M "P N N M"
_symmetry_group_IT_number 58
_symmetry_cell_setting 'orthorhombic'
loop_
_space_group_symop_operation_xyz
x,y,z
-x,-y,z
1/2+x,1/2-y,1/2-z
1/2-x,1/2+y,1/2-z
-x,-y,-z
x,y,-z
1/2-x,1/2+y,1/2+z
1/2+x,1/2-y,1/2+z
loop_
_atom_site_type_symbol
_atom_site_label
_atom_site_fract_x
_atom_site_fract_y
_atom_site_fract_z
Si Si1 0.208110 0.325893 0.663524
Si Si2 0.630419 0.305279 0.338718
Si Si3 0.525907 0.153237 0.661633
Si Si4 0.152473 0.836005 0.165848
Si Si5 0.569430 0.491687 0.669541
Si Si6 0.893286 0.530156 0.662971
Si Si7 0.907303 0.320253 0.665545
O O1 0.198437 0.297798 0.500000
O O2 0.188416 0.234594 0.751944
O O3 0.276788 0.359917 0.692622
O O4 0.167480 0.414426 0.706113
O O5 0.653214 0.322916 0.500000
O O6 0.576677 0.231456 0.334776
O O7 0.603941 0.400332 0.270619
O O8 0.505796 0.130220 0.500000
O O9 0.550755 0.060011 0.735748
O O10 0.470136 0.193532 0.750843
O O11 0.109348 0.920045 0.216777
O O12 0.141180 0.748025 0.264708
O O13 0.139554 0.812480 0.000000
O O14 0.500000 0.500000 0.731089
O O15 0.565697 0.482853 0.500000
O O16 0.912954 0.551070 0.500000
O O17 0.880075 0.422556 0.686227
O O18 0.917689 0.296195 0.500000
#
# Coordination Sequence:
#
# PCOD8236139 Si02
#       7
#     8   8   8   8   8   8   8
#     4   9  19  36  54  74 102 135 171 213 262 312
#     4   9  18  33  56  81 103 134 173 212 257 311
#     4  10  19  32  53  81 109 135 167 209 256 307
#     4  10  21  36  54  75 101 135 175 219 264 310
#     4   9  17  32  55  80 104 133 174 222 266 309
#     4   9  19  35  53  74 103 138 173 208 253 310
#     4  11  22  34  51  76 106 139 171 208 256 307
#
# _framework density 18.931837000000002
#
# number of rings (size 3 to 8) (size 9 to 14) (size 15 to 20)
#    0.000    2.429    0.000    2.143    0.000    7.429 
#    0.000    3.571    0.000    1.714    0.000    0.000 
#    0.000    0.000    0.000    0.000    0.000    0.000 
#
# Total GULP energy -694415.773618 kJ/mol
# GULP energy per Si atom -12400.281672 kJ/mol
# Density = 1.888875 g / cm^3
# Si number density = 18.931837 Si / 1000 Ang^3
#
#
#
# Elastic Constant Matrix: (Units=GPa)
#
#
# Indices 1 2 3 4 5 6 
#
# 1 98.3517 34.0220 38.3764 0.0000 0.0000 0.0000
# 2 34.0220 101.9587 39.2679 0.0000 0.0000 0.0000
# 3 38.3764 39.2679 81.8215 0.0000 0.0000 0.0000
# 4 0.0000 0.0000 0.0000 26.9876 0.0000 0.0000
# 5 0.0000 0.0000 0.0000 0.0000 28.3797 0.0000
# 6 0.0000 0.0000 0.0000 0.0000 0.0000 29.3280
#
#
#
# Elastic Compliance Matrix: (Units=1/GPa)
#
#
# Indices 1 2 3 4 5 6 
#
# 1 0.012916 -0.002425 -0.004894 0.000000 0.000000 0.000000
# 2 -0.002425 0.012487 -0.004855 0.000000 0.000000 0.000000
# 3 -0.004894 -0.004855 0.016847 0.000000 0.000000 0.000000
# 4 0.000000 0.000000 0.000000 0.037054 0.000000 0.000000
# 5 0.000000 0.000000 0.000000 0.000000 0.035236 0.000000
# 6 0.000000 0.000000 0.000000 0.000000 0.000000 0.034097
#
#
# Mechanical properties :
#
#
# Convention : Reuss Voigt Hill
#
# Bulk Modulus (GPa) = 55.86144 56.16271 56.01208
# Shear Modulus (GPa) = 27.94005 28.30346 28.12176
#
# Velocity S-wave (km/s) = 3.84581 3.87074 3.85830
# Velocity P-wave (km/s) = 7.02076 7.05032 7.03555
#
# Compressibility (1/GPa) = 0.01790144
#
# Stress axis : x y z
#
# Youngs Moduli (GPa) = 77.42244 80.08288 59.35610
#
# Poissons Ratio (x) = 0.19420 0.29050
# Poissons Ratio (y) = 0.18775 0.28820
# Poissons Ratio (z) = 0.37892 0.38884
#
# Static dielectric constant tensor:
#      x y z
#    x 3.470890 0.000000 0.000000 
#    y 0.000000 3.512910 0.000000 
#    z 0.000000 0.000000 3.527920 
# 
# 
# High freq. dielectric constant tensor:
#      x y z
#    x 1.734550 0.000000 0.000000 
#    y 0.000000 1.738170 0.000000 
#    z 0.000000 0.000000 1.719000 
# 
# From -- ./inp_files/9048.got.cif
#   From: 2010.06.25/outbox.cif.g09.slc.cpg/sg58_5_cif.got.tgz:9048.got - 2010.06.26 21:38:00.
