data_PCOD8236002
_publ_section_title
;
Structure prediction by ZEFSAII (Michael W. Deem and Ramdas Pophale) SiO2 
 PCOD8236002
Probable space group: P N N M
;
_chemical_formula_sum "Si O2"
_cell_formula_units_Z 64
_cell_length_a 22.927844
_cell_length_b 14.256123
_cell_length_c 9.269688
_cell_angle_alpha 90.000000
_cell_angle_beta 90.000000
_cell_angle_gamma 90.000000
_cell_volume 3029.910281
_symmetry_space_group_name_H-M "P N N M"
_symmetry_group_IT_number 58
_symmetry_cell_setting 'orthorhombic'
loop_
_space_group_symop_operation_xyz
x,y,z
-x,-y,z
1/2+x,1/2-y,1/2-z
1/2-x,1/2+y,1/2-z
-x,-y,-z
x,y,-z
1/2-x,1/2+y,1/2+z
1/2+x,1/2-y,1/2+z
loop_
_atom_site_type_symbol
_atom_site_label
_atom_site_fract_x
_atom_site_fract_y
_atom_site_fract_z
Si Si1 0.177028 0.371659 0.835866
Si Si2 0.421881 0.145280 0.663869
Si Si3 0.712507 0.334178 0.333957
Si Si4 0.324367 0.049953 0.165085
Si Si5 0.862826 0.982099 0.337729
Si Si6 0.525640 0.364954 0.837412
Si Si7 0.550265 0.190442 0.335977
Si Si8 0.410539 0.361436 0.333081
O O1 0.203584 0.272769 0.780595
O O2 0.202148 0.456982 0.741067
O O3 0.106600 0.375239 0.821550
O O4 0.196529 0.388513 0.000000
O O5 0.409782 0.113885 0.500000
O O6 0.386197 0.077303 0.767166
O O7 0.490620 0.134823 0.701385
O O8 0.399888 0.251325 0.688998
O O9 0.691424 0.342824 0.500000
O O10 0.779857 0.363521 0.316963
O O11 0.674812 0.402403 0.236579
O O12 0.334992 0.024211 0.000000
O O13 0.839507 0.998769 0.500000
O O14 0.930353 0.951720 0.341005
O O15 0.859857 0.079819 0.248799
O O16 0.559812 0.275443 0.774022
O O17 0.472433 0.389661 0.733865
O O18 0.503447 0.342882 0.000000
O O19 0.544563 0.229906 0.500000
O O20 0.410130 0.390002 0.500000
#
# Coordination Sequence:
#
# PCOD8236002 Si02
#       8
#     8   8   8   8   8   8   8   8
#     4  10  21  41  68  91 116 155 202 251 300 357
#     4   9  20  39  60  86 119 157 203 250 297 353
#     4  10  23  43  64  86 116 157 206 251 294 358
#     4  11  25  42  62  91 123 156 197 245 302 364
#     4  11  22  34  54  86 120 156 199 250 306 355
#     4  10  19  31  50  83 124 158 195 245 302 357
#     4   9  18  35  62  90 116 156 206 249 298 361
#     4  10  21  35  55  83 119 164 206 242 291 356
#
# _framework density 21.122737999999998
#
# number of rings (size 3 to 8) (size 9 to 14) (size 15 to 20)
#    0.000    2.000    1.250    2.625    0.000    9.000 
#    0.000    5.000    0.000    0.000    0.000    0.000 
#    0.000    0.000    0.000    0.000    0.000    0.000 
#
# Total GULP energy -793637.520123 kJ/mol
# GULP energy per Si atom -12400.586252 kJ/mol
# Density = 2.107466 g / cm^3
# Si number density = 21.122738 Si / 1000 Ang^3
#
#
#
# Elastic Constant Matrix: (Units=GPa)
#
#
# Indices 1 2 3 4 5 6 
#
# 1 52.5436 30.4755 25.1157 0.0000 0.0000 0.0000
# 2 30.4755 85.9880 44.6005 0.0000 0.0000 0.0000
# 3 25.1157 44.6005 112.2190 0.0000 0.0000 0.0000
# 4 0.0000 0.0000 0.0000 30.8077 0.0000 0.0000
# 5 0.0000 0.0000 0.0000 0.0000 22.7773 0.0000
# 6 0.0000 0.0000 0.0000 0.0000 0.0000 25.2452
#
#
#
# Elastic Compliance Matrix: (Units=1/GPa)
#
#
# Indices 1 2 3 4 5 6 
#
# 1 0.024528 -0.007364 -0.002563 0.000000 0.000000 0.000000
# 2 -0.007364 0.016860 -0.005053 0.000000 0.000000 0.000000
# 3 -0.002563 -0.005053 0.011493 0.000000 0.000000 0.000000
# 4 0.000000 0.000000 0.000000 0.032459 0.000000 0.000000
# 5 0.000000 0.000000 0.000000 0.000000 0.043903 0.000000
# 6 0.000000 0.000000 0.000000 0.000000 0.000000 0.039611
#
#
# Mechanical properties :
#
#
# Convention : Reuss Voigt Hill
#
# Bulk Modulus (GPa) = 43.62619 50.12600 46.87610
# Shear Modulus (GPa) = 24.21835 25.80330 25.01083
#
# Velocity S-wave (km/s) = 3.38975 3.49892 3.44477
# Velocity P-wave (km/s) = 6.00159 6.33289 6.16947
#
# Compressibility (1/GPa) = 0.02292201
#
# Stress axis : x y z
#
# Youngs Moduli (GPa) = 40.76990 59.31139 87.00968
#
# Poissons Ratio (x) = 0.43675 0.22300
# Poissons Ratio (y) = 0.30022 0.43965
# Poissons Ratio (z) = 0.10449 0.29969
#
# Static dielectric constant tensor:
#      x y z
#    x 3.651300 0.000000 0.000000 
#    y 0.000000 3.745570 0.000000 
#    z 0.000000 0.000000 3.909080 
# 
# 
# High freq. dielectric constant tensor:
#      x y z
#    x 1.815320 0.000000 0.000000 
#    y 0.000000 1.824820 0.000000 
#    z 0.000000 0.000000 1.827720 
# 
# From -- ./inp_files/9982.got.cif
#   From: 2010.06.25/outbox.cif.g09.slc.cpg/sg58_5_cif.got.tgz:9982.got - 2010.06.26 21:38:00.
