data_PCOD8236618
_publ_section_title
;
Structure prediction by ZEFSAII (Michael W. Deem and Ramdas Pophale) SiO2 
 PCOD8236618
Probable space group: P N N M
;
_chemical_formula_sum "Si O2"
_cell_formula_units_Z 48
_cell_length_a 13.503631
_cell_length_b 19.032203
_cell_length_c 9.787034
_cell_angle_alpha 90.000000
_cell_angle_beta 90.000000
_cell_angle_gamma 90.000000
_cell_volume 2515.305383
_symmetry_space_group_name_H-M "P N N M"
_symmetry_group_IT_number 58
_symmetry_cell_setting 'orthorhombic'
loop_
_space_group_symop_operation_xyz
x,y,z
-x,-y,z
1/2+x,1/2-y,1/2-z
1/2-x,1/2+y,1/2-z
-x,-y,-z
x,y,-z
1/2-x,1/2+y,1/2+z
1/2+x,1/2-y,1/2+z
loop_
_atom_site_type_symbol
_atom_site_label
_atom_site_fract_x
_atom_site_fract_y
_atom_site_fract_z
Si Si1 0.608629 0.007765 0.340442
Si Si2 0.389929 0.483711 0.351926
Si Si3 0.900014 0.775837 0.344224
Si Si4 0.320474 0.840840 0.345391
Si Si5 0.714790 0.413171 0.156692
Si Si6 0.899412 0.144786 0.346073
O O1 0.593273 0.014889 0.500000
O O2 0.665784 0.078493 0.290728
O O3 0.500000 0.000000 0.270391
O O4 0.672921 0.937487 0.307167
O O5 0.500000 0.500000 0.391147
O O6 0.333417 0.476677 0.500000
O O7 0.355454 0.548364 0.261544
O O8 0.383188 0.413979 0.265266
O O9 0.900900 0.749646 0.500000
O O10 0.885778 0.709349 0.248224
O O11 0.808980 0.830776 0.323089
O O12 0.007486 0.807350 0.305427
O O13 0.361113 0.834848 0.500000
O O14 0.206053 0.815083 0.341838
O O15 0.689897 0.435077 0.000000
O O16 0.916663 0.114203 0.500000
#
# Coordination Sequence:
#
# PCOD8236618 Si02
#       6
#     8   8   8   8   8   8
#     4   9  18  34  58  85 109 143 195 239 273 327
#     4  11  21  31  52  87 116 137 172 231 289 331
#     4  10  22  36  56  84 114 148 190 237 281 338
#     4  10  21  37  58  82 113 151 187 233 286 336
#     4  10  19  35  58  81 109 149 192 230 272 335
#     4  10  20  37  58  80 107 149 191 225 278 343
#
# _framework density 19.083169000000002
#
# number of rings (size 3 to 8) (size 9 to 14) (size 15 to 20)
#    0.000    2.000    3.333    0.500    0.000    4.000 
#    0.000    1.667    0.000    2.000    0.000    0.000 
#    0.000    0.000    0.000    0.000    0.000    0.000 
#
# Total GULP energy -594692.523018 kJ/mol
# GULP energy per Si atom -12389.427563 kJ/mol
# Density = 1.903974 g / cm^3
# Si number density = 19.083169 Si / 1000 Ang^3
#
#
#
# Elastic Constant Matrix: (Units=GPa)
#
#
# Indices 1 2 3 4 5 6 
#
# 1 106.6606 27.3901 4.9798 0.0000 0.0000 0.0000
# 2 27.3901 66.7116 22.3501 0.0000 0.0000 0.0000
# 3 4.9798 22.3501 71.4192 0.0000 0.0000 0.0000
# 4 0.0000 0.0000 0.0000 31.6340 0.0000 0.0000
# 5 0.0000 0.0000 0.0000 0.0000 22.9545 0.0000
# 6 0.0000 0.0000 0.0000 0.0000 0.0000 24.3645
#
#
#
# Elastic Compliance Matrix: (Units=1/GPa)
#
#
# Indices 1 2 3 4 5 6 
#
# 1 0.010511 -0.004547 0.000690 0.000000 0.000000 0.000000
# 2 -0.004547 0.018712 -0.005539 0.000000 0.000000 0.000000
# 3 0.000690 -0.005539 0.015687 0.000000 0.000000 0.000000
# 4 0.000000 0.000000 0.000000 0.031612 0.000000 0.000000
# 5 0.000000 0.000000 0.000000 0.000000 0.043564 0.000000
# 6 0.000000 0.000000 0.000000 0.000000 0.000000 0.041043
#
#
# Mechanical properties :
#
#
# Convention : Reuss Voigt Hill
#
# Bulk Modulus (GPa) = 38.28610 39.35907 38.82258
# Shear Modulus (GPa) = 26.50734 28.46203 27.48468
#
# Velocity S-wave (km/s) = 3.73103 3.86615 3.79919
# Velocity P-wave (km/s) = 6.21829 6.37176 6.29549
#
# Compressibility (1/GPa) = 0.02611914
#
# Stress axis : x y z
#
# Youngs Moduli (GPa) = 95.13945 53.44084 63.74684
#
# Poissons Ratio (x) = 0.24298 -0.04398
# Poissons Ratio (y) = 0.43257 0.35308
# Poissons Ratio (z) = -0.06564 0.29600
#
# Static dielectric constant tensor:
#      x y z
#    x 3.757000 0.000000 0.000000 
#    y 0.000000 3.224870 0.000000 
#    z 0.000000 0.000000 3.453700 
# 
# 
# High freq. dielectric constant tensor:
#      x y z
#    x 1.744920 0.000000 0.000000 
#    y 0.000000 1.718190 0.000000 
#    z 0.000000 0.000000 1.731990 
# 
# From -- ./inp_files/5804.got.cif
#   From: 2010.06.25/outbox.cif.g09.slc.cpg/sg58_3_cif.got.tgz:5804.got - 2010.06.26 21:38:00.
