data_PCOD8236138
_publ_section_title
;
Structure prediction by ZEFSAII (Michael W. Deem and Ramdas Pophale) SiO2 
 PCOD8236138
Probable space group: P N N M
;
_chemical_formula_sum "Si O2"
_cell_formula_units_Z 64
_cell_length_a 14.085283
_cell_length_b 27.017914
_cell_length_c 9.132827
_cell_angle_alpha 90.000000
_cell_angle_beta 90.000000
_cell_angle_gamma 90.000000
_cell_volume 3475.542657
_symmetry_space_group_name_H-M "P N N M"
_symmetry_group_IT_number 58
_symmetry_cell_setting 'orthorhombic'
loop_
_space_group_symop_operation_xyz
x,y,z
-x,-y,z
1/2+x,1/2-y,1/2-z
1/2-x,1/2+y,1/2-z
-x,-y,-z
x,y,-z
1/2-x,1/2+y,1/2+z
1/2+x,1/2-y,1/2+z
loop_
_atom_site_type_symbol
_atom_site_label
_atom_site_fract_x
_atom_site_fract_y
_atom_site_fract_z
Si Si1 0.200392 0.513507 0.161992
Si Si2 0.102474 0.692037 0.823761
Si Si3 0.626347 0.089269 0.742454
Si Si4 0.585573 0.907601 0.833661
Si Si5 0.898810 0.694441 0.158033
Si Si6 0.828120 0.119119 0.835060
Si Si7 0.300850 0.282430 0.176522
Si Si8 0.901968 0.026356 0.671019
O O1 0.152328 0.459496 0.152698
O O2 0.144038 0.544614 0.282011
O O3 0.311887 0.509394 0.204813
O O4 0.189971 0.537212 0.000000
O O5 0.123626 0.636876 0.768257
O O6 0.167762 0.731083 0.744205
O O7 0.997484 0.706583 0.762490
O O8 0.111534 0.693820 0.000000
O O9 0.527559 0.081832 0.830034
O O10 0.610633 0.135169 0.633676
O O11 0.716922 0.103611 0.843348
O O12 0.613952 0.895965 0.000000
O O13 0.807264 0.716104 0.238134
O O14 0.903433 0.719653 0.000000
O O15 0.851180 0.169103 0.743108
O O16 0.892085 0.076567 0.762567
O O17 0.863724 0.127886 0.000000
O O18 0.309382 0.283609 0.000000
O O19 0.902902 0.040375 0.500000
O O20 0.000000 0.000000 0.718085
#
# Coordination Sequence:
#
# PCOD8236138 Si02
#       8
#     8   8   8   8   8   8   8   8
#     4  10  20  33  52  77 103 134 172 210 250 299
#     4  10  20  36  55  75 101 134 172 212 255 301
#     4   9  18  31  51  76 106 136 166 203 246 296
#     4  11  22  34  49  73 107 142 171 202 248 305
#     4   8  16  31  52  76 101 130 164 204 250 299
#     4  10  19  32  53  81 106 130 167 211 253 298
#     4  10  19  34  55  78 103 131 166 209 256 302
#     4   9  19  37  57  75 100 135 173 214 259 302
#
# _framework density 18.414390999999998
#
# number of rings (size 3 to 8) (size 9 to 14) (size 15 to 20)
#    0.000    2.375    0.000    2.625    0.000    8.250 
#    0.000    3.125    0.000    0.000    0.000    0.000 
#    0.000    0.000    0.000    0.000    0.000    0.000 
#
# Total GULP energy -792918.418898 kJ/mol
# GULP energy per Si atom -12389.350295 kJ/mol
# Density = 1.837248 g / cm^3
# Si number density = 18.414391 Si / 1000 Ang^3
#
#
#
# Elastic Constant Matrix: (Units=GPa)
#
#
# Indices 1 2 3 4 5 6 
#
# 1 90.3700 48.6596 24.7792 0.0000 0.0000 0.0000
# 2 48.6596 79.9692 28.1227 0.0000 0.0000 0.0000
# 3 24.7792 28.1227 94.2165 0.0000 0.0000 0.0000
# 4 0.0000 0.0000 0.0000 30.0691 0.0000 0.0000
# 5 0.0000 0.0000 0.0000 0.0000 14.8040 0.0000
# 6 0.0000 0.0000 0.0000 0.0000 0.0000 30.9428
#
#
#
# Elastic Compliance Matrix: (Units=1/GPa)
#
#
# Indices 1 2 3 4 5 6 
#
# 1 0.016649 -0.009598 -0.001514 0.000000 0.000000 0.000000
# 2 -0.009598 0.019505 -0.003298 0.000000 0.000000 0.000000
# 3 -0.001514 -0.003298 0.011996 0.000000 0.000000 0.000000
# 4 0.000000 0.000000 0.000000 0.033257 0.000000 0.000000
# 5 0.000000 0.000000 0.000000 0.000000 0.067549 0.000000
# 6 0.000000 0.000000 0.000000 0.000000 0.000000 0.032318
#
#
# Mechanical properties :
#
#
# Convention : Reuss Voigt Hill
#
# Bulk Modulus (GPa) = 51.73083 51.96430 51.84756
# Shear Modulus (GPa) = 23.09084 26.02947 24.56015
#
# Velocity S-wave (km/s) = 3.54497 3.76379 3.65601
# Velocity P-wave (km/s) = 6.70144 6.86795 6.78521
#
# Compressibility (1/GPa) = 0.01933083
#
# Stress axis : x y z
#
# Youngs Moduli (GPa) = 60.06451 51.26955 83.35910
#
# Poissons Ratio (x) = 0.49209 0.12618
# Poissons Ratio (y) = 0.57651 0.27489
# Poissons Ratio (z) = 0.09092 0.16907
#
# Static dielectric constant tensor:
#      x y z
#    x 3.494640 0.000000 0.000000 
#    y 0.000000 3.227420 0.000000 
#    z 0.000000 0.000000 3.207370 
# 
# 
# High freq. dielectric constant tensor:
#      x y z
#    x 1.706640 0.000000 0.000000 
#    y 0.000000 1.703820 0.000000 
#    z 0.000000 0.000000 1.707640 
# 
# From -- ./inp_files/6748.got.cif
#   From: 2010.06.25/outbox.cif.g09.slc.cpg/sg58_4_cif.got.tgz:6748.got - 2010.06.26 21:38:00.
