data_PCOD8236891
_publ_section_title
;
Structure prediction by ZEFSAII (Michael W. Deem and Ramdas Pophale) SiO2 
 PCOD8236891
Probable space group: P N N M
;
_chemical_formula_sum "Si O2"
_cell_formula_units_Z 64
_cell_length_a 15.470297
_cell_length_b 8.899995
_cell_length_c 25.847705
_cell_angle_alpha 90.000000
_cell_angle_beta 90.000000
_cell_angle_gamma 90.000000
_cell_volume 3558.855891
_symmetry_space_group_name_H-M "P N N M"
_symmetry_group_IT_number 58
_symmetry_cell_setting 'orthorhombic'
loop_
_space_group_symop_operation_xyz
x,y,z
-x,-y,z
1/2+x,1/2-y,1/2-z
1/2-x,1/2+y,1/2-z
-x,-y,-z
x,y,-z
1/2-x,1/2+y,1/2+z
1/2+x,1/2-y,1/2+z
loop_
_atom_site_type_symbol
_atom_site_label
_atom_site_fract_x
_atom_site_fract_y
_atom_site_fract_z
Si Si1 0.783420 0.481820 0.374052
Si Si2 0.079551 0.397839 0.439634
Si Si3 0.406094 0.561281 0.057425
Si Si4 0.326758 0.377652 0.699554
Si Si5 0.322351 0.351013 0.142610
Si Si6 0.586637 0.078700 0.786267
Si Si7 0.031652 0.842637 0.275103
Si Si8 0.277252 0.047077 0.718131
O O1 0.826509 0.526997 0.428646
O O2 0.689692 0.558421 0.359295
O O3 0.775844 0.302439 0.374397
O O4 0.846867 0.562884 0.332831
O O5 0.064496 0.384596 0.500000
O O6 0.083541 0.227644 0.416929
O O7 0.000000 0.500000 0.416518
O O8 0.500000 0.500000 0.049195
O O9 0.356140 0.444505 0.093878
O O10 0.361264 0.568581 0.000000
O O11 0.426404 0.351959 0.716862
O O12 0.289326 0.509268 0.736128
O O13 0.272689 0.224433 0.707667
O O14 0.394961 0.293077 0.183616
O O15 0.249340 0.455701 0.167460
O O16 0.556591 0.247814 0.773788
O O17 0.625649 0.001238 0.734705
O O18 0.500000 0.000000 0.804143
O O19 0.000000 0.000000 0.296248
#
# Coordination Sequence:
#
# PCOD8236891 Si02
#       8
#     8   8   8   8   8   8   8   8
#     4  11  22  32  51  68  99 130 167 202 244 296
#     4  10  21  35  52  73  98 129 163 205 248 285
#     4  10  21  35  51  72  99 127 165 208 241 285
#     4  10  20  34  45  69  94 128 163 203 246 288
#     4  11  22  34  48  72  96 134 167 200 247 289
#     4  11  19  34  47  69  96 130 166 202 239 287
#     4  11  23  30  48  71  98 129 167 203 240 290
#     4  10  20  32  49  64  96 127 162 204 243 289
#
# _framework density 17.983308000000001
#
# number of rings (size 3 to 8) (size 9 to 14) (size 15 to 20)
#    0.000    1.500    2.500    4.500   12.250    1.500 
#    0.000    0.000    0.000    0.000    0.000    0.000 
#    0.000    2.000    0.000    0.125    0.000    0.000 
#
# Total GULP energy -792861.797894 kJ/mol
# GULP energy per Si atom -12388.465592 kJ/mol
# Density = 1.794238 g / cm^3
# Si number density = 17.983308 Si / 1000 Ang^3
#
#
#
# Elastic Constant Matrix: (Units=GPa)
#
#
# Indices 1 2 3 4 5 6 
#
# 1 25.8217 3.0564 13.4234 0.0000 0.0000 0.0000
# 2 3.0564 111.6704 13.0573 0.0000 0.0000 0.0000
# 3 13.4234 13.0573 39.6486 0.0000 0.0000 0.0000
# 4 0.0000 0.0000 0.0000 33.0271 0.0000 0.0000
# 5 0.0000 0.0000 0.0000 0.0000 28.7233 0.0000
# 6 0.0000 0.0000 0.0000 0.0000 0.0000 26.3221
#
#
#
# Elastic Compliance Matrix: (Units=1/GPa)
#
#
# Indices 1 2 3 4 5 6 
#
# 1 0.047037 0.000598 -0.016122 0.000000 0.000000 0.000000
# 2 0.000598 0.009321 -0.003272 0.000000 0.000000 0.000000
# 3 -0.016122 -0.003272 0.031757 0.000000 0.000000 0.000000
# 4 0.000000 0.000000 0.000000 0.030278 0.000000 0.000000
# 5 0.000000 0.000000 0.000000 0.000000 0.034815 0.000000
# 6 0.000000 0.000000 0.000000 0.000000 0.000000 0.037991
#
#
# Mechanical properties :
#
#
# Convention : Reuss Voigt Hill
#
# Bulk Modulus (GPa) = 19.79275 26.24609 23.01942
# Shear Modulus (GPa) = 20.35556 27.45475 23.90516
#
# Velocity S-wave (km/s) = 3.36804 3.91151 3.64991
# Velocity P-wave (km/s) = 5.11420 5.91830 5.53088
#
# Compressibility (1/GPa) = 0.05052355
#
# Stress axis : x y z
#
# Youngs Moduli (GPa) = 21.25971 107.28287 31.48885
#
# Poissons Ratio (x) = -0.06412 0.50766
# Poissons Ratio (y) = -0.01271 0.10303
# Poissons Ratio (z) = 0.34274 0.35103
#
# Static dielectric constant tensor:
#      x y z
#    x 2.109090 0.000000 0.000000 
#    y 0.000000 4.909080 0.000000 
#    z 0.000000 0.000000 3.443390 
# 
# 
# High freq. dielectric constant tensor:
#      x y z
#    x 1.659770 0.000000 0.000000 
#    y 0.000000 1.728060 0.000000 
#    z 0.000000 0.000000 1.659620 
# 
# From -- ./inp_files/32343.got.cif
#   From: 2010.06.25/outbox.cif.g09.slc.cpg/sg58_17_cif.got.tgz:32343.got - 2010.06.26 21:38:00.
