data_PCOD8236189
_publ_section_title
;
Structure prediction by ZEFSAII (Michael W. Deem and Ramdas Pophale) SiO2 
 PCOD8236189
Probable space group: P N N M
;
_chemical_formula_sum "Si O2"
_cell_formula_units_Z 48
_cell_length_a 11.578684
_cell_length_b 17.290633
_cell_length_c 13.731886
_cell_angle_alpha 90.000000
_cell_angle_beta 90.000000
_cell_angle_gamma 90.000000
_cell_volume 2749.161692
_symmetry_space_group_name_H-M "P N N M"
_symmetry_group_IT_number 58
_symmetry_cell_setting 'orthorhombic'
loop_
_space_group_symop_operation_xyz
x,y,z
-x,-y,z
1/2+x,1/2-y,1/2-z
1/2-x,1/2+y,1/2-z
-x,-y,-z
x,y,-z
1/2-x,1/2+y,1/2+z
1/2+x,1/2-y,1/2+z
loop_
_atom_site_type_symbol
_atom_site_label
_atom_site_fract_x
_atom_site_fract_y
_atom_site_fract_z
Si Si1 0.408085 0.704732 0.889636
Si Si2 0.664231 0.871899 0.612134
Si Si3 0.417457 0.431138 0.888867
Si Si4 0.508755 0.159710 0.237207
Si Si5 0.385073 0.049411 0.106158
Si Si6 0.808526 0.530280 0.216082
O O1 0.294277 0.655498 0.867393
O O2 0.518884 0.650223 0.879358
O O3 0.417117 0.770518 0.807405
O O4 0.402416 0.739095 0.000000
O O5 0.630747 0.864088 0.500000
O O6 0.574533 0.817729 0.672248
O O7 0.653379 0.961526 0.643701
O O8 0.500000 0.500000 0.853937
O O9 0.307872 0.428581 0.818328
O O10 0.377276 0.446586 0.000000
O O11 0.422784 0.130920 0.152088
O O12 0.591798 0.093885 0.279890
O O13 0.500000 0.000000 0.095822
O O14 0.292765 0.005879 0.175496
O O15 0.328012 0.062609 0.000000
#
# Coordination Sequence:
#
# PCOD8236189 Si02
#       6
#     8   8   8   8   8   8
#     4  10  21  36  55  77 107 145 182 222 264 322
#     4  10  20  36  56  81 111 142 179 223 272 324
#     4  10  19  34  55  78 105 141 183 221 264 321
#     4  10  21  32  54  82 109 140 172 223 278 320
#     4   8  15  30  50  75 102 132 175 215 254 310
#     4  10  19  32  55  84 105 137 180 227 272 317
#
# _framework density 17.459869000000001
#
# number of rings (size 3 to 8) (size 9 to 14) (size 15 to 20)
#    0.000    2.333    1.667    2.500    2.333    2.667 
#    0.000    0.000    0.000    1.500    0.000    0.000 
#    0.000    0.000    0.000    0.000    0.000    0.000 
#
# Total GULP energy -595011.378670 kJ/mol
# GULP energy per Si atom -12396.070389 kJ/mol
# Density = 1.742013 g / cm^3
# Si number density = 17.459869 Si / 1000 Ang^3
#
#
#
# Elastic Constant Matrix: (Units=GPa)
#
#
# Indices 1 2 3 4 5 6 
#
# 1 83.9681 26.3657 58.6268 0.0000 0.0000 0.0000
# 2 26.3657 69.9078 37.8472 0.0000 0.0000 0.0000
# 3 58.6268 37.8472 130.7353 0.0000 0.0000 0.0000
# 4 0.0000 0.0000 0.0000 23.2595 0.0000 0.0000
# 5 0.0000 0.0000 0.0000 0.0000 28.4552 0.0000
# 6 0.0000 0.0000 0.0000 0.0000 0.0000 21.5906
#
#
#
# Elastic Compliance Matrix: (Units=1/GPa)
#
#
# Indices 1 2 3 4 5 6 
#
# 1 0.017800 -0.002836 -0.007161 0.000000 0.000000 0.000000
# 2 -0.002836 0.017415 -0.003770 0.000000 0.000000 0.000000
# 3 -0.007161 -0.003770 0.011952 0.000000 0.000000 0.000000
# 4 0.000000 0.000000 0.000000 0.042993 0.000000 0.000000
# 5 0.000000 0.000000 0.000000 0.000000 0.035143 0.000000
# 6 0.000000 0.000000 0.000000 0.000000 0.000000 0.046316
#
#
# Mechanical properties :
#
#
# Convention : Reuss Voigt Hill
#
# Bulk Modulus (GPa) = 50.93589 58.92116 54.92852
# Shear Modulus (GPa) = 24.30759 25.44583 24.87671
#
# Velocity S-wave (km/s) = 3.73526 3.82172 3.77874
# Velocity P-wave (km/s) = 6.91660 7.30027 7.11102
#
# Compressibility (1/GPa) = 0.01963252
#
# Stress axis : x y z
#
# Youngs Moduli (GPa) = 56.18075 57.42136 83.67066
#
# Poissons Ratio (x) = 0.16286 0.59916
# Poissons Ratio (y) = 0.15934 0.31541
# Poissons Ratio (z) = 0.40231 0.21646
#
# Static dielectric constant tensor:
#      x y z
#    x 3.174500 0.000000 0.000000 
#    y 0.000000 3.113450 0.000000 
#    z 0.000000 0.000000 3.551290 
# 
# 
# High freq. dielectric constant tensor:
#      x y z
#    x 1.660130 0.000000 0.000000 
#    y 0.000000 1.659610 0.000000 
#    z 0.000000 0.000000 1.678100 
# 
# From -- ./inp_files/21145.got.cif
#   From: 2010.06.25/outbox.cif.g09.slc.cpg/sg58_11_cif.got.tgz:21145.got - 2010.06.26 21:38:00.
