data_PCOD8236579
_publ_section_title
;
Structure prediction by ZEFSAII (Michael W. Deem and Ramdas Pophale) SiO2 
 PCOD8236579
Probable space group: P N N M
;
_chemical_formula_sum "Si O2"
_cell_formula_units_Z 48
_cell_length_a 27.213603
_cell_length_b 5.032996
_cell_length_c 16.863345
_cell_angle_alpha 90.000000
_cell_angle_beta 90.000000
_cell_angle_gamma 90.000000
_cell_volume 2309.704153
_symmetry_space_group_name_H-M "P N N M"
_symmetry_group_IT_number 58
_symmetry_cell_setting 'orthorhombic'
loop_
_space_group_symop_operation_xyz
x,y,z
-x,-y,z
1/2+x,1/2-y,1/2-z
1/2-x,1/2+y,1/2-z
-x,-y,-z
x,y,-z
1/2-x,1/2+y,1/2+z
1/2+x,1/2-y,1/2+z
loop_
_atom_site_type_symbol
_atom_site_label
_atom_site_fract_x
_atom_site_fract_y
_atom_site_fract_z
Si Si1 0.693872 0.416785 0.332631
Si Si2 0.150825 0.584369 0.909942
Si Si3 0.655274 0.438585 0.156877
Si Si4 0.945293 0.035741 0.271682
Si Si5 0.054049 0.464692 0.166579
Si Si6 0.703257 0.940410 0.090899
O O1 0.659946 0.614381 0.383468
O O2 0.682713 0.462806 0.240866
O O3 0.750453 0.478027 0.351026
O O4 0.682477 0.112971 0.355413
O O5 0.093138 0.521034 0.902059
O O6 0.167481 0.544699 0.000000
O O7 0.596634 0.483080 0.163312
O O8 0.678879 0.653162 0.098531
O O9 0.662694 0.153207 0.117318
O O10 0.938621 0.334492 0.240112
O O11 0.938183 0.832951 0.198493
O O12 0.000000 0.000000 0.309083
O O13 0.000000 0.500000 0.129038
O O14 0.719830 0.982442 0.000000
#
# Coordination Sequence:
#
# PCOD8236579 Si02
#       6
#     8   8   8   8   8   8
#     4  12  24  42  62  90 121 166 213 245 292 363
#     4  12  22  36  58  86 127 168 203 254 301 352
#     4  12  22  42  69  90 121 159 211 252 295 365
#     4  10  20  37  64  91 118 153 201 256 304 354
#     4  10  19  35  55  83 121 159 201 252 303 354
#     4  12  26  42  62  93 128 161 199 254 314 360
#
# _framework density 20.781880000000001
#
# number of rings (size 3 to 8) (size 9 to 14) (size 15 to 20)
#    0.000    0.667    3.333    6.000    0.000    0.333 
#    0.000    0.000    0.000    8.000    0.000    0.000 
#    0.000    0.000    0.000    0.000    0.000    0.000 
#
# Total GULP energy -595501.055140 kJ/mol
# GULP energy per Si atom -12406.271982 kJ/mol
# Density = 2.073458 g / cm^3
# Si number density = 20.781880 Si / 1000 Ang^3
#
#
#
# Elastic Constant Matrix: (Units=GPa)
#
#
# Indices 1 2 3 4 5 6 
#
# 1 99.6103 13.7300 32.0917 0.0000 0.0000 0.0000
# 2 13.7300 82.6888 14.1239 0.0000 0.0000 0.0000
# 3 32.0917 14.1239 65.4094 0.0000 0.0000 0.0000
# 4 0.0000 0.0000 0.0000 25.3061 0.0000 0.0000
# 5 0.0000 0.0000 0.0000 0.0000 15.6420 0.0000
# 6 0.0000 0.0000 0.0000 0.0000 0.0000 32.3987
#
#
#
# Elastic Compliance Matrix: (Units=1/GPa)
#
#
# Indices 1 2 3 4 5 6 
#
# 1 0.012007 -0.001025 -0.005670 0.000000 0.000000 0.000000
# 2 -0.001025 0.012644 -0.002227 0.000000 0.000000 0.000000
# 3 -0.005670 -0.002227 0.018551 0.000000 0.000000 0.000000
# 4 0.000000 0.000000 0.000000 0.039516 0.000000 0.000000
# 5 0.000000 0.000000 0.000000 0.000000 0.063930 0.000000
# 6 0.000000 0.000000 0.000000 0.000000 0.000000 0.030865
#
#
# Mechanical properties :
#
#
# Convention : Reuss Voigt Hill
#
# Bulk Modulus (GPa) = 39.43543 40.84442 40.13992
# Shear Modulus (GPa) = 24.53252 27.18688 25.85970
#
# Velocity S-wave (km/s) = 3.43953 3.62083 3.53135
# Velocity P-wave (km/s) = 5.89838 6.09730 5.99867
#
# Compressibility (1/GPa) = 0.02535791
#
# Stress axis : x y z
#
# Youngs Moduli (GPa) = 83.28451 79.08762 53.90570
#
# Poissons Ratio (x) = 0.08109 0.30562
# Poissons Ratio (y) = 0.08539 0.12006
# Poissons Ratio (z) = 0.47219 0.17615
#
# Static dielectric constant tensor:
#      x y z
#    x 4.015980 0.000000 0.000000 
#    y 0.000000 3.948730 0.000000 
#    z 0.000000 0.000000 3.377970 
# 
# 
# High freq. dielectric constant tensor:
#      x y z
#    x 1.825130 0.000000 0.000000 
#    y 0.000000 1.836220 0.000000 
#    z 0.000000 0.000000 1.774190 
# 
# From -- ./inp_files/18596.got.cif
#   From: 2010.06.25/outbox.cif.g09.slc.cpg/sg58_10_cif.got.tgz:18596.got - 2010.06.26 21:38:00.
