data_PCOD8236948
_publ_section_title
;
Structure prediction by ZEFSAII (Michael W. Deem and Ramdas Pophale) SiO2 
 PCOD8236948
Probable space group: P N N M
;
_chemical_formula_sum "Si O2"
_cell_formula_units_Z 64
_cell_length_a 20.244132
_cell_length_b 19.458594
_cell_length_c 8.942324
_cell_angle_alpha 90.000000
_cell_angle_beta 90.000000
_cell_angle_gamma 90.000000
_cell_volume 3522.581244
_symmetry_space_group_name_H-M "P N N M"
_symmetry_group_IT_number 58
_symmetry_cell_setting 'orthorhombic'
loop_
_space_group_symop_operation_xyz
x,y,z
-x,-y,z
1/2+x,1/2-y,1/2-z
1/2-x,1/2+y,1/2-z
-x,-y,-z
x,y,-z
1/2-x,1/2+y,1/2+z
1/2+x,1/2-y,1/2+z
loop_
_atom_site_type_symbol
_atom_site_label
_atom_site_fract_x
_atom_site_fract_y
_atom_site_fract_z
Si Si1 0.272401 0.923373 0.827587
Si Si2 0.075540 0.209643 0.328895
Si Si3 0.271301 0.060460 0.670867
Si Si4 0.188444 0.710099 0.824653
Si Si5 0.618457 0.438631 0.828627
Si Si6 0.309824 0.788092 0.676333
Si Si7 0.425506 0.290243 0.171878
Si Si8 0.383006 0.424058 0.327446
O O1 0.310682 0.866204 0.733393
O O2 0.194709 0.914943 0.798371
O O3 0.296559 0.998429 0.774453
O O4 0.290840 0.914470 0.000000
O O5 0.100499 0.217651 0.500000
O O6 0.078605 0.129448 0.283102
O O7 0.120909 0.254398 0.221133
O O8 0.000634 0.235345 0.310970
O O9 0.282525 0.038282 0.500000
O O10 0.311875 0.129016 0.710977
O O11 0.195034 0.077351 0.701564
O O12 0.249177 0.746947 0.745785
O O13 0.119324 0.739323 0.767822
O O14 0.195681 0.724815 0.000000
O O15 0.593230 0.500923 0.725707
O O16 0.605932 0.459606 0.000000
O O17 0.302131 0.787133 0.500000
O O18 0.420762 0.367732 0.230851
O O19 0.402545 0.288716 0.000000
O O20 0.401182 0.414551 0.500000
#
# Coordination Sequence:
#
# PCOD8236948 Si02
#       8
#     8   8   8   8   8   8   8   8
#     4  10  20  34  55  82 114 146 179 226 280 328
#     4  10  22  40  57  78 112 151 189 229 281 332
#     4   9  18  33  56  82 109 142 181 226 276 331
#     4  11  21  37  59  83 114 148 184 230 282 329
#     4   9  17  33  54  75 106 147 188 226 269 328
#     4  12  23  35  58  86 112 144 188 233 275 329
#     4  11  23  37  56  81 111 150 192 231 273 331
#     4  10  20  33  51  77 112 150 185 227 274 324
#
# _framework density 18.168495
#
# number of rings (size 3 to 8) (size 9 to 14) (size 15 to 20)
#    0.000    1.750    2.500    2.625    0.000    4.000 
#    0.000    2.500    0.000    0.750    0.000    5.250 
#    0.000    0.000    0.000    0.000    0.000    0.000 
#
# Total GULP energy -793878.474157 kJ/mol
# GULP energy per Si atom -12404.351159 kJ/mol
# Density = 1.812714 g / cm^3
# Si number density = 18.168495 Si / 1000 Ang^3
#
#
#
# Elastic Constant Matrix: (Units=GPa)
#
#
# Indices 1 2 3 4 5 6 
#
# 1 68.8008 45.3576 43.0001 0.0000 0.0000 0.0000
# 2 45.3576 109.3608 67.2212 0.0000 0.0000 0.0000
# 3 43.0001 67.2212 117.4872 0.0000 0.0000 0.0000
# 4 0.0000 0.0000 0.0000 36.3335 0.0000 0.0000
# 5 0.0000 0.0000 0.0000 0.0000 25.8072 0.0000
# 6 0.0000 0.0000 0.0000 0.0000 0.0000 23.8608
#
#
#
# Elastic Compliance Matrix: (Units=1/GPa)
#
#
# Indices 1 2 3 4 5 6 
#
# 1 0.021282 -0.006230 -0.004225 0.000000 0.000000 0.000000
# 2 -0.006230 0.015928 -0.006833 0.000000 0.000000 0.000000
# 3 -0.004225 -0.006833 0.013967 0.000000 0.000000 0.000000
# 4 0.000000 0.000000 0.000000 0.027523 0.000000 0.000000
# 5 0.000000 0.000000 0.000000 0.000000 0.038749 0.000000
# 6 0.000000 0.000000 0.000000 0.000000 0.000000 0.041910
#
#
# Mechanical properties :
#
#
# Convention : Reuss Voigt Hill
#
# Bulk Modulus (GPa) = 60.23375 67.42295 63.82835
# Shear Modulus (GPa) = 25.06649 26.53831 25.80240
#
# Velocity S-wave (km/s) = 3.71842 3.82603 3.77261
# Velocity P-wave (km/s) = 7.18751 7.53050 7.36100
#
# Compressibility (1/GPa) = 0.01660199
#
# Stress axis : x y z
#
# Youngs Moduli (GPa) = 46.98720 62.78179 71.59479
#
# Poissons Ratio (x) = 0.39114 0.30247
# Poissons Ratio (y) = 0.29273 0.48922
# Poissons Ratio (z) = 0.19851 0.42900
#
# Static dielectric constant tensor:
#      x y z
#    x 3.114180 0.000000 0.000000 
#    y 0.000000 3.448600 0.000000 
#    z 0.000000 0.000000 3.416940 
# 
# 
# High freq. dielectric constant tensor:
#      x y z
#    x 1.675810 0.000000 0.000000 
#    y 0.000000 1.708130 0.000000 
#    z 0.000000 0.000000 1.712060 
# 
# From -- ./inp_files/8377.got.cif
#   From: 2010.06.25/outbox.cif.g09.slc.cpg/sg58_5_cif.got.tgz:8377.got - 2010.06.26 21:38:00.
