data_PCOD8236819
_publ_section_title
;
Structure prediction by ZEFSAII (Michael W. Deem and Ramdas Pophale) SiO2 
 PCOD8236819
Probable space group: P N N M
;
_chemical_formula_sum "Si O2"
_cell_formula_units_Z 64
_cell_length_a 25.027361
_cell_length_b 14.282391
_cell_length_c 8.865902
_cell_angle_alpha 90.000000
_cell_angle_beta 90.000000
_cell_angle_gamma 90.000000
_cell_volume 3169.121595
_symmetry_space_group_name_H-M "P N N M"
_symmetry_group_IT_number 58
_symmetry_cell_setting 'orthorhombic'
loop_
_space_group_symop_operation_xyz
x,y,z
-x,-y,z
1/2+x,1/2-y,1/2-z
1/2-x,1/2+y,1/2-z
-x,-y,-z
x,y,-z
1/2-x,1/2+y,1/2+z
1/2+x,1/2-y,1/2+z
loop_
_atom_site_type_symbol
_atom_site_label
_atom_site_fract_x
_atom_site_fract_y
_atom_site_fract_z
Si Si1 0.179968 0.206348 0.327742
Si Si2 0.880134 0.192978 0.678048
Si Si3 0.767982 0.146658 0.823439
Si Si4 0.630904 0.884546 0.674424
Si Si5 0.019484 0.897215 0.178300
Si Si6 0.744490 0.960371 0.329688
Si Si7 0.429690 0.746508 0.678580
Si Si8 0.053650 0.454152 0.178769
O O1 0.165535 0.230230 0.500000
O O2 0.223346 0.280507 0.266584
O O3 0.202843 0.101916 0.312014
O O4 0.127311 0.208228 0.228533
O O5 0.881850 0.187380 0.500000
O O6 0.822308 0.161311 0.733678
O O7 0.892617 0.298583 0.730905
O O8 0.924027 0.122430 0.743765
O O9 0.745788 0.043430 0.790257
O O10 0.779587 0.160269 0.000000
O O11 0.617687 0.863764 0.500000
O O12 0.693917 0.893748 0.703312
O O13 0.603182 0.980822 0.727498
O O14 0.976098 0.822089 0.237765
O O15 0.027487 0.890109 0.000000
O O16 0.000000 0.000000 0.226634
O O17 0.740015 0.001024 0.500000
O O18 0.430248 0.748873 0.500000
O O19 0.438756 0.850386 0.747029
O O20 0.000000 0.500000 0.245616
O O21 0.049535 0.446123 0.000000
#
# Coordination Sequence:
#
# PCOD8236819 Si02
#       8
#     8   8   8   8   8   8   8   8
#     4  10  22  40  60  86 125 163 196 244 309 361
#     4  12  25  40  62  91 123 161 206 257 310 366
#     4  11  23  41  63  89 123 166 208 252 308 368
#     4  10  19  37  62  86 122 163 199 248 304 365
#     4  10  23  43  65  90 121 161 209 258 308 368
#     4  10  21  38  59  87 120 160 205 251 307 364
#     4  10  21  38  62  91 120 157 205 252 303 368
#     4   9  17  31  57  89 116 148 194 245 295 350
#
# _framework density 20.194869000000001
#
# number of rings (size 3 to 8) (size 9 to 14) (size 15 to 20)
#    0.000    1.750    1.250    3.000    1.750    5.750 
#    0.000    0.625    0.000    1.500    0.000    0.000 
#    0.000    0.000    0.000    0.000    0.000    0.000 
#
# Total GULP energy -793876.121698 kJ/mol
# GULP energy per Si atom -12404.314402 kJ/mol
# Density = 2.014890 g / cm^3
# Si number density = 20.194869 Si / 1000 Ang^3
#
#
#
# Elastic Constant Matrix: (Units=GPa)
#
#
# Indices 1 2 3 4 5 6 
#
# 1 96.2382 16.6457 23.4014 0.0000 0.0000 0.0000
# 2 16.6457 92.6479 29.4454 0.0000 0.0000 0.0000
# 3 23.4014 29.4454 44.5525 0.0000 0.0000 0.0000
# 4 0.0000 0.0000 0.0000 24.4201 0.0000 0.0000
# 5 0.0000 0.0000 0.0000 0.0000 28.9810 0.0000
# 6 0.0000 0.0000 0.0000 0.0000 0.0000 35.5656
#
#
#
# Elastic Compliance Matrix: (Units=1/GPa)
#
#
# Indices 1 2 3 4 5 6 
#
# 1 0.011915 -0.000192 -0.006132 0.000000 0.000000 0.000000
# 2 -0.000192 0.013667 -0.008932 0.000000 0.000000 0.000000
# 3 -0.006132 -0.008932 0.031569 0.000000 0.000000 0.000000
# 4 0.000000 0.000000 0.000000 0.040950 0.000000 0.000000
# 5 0.000000 0.000000 0.000000 0.000000 0.034505 0.000000
# 6 0.000000 0.000000 0.000000 0.000000 0.000000 0.028117
#
#
# Mechanical properties :
#
#
# Convention : Reuss Voigt Hill
#
# Bulk Modulus (GPa) = 37.53689 41.38038 39.45863
# Shear Modulus (GPa) = 24.98579 28.72308 26.85443
#
# Velocity S-wave (km/s) = 3.52125 3.77543 3.65055
# Velocity P-wave (km/s) = 5.92958 6.28809 6.11147
#
# Compressibility (1/GPa) = 0.02664046
#
# Stress axis : x y z
#
# Youngs Moduli (GPa) = 83.92748 73.17047 31.67652
#
# Poissons Ratio (x) = 0.01405 0.19423
# Poissons Ratio (y) = 0.01611 0.28292
# Poissons Ratio (z) = 0.51460 0.65353
#
# Static dielectric constant tensor:
#      x y z
#    x 3.704120 0.000000 0.000000 
#    y 0.000000 3.849390 0.000000 
#    z 0.000000 0.000000 3.368690 
# 
# 
# High freq. dielectric constant tensor:
#      x y z
#    x 1.799610 0.000000 0.000000 
#    y 0.000000 1.801630 0.000000 
#    z 0.000000 0.000000 1.758470 
# 
# From -- ./inp_files/10071.got.cif
#   From: 2010.06.25/outbox.cif.g09.slc.cpg/sg58_6_cif.got.tgz:10071.got - 2010.06.26 21:38:00.
