data_PCOD8236811
_publ_section_title
;
Structure prediction by ZEFSAII (Michael W. Deem and Ramdas Pophale) SiO2 
 PCOD8236811
Probable space group: P N N M
;
_chemical_formula_sum "Si O2"
_cell_formula_units_Z 48
_cell_length_a 21.127107
_cell_length_b 14.859083
_cell_length_c 7.656007
_cell_angle_alpha 90.000000
_cell_angle_beta 90.000000
_cell_angle_gamma 90.000000
_cell_volume 2403.445963
_symmetry_space_group_name_H-M "P N N M"
_symmetry_group_IT_number 58
_symmetry_cell_setting 'orthorhombic'
loop_
_space_group_symop_operation_xyz
x,y,z
-x,-y,z
1/2+x,1/2-y,1/2-z
1/2-x,1/2+y,1/2-z
-x,-y,-z
x,y,-z
1/2-x,1/2+y,1/2+z
1/2+x,1/2-y,1/2+z
loop_
_atom_site_type_symbol
_atom_site_label
_atom_site_fract_x
_atom_site_fract_y
_atom_site_fract_z
Si Si1 0.188773 0.989842 0.207914
Si Si2 0.310224 0.097462 0.698321
Si Si3 0.487976 0.261814 0.301550
Si Si4 0.345769 0.294433 0.704544
Si Si5 0.479236 0.865693 0.000000
Si Si6 0.555869 0.444783 0.698014
Si Si7 0.394658 0.022535 0.000000
O O1 0.189055 0.885143 0.274868
O O2 0.242684 0.049392 0.297460
O O3 0.124204 0.035091 0.279995
O O4 0.197803 0.996926 0.000000
O O5 0.336640 0.093395 0.500000
O O6 0.307855 0.203256 0.758245
O O7 0.356768 0.044209 0.824704
O O8 0.481901 0.225107 0.500000
O O9 0.418532 0.289473 0.227898
O O10 0.519309 0.188794 0.178753
O O11 0.538776 0.341065 0.293280
O O12 0.348921 0.306820 0.500000
O O13 0.539778 0.927628 0.000000
O O14 0.412033 0.917194 0.000000
O O15 0.500000 0.500000 0.795269
O O16 0.560325 0.481606 0.500000
#
# Coordination Sequence:
#
# PCOD8236811 Si02
#       7
#     8   8   8   8   4   8   4
#     4  10  19  37  62  90 124 165 206 254 306 363
#     4  11  23  43  63  88 123 164 209 253 304 368
#     4  10  19  37  61  90 126 160 197 249 309 370
#     4   9  18  35  63  87 116 163 206 246 302 363
#     4  11  24  40  65  96 116 156 211 253 307 367
#     4   9  16  31  59  91 126 160 198 250 312 367
#     4  11  24  44  66  88 121 160 206 260 304 364
#
# _framework density 19.971323999999999
#
# number of rings (size 3 to 8) (size 9 to 14) (size 15 to 20)
#    0.000    2.000    4.167    0.000    0.000    0.667 
#    7.500    2.083    0.000    0.000    0.000    0.000 
#    0.000    0.000    0.000    0.000    0.000    0.000 
#
# Total GULP energy -594868.115590 kJ/mol
# GULP energy per Si atom -12393.085741 kJ/mol
# Density = 1.992587 g / cm^3
# Si number density = 19.971324 Si / 1000 Ang^3
#
#
#
# Elastic Constant Matrix: (Units=GPa)
#
#
# Indices 1 2 3 4 5 6 
#
# 1 120.5256 79.0682 30.1979 0.0000 0.0000 0.0000
# 2 79.0682 143.6667 37.7342 0.0000 0.0000 0.0000
# 3 30.1979 37.7342 75.0524 0.0000 0.0000 0.0000
# 4 0.0000 0.0000 0.0000 27.8368 0.0000 0.0000
# 5 0.0000 0.0000 0.0000 0.0000 15.3554 0.0000
# 6 0.0000 0.0000 0.0000 0.0000 0.0000 43.1383
#
#
#
# Elastic Compliance Matrix: (Units=1/GPa)
#
#
# Indices 1 2 3 4 5 6 
#
# 1 0.013220 -0.006773 -0.001914 0.000000 0.000000 0.000000
# 2 -0.006773 0.011490 -0.003051 0.000000 0.000000 0.000000
# 3 -0.001914 -0.003051 0.015628 0.000000 0.000000 0.000000
# 4 0.000000 0.000000 0.000000 0.035924 0.000000 0.000000
# 5 0.000000 0.000000 0.000000 0.000000 0.065124 0.000000
# 6 0.000000 0.000000 0.000000 0.000000 0.000000 0.023181
#
#
# Mechanical properties :
#
#
# Convention : Reuss Voigt Hill
#
# Bulk Modulus (GPa) = 59.30816 70.36059 64.83438
# Shear Modulus (GPa) = 25.81804 30.08239 27.95021
#
# Velocity S-wave (km/s) = 3.59939 3.88529 3.74507
# Velocity P-wave (km/s) = 6.85823 7.44544 7.15786
#
# Compressibility (1/GPa) = 0.01686109
#
# Stress axis : x y z
#
# Youngs Moduli (GPa) = 75.64443 87.03549 63.98663
#
# Poissons Ratio (x) = 0.58949 0.12246
# Poissons Ratio (y) = 0.51233 0.19525
# Poissons Ratio (z) = 0.14477 0.26559
#
# Static dielectric constant tensor:
#      x y z
#    x 3.763070 0.000000 0.000000 
#    y 0.000000 3.965690 0.000000 
#    z 0.000000 0.000000 3.553560 
# 
# 
# High freq. dielectric constant tensor:
#      x y z
#    x 1.768520 0.000000 0.000000 
#    y 0.000000 1.782710 0.000000 
#    z 0.000000 0.000000 1.763940 
# 
# From -- ./inp_files/7769.got.cif
#   From: 2010.06.25/outbox.cif.g09.slc.cpg/sg58_4_cif.got.tgz:7769.got - 2010.06.26 21:38:00.
