data_PCOD8236627
_publ_section_title
;
Structure prediction by ZEFSAII (Michael W. Deem and Ramdas Pophale) SiO2 
 PCOD8236627
Probable space group: P N N M
;
_chemical_formula_sum "Si O2"
_cell_formula_units_Z 56
_cell_length_a 15.028794
_cell_length_b 21.336908
_cell_length_c 8.581011
_cell_angle_alpha 90.000000
_cell_angle_beta 90.000000
_cell_angle_gamma 90.000000
_cell_volume 2751.655592
_symmetry_space_group_name_H-M "P N N M"
_symmetry_group_IT_number 58
_symmetry_cell_setting 'orthorhombic'
loop_
_space_group_symop_operation_xyz
x,y,z
-x,-y,z
1/2+x,1/2-y,1/2-z
1/2-x,1/2+y,1/2-z
-x,-y,-z
x,y,-z
1/2-x,1/2+y,1/2+z
1/2+x,1/2-y,1/2+z
loop_
_atom_site_type_symbol
_atom_site_label
_atom_site_fract_x
_atom_site_fract_y
_atom_site_fract_z
Si Si1 0.131548 0.515459 0.818005
Si Si2 0.735186 0.757742 0.685213
Si Si3 0.284275 0.604570 0.185005
Si Si4 0.913658 0.713070 0.819232
Si Si5 0.027791 0.411913 0.320227
Si Si6 0.058319 0.813399 0.819025
Si Si7 0.522161 0.430806 0.815575
O O1 0.221765 0.547936 0.757280
O O2 0.117042 0.451125 0.722626
O O3 0.050941 0.563274 0.788618
O O4 0.136998 0.499707 0.000000
O O5 0.747218 0.753244 0.500000
O O6 0.743061 0.829574 0.744086
O O7 0.811854 0.718775 0.769648
O O8 0.641793 0.727900 0.740812
O O9 0.382674 0.591904 0.252975
O O10 0.286986 0.606025 0.000000
O O11 0.958627 0.660422 0.714111
O O12 0.967103 0.776616 0.782669
O O13 0.921133 0.694498 0.000000
O O14 0.003162 0.422126 0.500000
O O15 0.053246 0.880787 0.734607
O O16 0.070210 0.826696 0.000000
O O17 0.500000 0.500000 0.748733
O O18 0.525386 0.433617 0.000000
#
# Coordination Sequence:
#
# PCOD8236627 Si02
#       7
#     8   8   8   8   8   8   8
#     4  10  19  35  58  82 113 156 198 239 289 351
#     4  10  20  37  60  85 116 154 193 239 300 356
#     4   9  18  35  59  84 115 155 194 238 295 354
#     4  11  22  38  59  85 115 151 195 242 290 353
#     4  11  22  36  54  83 119 153 191 242 299 350
#     4  10  22  39  60  87 119 154 196 247 304 359
#     4  10  21  38  61  87 116 154 199 243 292 354
#
# _framework density 20.351383999999999
#
# number of rings (size 3 to 8) (size 9 to 14) (size 15 to 20)
#    0.000    1.857    1.429    3.857    0.000    4.857 
#    0.000    5.714    0.000    0.000    0.000    0.000 
#    0.000    0.000    0.000    0.000    0.000    0.000 
#
# Total GULP energy -694457.875557 kJ/mol
# GULP energy per Si atom -12401.033492 kJ/mol
# Density = 2.030506 g / cm^3
# Si number density = 20.351384 Si / 1000 Ang^3
#
#
#
# Elastic Constant Matrix: (Units=GPa)
#
#
# Indices 1 2 3 4 5 6 
#
# 1 109.9076 45.2606 13.9983 0.0000 0.0000 0.0000
# 2 45.2606 128.6304 22.3029 0.0000 0.0000 0.0000
# 3 13.9983 22.3029 38.9901 0.0000 0.0000 0.0000
# 4 0.0000 0.0000 0.0000 27.8211 0.0000 0.0000
# 5 0.0000 0.0000 0.0000 0.0000 23.4579 0.0000
# 6 0.0000 0.0000 0.0000 0.0000 0.0000 36.8394
#
#
#
# Elastic Compliance Matrix: (Units=1/GPa)
#
#
# Indices 1 2 3 4 5 6 
#
# 1 0.010764 -0.003461 -0.001885 0.000000 0.000000 0.000000
# 2 -0.003461 0.009743 -0.004331 0.000000 0.000000 0.000000
# 3 -0.001885 -0.004331 0.028801 0.000000 0.000000 0.000000
# 4 0.000000 0.000000 0.000000 0.035944 0.000000 0.000000
# 5 0.000000 0.000000 0.000000 0.000000 0.042630 0.000000
# 6 0.000000 0.000000 0.000000 0.000000 0.000000 0.027145
#
#
# Mechanical properties :
#
#
# Convention : Reuss Voigt Hill
#
# Bulk Modulus (GPa) = 33.38256 48.96131 41.17193
# Shear Modulus (GPa) = 27.12033 30.68810 28.90422
#
# Velocity S-wave (km/s) = 3.65444 3.88740 3.77272
# Velocity P-wave (km/s) = 5.85195 6.65277 6.26517
#
# Compressibility (1/GPa) = 0.02995576
#
# Stress axis : x y z
#
# Youngs Moduli (GPa) = 92.90484 102.64064 34.72050
#
# Poissons Ratio (x) = 0.35519 0.06545
# Poissons Ratio (y) = 0.32150 0.15036
# Poissons Ratio (z) = 0.17512 0.44449
#
# Static dielectric constant tensor:
#      x y z
#    x 3.822300 0.000000 0.000000 
#    y 0.000000 3.846350 0.000000 
#    z 0.000000 0.000000 3.404290 
# 
# 
# High freq. dielectric constant tensor:
#      x y z
#    x 1.792970 0.000000 0.000000 
#    y 0.000000 1.803640 0.000000 
#    z 0.000000 0.000000 1.772650 
# 
# From -- ./inp_files/6255.got.cif
#   From: 2010.06.25/outbox.cif.g09.slc.cpg/sg58_4_cif.got.tgz:6255.got - 2010.06.26 21:38:00.
