data_PCOD8236478
_publ_section_title
;
Structure prediction by ZEFSAII (Michael W. Deem and Ramdas Pophale) SiO2 
 PCOD8236478
Probable space group: P N N M
;
_chemical_formula_sum "Si O2"
_cell_formula_units_Z 64
_cell_length_a 10.962320
_cell_length_b 35.065433
_cell_length_c 8.753563
_cell_angle_alpha 90.000000
_cell_angle_beta 90.000000
_cell_angle_gamma 90.000000
_cell_volume 3364.856465
_symmetry_space_group_name_H-M "P N N M"
_symmetry_group_IT_number 58
_symmetry_cell_setting 'orthorhombic'
loop_
_space_group_symop_operation_xyz
x,y,z
-x,-y,z
1/2+x,1/2-y,1/2-z
1/2-x,1/2+y,1/2-z
-x,-y,-z
x,y,-z
1/2-x,1/2+y,1/2+z
1/2+x,1/2-y,1/2+z
loop_
_atom_site_type_symbol
_atom_site_label
_atom_site_fract_x
_atom_site_fract_y
_atom_site_fract_z
Si Si1 0.850095 0.149049 0.826547
Si Si2 0.860058 0.007865 0.829780
Si Si3 0.628966 0.357068 0.324931
Si Si4 0.246158 0.568002 0.324056
Si Si5 0.366041 0.271225 0.179569
Si Si6 0.143959 0.223358 0.319946
Si Si7 0.981095 0.543963 0.673725
Si Si8 0.246687 0.422852 0.823452
O O1 0.832394 0.185609 0.720341
O O2 0.760940 0.116048 0.770111
O O3 0.986721 0.133180 0.815268
O O4 0.816476 0.160315 0.000000
O O5 0.842981 0.045273 0.728386
O O6 0.796601 0.971167 0.749475
O O7 0.803601 0.014735 0.000000
O O8 0.000000 0.000000 0.844484
O O9 0.669213 0.349222 0.500000
O O10 0.698954 0.393411 0.251337
O O11 0.662507 0.320474 0.225255
O O12 0.288624 0.567289 0.500000
O O13 0.101737 0.568962 0.305094
O O14 0.259950 0.245513 0.252189
O O15 0.507223 0.262500 0.236209
O O16 0.359627 0.265314 0.000000
O O17 0.149955 0.227576 0.500000
O O18 0.932768 0.547086 0.500000
O O19 0.887402 0.561380 0.792799
O O20 0.000000 0.500000 0.716805
O O21 0.266366 0.413839 0.000000
#
# Coordination Sequence:
#
# PCOD8236478 Si02
#       8
#     8   8   8   8   8   8   8   8
#     4  10  20  37  61  85 112 148 190 232 282 339
#     4  10  19  34  57  81 105 138 185 233 277 333
#     4   9  18  35  60  87 112 142 183 236 287 332
#     4   9  17  32  55  81 105 137 184 233 280 329
#     4  10  21  39  63  91 122 154 193 240 288 343
#     4  10  21  38  61  90 122 158 194 231 286 352
#     4  10  19  36  58  75 102 147 195 237 279 333
#     4  12  24  36  52  78 114 148 186 232 283 338
#
# _framework density 19.020126999999999
#
# number of rings (size 3 to 8) (size 9 to 14) (size 15 to 20)
#    0.000    2.000    1.250    3.000    0.000    4.500 
#    2.250    1.250    0.000    0.000    0.000    0.000 
#    0.000    0.000    0.000    0.000    0.000    0.000 
#
# Total GULP energy -793410.453943 kJ/mol
# GULP energy per Si atom -12397.038343 kJ/mol
# Density = 1.897684 g / cm^3
# Si number density = 19.020127 Si / 1000 Ang^3
#
#
#
# Elastic Constant Matrix: (Units=GPa)
#
#
# Indices 1 2 3 4 5 6 
#
# 1 92.3759 44.2737 26.8558 0.0000 0.0000 0.0000
# 2 44.2737 92.8937 23.1001 0.0000 0.0000 0.0000
# 3 26.8558 23.1001 54.6455 0.0000 0.0000 0.0000
# 4 0.0000 0.0000 0.0000 26.7458 0.0000 0.0000
# 5 0.0000 0.0000 0.0000 0.0000 20.9495 0.0000
# 6 0.0000 0.0000 0.0000 0.0000 0.0000 36.8325
#
#
#
# Elastic Compliance Matrix: (Units=1/GPa)
#
#
# Indices 1 2 3 4 5 6 
#
# 1 0.015119 -0.005988 -0.004899 0.000000 0.000000 0.000000
# 2 -0.005988 0.014401 -0.003145 0.000000 0.000000 0.000000
# 3 -0.004899 -0.003145 0.022037 0.000000 0.000000 0.000000
# 4 0.000000 0.000000 0.000000 0.037389 0.000000 0.000000
# 5 0.000000 0.000000 0.000000 0.000000 0.047734 0.000000
# 6 0.000000 0.000000 0.000000 0.000000 0.000000 0.027150
#
#
# Mechanical properties :
#
#
# Convention : Reuss Voigt Hill
#
# Bulk Modulus (GPa) = 42.56527 47.59713 45.08120
# Shear Modulus (GPa) = 25.03438 26.61792 25.82615
#
# Velocity S-wave (km/s) = 3.63189 3.74499 3.68888
# Velocity P-wave (km/s) = 6.32575 6.61656 6.47279
#
# Compressibility (1/GPa) = 0.02349333
#
# Stress axis : x y z
#
# Youngs Moduli (GPa) = 66.13990 69.44047 45.37816
#
# Poissons Ratio (x) = 0.41579 0.22232
# Poissons Ratio (y) = 0.39603 0.14271
# Poissons Ratio (z) = 0.32404 0.21839
#
# Static dielectric constant tensor:
#      x y z
#    x 3.570310 0.000000 0.000000 
#    y 0.000000 3.496040 0.000000 
#    z 0.000000 0.000000 3.328680 
# 
# 
# High freq. dielectric constant tensor:
#      x y z
#    x 1.744130 0.000000 0.000000 
#    y 0.000000 1.739550 0.000000 
#    z 0.000000 0.000000 1.718890 
# 
# From -- ./inp_files/4722.got.cif
#   From: 2010.06.25/outbox.cif.g09.slc.cpg/sg58_3_cif.got.tgz:4722.got - 2010.06.26 21:38:00.
