data_PCOD8236247
_publ_section_title
;
Structure prediction by ZEFSAII (Michael W. Deem and Ramdas Pophale) SiO2 
 PCOD8236247
Probable space group: P N N M
;
_chemical_formula_sum "Si O2"
_cell_formula_units_Z 48
_cell_length_a 13.133499
_cell_length_b 17.840401
_cell_length_c 10.421684
_cell_angle_alpha 90.000000
_cell_angle_beta 90.000000
_cell_angle_gamma 90.000000
_cell_volume 2441.872353
_symmetry_space_group_name_H-M "P N N M"
_symmetry_group_IT_number 58
_symmetry_cell_setting 'orthorhombic'
loop_
_space_group_symop_operation_xyz
x,y,z
-x,-y,z
1/2+x,1/2-y,1/2-z
1/2-x,1/2+y,1/2-z
-x,-y,-z
x,y,-z
1/2-x,1/2+y,1/2+z
1/2+x,1/2-y,1/2+z
loop_
_atom_site_type_symbol
_atom_site_label
_atom_site_fract_x
_atom_site_fract_y
_atom_site_fract_z
Si Si1 0.392622 0.460191 0.856056
Si Si2 0.388915 0.308089 0.274445
Si Si3 0.668705 0.154956 0.858859
Si Si4 0.691482 0.832986 0.855019
Si Si5 0.268479 0.004595 0.147719
Si Si6 0.901910 0.760608 0.142068
O O1 0.500000 0.500000 0.842263
O O2 0.401140 0.370351 0.836525
O O3 0.322969 0.497072 0.747884
O O4 0.348668 0.473068 0.000000
O O5 0.289690 0.327692 0.357779
O O6 0.378134 0.223461 0.224007
O O7 0.492699 0.306635 0.355916
O O8 0.654932 0.065676 0.838724
O O9 0.604085 0.195528 0.748860
O O10 0.627799 0.178836 0.000000
O O11 0.811346 0.818698 0.830559
O O12 0.670115 0.919430 0.817128
O O13 0.660653 0.817971 0.000000
O O14 0.226843 0.009789 0.000000
O O15 0.889010 0.724570 0.000000
#
# Coordination Sequence:
#
# PCOD8236247 Si02
#       6
#     8   8   8   8   8   8
#     4  10  20  32  49  78 110 137 168 211 266 319
#     4  10  19  33  54  77 106 139 173 212 258 309
#     4   9  19  34  53  76 102 132 169 214 261 307
#     4   9  18  33  53  77 102 134 176 216 256 304
#     4   9  18  34  53  72  98 134 175 216 256 304
#     4  10  20  34  54  78 105 136 172 214 260 312
#
# _framework density 19.657049000000001
#
# number of rings (size 3 to 8) (size 9 to 14) (size 15 to 20)
#    0.000    2.500    0.000    2.000    0.000    6.333 
#    0.000    6.667    0.000    4.000    0.000    0.000 
#    0.000    0.000    0.000    0.000    0.000    0.000 
#
# Total GULP energy -594866.749379 kJ/mol
# GULP energy per Si atom -12393.057279 kJ/mol
# Density = 1.961231 g / cm^3
# Si number density = 19.657049 Si / 1000 Ang^3
#
#
#
# Elastic Constant Matrix: (Units=GPa)
#
#
# Indices 1 2 3 4 5 6 
#
# 1 44.7756 4.1390 6.2089 0.0000 0.0000 0.0000
# 2 4.1390 120.8888 41.7420 0.0000 0.0000 0.0000
# 3 6.2089 41.7420 110.7403 0.0000 0.0000 0.0000
# 4 0.0000 0.0000 0.0000 27.6160 0.0000 0.0000
# 5 0.0000 0.0000 0.0000 0.0000 13.3029 0.0000
# 6 0.0000 0.0000 0.0000 0.0000 0.0000 21.2475
#
#
#
# Elastic Compliance Matrix: (Units=1/GPa)
#
#
# Indices 1 2 3 4 5 6 
#
# 1 0.022524 -0.000385 -0.001118 0.000000 0.000000 0.000000
# 2 -0.000385 0.009516 -0.003565 0.000000 0.000000 0.000000
# 3 -0.001118 -0.003565 0.010437 0.000000 0.000000 0.000000
# 4 0.000000 0.000000 0.000000 0.036211 0.000000 0.000000
# 5 0.000000 0.000000 0.000000 0.000000 0.075172 0.000000
# 6 0.000000 0.000000 0.000000 0.000000 0.000000 0.047064
#
#
# Mechanical properties :
#
#
# Convention : Reuss Voigt Hill
#
# Bulk Modulus (GPa) = 30.92092 42.28718 36.60405
# Shear Modulus (GPa) = 22.53864 27.38758 24.96311
#
# Velocity S-wave (km/s) = 3.38981 3.73670 3.56748
# Velocity P-wave (km/s) = 5.57543 6.33849 5.96917
#
# Compressibility (1/GPa) = 0.03234056
#
# Stress axis : x y z
#
# Youngs Moduli (GPa) = 44.39668 105.08187 95.81517
#
# Poissons Ratio (x) = 0.04049 0.10709
# Poissons Ratio (y) = 0.01710 0.34163
# Poissons Ratio (z) = 0.04962 0.37467
#
# Static dielectric constant tensor:
#      x y z
#    x 3.255990 0.000000 0.000000 
#    y 0.000000 3.782580 0.000000 
#    z 0.000000 0.000000 3.596110 
# 
# 
# High freq. dielectric constant tensor:
#      x y z
#    x 1.740810 0.000000 0.000000 
#    y 0.000000 1.771470 0.000000 
#    z 0.000000 0.000000 1.765550 
# 
# From -- ./inp_files/5876.got.cif
#   From: 2010.06.25/outbox.cif.g09.slc.cpg/sg58_3_cif.got.tgz:5876.got - 2010.06.26 21:38:00.
