data_PCOD8236088
_publ_section_title
;
Structure prediction by ZEFSAII (Michael W. Deem and Ramdas Pophale) SiO2 
 PCOD8236088
Probable space group: P N N M
;
_chemical_formula_sum "Si O2"
_cell_formula_units_Z 64
_cell_length_a 25.305423
_cell_length_b 14.615274
_cell_length_c 8.831418
_cell_angle_alpha 90.000000
_cell_angle_beta 90.000000
_cell_angle_gamma 90.000000
_cell_volume 3266.261891
_symmetry_space_group_name_H-M "P N N M"
_symmetry_group_IT_number 58
_symmetry_cell_setting 'orthorhombic'
loop_
_space_group_symop_operation_xyz
x,y,z
-x,-y,z
1/2+x,1/2-y,1/2-z
1/2-x,1/2+y,1/2-z
-x,-y,-z
x,y,-z
1/2-x,1/2+y,1/2+z
1/2+x,1/2-y,1/2+z
loop_
_atom_site_type_symbol
_atom_site_label
_atom_site_fract_x
_atom_site_fract_y
_atom_site_fract_z
Si Si1 0.291158 0.918896 0.321269
Si Si2 0.020728 0.228813 0.825496
Si Si3 0.189163 0.807751 0.321274
Si Si4 0.170110 0.123043 0.332357
Si Si5 0.224340 0.611162 0.323910
Si Si6 0.572332 0.643694 0.179631
Si Si7 0.578837 0.462422 0.675020
Si Si8 0.385719 0.814994 0.168362
O O1 0.292811 0.908242 0.500000
O O2 0.238617 0.867357 0.254565
O O3 0.345131 0.878341 0.256925
O O4 0.291711 0.024900 0.276434
O O5 0.045766 0.129064 0.802977
O O6 0.058260 0.307616 0.755355
O O7 0.964450 0.227111 0.738638
O O8 0.011578 0.252939 0.000000
O O9 0.192556 0.816110 0.500000
O O10 0.191695 0.700936 0.274219
O O11 0.132539 0.842745 0.262384
O O12 0.191241 0.094124 0.500000
O O13 0.215475 0.137525 0.209962
O O14 0.133167 0.042621 0.269837
O O15 0.137544 0.214758 0.344350
O O16 0.216909 0.587625 0.500000
O O17 0.549361 0.550838 0.255891
O O18 0.568354 0.638280 0.000000
O O19 0.591208 0.480032 0.500000
O O20 0.395217 0.855242 0.000000
#
# Coordination Sequence:
#
# PCOD8236088 Si02
#       8
#     8   8   8   8   8   8   8   8
#     4  11  21  37  59  85 115 149 187 234 286 336
#     4  10  21  36  54  78 110 149 189 233 286 340
#     4   9  21  38  56  79 115 154 186 224 280 340
#     4  10  19  32  51  78 110 142 182 229 274 325
#     4  11  21  36  56  80 111 151 191 228 279 340
#     4  11  21  35  54  78 110 149 191 235 282 336
#     4  10  20  33  51  77 110 149 188 228 279 340
#     4  10  20  35  56  82 109 142 186 231 275 332
#
# _framework density 19.594266000000001
#
# number of rings (size 3 to 8) (size 9 to 14) (size 15 to 20)
#    0.000    1.750    1.250    3.750    0.000    5.000 
#    0.000    4.375    0.000    0.750    0.000    5.250 
#    0.000    0.000    0.000    0.000    0.000    0.000 
#
# Total GULP energy -793448.602172 kJ/mol
# GULP energy per Si atom -12397.634409 kJ/mol
# Density = 1.954967 g / cm^3
# Si number density = 19.594266 Si / 1000 Ang^3
#
#
#
# Elastic Constant Matrix: (Units=GPa)
#
#
# Indices 1 2 3 4 5 6 
#
# 1 51.4810 25.9987 15.1457 0.0000 0.0000 0.0000
# 2 25.9987 58.2954 33.3645 0.0000 0.0000 0.0000
# 3 15.1457 33.3645 83.7070 0.0000 0.0000 0.0000
# 4 0.0000 0.0000 0.0000 20.2838 0.0000 0.0000
# 5 0.0000 0.0000 0.0000 0.0000 31.0316 0.0000
# 6 0.0000 0.0000 0.0000 0.0000 0.0000 19.0219
#
#
#
# Elastic Compliance Matrix: (Units=1/GPa)
#
#
# Indices 1 2 3 4 5 6 
#
# 1 0.025072 -0.011123 -0.000103 0.000000 0.000000 0.000000
# 2 -0.011123 0.027158 -0.008812 0.000000 0.000000 0.000000
# 3 -0.000103 -0.008812 0.015478 0.000000 0.000000 0.000000
# 4 0.000000 0.000000 0.000000 0.049301 0.000000 0.000000
# 5 0.000000 0.000000 0.000000 0.000000 0.032225 0.000000
# 6 0.000000 0.000000 0.000000 0.000000 0.000000 0.052571
#
#
# Mechanical properties :
#
#
# Convention : Reuss Voigt Hill
#
# Bulk Modulus (GPa) = 36.19059 38.05569 37.12314
# Shear Modulus (GPa) = 19.91306 21.99908 20.95607
#
# Velocity S-wave (km/s) = 3.19136 3.35435 3.27387
# Velocity P-wave (km/s) = 5.66478 5.87080 5.76871
#
# Compressibility (1/GPa) = 0.02763149
#
# Stress axis : x y z
#
# Youngs Moduli (GPa) = 39.88499 36.82134 64.60950
#
# Poissons Ratio (x) = 0.40955 0.00666
# Poissons Ratio (y) = 0.44363 0.56936
# Poissons Ratio (z) = 0.00411 0.32448
#
# Static dielectric constant tensor:
#      x y z
#    x 3.731460 0.000000 0.000000 
#    y 0.000000 3.498520 0.000000 
#    z 0.000000 0.000000 4.104060 
# 
# 
# High freq. dielectric constant tensor:
#      x y z
#    x 1.759630 0.000000 0.000000 
#    y 0.000000 1.739420 0.000000 
#    z 0.000000 0.000000 1.765290 
# 
# From -- ./inp_files/6842.got.cif
#   From: 2010.06.25/outbox.cif.g09.slc.cpg/sg58_4_cif.got.tgz:6842.got - 2010.06.26 21:38:00.
