data_PCOD8236031
_publ_section_title
;
Structure prediction by ZEFSAII (Michael W. Deem and Ramdas Pophale) SiO2 
 PCOD8236031
Probable space group: P N N M
;
_chemical_formula_sum "Si O2"
_cell_formula_units_Z 48
_cell_length_a 8.134824
_cell_length_b 23.474800
_cell_length_c 12.368938
_cell_angle_alpha 90.000000
_cell_angle_beta 90.000000
_cell_angle_gamma 90.000000
_cell_volume 2362.014040
_symmetry_space_group_name_H-M "P N N M"
_symmetry_group_IT_number 58
_symmetry_cell_setting 'orthorhombic'
loop_
_space_group_symop_operation_xyz
x,y,z
-x,-y,z
1/2+x,1/2-y,1/2-z
1/2-x,1/2+y,1/2-z
-x,-y,-z
x,y,-z
1/2-x,1/2+y,1/2+z
1/2+x,1/2-y,1/2+z
loop_
_atom_site_type_symbol
_atom_site_label
_atom_site_fract_x
_atom_site_fract_y
_atom_site_fract_z
Si Si1 0.160314 0.058179 0.380445
Si Si2 0.351063 0.966822 0.239943
Si Si3 0.564514 0.871163 0.316372
Si Si4 0.773733 0.835489 0.124600
Si Si5 0.717203 0.203087 0.376983
Si Si6 0.913021 0.115541 0.235857
O O1 0.131961 0.033331 0.500000
O O2 0.273898 0.115008 0.386909
O O3 0.985371 0.075446 0.330752
O O4 0.247073 0.013127 0.303500
O O5 0.440223 0.924638 0.324662
O O6 0.224575 0.924810 0.174694
O O7 0.500000 0.000000 0.174031
O O8 0.623145 0.861590 0.192358
O O9 0.472344 0.816585 0.364925
O O10 0.782827 0.769167 0.152427
O O11 0.947662 0.865401 0.152208
O O12 0.735046 0.847369 0.000000
O O13 0.778384 0.192828 0.500000
O O14 0.832390 0.170884 0.291172
#
# Coordination Sequence:
#
# PCOD8236031 Si02
#       6
#     8   8   8   8   8   8
#     4  10  19  31  52  82 113 142 172 212 271 337
#     4   9  19  33  51  73 103 137 170 212 266 321
#     4   9  19  34  52  76 110 142 177 219 264 319
#     4  10  21  37  56  76 104 145 189 229 265 307
#     4  10  19  33  55  83 112 142 175 215 271 328
#     4  10  20  34  54  79 111 142 176 219 265 319
#
# _framework density 20.321639999999999
#
# number of rings (size 3 to 8) (size 9 to 14) (size 15 to 20)
#    0.000    2.333    0.000    2.500    0.000    7.000 
#    0.000    3.333    0.000   45.000    0.000    0.000 
#    0.000    0.000    0.000    0.000    0.000    0.000 
#
# Total GULP energy -594631.636045 kJ/mol
# GULP energy per Si atom -12388.159084 kJ/mol
# Density = 2.027539 g / cm^3
# Si number density = 20.321640 Si / 1000 Ang^3
#
#
#
# Elastic Constant Matrix: (Units=GPa)
#
#
# Indices 1 2 3 4 5 6 
#
# 1 79.7517 36.6778 8.9205 0.0000 0.0000 0.0000
# 2 36.6778 91.4230 24.1466 0.0000 0.0000 0.0000
# 3 8.9205 24.1466 54.8220 0.0000 0.0000 0.0000
# 4 0.0000 0.0000 0.0000 7.2706 0.0000 0.0000
# 5 0.0000 0.0000 0.0000 0.0000 15.6118 0.0000
# 6 0.0000 0.0000 0.0000 0.0000 0.0000 44.8583
#
#
#
# Elastic Compliance Matrix: (Units=1/GPa)
#
#
# Indices 1 2 3 4 5 6 
#
# 1 0.015379 -0.006234 0.000243 0.000000 0.000000 0.000000
# 2 -0.006234 0.014905 -0.005551 0.000000 0.000000 0.000000
# 3 0.000243 -0.005551 0.020646 0.000000 0.000000 0.000000
# 4 0.000000 0.000000 0.000000 0.137539 0.000000 0.000000
# 5 0.000000 0.000000 0.000000 0.000000 0.064054 0.000000
# 6 0.000000 0.000000 0.000000 0.000000 0.000000 0.022292
#
#
# Mechanical properties :
#
#
# Convention : Reuss Voigt Hill
#
# Bulk Modulus (GPa) = 35.90998 40.60962 38.25980
# Shear Modulus (GPa) = 16.27703 23.96492 20.12098
#
# Velocity S-wave (km/s) = 2.83321 3.43779 3.15004
# Velocity P-wave (km/s) = 5.33029 5.98203 5.66554
#
# Compressibility (1/GPa) = 0.02784741
#
# Stress axis : x y z
#
# Youngs Moduli (GPa) = 65.02479 67.09049 48.43536
#
# Poissons Ratio (x) = 0.41825 -0.01179
# Poissons Ratio (y) = 0.40537 0.26885
# Poissons Ratio (z) = -0.01583 0.37240
#
# Static dielectric constant tensor:
#      x y z
#    x 4.064280 0.000000 0.000000 
#    y 0.000000 3.931430 0.000000 
#    z 0.000000 0.000000 3.179800 
# 
# 
# High freq. dielectric constant tensor:
#      x y z
#    x 1.814570 0.000000 0.000000 
#    y 0.000000 1.811160 0.000000 
#    z 0.000000 0.000000 1.738450 
# 
# From -- ./inp_files/13080.got.cif
#   From: 2010.06.25/outbox.cif.g09.slc.cpg/sg58_7_cif.got.tgz:13080.got - 2010.06.26 21:38:00.
