data_PCOD8236916
_publ_section_title
;
Structure prediction by ZEFSAII (Michael W. Deem and Ramdas Pophale) SiO2 
 PCOD8236916
Probable space group: P N N M
;
_chemical_formula_sum "Si O2"
_cell_formula_units_Z 64
_cell_length_a 17.296362
_cell_length_b 11.351025
_cell_length_c 17.136039
_cell_angle_alpha 90.000000
_cell_angle_beta 90.000000
_cell_angle_gamma 90.000000
_cell_volume 3364.343169
_symmetry_space_group_name_H-M "P N N M"
_symmetry_group_IT_number 58
_symmetry_cell_setting 'orthorhombic'
loop_
_space_group_symop_operation_xyz
x,y,z
-x,-y,z
1/2+x,1/2-y,1/2-z
1/2-x,1/2+y,1/2-z
-x,-y,-z
x,y,-z
1/2-x,1/2+y,1/2+z
1/2+x,1/2-y,1/2+z
loop_
_atom_site_type_symbol
_atom_site_label
_atom_site_fract_x
_atom_site_fract_y
_atom_site_fract_z
Si Si1 0.085380 0.995365 0.787731
Si Si2 0.799405 0.665702 0.817802
Si Si3 0.504130 0.359052 0.908775
Si Si4 0.674837 0.894976 0.669513
Si Si5 0.129801 0.780498 0.707582
Si Si6 0.907825 0.817593 0.909226
Si Si7 0.658444 0.320617 0.820897
Si Si8 0.024524 0.625768 0.090366
O O1 0.085229 0.050924 0.873974
O O2 0.143350 0.068647 0.734380
O O3 0.112209 0.860329 0.784549
O O4 0.000000 0.000000 0.750240
O O5 0.828564 0.534790 0.829941
O O6 0.707797 0.670890 0.830430
O O7 0.829151 0.752562 0.885726
O O8 0.831940 0.704976 0.732908
O O9 0.500000 0.500000 0.897252
O O10 0.438775 0.291374 0.856735
O O11 0.588949 0.309352 0.883509
O O12 0.491347 0.327007 0.000000
O O13 0.646578 0.848690 0.755710
O O14 0.757832 0.845900 0.640886
O O15 0.614575 0.850944 0.604644
O O16 0.976071 0.734836 0.873599
O O17 0.912570 0.837148 0.000000
O O18 0.000000 0.500000 0.128507
O O19 0.003904 0.622786 0.000000
#
# Coordination Sequence:
#
# PCOD8236916 Si02
#       8
#     8   8   8   8   8   8   8   8
#     4  11  18  34  60  79 111 144 180 235 277 323
#     4  10  21  35  57  83 112 148 187 231 280 330
#     4  11  21  36  59  85 115 147 185 239 294 339
#     4  11  21  34  58  84 108 152 189 231 283 329
#     4  11  21  36  58  87 113 138 192 241 276 336
#     4  10  22  37  55  82 116 152 183 223 284 339
#     4  10  20  36  55  83 112 141 187 237 279 336
#     4  10  20  33  49  78 114 142 180 226 271 329
#
# _framework density 19.023029999999999
#
# number of rings (size 3 to 8) (size 9 to 14) (size 15 to 20)
#    0.000    1.500    5.000    0.750    1.750    1.250 
#    0.000    0.625    0.000    2.250    0.000    0.000 
#    0.000    0.000    0.000    0.000    0.000    0.000 
#
# Total GULP energy -793094.978703 kJ/mol
# GULP energy per Si atom -12392.109042 kJ/mol
# Density = 1.897973 g / cm^3
# Si number density = 19.023030 Si / 1000 Ang^3
#
#
#
# Elastic Constant Matrix: (Units=GPa)
#
#
# Indices 1 2 3 4 5 6 
#
# 1 139.8192 14.1578 33.5893 0.0000 0.0000 0.0000
# 2 14.1578 37.2358 23.4380 0.0000 0.0000 0.0000
# 3 33.5893 23.4380 74.2406 0.0000 0.0000 0.0000
# 4 0.0000 0.0000 0.0000 22.5091 0.0000 0.0000
# 5 0.0000 0.0000 0.0000 0.0000 18.4467 0.0000
# 6 0.0000 0.0000 0.0000 0.0000 0.0000 21.6346
#
#
#
# Elastic Compliance Matrix: (Units=1/GPa)
#
#
# Indices 1 2 3 4 5 6 
#
# 1 0.008052 -0.000959 -0.003340 0.000000 0.000000 0.000000
# 2 -0.000959 0.033630 -0.010183 0.000000 0.000000 0.000000
# 3 -0.003340 -0.010183 0.018196 0.000000 0.000000 0.000000
# 4 0.000000 0.000000 0.000000 0.044427 0.000000 0.000000
# 5 0.000000 0.000000 0.000000 0.000000 0.054210 0.000000
# 6 0.000000 0.000000 0.000000 0.000000 0.000000 0.046222
#
#
# Mechanical properties :
#
#
# Convention : Reuss Voigt Hill
#
# Bulk Modulus (GPa) = 32.34886 43.74064 38.04475
# Shear Modulus (GPa) = 20.49130 24.52546 22.50838
#
# Velocity S-wave (km/s) = 3.28561 3.59451 3.44352
# Velocity P-wave (km/s) = 5.60675 6.34592 5.98775
#
# Compressibility (1/GPa) = 0.03091299
#
# Stress axis : x y z
#
# Youngs Moduli (GPa) = 124.19896 29.73499 54.95769
#
# Poissons Ratio (x) = 0.02851 0.18356
# Poissons Ratio (y) = 0.11910 0.55965
# Poissons Ratio (z) = 0.41484 0.30280
#
# Static dielectric constant tensor:
#      x y z
#    x 3.732350 0.000000 0.000000 
#    y 0.000000 3.569600 0.000000 
#    z 0.000000 0.000000 3.229050 
# 
# 
# High freq. dielectric constant tensor:
#      x y z
#    x 1.757880 0.000000 0.000000 
#    y 0.000000 1.731940 0.000000 
#    z 0.000000 0.000000 1.710540 
# 
# From -- ./inp_files/26997.got.cif
#   From: 2010.06.25/outbox.cif.g09.slc.cpg/sg58_14_cif.got.tgz:26997.got - 2010.06.26 21:38:00.
