data_PCOD8236829
_publ_section_title
;
Structure prediction by ZEFSAII (Michael W. Deem and Ramdas Pophale) SiO2 
 PCOD8236829
Probable space group: P N N M
;
_chemical_formula_sum "Si O2"
_cell_formula_units_Z 24
_cell_length_a 8.623954
_cell_length_b 24.833356
_cell_length_c 5.255415
_cell_angle_alpha 90.000000
_cell_angle_beta 90.000000
_cell_angle_gamma 90.000000
_cell_volume 1125.508715
_symmetry_space_group_name_H-M "P N N M"
_symmetry_group_IT_number 58
_symmetry_cell_setting 'orthorhombic'
loop_
_space_group_symop_operation_xyz
x,y,z
-x,-y,z
1/2+x,1/2-y,1/2-z
1/2-x,1/2+y,1/2-z
-x,-y,-z
x,y,-z
1/2-x,1/2+y,1/2+z
1/2+x,1/2-y,1/2+z
loop_
_atom_site_type_symbol
_atom_site_label
_atom_site_fract_x
_atom_site_fract_y
_atom_site_fract_z
Si Si1 0.707040 0.152159 0.500000
Si Si2 0.821380 0.483254 0.500000
Si Si3 0.438228 0.670482 0.000000
Si Si4 0.746175 0.359653 0.500000
Si Si5 0.664493 0.029422 0.500000
Si Si6 0.937250 0.702014 0.500000
O O1 0.633168 0.092945 0.500000
O O2 0.652705 0.183401 0.250254
O O3 0.890815 0.146005 0.500000
O O4 0.811670 0.419517 0.500000
O O5 0.741246 0.509855 0.749430
O O6 0.000000 0.500000 0.500000
O O7 0.353919 0.649123 0.750448
O O8 0.443923 0.734285 0.000000
O O9 0.887764 0.318390 0.500000
O O10 0.500000 0.000000 0.500000
#
# Coordination Sequence:
#
# PCOD8236829 Si02
#       6
#     4   4   4   4   4   4
#     4  12  25  43  68  99 133 173 220 274 326 388
#     4  10  20  38  63  92 119 159 217 267 308 375
#     4  12  26  43  62  99 140 170 211 275 339 381
#     4  12  25  44  69  98 133 174 219 272 325 388
#     4  10  19  37  63  92 119 158 217 269 309 375
#     4  12  23  43  69  94 128 182 226 259 313 401
#
# _framework density 21.323689000000002
#
# number of rings (size 3 to 8) (size 9 to 14) (size 15 to 20)
#    0.000    0.667    0.000   11.000    0.000    0.000 
#    0.000    5.000    0.000    0.000    0.000    0.000 
#    0.000    0.000    0.000    0.000    0.000    0.000 
#
# Total GULP energy -297652.918472 kJ/mol
# GULP energy per Si atom -12402.204936 kJ/mol
# Density = 2.127516 g / cm^3
# Si number density = 21.323689 Si / 1000 Ang^3
#
#
#
# Elastic Constant Matrix: (Units=GPa)
#
#
# Indices 1 2 3 4 5 6 
#
# 1 110.6535 8.0035 41.9138 0.0000 0.0000 0.0000
# 2 8.0035 147.2906 34.2190 0.0000 0.0000 0.0000
# 3 41.9138 34.2190 218.5844 0.0000 0.0000 0.0000
# 4 0.0000 0.0000 0.0000 31.9488 0.0000 0.0000
# 5 0.0000 0.0000 0.0000 0.0000 39.4808 0.0000
# 6 0.0000 0.0000 0.0000 0.0000 0.0000 -7.8361
#
#
#
# Elastic Compliance Matrix: (Units=1/GPa)
#
#
# Indices 1 2 3 4 5 6 
#
# 1 0.009746 -0.000099 -0.001853 0.000000 0.000000 0.000000
# 2 -0.000099 0.007047 -0.001084 0.000000 0.000000 0.000000
# 3 -0.001853 -0.001084 0.005100 0.000000 0.000000 0.000000
# 4 0.000000 0.000000 0.000000 0.031300 0.000000 0.000000
# 5 0.000000 0.000000 0.000000 0.000000 0.025329 0.000000
# 6 0.000000 0.000000 0.000000 0.000000 0.000000 -0.127614
#
#
# Mechanical properties :
#
#
# Convention : Reuss Voigt Hill
#
# Bulk Modulus (GPa) = 63.21158 71.64455 67.42806
# Shear Modulus (GPa) = -132.46389 38.87820 -46.79285
#
# Velocity S-wave (km/s) = -7.89021 4.27457 -4.68953
# Velocity P-wave (km/s) = 7.30062 7.61801 1.53869
#
# Compressibility (1/GPa) = 0.01581989
#
# Stress axis : x y z
#
# Youngs Moduli (GPa) = 102.60187 141.91343 196.07843
#
# Poissons Ratio (x) = 0.01405 0.36341
# Poissons Ratio (y) = 0.01016 0.21258
# Poissons Ratio (z) = 0.19016 0.15385
#
# Static dielectric constant tensor:
#      x y z
#    x 3.695470 0.000000 0.000000 
#    y 0.000000 4.005650 0.000000 
#    z 0.000000 0.000000 -0.367260 
# 
# 
# High freq. dielectric constant tensor:
#      x y z
#    x 1.813800 0.000000 0.000000 
#    y 0.000000 1.855970 0.000000 
#    z 0.000000 0.000000 1.876290 
# 
# From -- ./inp_files/213.got.cif
#   From: 2010.06.25/outbox.cif.g09.slc.cpg/sg58_1_cif.got.tgz:213.got - 2010.06.26 21:38:00.
