data_PCOD8236155
_publ_section_title
;
Structure prediction by ZEFSAII (Michael W. Deem and Ramdas Pophale) SiO2 
 PCOD8236155
Probable space group: P N N M
;
_chemical_formula_sum "Si O2"
_cell_formula_units_Z 48
_cell_length_a 10.376154
_cell_length_b 18.234532
_cell_length_c 13.901722
_cell_angle_alpha 90.000000
_cell_angle_beta 90.000000
_cell_angle_gamma 90.000000
_cell_volume 2630.265749
_symmetry_space_group_name_H-M "P N N M"
_symmetry_group_IT_number 58
_symmetry_cell_setting 'orthorhombic'
loop_
_space_group_symop_operation_xyz
x,y,z
-x,-y,z
1/2+x,1/2-y,1/2-z
1/2-x,1/2+y,1/2-z
-x,-y,-z
x,y,-z
1/2-x,1/2+y,1/2+z
1/2+x,1/2-y,1/2+z
loop_
_atom_site_type_symbol
_atom_site_label
_atom_site_fract_x
_atom_site_fract_y
_atom_site_fract_z
Si Si1 0.855798 0.993565 0.731228
Si Si2 0.157788 0.850563 0.197354
Si Si3 0.355309 0.202652 0.787028
Si Si4 0.622688 0.377254 0.613802
Si Si5 0.249187 0.134223 0.388192
Si Si6 0.393565 0.779488 0.892775
O O1 0.848714 0.954443 0.835032
O O2 0.784497 0.947705 0.647478
O O3 0.799684 0.074370 0.749652
O O4 0.000000 0.000000 0.692694
O O5 0.157176 0.790109 0.280914
O O6 0.264911 0.827654 0.119665
O O7 0.019613 0.851489 0.144618
O O8 0.233513 0.178279 0.851224
O O9 0.361719 0.164353 0.681463
O O10 0.493727 0.184447 0.830648
O O11 0.629942 0.387840 0.500000
O O12 0.292499 0.132593 0.500000
O O13 0.132301 0.192639 0.370939
O O14 0.442717 0.787474 0.000000
#
# Coordination Sequence:
#
# PCOD8236155 Si02
#       6
#     8   8   8   8   8   8
#     4   9  18  32  52  77 105 135 168 211 256 299
#     4  10  19  33  53  77 104 133 170 211 252 298
#     4  10  19  35  53  75 106 134 167 210 255 300
#     4  10  20  34  53  76 105 137 167 206 258 309
#     4   9  19  35  53  74 102 139 175 207 252 305
#     4  10  19  32  54  79 102 131 170 213 253 300
#
# _framework density 18.249106999999999
#
# number of rings (size 3 to 8) (size 9 to 14) (size 15 to 20)
#    0.000    2.333    0.000    5.000    0.000    4.667 
#    0.000    5.000    0.000    7.000    0.000    0.000 
#    0.000    0.000    0.000    0.000    0.000    0.000 
#
# Total GULP energy -594810.523207 kJ/mol
# GULP energy per Si atom -12391.885900 kJ/mol
# Density = 1.820757 g / cm^3
# Si number density = 18.249107 Si / 1000 Ang^3
#
#
#
# Elastic Constant Matrix: (Units=GPa)
#
#
# Indices 1 2 3 4 5 6 
#
# 1 80.5893 21.3190 34.2504 0.0000 0.0000 0.0000
# 2 21.3190 108.9861 22.9097 0.0000 0.0000 0.0000
# 3 34.2504 22.9097 98.4019 0.0000 0.0000 0.0000
# 4 0.0000 0.0000 0.0000 18.3027 0.0000 0.0000
# 5 0.0000 0.0000 0.0000 0.0000 26.3412 0.0000
# 6 0.0000 0.0000 0.0000 0.0000 0.0000 22.0560
#
#
#
# Elastic Compliance Matrix: (Units=1/GPa)
#
#
# Indices 1 2 3 4 5 6 
#
# 1 0.014937 -0.001923 -0.004751 0.000000 0.000000 0.000000
# 2 -0.001923 0.009895 -0.001634 0.000000 0.000000 0.000000
# 3 -0.004751 -0.001634 0.012197 0.000000 0.000000 0.000000
# 4 0.000000 0.000000 0.000000 0.054637 0.000000 0.000000
# 5 0.000000 0.000000 0.000000 0.000000 0.037963 0.000000
# 6 0.000000 0.000000 0.000000 0.000000 0.000000 0.045339
#
#
# Mechanical properties :
#
#
# Convention : Reuss Voigt Hill
#
# Bulk Modulus (GPa) = 48.99292 49.43726 49.21509
# Shear Modulus (GPa) = 25.20305 27.30653 26.25479
#
# Velocity S-wave (km/s) = 3.72029 3.87243 3.79712
# Velocity P-wave (km/s) = 6.73492 6.86610 6.80082
#
# Compressibility (1/GPa) = 0.02041111
#
# Stress axis : x y z
#
# Youngs Moduli (GPa) = 66.94983 101.05893 81.98966
#
# Poissons Ratio (x) = 0.19434 0.38955
# Poissons Ratio (y) = 0.12875 0.13401
# Poissons Ratio (z) = 0.31809 0.16517
#
# Static dielectric constant tensor:
#      x y z
#    x 3.277380 0.000000 0.000000 
#    y 0.000000 3.537240 0.000000 
#    z 0.000000 0.000000 3.351600 
# 
# 
# High freq. dielectric constant tensor:
#      x y z
#    x 1.691700 0.000000 0.000000 
#    y 0.000000 1.707320 0.000000 
#    z 0.000000 0.000000 1.705660 
# 
# From -- ./inp_files/19843.got.cif
#   From: 2010.06.25/outbox.cif.g09.slc.cpg/sg58_10_cif.got.tgz:19843.got - 2010.06.26 21:38:00.
