data_PCOD8236596
_publ_section_title
;
Structure prediction by ZEFSAII (Michael W. Deem and Ramdas Pophale) SiO2 
 PCOD8236596
Probable space group: P N N M
;
_chemical_formula_sum "Si O2"
_cell_formula_units_Z 64
_cell_length_a 29.380786
_cell_length_b 12.667290
_cell_length_c 8.847731
_cell_angle_alpha 90.000000
_cell_angle_beta 90.000000
_cell_angle_gamma 90.000000
_cell_volume 3292.903725
_symmetry_space_group_name_H-M "P N N M"
_symmetry_group_IT_number 58
_symmetry_cell_setting 'orthorhombic'
loop_
_space_group_symop_operation_xyz
x,y,z
-x,-y,z
1/2+x,1/2-y,1/2-z
1/2-x,1/2+y,1/2-z
-x,-y,-z
x,y,-z
1/2-x,1/2+y,1/2+z
1/2+x,1/2-y,1/2+z
loop_
_atom_site_type_symbol
_atom_site_label
_atom_site_fract_x
_atom_site_fract_y
_atom_site_fract_z
Si Si1 0.603241 0.449332 0.821026
Si Si2 0.706759 0.941849 0.828189
Si Si3 0.965982 0.766557 0.678639
Si Si4 0.566449 0.672065 0.178381
Si Si5 0.616657 0.865658 0.324725
Si Si6 0.914936 0.593117 0.176339
Si Si7 0.194715 0.123498 0.176761
Si Si8 0.326205 0.829784 0.829611
O O1 0.571823 0.351587 0.767651
O O2 0.583041 0.559235 0.757088
O O3 0.654269 0.437223 0.760682
O O4 0.604290 0.452752 0.000000
O O5 0.668175 0.888432 0.726395
O O6 0.756549 0.916391 0.763864
O O7 0.704712 0.067613 0.820876
O O8 0.700443 0.901138 0.000000
O O9 0.964117 0.745860 0.500000
O O10 0.960079 0.654715 0.767863
O O11 0.014592 0.811630 0.729811
O O12 0.598010 0.765222 0.238272
O O13 0.570376 0.673102 0.000000
O O14 0.617734 0.838637 0.500000
O O15 0.584104 0.967292 0.292065
O O16 0.877052 0.645313 0.280655
O O17 0.905474 0.614197 0.000000
O O18 0.194673 0.246858 0.214047
O O19 0.188905 0.103812 0.000000
O O20 0.328078 0.783529 0.000000
#
# Coordination Sequence:
#
# PCOD8236596 Si02
#       8
#     8   8   8   8   8   8   8   8
#     4  10  21  38  59  84 115 152 195 240 285 338
#     4   9  21  39  58  81 112 150 191 234 284 343
#     4  10  20  36  60  87 114 151 197 241 287 342
#     4  10  22  39  59  84 118 158 196 237 287 346
#     4  10  22  39  58  83 116 153 192 239 293 346
#     4  10  20  35  57  84 114 147 188 240 290 336
#     4  11  22  36  57  87 117 146 186 237 290 343
#     4  10  19  35  57  80 109 148 189 232 282 337
#
# _framework density 19.435734
#
# number of rings (size 3 to 8) (size 9 to 14) (size 15 to 20)
#    0.000    2.000    1.250    1.875    0.000    7.000 
#    0.000    5.000    0.000    2.250    0.000    0.000 
#    0.000    0.000    0.000    0.000    0.000    0.000 
#
# Total GULP energy -793608.951256 kJ/mol
# GULP energy per Si atom -12400.139863 kJ/mol
# Density = 1.939150 g / cm^3
# Si number density = 19.435734 Si / 1000 Ang^3
#
#
#
# Elastic Constant Matrix: (Units=GPa)
#
#
# Indices 1 2 3 4 5 6 
#
# 1 87.7006 31.1404 8.0920 0.0000 0.0000 0.0000
# 2 31.1404 76.0948 6.0069 0.0000 0.0000 0.0000
# 3 8.0920 6.0069 11.2794 0.0000 0.0000 0.0000
# 4 0.0000 0.0000 0.0000 27.8307 0.0000 0.0000
# 5 0.0000 0.0000 0.0000 0.0000 28.5106 0.0000
# 6 0.0000 0.0000 0.0000 0.0000 0.0000 18.2715
#
#
#
# Elastic Compliance Matrix: (Units=1/GPa)
#
#
# Indices 1 2 3 4 5 6 
#
# 1 0.013885 -0.005111 -0.007240 0.000000 0.000000 0.000000
# 2 -0.005111 0.015599 -0.004641 0.000000 0.000000 0.000000
# 3 -0.007240 -0.004641 0.096323 0.000000 0.000000 0.000000
# 4 0.000000 0.000000 0.000000 0.035932 0.000000 0.000000
# 5 0.000000 0.000000 0.000000 0.000000 0.035075 0.000000
# 6 0.000000 0.000000 0.000000 0.000000 0.000000 0.054730
#
#
# Mechanical properties :
#
#
# Convention : Reuss Voigt Hill
#
# Bulk Modulus (GPa) = 10.89033 29.50592 20.19812
# Shear Modulus (GPa) = 15.81607 23.57828 19.69717
#
# Velocity S-wave (km/s) = 2.85575 3.48680 3.18693
# Velocity P-wave (km/s) = 4.06068 5.60576 4.89457
#
# Compressibility (1/GPa) = 0.09182457
#
# Stress axis : x y z
#
# Youngs Moduli (GPa) = 72.01960 64.10529 10.38177
#
# Poissons Ratio (x) = 0.32763 0.07516
# Poissons Ratio (y) = 0.36807 0.04818
# Poissons Ratio (z) = 0.52139 0.29751
#
# Static dielectric constant tensor:
#      x y z
#    x 3.563590 0.000000 0.000000 
#    y 0.000000 3.811890 0.000000 
#    z 0.000000 0.000000 3.460830 
# 
# 
# High freq. dielectric constant tensor:
#      x y z
#    x 1.755330 0.000000 0.000000 
#    y 0.000000 1.763590 0.000000 
#    z 0.000000 0.000000 1.751830 
# 
# From -- ./inp_files/10937.got.cif
#   From: 2010.06.25/outbox.cif.g09.slc.cpg/sg58_6_cif.got.tgz:10937.got - 2010.06.26 21:38:00.
