data_PCOD8236449
_publ_section_title
;
Structure prediction by ZEFSAII (Michael W. Deem and Ramdas Pophale) SiO2 
 PCOD8236449
Probable space group: P N N M
;
_chemical_formula_sum "Si O2"
_cell_formula_units_Z 48
_cell_length_a 31.332281
_cell_length_b 8.937863
_cell_length_c 8.559390
_cell_angle_alpha 90.000000
_cell_angle_beta 90.000000
_cell_angle_gamma 90.000000
_cell_volume 2397.002689
_symmetry_space_group_name_H-M "P N N M"
_symmetry_group_IT_number 58
_symmetry_cell_setting 'orthorhombic'
loop_
_space_group_symop_operation_xyz
x,y,z
-x,-y,z
1/2+x,1/2-y,1/2-z
1/2-x,1/2+y,1/2-z
-x,-y,-z
x,y,-z
1/2-x,1/2+y,1/2+z
1/2+x,1/2-y,1/2+z
loop_
_atom_site_type_symbol
_atom_site_label
_atom_site_fract_x
_atom_site_fract_y
_atom_site_fract_z
Si Si1 0.200063 0.386234 0.819013
Si Si2 0.959509 0.800781 0.822885
Si Si3 0.626667 0.291275 0.819820
Si Si4 0.783417 0.297248 0.318504
Si Si5 0.859040 0.110631 0.814829
Si Si6 0.549684 0.654805 0.675550
O O1 0.159048 0.342954 0.716618
O O2 0.212546 0.556066 0.785256
O O3 0.239098 0.279700 0.772023
O O4 0.188430 0.370143 0.000000
O O5 0.921158 0.731595 0.720898
O O6 0.007148 0.768461 0.747566
O O7 0.954377 0.977599 0.823307
O O8 0.956304 0.738804 0.000000
O O9 0.640165 0.433414 0.716351
O O10 0.628599 0.336307 0.000000
O O11 0.784758 0.339997 0.500000
O O12 0.820976 0.182125 0.281045
O O13 0.903413 0.189351 0.752601
O O14 0.853078 0.134840 0.000000
O O15 0.549600 0.714697 0.500000
#
# Coordination Sequence:
#
# PCOD8236449 Si02
#       6
#     8   8   8   8   8   8
#     4  11  24  41  60  80 106 143 180 214 264 328
#     4   8  13  26  47  72 104 141 181 220 261 311
#     4  11  21  33  52  81 114 144 180 227 273 312
#     4  11  24  40  59  84 110 136 174 224 271 315
#     4  10  19  34  56  81 111 147 184 219 264 321
#     4   7  12  24  46  74 103 139 181 220 255 307
#
# _framework density 20.025009000000001
#
# number of rings (size 3 to 8) (size 9 to 14) (size 15 to 20)
#    0.000    2.333    0.000    6.000    0.000    5.333 
#    0.000    7.500    0.000    1.000    0.000    7.000 
#    0.000    0.000    0.000    0.000    0.000    0.000 
#
# Total GULP energy -594771.928019 kJ/mol
# GULP energy per Si atom -12391.081834 kJ/mol
# Density = 1.997943 g / cm^3
# Si number density = 20.025009 Si / 1000 Ang^3
#
#
#
# Elastic Constant Matrix: (Units=GPa)
#
#
# Indices 1 2 3 4 5 6 
#
# 1 64.7537 -16.2197 30.5794 0.0000 0.0000 0.0000
# 2 -16.2197 27.7782 1.3321 0.0000 0.0000 0.0000
# 3 30.5794 1.3321 49.2584 0.0000 0.0000 0.0000
# 4 0.0000 0.0000 0.0000 23.0382 0.0000 0.0000
# 5 0.0000 0.0000 0.0000 0.0000 28.2913 0.0000
# 6 0.0000 0.0000 0.0000 0.0000 0.0000 19.5170
#
#
#
# Elastic Compliance Matrix: (Units=1/GPa)
#
#
# Indices 1 2 3 4 5 6 
#
# 1 0.028332 0.017409 -0.018059 0.000000 0.000000 0.000000
# 2 0.017409 0.046744 -0.012072 0.000000 0.000000 0.000000
# 3 -0.018059 -0.012072 0.031839 0.000000 0.000000 0.000000
# 4 0.000000 0.000000 0.000000 0.043406 0.000000 0.000000
# 5 0.000000 0.000000 0.000000 0.000000 0.035347 0.000000
# 6 0.000000 0.000000 0.000000 0.000000 0.000000 0.051237
#
#
# Mechanical properties :
#
#
# Convention : Reuss Voigt Hill
#
# Bulk Modulus (GPa) = 12.27430 19.24153 15.75792
# Shear Modulus (GPa) = 17.27088 22.57588 19.92338
#
# Velocity S-wave (km/s) = 2.93996 3.36130 3.15767
# Velocity P-wave (km/s) = 4.20325 4.96931 4.60225
#
# Compressibility (1/GPa) = 0.08147104
#
# Stress axis : x y z
#
# Youngs Moduli (GPa) = 35.29563 21.39332 31.40842
#
# Poissons Ratio (x) = -0.37244 0.56721
# Poissons Ratio (y) = -0.61447 0.37915
# Poissons Ratio (z) = 0.63741 0.25825
#
# Static dielectric constant tensor:
#      x y z
#    x 4.548760 0.000000 0.000000 
#    y 0.000000 3.111060 0.000000 
#    z 0.000000 0.000000 3.399640 
# 
# 
# High freq. dielectric constant tensor:
#      x y z
#    x 1.814400 0.000000 0.000000 
#    y 0.000000 1.731790 0.000000 
#    z 0.000000 0.000000 1.759940 
# 
# From -- ./inp_files/2953.got.cif
#   From: 2010.06.25/outbox.cif.g09.slc.cpg/sg58_2_cif.got.tgz:2953.got - 2010.06.26 21:38:00.
