data_PCOD8236262
_publ_section_title
;
Structure prediction by ZEFSAII (Michael W. Deem and Ramdas Pophale) SiO2 
 PCOD8236262
Probable space group: P N N M
;
_chemical_formula_sum "Si O2"
_cell_formula_units_Z 48
_cell_length_a 27.523793
_cell_length_b 10.116182
_cell_length_c 8.853104
_cell_angle_alpha 90.000000
_cell_angle_beta 90.000000
_cell_angle_gamma 90.000000
_cell_volume 2465.020203
_symmetry_space_group_name_H-M "P N N M"
_symmetry_group_IT_number 58
_symmetry_cell_setting 'orthorhombic'
loop_
_space_group_symop_operation_xyz
x,y,z
-x,-y,z
1/2+x,1/2-y,1/2-z
1/2-x,1/2+y,1/2-z
-x,-y,-z
x,y,-z
1/2-x,1/2+y,1/2+z
1/2+x,1/2-y,1/2+z
loop_
_atom_site_type_symbol
_atom_site_label
_atom_site_fract_x
_atom_site_fract_y
_atom_site_fract_z
Si Si1 0.389082 0.979618 0.176625
Si Si2 0.783720 0.882820 0.678954
Si Si3 0.430673 0.254401 0.179918
Si Si4 0.889044 0.970617 0.319938
Si Si5 0.039061 0.251041 0.676894
Si Si6 0.290491 0.892457 0.321855
O O1 0.400603 0.126892 0.235135
O O2 0.344863 0.919766 0.268969
O O3 0.436681 0.892268 0.209953
O O4 0.375521 0.975273 0.000000
O O5 0.784517 0.866346 0.500000
O O6 0.835911 0.931939 0.740285
O O7 0.743759 0.988161 0.732759
O O8 0.770170 0.742517 0.751091
O O9 0.402893 0.383862 0.239886
O O10 0.485200 0.251859 0.248602
O O11 0.433761 0.251335 0.000000
O O12 0.889269 0.968065 0.500000
O O13 0.928038 0.866385 0.253772
O O14 0.034596 0.225294 0.500000
O O15 0.289021 0.877361 0.500000
#
# Coordination Sequence:
#
# PCOD8236262 Si02
#       6
#     8   8   8   8   8   8
#     4  10  19  33  54  79 113 147 179 223 274 326
#     4  10  22  40  59  82 110 142 183 228 276 328
#     4   9  17  26  47  82 112 140 179 226 272 318
#     4   9  16  29  49  76 108 138 171 222 278 322
#     4   9  15  27  48  77 110 142 179 225 273 318
#     4  11  24  39  59  84 111 143 185 229 274 332
#
# _framework density 19.472456999999999
#
# number of rings (size 3 to 8) (size 9 to 14) (size 15 to 20)
#    0.000    2.333    1.667    1.500    2.333    5.333 
#    0.000    0.000    0.000    2.000    0.000    1.167 
#    0.000    0.000    0.000    0.000    0.000    0.000 
#
# Total GULP energy -595222.878405 kJ/mol
# GULP energy per Si atom -12400.476633 kJ/mol
# Density = 1.942814 g / cm^3
# Si number density = 19.472457 Si / 1000 Ang^3
#
#
#
# Elastic Constant Matrix: (Units=GPa)
#
#
# Indices 1 2 3 4 5 6 
#
# 1 88.2851 38.5495 20.2820 0.0000 0.0000 0.0000
# 2 38.5495 157.6147 25.7380 0.0000 0.0000 0.0000
# 3 20.2820 25.7380 20.6694 0.0000 0.0000 0.0000
# 4 0.0000 0.0000 0.0000 18.7733 0.0000 0.0000
# 5 0.0000 0.0000 0.0000 0.0000 14.1339 0.0000
# 6 0.0000 0.0000 0.0000 0.0000 0.0000 38.6222
#
#
#
# Elastic Compliance Matrix: (Units=1/GPa)
#
#
# Indices 1 2 3 4 5 6 
#
# 1 0.014931 -0.001581 -0.012682 0.000000 0.000000 0.000000
# 2 -0.001581 0.008131 -0.008574 0.000000 0.000000 0.000000
# 3 -0.012682 -0.008574 0.071502 0.000000 0.000000 0.000000
# 4 0.000000 0.000000 0.000000 0.053267 0.000000 0.000000
# 5 0.000000 0.000000 0.000000 0.000000 0.070752 0.000000
# 6 0.000000 0.000000 0.000000 0.000000 0.000000 0.025892
#
#
# Mechanical properties :
#
#
# Convention : Reuss Voigt Hill
#
# Bulk Modulus (GPa) = 20.45431 48.41201 34.43316
# Shear Modulus (GPa) = 16.31606 26.43921 21.37764
#
# Velocity S-wave (km/s) = 2.89780 3.68880 3.31696
# Velocity P-wave (km/s) = 4.66083 6.56191 5.69131
#
# Compressibility (1/GPa) = 0.04888945
#
# Stress axis : x y z
#
# Youngs Moduli (GPa) = 66.97584 122.98084 13.98557
#
# Poissons Ratio (x) = 0.19440 0.17737
# Poissons Ratio (y) = 0.10587 0.11992
# Poissons Ratio (z) = 0.84942 1.05446
#
# Static dielectric constant tensor:
#      x y z
#    x 3.712180 0.000000 0.000000 
#    y 0.000000 3.843660 0.000000 
#    z 0.000000 0.000000 2.930140 
# 
# 
# High freq. dielectric constant tensor:
#      x y z
#    x 1.769110 0.000000 0.000000 
#    y 0.000000 1.779120 0.000000 
#    z 0.000000 0.000000 1.690460 
# 
# From -- ./inp_files/3011.got.cif
#   From: 2010.06.25/outbox.cif.g09.slc.cpg/sg58_2_cif.got.tgz:3011.got - 2010.06.26 21:38:00.
