data_PCOD8236142
_publ_section_title
;
Structure prediction by ZEFSAII (Michael W. Deem and Ramdas Pophale) SiO2 
 PCOD8236142
Probable space group: P N N M
;
_chemical_formula_sum "Si O2"
_cell_formula_units_Z 64
_cell_length_a 28.620457
_cell_length_b 11.933972
_cell_length_c 9.844735
_cell_angle_alpha 90.000000
_cell_angle_beta 90.000000
_cell_angle_gamma 90.000000
_cell_volume 3362.525674
_symmetry_space_group_name_H-M "P N N M"
_symmetry_group_IT_number 58
_symmetry_cell_setting 'orthorhombic'
loop_
_space_group_symop_operation_xyz
x,y,z
-x,-y,z
1/2+x,1/2-y,1/2-z
1/2-x,1/2+y,1/2-z
-x,-y,-z
x,y,-z
1/2-x,1/2+y,1/2+z
1/2+x,1/2-y,1/2+z
loop_
_atom_site_type_symbol
_atom_site_label
_atom_site_fract_x
_atom_site_fract_y
_atom_site_fract_z
Si Si1 0.922160 0.038661 0.347982
Si Si2 0.340999 0.737776 0.342784
Si Si3 0.030614 0.733608 0.342793
Si Si4 0.187746 0.485118 0.155391
Si Si5 0.770233 0.958103 0.154955
Si Si6 0.570485 0.288136 0.154004
Si Si7 0.348711 0.381792 0.346928
Si Si8 0.608001 0.850750 0.344000
O O1 0.903338 0.059439 0.500000
O O2 0.957574 0.137314 0.306872
O O3 0.878097 0.037034 0.248986
O O4 0.946222 0.917640 0.335958
O O5 0.355697 0.725990 0.500000
O O6 0.313694 0.853286 0.316076
O O7 0.306500 0.638164 0.298720
O O8 0.388004 0.739864 0.255344
O O9 0.041081 0.706175 0.500000
O O10 0.062060 0.651745 0.250367
O O11 0.975738 0.715359 0.309835
O O12 0.225320 0.545698 0.250103
O O13 0.136577 0.536368 0.186713
O O14 0.201696 0.511210 0.000000
O O15 0.794836 0.080321 0.169778
O O16 0.754187 0.936947 0.000000
O O17 0.587001 0.261728 0.000000
O O18 0.365542 0.405959 0.500000
O O19 0.356676 0.252004 0.309117
O O20 0.591281 0.845253 0.500000
#
# Coordination Sequence:
#
# PCOD8236142 Si02
#       8
#     8   8   8   8   8   8   8   8
#     4   9  16  28  48  76 110 143 173 212 262 316
#     4  10  22  40  57  79 111 143 179 223 269 320
#     4   9  18  32  52  80 112 144 181 224 270 320
#     4  10  23  40  58  78 105 142 183 224 264 318
#     4  10  21  36  56  81 108 137 173 220 275 324
#     4  10  19  32  53  81 111 145 183 223 270 321
#     4   9  17  31  51  76 106 136 168 214 265 312
#     4   9  19  36  55  77 106 141 182 222 264 317
#
# _framework density 19.033311999999999
#
# number of rings (size 3 to 8) (size 9 to 14) (size 15 to 20)
#    0.000    2.500    1.250    0.375    1.750    4.000 
#    0.000    0.625    0.000    7.500    0.000    0.000 
#    0.000    0.000    0.000    0.000    0.000    0.000 
#
# Total GULP energy -793442.520772 kJ/mol
# GULP energy per Si atom -12397.539387 kJ/mol
# Density = 1.898999 g / cm^3
# Si number density = 19.033312 Si / 1000 Ang^3
#
#
#
# Elastic Constant Matrix: (Units=GPa)
#
#
# Indices 1 2 3 4 5 6 
#
# 1 105.8651 22.8276 67.6357 0.0000 0.0000 0.0000
# 2 22.8276 50.7441 22.2789 0.0000 0.0000 0.0000
# 3 67.6357 22.2789 86.8636 0.0000 0.0000 0.0000
# 4 0.0000 0.0000 0.0000 161.9553 0.0000 0.0000
# 5 0.0000 0.0000 0.0000 0.0000 39.6723 0.0000
# 6 0.0000 0.0000 0.0000 0.0000 0.0000 17.3844
#
#
#
# Elastic Compliance Matrix: (Units=1/GPa)
#
#
# Indices 1 2 3 4 5 6 
#
# 1 0.019035 -0.002317 -0.014227 0.000000 0.000000 0.000000
# 2 -0.002317 0.022489 -0.003964 0.000000 0.000000 0.000000
# 3 -0.014227 -0.003964 0.023607 0.000000 0.000000 0.000000
# 4 0.000000 0.000000 0.000000 0.006175 0.000000 0.000000
# 5 0.000000 0.000000 0.000000 0.000000 0.025206 0.000000
# 6 0.000000 0.000000 0.000000 0.000000 0.000000 0.057523
#
#
# Mechanical properties :
#
#
# Convention : Reuss Voigt Hill
#
# Bulk Modulus (GPa) = 41.46795 52.10637 46.78716
# Shear Modulus (GPa) = 24.61954 52.51779 38.56867
#
# Velocity S-wave (km/s) = 3.60042 5.25856 4.50641
# Velocity P-wave (km/s) = 6.25447 8.01909 7.19111
#
# Compressibility (1/GPa) = 0.02411501
#
# Stress axis : x y z
#
# Youngs Moduli (GPa) = 52.53408 44.46547 42.35996
#
# Poissons Ratio (x) = 0.10301 0.60268
# Poissons Ratio (y) = 0.12170 0.16793
# Poissons Ratio (z) = 0.74743 0.17627
#
# Static dielectric constant tensor:
#      x y z
#    x 3.262940 0.000000 0.000000 
#    y 0.000000 3.415430 0.000000 
#    z 0.000000 0.000000 3.501530 
# 
# 
# High freq. dielectric constant tensor:
#      x y z
#    x 1.724800 0.000000 0.000000 
#    y 0.000000 1.730030 0.000000 
#    z 0.000000 0.000000 1.738730 
# 
# From -- ./inp_files/4730.got.cif
#   From: 2010.06.25/outbox.cif.g09.slc.cpg/sg58_3_cif.got.tgz:4730.got - 2010.06.26 21:38:00.
