data_PCOD8236774
_publ_section_title
;
Structure prediction by ZEFSAII (Michael W. Deem and Ramdas Pophale) SiO2 
 PCOD8236774
Probable space group: P N N M
;
_chemical_formula_sum "Si O2"
_cell_formula_units_Z 64
_cell_length_a 30.634455
_cell_length_b 12.129651
_cell_length_c 8.854940
_cell_angle_alpha 90.000000
_cell_angle_beta 90.000000
_cell_angle_gamma 90.000000
_cell_volume 3290.365073
_symmetry_space_group_name_H-M "P N N M"
_symmetry_group_IT_number 58
_symmetry_cell_setting 'orthorhombic'
loop_
_space_group_symop_operation_xyz
x,y,z
-x,-y,z
1/2+x,1/2-y,1/2-z
1/2-x,1/2+y,1/2-z
-x,-y,-z
x,y,-z
1/2-x,1/2+y,1/2+z
1/2+x,1/2-y,1/2+z
loop_
_atom_site_type_symbol
_atom_site_label
_atom_site_fract_x
_atom_site_fract_y
_atom_site_fract_z
Si Si1 0.198137 0.485084 0.823171
Si Si2 0.050689 0.495306 0.677917
Si Si3 0.048654 0.032053 0.679234
Si Si4 0.878142 0.357611 0.178768
Si Si5 0.205543 0.029108 0.321370
Si Si6 0.076342 0.261976 0.331902
Si Si7 0.676601 0.233750 0.832503
Si Si8 0.126377 0.896547 0.178737
O O1 0.163237 0.572764 0.755934
O O2 0.246715 0.499004 0.757017
O O3 0.183318 0.361988 0.787253
O O4 0.200197 0.503447 0.000000
O O5 0.059642 0.503534 0.500000
O O6 0.076756 0.595247 0.754261
O O7 0.067640 0.379037 0.749044
O O8 0.000000 0.500000 0.718651
O O9 0.057153 0.029844 0.500000
O O10 0.082626 0.949454 0.755037
O O11 0.053869 0.156203 0.745842
O O12 0.000000 0.000000 0.723761
O O13 0.872389 0.231229 0.229102
O O14 0.880848 0.368874 0.000000
O O15 0.200322 0.009974 0.500000
O O16 0.201748 0.157611 0.279422
O O17 0.169750 0.955041 0.239087
O O18 0.056565 0.274506 0.500000
O O19 0.126658 0.231896 0.336683
O O20 0.691961 0.195430 0.000000
O O21 0.125386 0.908675 0.000000
#
# Coordination Sequence:
#
# PCOD8236774 Si02
#       8
#     8   8   8   8   8   8   8   8
#     4  10  22  39  59  84 114 150 193 236 284 344
#     4  10  21  36  59  88 115 146 191 242 282 329
#     4  10  21  38  63  88 115 154 193 233 287 345
#     4  10  23  41  57  80 119 159 189 228 291 350
#     4  10  22  40  61  84 114 153 193 238 289 344
#     4   9  17  34  56  84 113 142 186 235 282 330
#     4  10  19  36  62  84 111 148 189 238 289 337
#     4  11  24  40  59  84 119 156 193 240 288 340
#
# _framework density 19.45073
#
# number of rings (size 3 to 8) (size 9 to 14) (size 15 to 20)
#    0.000    2.000    2.500    0.375    3.500    2.500 
#    0.000    0.625    0.000    0.000    0.000    0.000 
#    0.000    0.000    0.000    0.000    0.000    0.000 
#
# Total GULP energy -793481.939123 kJ/mol
# GULP energy per Si atom -12398.155299 kJ/mol
# Density = 1.940646 g / cm^3
# Si number density = 19.450730 Si / 1000 Ang^3
#
#
#
# Elastic Constant Matrix: (Units=GPa)
#
#
# Indices 1 2 3 4 5 6 
#
# 1 129.4881 56.4476 30.1845 0.0000 0.0000 0.0000
# 2 56.4476 128.7681 29.2169 0.0000 0.0000 0.0000
# 3 30.1845 29.2169 32.1426 0.0000 0.0000 0.0000
# 4 0.0000 0.0000 0.0000 28.6085 0.0000 0.0000
# 5 0.0000 0.0000 0.0000 0.0000 20.4008 0.0000
# 6 0.0000 0.0000 0.0000 0.0000 0.0000 34.1012
#
#
#
# Elastic Compliance Matrix: (Units=1/GPa)
#
#
# Indices 1 2 3 4 5 6 
#
# 1 0.010763 -0.003055 -0.007331 0.000000 0.000000 0.000000
# 2 -0.003055 0.010651 -0.006813 0.000000 0.000000 0.000000
# 3 -0.007331 -0.006813 0.044188 0.000000 0.000000 0.000000
# 4 0.000000 0.000000 0.000000 0.034955 0.000000 0.000000
# 5 0.000000 0.000000 0.000000 0.000000 0.049018 0.000000
# 6 0.000000 0.000000 0.000000 0.000000 0.000000 0.029324
#
#
# Mechanical properties :
#
#
# Convention : Reuss Voigt Hill
#
# Bulk Modulus (GPa) = 32.04542 58.01077 45.02810
# Shear Modulus (GPa) = 22.35163 28.25875 25.30519
#
# Velocity S-wave (km/s) = 3.39358 3.81575 3.61084
# Velocity P-wave (km/s) = 5.64501 7.02157 6.37058
#
# Compressibility (1/GPa) = 0.03120570
#
# Stress axis : x y z
#
# Youngs Moduli (GPa) = 92.90821 93.88950 22.63057
#
# Poissons Ratio (x) = 0.28683 0.16590
# Poissons Ratio (y) = 0.28383 0.15417
# Poissons Ratio (z) = 0.68109 0.63962
#
# Static dielectric constant tensor:
#      x y z
#    x 3.702700 0.000000 0.000000 
#    y 0.000000 3.724130 0.000000 
#    z 0.000000 0.000000 3.279130 
# 
# 
# High freq. dielectric constant tensor:
#      x y z
#    x 1.768330 0.000000 0.000000 
#    y 0.000000 1.773660 0.000000 
#    z 0.000000 0.000000 1.726210 
# 
# From -- ./inp_files/4751.got.cif
#   From: 2010.06.25/outbox.cif.g09.slc.cpg/sg58_3_cif.got.tgz:4751.got - 2010.06.26 21:38:00.
