data_PCOD8236789
_publ_section_title
;
Structure prediction by ZEFSAII (Michael W. Deem and Ramdas Pophale) SiO2 
 PCOD8236789
Probable space group: P N N M
;
_chemical_formula_sum "Si O2"
_cell_formula_units_Z 64
_cell_length_a 12.006972
_cell_length_b 30.548635
_cell_length_c 8.807027
_cell_angle_alpha 90.000000
_cell_angle_beta 90.000000
_cell_angle_gamma 90.000000
_cell_volume 3230.387604
_symmetry_space_group_name_H-M "P N N M"
_symmetry_group_IT_number 58
_symmetry_cell_setting 'orthorhombic'
loop_
_space_group_symop_operation_xyz
x,y,z
-x,-y,z
1/2+x,1/2-y,1/2-z
1/2-x,1/2+y,1/2-z
-x,-y,-z
x,y,-z
1/2-x,1/2+y,1/2+z
1/2+x,1/2-y,1/2+z
loop_
_atom_site_type_symbol
_atom_site_label
_atom_site_fract_x
_atom_site_fract_y
_atom_site_fract_z
Si Si1 0.396838 0.128521 0.180184
Si Si2 0.268341 0.325075 0.169832
Si Si3 0.153109 0.124994 0.319836
Si Si4 0.007355 0.950938 0.319667
Si Si5 0.461562 0.953629 0.821221
Si Si6 0.032526 0.293479 0.177311
Si Si7 0.252370 0.424554 0.829518
Si Si8 0.007717 0.805686 0.176486
O O1 0.273582 0.127446 0.246493
O O2 0.464055 0.086296 0.244324
O O3 0.458564 0.172824 0.227961
O O4 0.389217 0.127473 0.000000
O O5 0.221202 0.373943 0.171255
O O6 0.367146 0.320753 0.289192
O O7 0.163380 0.295823 0.219235
O O8 0.310927 0.312839 0.000000
O O9 0.164846 0.125099 0.500000
O O10 0.091891 0.080556 0.260995
O O11 0.081171 0.167075 0.272797
O O12 0.002465 0.951924 0.500000
O O13 0.123842 0.930854 0.263451
O O14 0.000000 0.000000 0.252140
O O15 0.332931 0.949503 0.777667
O O16 0.500000 0.000000 0.751890
O O17 0.473090 0.953775 0.000000
O O18 0.996797 0.244927 0.223490
O O19 0.013643 0.303404 0.000000
O O20 0.243981 0.443912 0.000000
O O21 0.980997 0.812710 0.000000
#
# Coordination Sequence:
#
# PCOD8236789 Si02
#       8
#     8   8   8   8   8   8   8   8
#     4  11  24  41  61  87 121 160 202 247 297 355
#     4  10  20  39  63  86 117 155 200 251 299 348
#     4  11  23  41  63  87 122 162 198 245 303 355
#     4   9  19  36  58  87 119 152 195 247 296 346
#     4  10  23  41  59  85 124 161 193 238 299 359
#     4  10  23  42  62  88 120 157 200 248 298 351
#     4  10  19  36  63  88 112 149 202 251 291 343
#     4  11  24  40  61  91 122 156 200 245 298 361
#
# _framework density 19.811862999999999
#
# number of rings (size 3 to 8) (size 9 to 14) (size 15 to 20)
#    0.000    1.750    2.500    1.125    3.500    2.750 
#    0.000    0.000    0.000    1.875    0.000    0.000 
#    0.000    0.000    0.000    0.000    0.000    0.000 
#
# Total GULP energy -793688.032460 kJ/mol
# GULP energy per Si atom -12401.375507 kJ/mol
# Density = 1.976677 g / cm^3
# Si number density = 19.811863 Si / 1000 Ang^3
#
#
#
# Elastic Constant Matrix: (Units=GPa)
#
#
# Indices 1 2 3 4 5 6 
#
# 1 119.3333 45.7050 30.8114 0.0000 0.0000 0.0000
# 2 45.7050 121.6205 33.9782 0.0000 0.0000 0.0000
# 3 30.8114 33.9782 43.9057 0.0000 0.0000 0.0000
# 4 0.0000 0.0000 0.0000 20.1189 0.0000 0.0000
# 5 0.0000 0.0000 0.0000 0.0000 34.7073 0.0000
# 6 0.0000 0.0000 0.0000 0.0000 0.0000 30.4956
#
#
#
# Elastic Compliance Matrix: (Units=1/GPa)
#
#
# Indices 1 2 3 4 5 6 
#
# 1 0.010788 -0.002474 -0.005656 0.000000 0.000000 0.000000
# 2 -0.002474 0.011058 -0.006821 0.000000 0.000000 0.000000
# 3 -0.005656 -0.006821 0.032024 0.000000 0.000000 0.000000
# 4 0.000000 0.000000 0.000000 0.049704 0.000000 0.000000
# 5 0.000000 0.000000 0.000000 0.000000 0.028812 0.000000
# 6 0.000000 0.000000 0.000000 0.000000 0.000000 0.032792
#
#
# Mechanical properties :
#
#
# Convention : Reuss Voigt Hill
#
# Bulk Modulus (GPa) = 41.72351 56.20541 48.96446
# Shear Modulus (GPa) = 24.62208 28.68867 26.65538
#
# Velocity S-wave (km/s) = 3.52915 3.80946 3.67198
# Velocity P-wave (km/s) = 6.14102 6.91234 6.53807
#
# Compressibility (1/GPa) = 0.02396730
#
# Stress axis : x y z
#
# Youngs Moduli (GPa) = 92.69787 90.43434 31.22635
#
# Poissons Ratio (x) = 0.22372 0.17661
# Poissons Ratio (y) = 0.22932 0.21301
# Poissons Ratio (z) = 0.52429 0.61689
#
# Static dielectric constant tensor:
#      x y z
#    x 3.629060 0.000000 0.000000 
#    y 0.000000 3.882800 0.000000 
#    z 0.000000 0.000000 3.396590 
# 
# 
# High freq. dielectric constant tensor:
#      x y z
#    x 1.783510 0.000000 0.000000 
#    y 0.000000 1.782610 0.000000 
#    z 0.000000 0.000000 1.752470 
# 
# From -- ./inp_files/4755.got.cif
#   From: 2010.06.25/outbox.cif.g09.slc.cpg/sg58_3_cif.got.tgz:4755.got - 2010.06.26 21:38:00.
