data_PCOD8236047
_publ_section_title
;
Structure prediction by ZEFSAII (Michael W. Deem and Ramdas Pophale) SiO2 
 PCOD8236047
Probable space group: P N N M
;
_chemical_formula_sum "Si O2"
_cell_formula_units_Z 64
_cell_length_a 29.560029
_cell_length_b 12.096166
_cell_length_c 8.997345
_cell_angle_alpha 90.000000
_cell_angle_beta 90.000000
_cell_angle_gamma 90.000000
_cell_volume 3217.117830
_symmetry_space_group_name_H-M "P N N M"
_symmetry_group_IT_number 58
_symmetry_cell_setting 'orthorhombic'
loop_
_space_group_symop_operation_xyz
x,y,z
-x,-y,z
1/2+x,1/2-y,1/2-z
1/2-x,1/2+y,1/2-z
-x,-y,-z
x,y,-z
1/2-x,1/2+y,1/2+z
1/2+x,1/2-y,1/2+z
loop_
_atom_site_type_symbol
_atom_site_label
_atom_site_fract_x
_atom_site_fract_y
_atom_site_fract_z
Si Si1 0.925103 0.037606 0.332281
Si Si2 0.337648 0.733978 0.323905
Si Si3 0.028562 0.739474 0.327039
Si Si4 0.182764 0.477594 0.175624
Si Si5 0.781427 0.962046 0.324336
Si Si6 0.568431 0.290721 0.169210
Si Si7 0.343472 0.380567 0.326344
Si Si8 0.612397 0.848066 0.324570
O O1 0.906969 0.059209 0.500000
O O2 0.959425 0.134033 0.284796
O O3 0.883222 0.034672 0.218129
O O4 0.948302 0.918161 0.322793
O O5 0.334248 0.719104 0.500000
O O6 0.318240 0.851687 0.267303
O O7 0.307645 0.640070 0.248061
O O8 0.390143 0.731388 0.278079
O O9 0.034926 0.717273 0.500000
O O10 0.061962 0.654925 0.243196
O O11 0.975940 0.719900 0.281821
O O12 0.228742 0.540493 0.222322
O O13 0.139525 0.545686 0.237786
O O14 0.179109 0.476625 0.000000
O O15 0.788305 0.955856 0.500000
O O16 0.799447 0.079814 0.263567
O O17 0.582795 0.261821 0.000000
O O18 0.333162 0.388120 0.500000
O O19 0.358131 0.258320 0.275695
O O20 0.606667 0.850327 0.500000
#
# Coordination Sequence:
#
# PCOD8236047 Si02
#       8
#     8   8   8   8   8   8   8   8
#     4   9  16  29  50  76 112 152 184 221 274 335
#     4  11  23  40  60  85 115 146 191 240 280 332
#     4   9  18  32  53  83 115 150 193 235 279 335
#     4   9  22  42  61  80 110 152 191 232 282 340
#     4  11  22  38  60  83 112 149 185 226 287 348
#     4  10  19  33  54  81 116 155 190 230 285 340
#     4  10  19  31  53  84 114 143 180 230 276 326
#     4   9  19  38  59  80 111 150 191 234 282 332
#
# _framework density 19.893581999999999
#
# number of rings (size 3 to 8) (size 9 to 14) (size 15 to 20)
#    0.000    2.250    1.250    1.500    1.750    2.500 
#    0.000    5.000    0.000    7.500    0.000    0.000 
#    0.000    0.000    0.000    0.000    0.000    0.000 
#
# Total GULP energy -793328.282085 kJ/mol
# GULP energy per Si atom -12395.754408 kJ/mol
# Density = 1.984830 g / cm^3
# Si number density = 19.893582 Si / 1000 Ang^3
#
#
#
# Elastic Constant Matrix: (Units=GPa)
#
#
# Indices 1 2 3 4 5 6 
#
# 1 113.9482 40.2646 35.7406 0.0000 0.0000 0.0000
# 2 40.2646 71.3794 27.8515 0.0000 0.0000 0.0000
# 3 35.7406 27.8515 60.8929 0.0000 0.0000 0.0000
# 4 0.0000 0.0000 0.0000 19.0729 0.0000 0.0000
# 5 0.0000 0.0000 0.0000 0.0000 26.3076 0.0000
# 6 0.0000 0.0000 0.0000 0.0000 0.0000 23.4164
#
#
#
# Elastic Compliance Matrix: (Units=1/GPa)
#
#
# Indices 1 2 3 4 5 6 
#
# 1 0.012017 -0.004901 -0.004811 0.000000 0.000000 0.000000
# 2 -0.004901 0.019052 -0.005837 0.000000 0.000000 0.000000
# 3 -0.004811 -0.005837 0.021916 0.000000 0.000000 0.000000
# 4 0.000000 0.000000 0.000000 0.052431 0.000000 0.000000
# 5 0.000000 0.000000 0.000000 0.000000 0.038012 0.000000
# 6 0.000000 0.000000 0.000000 0.000000 0.000000 0.042705
#
#
# Mechanical properties :
#
#
# Convention : Reuss Voigt Hill
#
# Bulk Modulus (GPa) = 45.69332 50.43710 48.06521
# Shear Modulus (GPa) = 22.26893 23.25030 22.75961
#
# Velocity S-wave (km/s) = 3.34938 3.42238 3.38608
# Velocity P-wave (km/s) = 6.16251 6.40511 6.28498
#
# Compressibility (1/GPa) = 0.02188504
#
# Stress axis : x y z
#
# Youngs Moduli (GPa) = 83.21550 52.48763 45.62824
#
# Poissons Ratio (x) = 0.25726 0.21954
# Poissons Ratio (y) = 0.40786 0.26635
# Poissons Ratio (z) = 0.40039 0.30639
#
# Static dielectric constant tensor:
#      x y z
#    x 3.751610 0.000000 0.000000 
#    y 0.000000 3.677810 0.000000 
#    z 0.000000 0.000000 3.455880 
# 
# 
# High freq. dielectric constant tensor:
#      x y z
#    x 1.780050 0.000000 0.000000 
#    y 0.000000 1.762750 0.000000 
#    z 0.000000 0.000000 1.758320 
# 
# From -- ./inp_files/11070.got.cif
#   From: 2010.06.25/outbox.cif.g09.slc.cpg/sg58_6_cif.got.tgz:11070.got - 2010.06.26 21:38:00.
