data_PCOD8236270
_publ_section_title
;
Structure prediction by ZEFSAII (Michael W. Deem and Ramdas Pophale) SiO2 
 PCOD8236270
Probable space group: P N N M
;
_chemical_formula_sum "Si O2"
_cell_formula_units_Z 64
_cell_length_a 29.146511
_cell_length_b 12.636504
_cell_length_c 8.940185
_cell_angle_alpha 90.000000
_cell_angle_beta 90.000000
_cell_angle_gamma 90.000000
_cell_volume 3292.759563
_symmetry_space_group_name_H-M "P N N M"
_symmetry_group_IT_number 58
_symmetry_cell_setting 'orthorhombic'
loop_
_space_group_symop_operation_xyz
x,y,z
-x,-y,z
1/2+x,1/2-y,1/2-z
1/2-x,1/2+y,1/2-z
-x,-y,-z
x,y,-z
1/2-x,1/2+y,1/2+z
1/2+x,1/2-y,1/2+z
loop_
_atom_site_type_symbol
_atom_site_label
_atom_site_fract_x
_atom_site_fract_y
_atom_site_fract_z
Si Si1 0.390234 0.878858 0.823319
Si Si2 0.833822 0.331746 0.169298
Si Si3 0.298405 0.362009 0.173176
Si Si4 0.422551 0.105483 0.175341
Si Si5 0.200190 0.438395 0.168593
Si Si6 0.103728 0.947884 0.327797
Si Si7 0.034436 0.791745 0.823288
Si Si8 0.559049 0.331671 0.824252
O O1 0.338202 0.878598 0.765099
O O2 0.415557 0.773918 0.764922
O O3 0.418512 0.983435 0.768445
O O4 0.387243 0.880612 0.000000
O O5 0.800738 0.238699 0.219811
O O6 0.875633 0.334304 0.285592
O O7 0.804162 0.436551 0.180694
O O8 0.852342 0.314425 0.000000
O O9 0.251552 0.417312 0.225377
O O10 0.341800 0.439005 0.201009
O O11 0.296435 0.327511 0.000000
O O12 0.462411 0.171007 0.259615
O O13 0.432543 0.111042 0.000000
O O14 0.193166 0.398280 0.000000
O O15 0.091024 0.923843 0.500000
O O16 0.089977 0.067148 0.284184
O O17 0.077586 0.862571 0.226387
O O18 0.988725 0.845935 0.760775
O O19 0.032340 0.786801 0.000000
O O20 0.549178 0.323538 0.000000
#
# Coordination Sequence:
#
# PCOD8236270 Si02
#       8
#     8   8   8   8   8   8   8   8
#     4   9  20  38  60  85 113 149 193 238 282 338
#     4  10  19  33  54  81 111 144 184 236 284 329
#     4  10  20  35  56  82 111 149 191 230 279 342
#     4  10  19  35  59  83 111 147 188 234 282 336
#     4   9  20  36  55  82 116 150 186 229 288 345
#     4  10  21  38  60  82 111 152 196 236 281 340
#     4  12  24  37  57  86 116 148 191 240 292 341
#     4  10  22  40  60  83 114 153 194 233 285 347
#
# _framework density 19.436585000000001
#
# number of rings (size 3 to 8) (size 9 to 14) (size 15 to 20)
#    0.000    2.000    1.250    2.250    0.000    5.500 
#    0.000    5.000    0.000    0.000    0.000    0.000 
#    0.000    0.000    0.000    0.000    0.000    0.000 
#
# Total GULP energy -793645.038992 kJ/mol
# GULP energy per Si atom -12400.703734 kJ/mol
# Density = 1.939235 g / cm^3
# Si number density = 19.436585 Si / 1000 Ang^3
#
#
#
# Elastic Constant Matrix: (Units=GPa)
#
#
# Indices 1 2 3 4 5 6 
#
# 1 80.4298 31.9540 20.8300 0.0000 0.0000 0.0000
# 2 31.9540 101.8178 31.7528 0.0000 0.0000 0.0000
# 3 20.8300 31.7528 55.4980 0.0000 0.0000 0.0000
# 4 0.0000 0.0000 0.0000 20.1922 0.0000 0.0000
# 5 0.0000 0.0000 0.0000 0.0000 27.7548 0.0000
# 6 0.0000 0.0000 0.0000 0.0000 0.0000 26.6670
#
#
#
# Elastic Compliance Matrix: (Units=1/GPa)
#
#
# Indices 1 2 3 4 5 6 
#
# 1 0.014747 -0.003532 -0.003514 0.000000 0.000000 0.000000
# 2 -0.003532 0.012801 -0.005998 0.000000 0.000000 0.000000
# 3 -0.003514 -0.005998 0.022769 0.000000 0.000000 0.000000
# 4 0.000000 0.000000 0.000000 0.049524 0.000000 0.000000
# 5 0.000000 0.000000 0.000000 0.000000 0.036030 0.000000
# 6 0.000000 0.000000 0.000000 0.000000 0.000000 0.037500
#
#
# Mechanical properties :
#
#
# Convention : Reuss Voigt Hill
#
# Bulk Modulus (GPa) = 41.27427 45.20214 43.23821
# Shear Modulus (GPa) = 24.09245 25.13671 24.61458
#
# Velocity S-wave (km/s) = 3.52453 3.60010 3.56252
# Velocity P-wave (km/s) = 6.15179 6.37085 6.26228
#
# Compressibility (1/GPa) = 0.02422817
#
# Stress axis : x y z
#
# Youngs Moduli (GPa) = 67.81256 78.12188 43.91886
#
# Poissons Ratio (x) = 0.27594 0.15433
# Poissons Ratio (y) = 0.23952 0.26343
# Poissons Ratio (z) = 0.23829 0.46858
#
# Static dielectric constant tensor:
#      x y z
#    x 3.529480 0.000000 0.000000 
#    y 0.000000 3.741470 0.000000 
#    z 0.000000 0.000000 3.455820 
# 
# 
# High freq. dielectric constant tensor:
#      x y z
#    x 1.753220 0.000000 0.000000 
#    y 0.000000 1.761730 0.000000 
#    z 0.000000 0.000000 1.748310 
# 
# From -- ./inp_files/4774.got.cif
#   From: 2010.06.25/outbox.cif.g09.slc.cpg/sg58_3_cif.got.tgz:4774.got - 2010.06.26 21:38:00.
