data_PCOD8236862
_publ_section_title
;
Structure prediction by ZEFSAII (Michael W. Deem and Ramdas Pophale) SiO2 
 PCOD8236862
Probable space group: P N N M
;
_chemical_formula_sum "Si O2"
_cell_formula_units_Z 48
_cell_length_a 10.130789
_cell_length_b 14.134050
_cell_length_c 16.211212
_cell_angle_alpha 90.000000
_cell_angle_beta 90.000000
_cell_angle_gamma 90.000000
_cell_volume 2321.268504
_symmetry_space_group_name_H-M "P N N M"
_symmetry_group_IT_number 58
_symmetry_cell_setting 'orthorhombic'
loop_
_space_group_symop_operation_xyz
x,y,z
-x,-y,z
1/2+x,1/2-y,1/2-z
1/2-x,1/2+y,1/2-z
-x,-y,-z
x,y,-z
1/2-x,1/2+y,1/2+z
1/2+x,1/2-y,1/2+z
loop_
_atom_site_type_symbol
_atom_site_label
_atom_site_fract_x
_atom_site_fract_y
_atom_site_fract_z
Si Si1 0.752575 0.717229 0.405014
Si Si2 0.004974 0.396132 0.597181
Si Si3 0.760220 0.787195 0.097209
Si Si4 0.378877 0.390586 0.155820
Si Si5 0.986890 0.110811 0.838008
Si Si6 0.342291 0.588109 0.906594
O O1 0.790173 0.729955 0.500000
O O2 0.870404 0.657889 0.361972
O O3 0.615516 0.662457 0.398365
O O4 0.752899 0.825387 0.370340
O O5 0.026710 0.405152 0.500000
O O6 0.000000 0.500000 0.637378
O O7 0.871775 0.342846 0.619084
O O8 0.737887 0.680533 0.129793
O O9 0.874547 0.837261 0.149189
O O10 0.793813 0.788281 0.000000
O O11 0.432728 0.371958 0.246959
O O12 0.503113 0.380684 0.094013
O O13 0.319503 0.496883 0.151328
O O14 0.000000 0.000000 0.860606
O O15 0.302963 0.561475 0.000000
#
# Coordination Sequence:
#
# PCOD8236862 Si02
#       6
#     8   8   8   8   8   8
#     4  10  21  38  63  90 122 167 214 262 316 380
#     4   9  17  32  55  82 112 155 213 260 292 352
#     4  11  23  40  63  92 126 170 220 265 317 385
#     4  11  22  38  64  92 124 162 213 264 322 373
#     4  12  26  40  60  93 139 174 202 256 337 395
#     4  10  19  39  68  92 115 156 220 275 311 367
#
# _framework density 20.678346999999999
#
# number of rings (size 3 to 8) (size 9 to 14) (size 15 to 20)
#    0.000    1.500    3.333    3.500    2.333    2.667 
#    0.000    0.833    0.000    3.000    0.000    0.000 
#    0.000    0.000    0.000    0.000    0.000    0.000 
#
# Total GULP energy -595127.244435 kJ/mol
# GULP energy per Si atom -12398.484259 kJ/mol
# Density = 2.063128 g / cm^3
# Si number density = 20.678347 Si / 1000 Ang^3
#
#
#
# Elastic Constant Matrix: (Units=GPa)
#
#
# Indices 1 2 3 4 5 6 
#
# 1 94.9289 58.9439 6.6818 0.0000 0.0000 0.0000
# 2 58.9439 164.0505 24.8111 0.0000 0.0000 0.0000
# 3 6.6818 24.8111 48.2116 0.0000 0.0000 0.0000
# 4 0.0000 0.0000 0.0000 22.1933 0.0000 0.0000
# 5 0.0000 0.0000 0.0000 0.0000 22.6386 0.0000
# 6 0.0000 0.0000 0.0000 0.0000 0.0000 42.5645
#
#
#
# Elastic Compliance Matrix: (Units=1/GPa)
#
#
# Indices 1 2 3 4 5 6 
#
# 1 0.013580 -0.004982 0.000682 0.000000 0.000000 0.000000
# 2 -0.004982 0.008438 -0.003652 0.000000 0.000000 0.000000
# 3 0.000682 -0.003652 0.022527 0.000000 0.000000 0.000000
# 4 0.000000 0.000000 0.000000 0.045059 0.000000 0.000000
# 5 0.000000 0.000000 0.000000 0.000000 0.044172 0.000000
# 6 0.000000 0.000000 0.000000 0.000000 0.000000 0.023494
#
#
# Mechanical properties :
#
#
# Convention : Reuss Voigt Hill
#
# Bulk Modulus (GPa) = 34.91609 54.22939 44.57274
# Shear Modulus (GPa) = 27.36405 31.92954 29.64679
#
# Velocity S-wave (km/s) = 3.64169 3.93377 3.79055
# Velocity P-wave (km/s) = 5.88256 6.84945 6.38433
#
# Compressibility (1/GPa) = 0.02864009
#
# Stress axis : x y z
#
# Youngs Moduli (GPa) = 73.63805 118.50811 44.39151
#
# Poissons Ratio (x) = 0.59046 -0.03028
# Poissons Ratio (y) = 0.36690 0.16212
# Poissons Ratio (z) = -0.05022 0.43280
#
# Static dielectric constant tensor:
#      x y z
#    x 3.565770 0.000000 0.000000 
#    y 0.000000 4.142910 0.000000 
#    z 0.000000 0.000000 3.417760 
# 
# 
# High freq. dielectric constant tensor:
#      x y z
#    x 1.787290 0.000000 0.000000 
#    y 0.000000 1.831800 0.000000 
#    z 0.000000 0.000000 1.785210 
# 
# From -- ./inp_files/25289.got.cif
#   From: 2010.06.25/outbox.cif.g09.slc.cpg/sg58_13_cif.got.tgz:25289.got - 2010.06.26 21:38:00.
