data_PCOD8236795
_publ_section_title
;
Structure prediction by ZEFSAII (Michael W. Deem and Ramdas Pophale) SiO2 
 PCOD8236795
Probable space group: P N N M
;
_chemical_formula_sum "Si O2"
_cell_formula_units_Z 64
_cell_length_a 10.705534
_cell_length_b 9.562933
_cell_length_c 29.180339
_cell_angle_alpha 90.000000
_cell_angle_beta 90.000000
_cell_angle_gamma 90.000000
_cell_volume 2987.375267
_symmetry_space_group_name_H-M "P N N M"
_symmetry_group_IT_number 58
_symmetry_cell_setting 'orthorhombic'
loop_
_space_group_symop_operation_xyz
x,y,z
-x,-y,z
1/2+x,1/2-y,1/2-z
1/2-x,1/2+y,1/2-z
-x,-y,-z
x,y,-z
1/2-x,1/2+y,1/2+z
1/2+x,1/2-y,1/2+z
loop_
_atom_site_type_symbol
_atom_site_label
_atom_site_fract_x
_atom_site_fract_y
_atom_site_fract_z
Si Si1 0.926889 0.144850 0.641289
Si Si2 0.747622 0.293486 0.049635
Si Si3 0.477468 0.348279 0.337901
Si Si4 0.224082 0.885347 0.553536
Si Si5 0.220367 0.253275 0.210518
Si Si6 0.596668 0.114249 0.879363
Si Si7 0.498011 0.838562 0.579648
Si Si8 0.759673 0.555090 0.290786
O O1 0.875293 0.175871 0.589539
O O2 0.820235 0.160298 0.679911
O O3 0.027705 0.264693 0.648554
O O4 0.000000 0.000000 0.647080
O O5 0.719084 0.450764 0.066572
O O6 0.688446 0.176169 0.082210
O O7 0.898720 0.293079 0.042305
O O8 0.687365 0.265905 0.000000
O O9 0.500000 0.500000 0.360696
O O10 0.600869 0.276414 0.319524
O O11 0.440393 0.242937 0.377630
O O12 0.376617 0.372942 0.297617
O O13 0.187017 0.860841 0.500000
O O14 0.357384 0.807118 0.562400
O O15 0.175100 0.347210 0.253249
O O16 0.264671 0.102157 0.229127
O O17 0.678108 0.039949 0.840468
O O18 0.500000 0.000000 0.900383
O O19 0.500000 0.000000 0.592511
#
# Coordination Sequence:
#
# PCOD8236795 Si02
#       8
#     8   8   8   8   8   8   8   8
#     4  12  25  41  67  95 128 178 220 263 325 395
#     4  10  21  39  65  97 129 169 217 272 328 387
#     4  10  22  41  66  91 126 165 207 261 324 385
#     4  10  21  39  65  98 129 165 219 275 323 384
#     4  11  26  44  68  98 129 168 219 269 330 397
#     4  12  25  43  65  91 135 178 216 267 328 387
#     4  10  19  36  66  96 122 160 212 266 324 379
#     4  11  26  44  67  96 130 170 213 274 328 393
#
# _framework density 21.423490000000001
#
# number of rings (size 3 to 8) (size 9 to 14) (size 15 to 20)
#    0.000    1.250    5.000    0.375    3.500    4.000 
#    0.000    0.000    0.000    0.750    0.000    0.000 
#    0.000    0.000    0.000    0.000    0.000    0.000 
#
# Total GULP energy -792950.630134 kJ/mol
# GULP energy per Si atom -12389.853596 kJ/mol
# Density = 2.137473 g / cm^3
# Si number density = 21.423490 Si / 1000 Ang^3
#
#
#
# Elastic Constant Matrix: (Units=GPa)
#
#
# Indices 1 2 3 4 5 6 
#
# 1 86.3175 32.9156 15.2010 0.0000 0.0000 0.0000
# 2 32.9156 90.1529 39.5911 0.0000 0.0000 0.0000
# 3 15.2010 39.5911 93.7805 0.0000 0.0000 0.0000
# 4 0.0000 0.0000 0.0000 25.3559 0.0000 0.0000
# 5 0.0000 0.0000 0.0000 0.0000 -3.7296 0.0000
# 6 0.0000 0.0000 0.0000 0.0000 0.0000 35.1444
#
#
#
# Elastic Compliance Matrix: (Units=1/GPa)
#
#
# Indices 1 2 3 4 5 6 
#
# 1 0.013460 -0.004857 -0.000131 0.000000 0.000000 0.000000
# 2 -0.004857 0.015369 -0.005701 0.000000 0.000000 0.000000
# 3 -0.000131 -0.005701 0.013091 0.000000 0.000000 0.000000
# 4 0.000000 0.000000 0.000000 0.039439 0.000000 0.000000
# 5 0.000000 0.000000 0.000000 0.000000 -0.268123 0.000000
# 6 0.000000 0.000000 0.000000 0.000000 0.000000 0.028454
#
#
# Mechanical properties :
#
#
# Convention : Reuss Voigt Hill
#
# Bulk Modulus (GPa) = 48.68029 49.51847 49.09938
# Shear Modulus (GPa) = -38.43696 23.52368 -7.45664
#
# Velocity S-wave (km/s) = -4.24034 3.31725 -1.86766
# Velocity P-wave (km/s) = 1.09624 6.15114 4.27988
#
# Compressibility (1/GPa) = 0.02054219
#
# Stress axis : x y z
#
# Youngs Moduli (GPa) = 74.29238 65.06514 76.38635
#
# Poissons Ratio (x) = 0.31601 0.01004
# Poissons Ratio (y) = 0.36082 0.43549
# Poissons Ratio (z) = 0.00976 0.37095
#
# Static dielectric constant tensor:
#      x y z
#    x 4.015480 0.000000 0.000000 
#    y 0.000000 22.848150 0.000000 
#    z 0.000000 0.000000 3.677530 
# 
# 
# High freq. dielectric constant tensor:
#      x y z
#    x 1.848760 0.000000 0.000000 
#    y 0.000000 1.837150 0.000000 
#    z 0.000000 0.000000 1.832530 
# 
# From -- ./inp_files/34967.got.cif
#   From: 2010.06.25/outbox.cif.g09.slc.cpg/sg58_18_cif.got.tgz:34967.got - 2010.06.26 21:38:00.
