data_PCOD8236167
_publ_section_title
;
Structure prediction by ZEFSAII (Michael W. Deem and Ramdas Pophale) SiO2 
 PCOD8236167
Probable space group: P N N M
;
_chemical_formula_sum "Si O2"
_cell_formula_units_Z 64
_cell_length_a 22.033611
_cell_length_b 16.849210
_cell_length_c 9.406445
_cell_angle_alpha 90.000000
_cell_angle_beta 90.000000
_cell_angle_gamma 90.000000
_cell_volume 3492.132724
_symmetry_space_group_name_H-M "P N N M"
_symmetry_group_IT_number 58
_symmetry_cell_setting 'orthorhombic'
loop_
_space_group_symop_operation_xyz
x,y,z
-x,-y,z
1/2+x,1/2-y,1/2-z
1/2-x,1/2+y,1/2-z
-x,-y,-z
x,y,-z
1/2-x,1/2+y,1/2+z
1/2+x,1/2-y,1/2+z
loop_
_atom_site_type_symbol
_atom_site_label
_atom_site_fract_x
_atom_site_fract_y
_atom_site_fract_z
Si Si1 0.209492 0.170535 0.663551
Si Si2 0.428623 0.912719 0.163136
Si Si3 0.378170 0.528673 0.834094
Si Si4 0.109525 0.874474 0.165348
Si Si5 0.431417 0.091927 0.837579
Si Si6 0.031343 0.132661 0.163495
Si Si7 0.120045 0.273004 0.835045
Si Si8 0.345845 0.203834 0.664752
O O1 0.200182 0.196468 0.500000
O O2 0.178707 0.234643 0.764160
O O3 0.280009 0.169831 0.705148
O O4 0.180627 0.083998 0.690594
O O5 0.498557 0.904043 0.205931
O O6 0.389014 0.858481 0.265711
O O7 0.406822 0.002868 0.186578
O O8 0.418700 0.886836 0.000000
O O9 0.363499 0.445047 0.760572
O O10 0.437904 0.566421 0.762262
O O11 0.391884 0.516409 0.000000
O O12 0.147522 0.796210 0.206948
O O13 0.039008 0.860277 0.202583
O O14 0.117771 0.896236 0.000000
O O15 0.395812 0.153122 0.742945
O O16 0.422659 0.117162 0.000000
O O17 0.061165 0.218289 0.192649
O O18 0.041218 0.106592 0.000000
O O19 0.133582 0.284598 0.000000
O O20 0.359929 0.193828 0.500000
#
# Coordination Sequence:
#
# PCOD8236167 Si02
#       8
#     8   8   8   8   8   8   8   8
#     4   9  20  39  56  71 103 145 179 215 266 317
#     4   9  18  34  54  79 112 143 173 213 268 327
#     4  10  20  34  53  77 104 138 175 212 255 308
#     4  10  20  34  53  78 105 135 169 211 264 317
#     4   9  19  35  55  79 108 142 176 216 267 321
#     4   9  18  32  51  77 110 138 165 209 263 313
#     4  10  19  32  54  82 106 136 180 225 261 306
#     4  10  21  38  57  76 104 142 181 222 269 316
#
# _framework density 18.326910999999999
#
# number of rings (size 3 to 8) (size 9 to 14) (size 15 to 20)
#    0.000    2.500    0.000    2.625    0.000    6.000 
#    2.250    1.250    0.000    0.000    0.000    0.000 
#    0.000    0.000    0.000    0.000    0.000    0.000 
#
# Total GULP energy -793760.583388 kJ/mol
# GULP energy per Si atom -12402.509115 kJ/mol
# Density = 1.828520 g / cm^3
# Si number density = 18.326911 Si / 1000 Ang^3
#
#
#
# Elastic Constant Matrix: (Units=GPa)
#
#
# Indices 1 2 3 4 5 6 
#
# 1 61.5719 32.7085 35.8278 0.0000 0.0000 0.0000
# 2 32.7085 95.2101 54.6614 0.0000 0.0000 0.0000
# 3 35.8278 54.6614 82.3617 0.0000 0.0000 0.0000
# 4 0.0000 0.0000 0.0000 35.0648 0.0000 0.0000
# 5 0.0000 0.0000 0.0000 0.0000 20.7373 0.0000
# 6 0.0000 0.0000 0.0000 0.0000 0.0000 17.9702
#
#
#
# Elastic Compliance Matrix: (Units=1/GPa)
#
#
# Indices 1 2 3 4 5 6 
#
# 1 0.022405 -0.003395 -0.007493 0.000000 0.000000 0.000000
# 2 -0.003395 0.017483 -0.010126 0.000000 0.000000 0.000000
# 3 -0.007493 -0.010126 0.022122 0.000000 0.000000 0.000000
# 4 0.000000 0.000000 0.000000 0.028519 0.000000 0.000000
# 5 0.000000 0.000000 0.000000 0.000000 0.048222 0.000000
# 6 0.000000 0.000000 0.000000 0.000000 0.000000 0.055648
#
#
# Mechanical properties :
#
#
# Convention : Reuss Voigt Hill
#
# Bulk Modulus (GPa) = 50.04790 53.94881 51.99836
# Shear Modulus (GPa) = 20.56879 22.48418 21.52648
#
# Velocity S-wave (km/s) = 3.35375 3.50643 3.43094
# Velocity P-wave (km/s) = 6.50881 6.77453 6.64300
#
# Compressibility (1/GPa) = 0.01998086
#
# Stress axis : x y z
#
# Youngs Moduli (GPa) = 44.63332 57.19839 45.20489
#
# Poissons Ratio (x) = 0.19420 0.33872
# Poissons Ratio (y) = 0.15154 0.45775
# Poissons Ratio (z) = 0.33443 0.57920
#
# Static dielectric constant tensor:
#      x y z
#    x 3.224560 0.000000 0.000000 
#    y 0.000000 3.400360 0.000000 
#    z 0.000000 0.000000 3.357830 
# 
# 
# High freq. dielectric constant tensor:
#      x y z
#    x 1.696160 0.000000 0.000000 
#    y 0.000000 1.714980 0.000000 
#    z 0.000000 0.000000 1.711570 
# 
# From -- ./inp_files/9965.got.cif
#   From: 2010.06.25/outbox.cif.g09.slc.cpg/sg58_5_cif.got.tgz:9965.got - 2010.06.26 21:38:00.
