data_PCOD8236254
_publ_section_title
;
Structure prediction by ZEFSAII (Michael W. Deem and Ramdas Pophale) SiO2 
 PCOD8236254
Probable space group: P N N M
;
_chemical_formula_sum "Si O2"
_cell_formula_units_Z 64
_cell_length_a 14.676159
_cell_length_b 24.326995
_cell_length_c 9.426258
_cell_angle_alpha 90.000000
_cell_angle_beta 90.000000
_cell_angle_gamma 90.000000
_cell_volume 3365.427169
_symmetry_space_group_name_H-M "P N N M"
_symmetry_group_IT_number 58
_symmetry_cell_setting 'orthorhombic'
loop_
_space_group_symop_operation_xyz
x,y,z
-x,-y,z
1/2+x,1/2-y,1/2-z
1/2-x,1/2+y,1/2-z
-x,-y,-z
x,y,-z
1/2-x,1/2+y,1/2+z
1/2+x,1/2-y,1/2+z
loop_
_atom_site_type_symbol
_atom_site_label
_atom_site_fract_x
_atom_site_fract_y
_atom_site_fract_z
Si Si1 0.987748 0.673281 0.167164
Si Si2 0.368632 0.740471 0.830830
Si Si3 0.433643 0.949627 0.663770
Si Si4 0.752009 0.546338 0.337503
Si Si5 0.625503 0.642234 0.661256
Si Si6 0.103107 0.015197 0.339784
Si Si7 0.537875 0.370428 0.159802
Si Si8 0.336354 0.237812 0.332200
O O1 0.088883 0.692876 0.218022
O O2 0.910014 0.706472 0.252037
O O3 0.980362 0.608607 0.203246
O O4 0.974148 0.684466 0.000000
O O5 0.423546 0.686838 0.781678
O O6 0.265979 0.726967 0.777842
O O7 0.372283 0.750739 0.000000
O O8 0.404133 0.949754 0.500000
O O9 0.345716 0.960565 0.756958
O O10 0.500000 0.000000 0.697920
O O11 0.765314 0.528287 0.500000
O O12 0.720819 0.609870 0.326689
O O13 0.674671 0.508344 0.270455
O O14 0.591834 0.644908 0.500000
O O15 0.549031 0.610308 0.749628
O O16 0.635737 0.702648 0.727831
O O17 0.124549 0.994388 0.500000
O O18 0.113172 0.081526 0.331595
O O19 0.000000 0.000000 0.297913
O O20 0.503806 0.362597 0.000000
O O21 0.333891 0.239910 0.500000
#
# Coordination Sequence:
#
# PCOD8236254 Si02
#       8
#     8   8   8   8   8   8   8   8
#     4  10  20  37  61  85 111 148 192 237 284 340
#     4  10  20  35  56  84 117 149 187 234 285 344
#     4  10  23  42  63  86 112 150 198 246 291 341
#     4  11  23  37  59  88 115 154 197 239 294 349
#     4  10  19  33  54  78 110 149 187 229 282 344
#     4  10  20  35  55  81 117 155 190 235 286 339
#     4  10  20  33  53  81 111 148 188 233 287 334
#     4   9  18  33  54  79 109 147 184 224 282 341
#
# _framework density 19.016902000000002
#
# number of rings (size 3 to 8) (size 9 to 14) (size 15 to 20)
#    0.000    2.000    2.500    1.125    0.000    4.000 
#    0.000    5.000    0.000    0.000    0.000    0.000 
#    0.000    0.000    0.000    0.000    0.000    0.000 
#
# Total GULP energy -793459.666196 kJ/mol
# GULP energy per Si atom -12397.807284 kJ/mol
# Density = 1.897362 g / cm^3
# Si number density = 19.016902 Si / 1000 Ang^3
#
#
#
# Elastic Constant Matrix: (Units=GPa)
#
#
# Indices 1 2 3 4 5 6 
#
# 1 141.9158 57.5806 66.1841 0.0000 0.0000 0.0000
# 2 57.5806 123.1428 47.7527 0.0000 0.0000 0.0000
# 3 66.1841 47.7527 74.5685 0.0000 0.0000 0.0000
# 4 0.0000 0.0000 0.0000 25.2128 0.0000 0.0000
# 5 0.0000 0.0000 0.0000 0.0000 30.6806 0.0000
# 6 0.0000 0.0000 0.0000 0.0000 0.0000 25.1627
#
#
#
# Elastic Compliance Matrix: (Units=1/GPa)
#
#
# Indices 1 2 3 4 5 6 
#
# 1 0.012395 -0.002035 -0.009698 0.000000 0.000000 0.000000
# 2 -0.002035 0.011138 -0.005326 0.000000 0.000000 0.000000
# 3 -0.009698 -0.005326 0.025429 0.000000 0.000000 0.000000
# 4 0.000000 0.000000 0.000000 0.039662 0.000000 0.000000
# 5 0.000000 0.000000 0.000000 0.000000 0.032594 0.000000
# 6 0.000000 0.000000 0.000000 0.000000 0.000000 0.039741
#
#
# Mechanical properties :
#
#
# Convention : Reuss Voigt Hill
#
# Bulk Modulus (GPa) = 67.37202 75.85131 71.61167
# Shear Modulus (GPa) = 24.99686 27.41854 26.20770
#
# Velocity S-wave (km/s) = 3.62947 3.80122 3.71634
# Velocity P-wave (km/s) = 7.28481 7.69666 7.49357
#
# Compressibility (1/GPa) = 0.01484296
#
# Stress axis : x y z
#
# Youngs Moduli (GPa) = 80.67825 89.78584 39.32533
#
# Poissons Ratio (x) = 0.18272 0.38138
# Poissons Ratio (y) = 0.16418 0.20945
# Poissons Ratio (z) = 0.78242 0.47821
#
# Static dielectric constant tensor:
#      x y z
#    x 3.499490 0.000000 0.000000 
#    y 0.000000 3.666100 0.000000 
#    z 0.000000 0.000000 3.307480 
# 
# 
# High freq. dielectric constant tensor:
#      x y z
#    x 1.735180 0.000000 0.000000 
#    y 0.000000 1.749030 0.000000 
#    z 0.000000 0.000000 1.721400 
# 
# From -- ./inp_files/6782.got.cif
#   From: 2010.06.25/outbox.cif.g09.slc.cpg/sg58_4_cif.got.tgz:6782.got - 2010.06.26 21:38:00.
