data_PCOD8236639
_publ_section_title
;
Structure prediction by ZEFSAII (Michael W. Deem and Ramdas Pophale) SiO2 
 PCOD8236639
Probable space group: P N N M
;
_chemical_formula_sum "Si O2"
_cell_formula_units_Z 48
_cell_length_a 16.691687
_cell_length_b 17.935585
_cell_length_c 8.797694
_cell_angle_alpha 90.000000
_cell_angle_beta 90.000000
_cell_angle_gamma 90.000000
_cell_volume 2633.811145
_symmetry_space_group_name_H-M "P N N M"
_symmetry_group_IT_number 58
_symmetry_cell_setting 'orthorhombic'
loop_
_space_group_symop_operation_xyz
x,y,z
-x,-y,z
1/2+x,1/2-y,1/2-z
1/2-x,1/2+y,1/2-z
-x,-y,-z
x,y,-z
1/2-x,1/2+y,1/2+z
1/2+x,1/2-y,1/2+z
loop_
_atom_site_type_symbol
_atom_site_label
_atom_site_fract_x
_atom_site_fract_y
_atom_site_fract_z
Si Si1 0.323417 0.898800 0.679561
Si Si2 0.329343 0.337070 0.677818
Si Si3 0.256753 0.549621 0.178575
Si Si4 0.134228 0.667939 0.822187
Si Si5 0.086498 0.974522 0.318868
Si Si6 0.511801 0.084444 0.179026
O O1 0.322895 0.889068 0.500000
O O2 0.258582 0.842659 0.749654
O O3 0.410415 0.879222 0.743624
O O4 0.300874 0.982503 0.732217
O O5 0.323293 0.353213 0.500000
O O6 0.360848 0.254717 0.713025
O O7 0.392450 0.393715 0.752298
O O8 0.217168 0.627399 0.232068
O O9 0.347122 0.534895 0.240278
O O10 0.263816 0.547914 0.000000
O O11 0.062526 0.634912 0.724978
O O12 0.119139 0.651562 0.000000
O O13 0.086501 0.967406 0.500000
O O14 0.000000 0.000000 0.257391
O O15 0.500000 0.000000 0.238415
O O16 0.523565 0.086206 0.000000
#
# Coordination Sequence:
#
# PCOD8236639 Si02
#       6
#     8   8   8   8   8   8
#     4  10  19  35  59  79 105 147 186 217 263 328
#     4  10  21  36  55  80 114 145 179 232 284 321
#     4   8  15  30  54  77  98 137 184 218 254 317
#     4  10  20  36  55  77 111 151 185 219 273 336
#     4   9  18  35  58  81 104 140 191 231 268 328
#     4  11  22  34  54  86 117 142 180 231 278 319
#
# _framework density 18.224540999999999
#
# number of rings (size 3 to 8) (size 9 to 14) (size 15 to 20)
#    0.000    2.333    1.667    2.500    0.000    2.333 
#    3.000    0.000    0.000    0.000    0.000    0.000 
#    0.000    0.000    0.000    0.000    0.000    0.000 
#
# Total GULP energy -595103.055397 kJ/mol
# GULP energy per Si atom -12397.980321 kJ/mol
# Density = 1.818306 g / cm^3
# Si number density = 18.224541 Si / 1000 Ang^3
#
#
#
# Elastic Constant Matrix: (Units=GPa)
#
#
# Indices 1 2 3 4 5 6 
#
# 1 153.9423 60.3114 35.6139 0.0000 0.0000 0.0000
# 2 60.3114 92.0662 31.3232 0.0000 0.0000 0.0000
# 3 35.6139 31.3232 53.4894 0.0000 0.0000 0.0000
# 4 0.0000 0.0000 0.0000 25.2315 0.0000 0.0000
# 5 0.0000 0.0000 0.0000 0.0000 27.3980 0.0000
# 6 0.0000 0.0000 0.0000 0.0000 0.0000 22.7889
#
#
#
# Elastic Compliance Matrix: (Units=1/GPa)
#
#
# Indices 1 2 3 4 5 6 
#
# 1 0.009165 -0.004905 -0.003230 0.000000 0.000000 0.000000
# 2 -0.004905 0.016189 -0.006215 0.000000 0.000000 0.000000
# 3 -0.003230 -0.006215 0.024485 0.000000 0.000000 0.000000
# 4 0.000000 0.000000 0.000000 0.039633 0.000000 0.000000
# 5 0.000000 0.000000 0.000000 0.000000 0.036499 0.000000
# 6 0.000000 0.000000 0.000000 0.000000 0.000000 0.043881
#
#
# Mechanical properties :
#
#
# Convention : Reuss Voigt Hill
#
# Bulk Modulus (GPa) = 47.30261 61.55498 54.42880
# Shear Modulus (GPa) = 24.31937 26.56696 25.44316
#
# Velocity S-wave (km/s) = 3.65695 3.82220 3.74049
# Velocity P-wave (km/s) = 6.62139 7.30261 6.97033
#
# Compressibility (1/GPa) = 0.02114048
#
# Stress axis : x y z
#
# Youngs Moduli (GPa) = 109.11367 61.76936 40.84137
#
# Poissons Ratio (x) = 0.30297 0.13191
# Poissons Ratio (y) = 0.53519 0.25381
# Poissons Ratio (z) = 0.35241 0.38387
#
# Static dielectric constant tensor:
#      x y z
#    x 3.592760 0.000000 0.000000 
#    y 0.000000 3.364350 0.000000 
#    z 0.000000 0.000000 3.211970 
# 
# 
# High freq. dielectric constant tensor:
#      x y z
#    x 1.715530 0.000000 0.000000 
#    y 0.000000 1.691600 0.000000 
#    z 0.000000 0.000000 1.695700 
# 
# From -- ./inp_files/7880.got.cif
#   From: 2010.06.25/outbox.cif.g09.slc.cpg/sg58_4_cif.got.tgz:7880.got - 2010.06.26 21:38:00.
