data_PCOD8236377
_publ_section_title
;
Structure prediction by ZEFSAII (Michael W. Deem and Ramdas Pophale) SiO2 
 PCOD8236377
Probable space group: P N N M
;
_chemical_formula_sum "Si O2"
_cell_formula_units_Z 64
_cell_length_a 19.876439
_cell_length_b 18.807806
_cell_length_c 8.843469
_cell_angle_alpha 90.000000
_cell_angle_beta 90.000000
_cell_angle_gamma 90.000000
_cell_volume 3305.973549
_symmetry_space_group_name_H-M "P N N M"
_symmetry_group_IT_number 58
_symmetry_cell_setting 'orthorhombic'
loop_
_space_group_symop_operation_xyz
x,y,z
-x,-y,z
1/2+x,1/2-y,1/2-z
1/2-x,1/2+y,1/2-z
-x,-y,-z
x,y,-z
1/2-x,1/2+y,1/2+z
1/2+x,1/2-y,1/2+z
loop_
_atom_site_type_symbol
_atom_site_label
_atom_site_fract_x
_atom_site_fract_y
_atom_site_fract_z
Si Si1 0.261493 0.183386 0.321102
Si Si2 0.688759 0.052025 0.179847
Si Si3 0.435570 0.039711 0.178982
Si Si4 0.443318 0.557145 0.677276
Si Si5 0.402496 0.195122 0.823888
Si Si6 0.200119 0.035451 0.320547
Si Si7 0.024071 0.205670 0.322837
Si Si8 0.651906 0.207562 0.820784
O O1 0.261472 0.184077 0.500000
O O2 0.334035 0.207070 0.264664
O O3 0.238581 0.106113 0.262018
O O4 0.208827 0.240269 0.255723
O O5 0.665276 0.128718 0.242029
O O6 0.633009 0.996101 0.237710
O O7 0.760205 0.032152 0.253903
O O8 0.697050 0.051562 0.000000
O O9 0.437319 0.121744 0.229727
O O10 0.500000 0.000000 0.251319
O O11 0.438920 0.031720 0.000000
O O12 0.500000 0.500000 0.719421
O O13 0.428668 0.559209 0.500000
O O14 0.375756 0.534535 0.762133
O O15 0.469251 0.633739 0.729876
O O16 0.451454 0.260667 0.787879
O O17 0.385390 0.190106 0.000000
O O18 0.198442 0.031232 0.500000
O O19 0.033452 0.188532 0.500000
O O20 0.079627 0.262807 0.268339
O O21 0.654413 0.205038 0.000000
#
# Coordination Sequence:
#
# PCOD8236377 Si02
#       8
#     8   8   8   8   8   8   8   8
#     4  10  20  36  57  79 111 155 194 233 288 350
#     4  10  19  33  58  87 117 151 195 246 291 343
#     4   9  16  28  49  81 114 147 187 232 277 328
#     4  11  25  43  64  89 116 151 199 251 304 358
#     4  10  20  33  55  86 116 147 188 235 281 341
#     4  11  22  39  62  85 116 157 198 243 299 357
#     4  10  20  38  61  87 121 158 197 239 291 353
#     4   9  18  35  58  84 111 151 197 237 287 347
#
# _framework density 19.358896999999999
#
# number of rings (size 3 to 8) (size 9 to 14) (size 15 to 20)
#    0.000    2.000    2.500    1.500    0.000    6.000 
#    0.000    5.000    0.000    3.000    0.000    0.000 
#    0.000    0.000    0.000    0.000    0.000    0.000 
#
# Total GULP energy -793689.965055 kJ/mol
# GULP energy per Si atom -12401.405704 kJ/mol
# Density = 1.931484 g / cm^3
# Si number density = 19.358897 Si / 1000 Ang^3
#
#
#
# Elastic Constant Matrix: (Units=GPa)
#
#
# Indices 1 2 3 4 5 6 
#
# 1 125.9067 42.8099 28.5771 0.0000 0.0000 0.0000
# 2 42.8099 112.8477 27.7310 0.0000 0.0000 0.0000
# 3 28.5771 27.7310 35.1812 0.0000 0.0000 0.0000
# 4 0.0000 0.0000 0.0000 23.9479 0.0000 0.0000
# 5 0.0000 0.0000 0.0000 0.0000 29.2432 0.0000
# 6 0.0000 0.0000 0.0000 0.0000 0.0000 38.7894
#
#
#
# Elastic Compliance Matrix: (Units=1/GPa)
#
#
# Indices 1 2 3 4 5 6 
#
# 1 0.010186 -0.002271 -0.006484 0.000000 0.000000 0.000000
# 2 -0.002271 0.011497 -0.007217 0.000000 0.000000 0.000000
# 3 -0.006484 -0.007217 0.039380 0.000000 0.000000 0.000000
# 4 0.000000 0.000000 0.000000 0.041757 0.000000 0.000000
# 5 0.000000 0.000000 0.000000 0.000000 0.034196 0.000000
# 6 0.000000 0.000000 0.000000 0.000000 0.000000 0.025780
#
#
# Mechanical properties :
#
#
# Convention : Reuss Voigt Hill
#
# Bulk Modulus (GPa) = 34.34271 52.46349 43.40310
# Shear Modulus (GPa) = 24.45616 30.05061 27.25338
#
# Velocity S-wave (km/s) = 3.55815 3.94418 3.75613
# Velocity P-wave (km/s) = 5.88720 6.92108 6.42497
#
# Compressibility (1/GPa) = 0.02911827
#
# Stress axis : x y z
#
# Youngs Moduli (GPa) = 98.17190 86.98258 25.39342
#
# Poissons Ratio (x) = 0.19752 0.16465
# Poissons Ratio (y) = 0.22293 0.18327
# Poissons Ratio (z) = 0.63656 0.62779
#
# Static dielectric constant tensor:
#      x y z
#    x 3.631900 0.000000 0.000000 
#    y 0.000000 3.733220 0.000000 
#    z 0.000000 0.000000 3.168450 
# 
# 
# High freq. dielectric constant tensor:
#      x y z
#    x 1.766920 0.000000 0.000000 
#    y 0.000000 1.761100 0.000000 
#    z 0.000000 0.000000 1.718410 
# 
# From -- ./inp_files/16656.got.cif
#   From: 2010.06.25/outbox.cif.g09.slc.cpg/sg58_9_cif.got.tgz:16656.got - 2010.06.26 21:38:00.
