data_PCOD8236748
_publ_section_title
;
Structure prediction by ZEFSAII (Michael W. Deem and Ramdas Pophale) SiO2 
 PCOD8236748
Probable space group: P N N M
;
_chemical_formula_sum "Si O2"
_cell_formula_units_Z 64
_cell_length_a 14.531777
_cell_length_b 24.601974
_cell_length_c 9.112903
_cell_angle_alpha 90.000000
_cell_angle_beta 90.000000
_cell_angle_gamma 90.000000
_cell_volume 3257.957596
_symmetry_space_group_name_H-M "P N N M"
_symmetry_group_IT_number 58
_symmetry_cell_setting 'orthorhombic'
loop_
_space_group_symop_operation_xyz
x,y,z
-x,-y,z
1/2+x,1/2-y,1/2-z
1/2-x,1/2+y,1/2-z
-x,-y,-z
x,y,-z
1/2-x,1/2+y,1/2+z
1/2+x,1/2-y,1/2+z
loop_
_atom_site_type_symbol
_atom_site_label
_atom_site_fract_x
_atom_site_fract_y
_atom_site_fract_z
Si Si1 0.485952 0.828970 0.829906
Si Si2 0.752451 0.059645 0.673476
Si Si3 0.944566 0.869359 0.831748
Si Si4 0.868854 0.759237 0.171130
Si Si5 0.104876 0.015803 0.829683
Si Si6 0.155751 0.743231 0.331571
Si Si7 0.934687 0.550327 0.670856
Si Si8 0.647730 0.648904 0.332324
O O1 0.406600 0.795003 0.747780
O O2 0.589094 0.807560 0.793450
O O3 0.481960 0.892397 0.783958
O O4 0.463712 0.822240 0.000000
O O5 0.750738 0.063089 0.500000
O O6 0.655188 0.039999 0.732972
O O7 0.773903 0.119667 0.736872
O O8 0.829721 0.017894 0.724850
O O9 0.917787 0.812271 0.755273
O O10 0.885993 0.921166 0.777342
O O11 0.052450 0.884138 0.816047
O O12 0.918834 0.860107 0.000000
O O13 0.761491 0.770183 0.200675
O O14 0.890656 0.751933 0.000000
O O15 0.133940 0.007533 0.000000
O O16 0.000000 0.000000 0.806480
O O17 0.142152 0.761382 0.500000
O O18 0.125927 0.791302 0.224703
O O19 0.907596 0.550283 0.500000
O O20 0.000000 0.500000 0.708961
O O21 0.681463 0.650885 0.500000
#
# Coordination Sequence:
#
# PCOD8236748 Si02
#       8
#     8   8   8   8   8   8   8   8
#     4  10  21  38  60  89 120 151 193 248 300 347
#     4  12  25  39  59  90 125 160 197 247 308 361
#     4   9  18  33  56  83 111 149 195 245 290 341
#     4  10  20  36  57  85 119 157 196 234 290 357
#     4  10  19  36  60  86 116 154 200 245 290 350
#     4  10  21  35  55  86 121 153 190 245 308 357
#     4  10  23  44  68  90 114 155 210 257 296 349
#     4  11  20  36  60  85 114 154 205 245 285 351
#
# _framework density 19.644209
#
# number of rings (size 3 to 8) (size 9 to 14) (size 15 to 20)
#    0.000    1.750    2.500    2.250    0.000    4.500 
#    0.000    4.375    0.000    1.500    0.000    0.000 
#    0.000    0.000    0.000    0.000    0.000    0.000 
#
# Total GULP energy -793510.045364 kJ/mol
# GULP energy per Si atom -12398.594459 kJ/mol
# Density = 1.959950 g / cm^3
# Si number density = 19.644209 Si / 1000 Ang^3
#
#
#
# Elastic Constant Matrix: (Units=GPa)
#
#
# Indices 1 2 3 4 5 6 
#
# 1 104.8466 47.4878 53.6928 0.0000 0.0000 0.0000
# 2 47.4878 129.3361 47.7583 0.0000 0.0000 0.0000
# 3 53.6928 47.7583 88.8391 0.0000 0.0000 0.0000
# 4 0.0000 0.0000 0.0000 27.0853 0.0000 0.0000
# 5 0.0000 0.0000 0.0000 0.0000 25.1108 0.0000
# 6 0.0000 0.0000 0.0000 0.0000 0.0000 29.3278
#
#
#
# Elastic Compliance Matrix: (Units=1/GPa)
#
#
# Indices 1 2 3 4 5 6 
#
# 1 0.014482 -0.002602 -0.007354 0.000000 0.000000 0.000000
# 2 -0.002602 0.010114 -0.003865 0.000000 0.000000 0.000000
# 3 -0.007354 -0.003865 0.017779 0.000000 0.000000 0.000000
# 4 0.000000 0.000000 0.000000 0.036920 0.000000 0.000000
# 5 0.000000 0.000000 0.000000 0.000000 0.039823 0.000000
# 6 0.000000 0.000000 0.000000 0.000000 0.000000 0.034097
#
#
# Mechanical properties :
#
#
# Convention : Reuss Voigt Hill
#
# Bulk Modulus (GPa) = 67.87148 68.98885 68.43017
# Shear Modulus (GPa) = 26.91516 27.91030 27.41273
#
# Velocity S-wave (km/s) = 3.70555 3.77343 3.73964
# Velocity P-wave (km/s) = 7.27554 7.36073 7.31826
#
# Compressibility (1/GPa) = 0.01473373
#
# Stress axis : x y z
#
# Youngs Moduli (GPa) = 69.04984 98.87121 56.24737
#
# Poissons Ratio (x) = 0.25725 0.41365
# Poissons Ratio (y) = 0.17966 0.21738
# Poissons Ratio (z) = 0.50780 0.38211
#
# Static dielectric constant tensor:
#      x y z
#    x 3.598410 0.000000 0.000000 
#    y 0.000000 3.898820 0.000000 
#    z 0.000000 0.000000 3.367970 
# 
# 
# High freq. dielectric constant tensor:
#      x y z
#    x 1.766470 0.000000 0.000000 
#    y 0.000000 1.777360 0.000000 
#    z 0.000000 0.000000 1.741060 
# 
# From -- ./inp_files/6768.got.cif
#   From: 2010.06.25/outbox.cif.g09.slc.cpg/sg58_4_cif.got.tgz:6768.got - 2010.06.26 21:38:00.
