data_PCOD8236776
_publ_section_title
;
Structure prediction by ZEFSAII (Michael W. Deem and Ramdas Pophale) SiO2 
 PCOD8236776
Probable space group: P N N M
;
_chemical_formula_sum "Si O2"
_cell_formula_units_Z 64
_cell_length_a 28.985829
_cell_length_b 12.816399
_cell_length_c 8.604691
_cell_angle_alpha 90.000000
_cell_angle_beta 90.000000
_cell_angle_gamma 90.000000
_cell_volume 3196.590646
_symmetry_space_group_name_H-M "P N N M"
_symmetry_group_IT_number 58
_symmetry_cell_setting 'orthorhombic'
loop_
_space_group_symop_operation_xyz
x,y,z
-x,-y,z
1/2+x,1/2-y,1/2-z
1/2-x,1/2+y,1/2-z
-x,-y,-z
x,y,-z
1/2-x,1/2+y,1/2+z
1/2+x,1/2-y,1/2+z
loop_
_atom_site_type_symbol
_atom_site_label
_atom_site_fract_x
_atom_site_fract_y
_atom_site_fract_z
Si Si1 0.102205 0.116226 0.183471
Si Si2 0.605725 0.956255 0.183232
Si Si3 0.964955 0.294865 0.817814
Si Si4 0.571305 0.592283 0.175579
Si Si5 0.176601 0.852340 0.675568
Si Si6 0.201660 0.056120 0.819617
Si Si7 0.798400 0.373603 0.684231
Si Si8 0.561561 0.174819 0.818155
O O1 0.154848 0.107810 0.250533
O O2 0.082629 0.228491 0.225230
O O3 0.070218 0.024668 0.254801
O O4 0.102282 0.099883 0.000000
O O5 0.578691 0.864781 0.271674
O O6 0.659652 0.950142 0.233492
O O7 0.588212 0.070181 0.232540
O O8 0.599220 0.936083 0.000000
O O9 0.959696 0.172654 0.773823
O O10 0.008483 0.341476 0.726072
O O11 0.974095 0.302670 0.000000
O O12 0.622063 0.638705 0.180319
O O13 0.552178 0.587171 0.000000
O O14 0.194772 0.869228 0.500000
O O15 0.190006 0.741104 0.744412
O O16 0.200695 0.933160 0.790248
O O17 0.248994 0.096533 0.740069
O O18 0.203296 0.081024 0.000000
O O19 0.794436 0.375781 0.500000
O O20 0.566969 0.196363 0.000000
#
# Coordination Sequence:
#
# PCOD8236776 Si02
#       8
#     8   8   8   8   8   8   8   8
#     4  10  21  38  57  84 122 157 191 240 298 348
#     4  10  21  40  62  84 114 154 201 244 283 342
#     4  12  24  38  60  89 119 150 189 242 304 355
#     4  10  19  36  62  86 111 149 196 241 282 342
#     4   9  17  32  55  78 107 145 187 233 280 331
#     4   9  19  34  55  82 115 151 186 230 289 345
#     4   9  17  34  58  83 110 149 192 233 284 338
#     4  11  24  40  60  84 115 158 202 240 286 350
#
# _framework density 20.021331
#
# number of rings (size 3 to 8) (size 9 to 14) (size 15 to 20)
#    0.000    2.000    1.250    2.625    0.000    5.000 
#    0.000    3.750    0.000    0.000    0.000    0.000 
#    0.000    0.000    0.000    0.000    0.000    0.000 
#
# Total GULP energy -793537.136388 kJ/mol
# GULP energy per Si atom -12399.017756 kJ/mol
# Density = 1.997576 g / cm^3
# Si number density = 20.021331 Si / 1000 Ang^3
#
#
#
# Elastic Constant Matrix: (Units=GPa)
#
#
# Indices 1 2 3 4 5 6 
#
# 1 60.0188 22.2894 9.1882 0.0000 0.0000 0.0000
# 2 22.2894 99.5843 14.5850 0.0000 0.0000 0.0000
# 3 9.1882 14.5850 38.3832 0.0000 0.0000 0.0000
# 4 0.0000 0.0000 0.0000 30.4781 0.0000 0.0000
# 5 0.0000 0.0000 0.0000 0.0000 19.9864 0.0000
# 6 0.0000 0.0000 0.0000 0.0000 0.0000 27.0345
#
#
#
# Elastic Compliance Matrix: (Units=1/GPa)
#
#
# Indices 1 2 3 4 5 6 
#
# 1 0.018497 -0.003697 -0.003023 0.000000 0.000000 0.000000
# 2 -0.003697 0.011373 -0.003436 0.000000 0.000000 0.000000
# 3 -0.003023 -0.003436 0.028082 0.000000 0.000000 0.000000
# 4 0.000000 0.000000 0.000000 0.032810 0.000000 0.000000
# 5 0.000000 0.000000 0.000000 0.000000 0.050034 0.000000
# 6 0.000000 0.000000 0.000000 0.000000 0.000000 0.036990
#
#
# Mechanical properties :
#
#
# Convention : Reuss Voigt Hill
#
# Bulk Modulus (GPa) = 26.56816 32.23460 29.40138
# Shear Modulus (GPa) = 23.73646 25.62803 24.68224
#
# Velocity S-wave (km/s) = 3.44693 3.58164 3.51493
# Velocity P-wave (km/s) = 5.39819 5.76535 5.58479
#
# Compressibility (1/GPa) = 0.03763904
#
# Stress axis : x y z
#
# Youngs Moduli (GPa) = 54.06180 87.93067 35.60946
#
# Poissons Ratio (x) = 0.32512 0.10764
# Poissons Ratio (y) = 0.19989 0.12237
# Poissons Ratio (z) = 0.16342 0.30216
#
# Static dielectric constant tensor:
#      x y z
#    x 3.913540 0.000000 0.000000 
#    y 0.000000 3.677640 0.000000 
#    z 0.000000 0.000000 3.444170 
# 
# 
# High freq. dielectric constant tensor:
#      x y z
#    x 1.785030 0.000000 0.000000 
#    y 0.000000 1.785660 0.000000 
#    z 0.000000 0.000000 1.762730 
# 
# From -- ./inp_files/11048.got.cif
#   From: 2010.06.25/outbox.cif.g09.slc.cpg/sg58_6_cif.got.tgz:11048.got - 2010.06.26 21:38:00.
