data_PCOD8236166
_publ_section_title
;
Structure prediction by ZEFSAII (Michael W. Deem and Ramdas Pophale) SiO2 
 PCOD8236166
Probable space group: P N N M
;
_chemical_formula_sum "Si O2"
_cell_formula_units_Z 56
_cell_length_a 19.263588
_cell_length_b 15.777048
_cell_length_c 9.345449
_cell_angle_alpha 90.000000
_cell_angle_beta 90.000000
_cell_angle_gamma 90.000000
_cell_volume 2840.292715
_symmetry_space_group_name_H-M "P N N M"
_symmetry_group_IT_number 58
_symmetry_cell_setting 'orthorhombic'
loop_
_space_group_symop_operation_xyz
x,y,z
-x,-y,z
1/2+x,1/2-y,1/2-z
1/2-x,1/2+y,1/2-z
-x,-y,-z
x,y,-z
1/2-x,1/2+y,1/2+z
1/2+x,1/2-y,1/2+z
loop_
_atom_site_type_symbol
_atom_site_label
_atom_site_fract_x
_atom_site_fract_y
_atom_site_fract_z
Si Si1 0.807710 0.215367 0.165431
Si Si2 0.279362 0.616072 0.162156
Si Si3 0.631583 0.136265 0.344481
Si Si4 0.406066 0.718720 0.160868
Si Si5 0.272672 0.958789 0.167048
Si Si6 0.979234 0.410323 0.842566
Si Si7 0.560818 0.758841 0.831607
O O1 0.763642 0.299297 0.205164
O O2 0.767467 0.128564 0.200186
O O3 0.877320 0.206863 0.259646
O O4 0.829445 0.217895 0.000000
O O5 0.363318 0.630856 0.169903
O O6 0.265840 0.541119 0.273502
O O7 0.259534 0.589129 0.000000
O O8 0.669066 0.140514 0.500000
O O9 0.643988 0.220498 0.252980
O O10 0.655785 0.052588 0.256320
O O11 0.550064 0.138344 0.368716
O O12 0.487237 0.712330 0.206032
O O13 0.403943 0.755799 0.000000
O O14 0.287302 0.971969 0.000000
O O15 0.934003 0.354284 0.733842
O O16 0.000000 0.500000 0.772588
O O17 0.942271 0.422248 0.000000
O O18 0.573090 0.764938 0.000000
#
# Coordination Sequence:
#
# PCOD8236166 Si02
#       7
#     8   8   8   8   8   8   8
#     4  10  22  41  61  81 117 159 189 231 295 353
#     4  10  21  39  62  84 111 154 197 235 287 351
#     4  10  19  32  54  81 110 149 190 230 274 335
#     4   9  18  38  60  81 113 152 189 233 290 339
#     4  11  23  39  58  85 117 151 191 242 295 342
#     4   9  19  34  51  75 111 152 189 223 276 350
#     4  10  21  35  57  85 112 146 191 243 290 336
#
# _framework density 19.716277999999999
#
# number of rings (size 3 to 8) (size 9 to 14) (size 15 to 20)
#    0.000    2.143    1.429    1.286    2.000    3.714 
#    0.000    0.714    0.000    4.286    0.000    0.000 
#    0.000    0.000    0.000    0.000    0.000    0.000 
#
# Total GULP energy -693804.579144 kJ/mol
# GULP energy per Si atom -12389.367485 kJ/mol
# Density = 1.967140 g / cm^3
# Si number density = 19.716278 Si / 1000 Ang^3
#
#
#
# Elastic Constant Matrix: (Units=GPa)
#
#
# Indices 1 2 3 4 5 6 
#
# 1 62.3111 17.0029 33.1585 0.0000 0.0000 0.0000
# 2 17.0029 83.5470 40.9869 0.0000 0.0000 0.0000
# 3 33.1585 40.9869 104.5641 0.0000 0.0000 0.0000
# 4 0.0000 0.0000 0.0000 30.9003 0.0000 0.0000
# 5 0.0000 0.0000 0.0000 0.0000 27.0257 0.0000
# 6 0.0000 0.0000 0.0000 0.0000 0.0000 18.3427
#
#
#
# Elastic Compliance Matrix: (Units=1/GPa)
#
#
# Indices 1 2 3 4 5 6 
#
# 1 0.019395 -0.001151 -0.005699 0.000000 0.000000 0.000000
# 2 -0.001151 0.014887 -0.005470 0.000000 0.000000 0.000000
# 3 -0.005699 -0.005470 0.013515 0.000000 0.000000 0.000000
# 4 0.000000 0.000000 0.000000 0.032362 0.000000 0.000000
# 5 0.000000 0.000000 0.000000 0.000000 0.037002 0.000000
# 6 0.000000 0.000000 0.000000 0.000000 0.000000 0.054518
#
#
# Mechanical properties :
#
#
# Convention : Reuss Voigt Hill
#
# Bulk Modulus (GPa) = 43.18535 48.07986 45.63261
# Shear Modulus (GPa) = 24.50498 25.87199 25.18848
#
# Velocity S-wave (km/s) = 3.52928 3.62638 3.57816
# Velocity P-wave (km/s) = 6.20956 6.47866 6.34554
#
# Compressibility (1/GPa) = 0.02315600
#
# Stress axis : x y z
#
# Youngs Moduli (GPa) = 51.55839 67.17123 73.99122
#
# Poissons Ratio (x) = 0.07733 0.42170
# Poissons Ratio (y) = 0.05936 0.40476
# Poissons Ratio (z) = 0.29385 0.36746
#
# Static dielectric constant tensor:
#      x y z
#    x 3.616600 0.000000 0.000000 
#    y 0.000000 3.382760 0.000000 
#    z 0.000000 0.000000 3.919320 
# 
# 
# High freq. dielectric constant tensor:
#      x y z
#    x 1.765670 0.000000 0.000000 
#    y 0.000000 1.744830 0.000000 
#    z 0.000000 0.000000 1.774970 
# 
# From -- ./inp_files/9027.got.cif
#   From: 2010.06.25/outbox.cif.g09.slc.cpg/sg58_5_cif.got.tgz:9027.got - 2010.06.26 21:38:00.
