data_PCOD8236050
_publ_section_title
;
Structure prediction by ZEFSAII (Michael W. Deem and Ramdas Pophale) SiO2 
 PCOD8236050
Probable space group: P N N M
;
_chemical_formula_sum "Si O2"
_cell_formula_units_Z 64
_cell_length_a 27.895753
_cell_length_b 12.720305
_cell_length_c 9.598964
_cell_angle_alpha 90.000000
_cell_angle_beta 90.000000
_cell_angle_gamma 90.000000
_cell_volume 3406.120252
_symmetry_space_group_name_H-M "P N N M"
_symmetry_group_IT_number 58
_symmetry_cell_setting 'orthorhombic'
loop_
_space_group_symop_operation_xyz
x,y,z
-x,-y,z
1/2+x,1/2-y,1/2-z
1/2-x,1/2+y,1/2-z
-x,-y,-z
x,y,-z
1/2-x,1/2+y,1/2+z
1/2+x,1/2-y,1/2+z
loop_
_atom_site_type_symbol
_atom_site_label
_atom_site_fract_x
_atom_site_fract_y
_atom_site_fract_z
Si Si1 0.954023 0.738844 0.154991
Si Si2 0.366653 0.420675 0.334139
Si Si3 0.801729 0.267926 0.164326
Si Si4 0.358735 0.650930 0.655075
Si Si5 0.028095 0.901257 0.834182
Si Si6 0.343576 0.039353 0.837590
Si Si7 0.947479 0.541694 0.337253
Si Si8 0.304064 0.811328 0.838755
O O1 0.915984 0.834233 0.148896
O O2 0.937068 0.649543 0.259313
O O3 0.003261 0.791230 0.208517
O O4 0.960036 0.689877 0.000000
O O5 0.368673 0.422491 0.500000
O O6 0.333296 0.328308 0.279344
O O7 0.347239 0.534714 0.284756
O O8 0.418883 0.398897 0.270421
O O9 0.817921 0.371627 0.246068
O O10 0.748605 0.229165 0.200577
O O11 0.808439 0.288986 0.000000
O O12 0.336584 0.664123 0.500000
O O13 0.339822 0.739763 0.754666
O O14 0.028983 0.911029 0.000000
O O15 0.000000 0.000000 0.768758
O O16 0.314853 0.932429 0.799528
O O17 0.401119 0.032253 0.803420
O O18 0.336584 0.066520 0.000000
O O19 0.948869 0.566207 0.500000
O O20 0.000000 0.500000 0.287629
O O21 0.314971 0.794429 0.000000
#
# Coordination Sequence:
#
# PCOD8236050 Si02
#       8
#     8   8   8   8   8   8   8   8
#     4  10  19  31  53  86 112 138 184 233 274 322
#     4   9  18  33  53  79 113 147 178 221 277 331
#     4  10  23  39  58  84 111 143 186 234 280 329
#     4  10  19  33  58  87 111 141 186 232 275 334
#     4   9  15  27  48  78 113 141 167 210 269 323
#     4  10  22  41  61  82 113 151 188 229 282 340
#     4  10  22  39  57  77 109 155 194 226 275 340
#     4  10  22  40  59  80 109 146 186 231 283 335
#
# _framework density 18.789705999999999
#
# number of rings (size 3 to 8) (size 9 to 14) (size 15 to 20)
#    0.000    2.250    2.500    0.000    3.500    1.750 
#    0.000    0.625    0.000    1.125    0.000    0.000 
#    0.000    0.000    0.000    0.000    0.000    0.000 
#
# Total GULP energy -793236.576154 kJ/mol
# GULP energy per Si atom -12394.321502 kJ/mol
# Density = 1.874694 g / cm^3
# Si number density = 18.789706 Si / 1000 Ang^3
#
#
#
# Elastic Constant Matrix: (Units=GPa)
#
#
# Indices 1 2 3 4 5 6 
#
# 1 101.4691 50.1578 32.3435 0.0000 0.0000 0.0000
# 2 50.1578 131.1472 47.2457 0.0000 0.0000 0.0000
# 3 32.3435 47.2457 37.4910 0.0000 0.0000 0.0000
# 4 0.0000 0.0000 0.0000 19.9461 0.0000 0.0000
# 5 0.0000 0.0000 0.0000 0.0000 18.1685 0.0000
# 6 0.0000 0.0000 0.0000 0.0000 0.0000 32.4233
#
#
#
# Elastic Compliance Matrix: (Units=1/GPa)
#
#
# Indices 1 2 3 4 5 6 
#
# 1 0.013825 -0.001815 -0.009640 0.000000 0.000000 0.000000
# 2 -0.001815 0.014203 -0.016333 0.000000 0.000000 0.000000
# 3 -0.009640 -0.016333 0.055572 0.000000 0.000000 0.000000
# 4 0.000000 0.000000 0.000000 0.050135 0.000000 0.000000
# 5 0.000000 0.000000 0.000000 0.000000 0.055040 0.000000
# 6 0.000000 0.000000 0.000000 0.000000 0.000000 0.030842
#
#
# Mechanical properties :
#
#
# Convention : Reuss Voigt Hill
#
# Bulk Modulus (GPa) = 35.68262 58.84459 47.26360
# Shear Modulus (GPa) = 17.57257 23.46495 20.51876
#
# Velocity S-wave (km/s) = 3.06146 3.53770 3.30816
# Velocity P-wave (km/s) = 5.61502 6.93344 6.30876
#
# Compressibility (1/GPa) = 0.02802485
#
# Stress axis : x y z
#
# Youngs Moduli (GPa) = 72.33269 70.40799 17.99462
#
# Poissons Ratio (x) = 0.12776 0.17347
# Poissons Ratio (y) = 0.13125 0.29390
# Poissons Ratio (z) = 0.69730 1.14997
#
# Static dielectric constant tensor:
#      x y z
#    x 3.736100 0.000000 0.000000 
#    y 0.000000 3.416980 0.000000 
#    z 0.000000 0.000000 3.088520 
# 
# 
# High freq. dielectric constant tensor:
#      x y z
#    x 1.742480 0.000000 0.000000 
#    y 0.000000 1.733290 0.000000 
#    z 0.000000 0.000000 1.693280 
# 
# From -- ./inp_files/10997.got.cif
#   From: 2010.06.25/outbox.cif.g09.slc.cpg/sg58_6_cif.got.tgz:10997.got - 2010.06.26 21:38:00.
