data_PCOD8236559
_publ_section_title
;
Structure prediction by ZEFSAII (Michael W. Deem and Ramdas Pophale) SiO2 
 PCOD8236559
Probable space group: P N N M
;
_chemical_formula_sum "Si O2"
_cell_formula_units_Z 64
_cell_length_a 8.885874
_cell_length_b 12.348369
_cell_length_c 28.621494
_cell_angle_alpha 90.000000
_cell_angle_beta 90.000000
_cell_angle_gamma 90.000000
_cell_volume 3140.523511
_symmetry_space_group_name_H-M "P N N M"
_symmetry_group_IT_number 58
_symmetry_cell_setting 'orthorhombic'
loop_
_space_group_symop_operation_xyz
x,y,z
-x,-y,z
1/2+x,1/2-y,1/2-z
1/2-x,1/2+y,1/2-z
-x,-y,-z
x,y,-z
1/2-x,1/2+y,1/2+z
1/2+x,1/2-y,1/2+z
loop_
_atom_site_type_symbol
_atom_site_label
_atom_site_fract_x
_atom_site_fract_y
_atom_site_fract_z
Si Si1 0.804936 0.268695 0.052505
Si Si2 0.589090 0.109668 0.553395
Si Si3 0.292373 0.301507 0.700405
Si Si4 0.323456 0.482513 0.551291
Si Si5 0.357535 0.739788 0.703020
Si Si6 0.176642 0.022826 0.846701
Si Si7 0.800001 0.105585 0.635711
Si Si8 0.362371 0.639483 0.133018
O O1 0.778753 0.142076 0.057726
O O2 0.680607 0.339626 0.079323
O O3 0.976647 0.293405 0.068685
O O4 0.788071 0.311008 0.000000
O O5 0.640519 0.119333 0.500000
O O6 0.741126 0.117151 0.583039
O O7 0.500000 0.000000 0.564081
O O8 0.467623 0.283430 0.709098
O O9 0.205725 0.271164 0.746993
O O10 0.252959 0.422873 0.682598
O O11 0.240750 0.221464 0.660631
O O12 0.500000 0.500000 0.548373
O O13 0.257440 0.523122 0.500000
O O14 0.260111 0.536805 0.599431
O O15 0.281745 0.631507 0.681473
O O16 0.322329 0.841125 0.669779
O O17 0.000000 0.000000 0.850923
O O18 0.961299 0.164019 0.640328
O O19 0.820262 0.980670 0.649547
#
# Coordination Sequence:
#
# PCOD8236559 Si02
#       8
#     8   8   8   8   8   8   8   8
#     4  10  19  34  60  89 120 160 209 253 304 375
#     4  10  20  35  57  89 122 157 204 258 306 360
#     4  11  23  43  66  88 125 160 206 254 318 371
#     4   9  17  31  57  92 121 156 201 248 304 365
#     4  11  25  42  65  94 120 161 205 259 317 375
#     4   9  20  38  62  91 125 157 198 258 308 365
#     4  11  25  39  60  87 126 164 209 253 312 367
#     4  11  23  41  59  87 123 168 207 256 306 374
#
# _framework density 20.378768999999998
#
# number of rings (size 3 to 8) (size 9 to 14) (size 15 to 20)
#    0.000    1.750    2.500    1.500    5.250    0.500 
#    0.000    3.125    0.000    0.000    0.000    1.750 
#    0.000    0.000    0.000    0.000    0.000    0.000 
#
# Total GULP energy -793285.951588 kJ/mol
# GULP energy per Si atom -12395.092994 kJ/mol
# Density = 2.033239 g / cm^3
# Si number density = 20.378769 Si / 1000 Ang^3
#
#
#
# Elastic Constant Matrix: (Units=GPa)
#
#
# Indices 1 2 3 4 5 6 
#
# 1 55.8768 19.0090 26.4807 0.0000 0.0000 0.0000
# 2 19.0090 70.4620 29.5226 0.0000 0.0000 0.0000
# 3 26.4807 29.5226 112.1022 0.0000 0.0000 0.0000
# 4 0.0000 0.0000 0.0000 35.8029 0.0000 0.0000
# 5 0.0000 0.0000 0.0000 0.0000 37.9618 0.0000
# 6 0.0000 0.0000 0.0000 0.0000 0.0000 23.8908
#
#
#
# Elastic Compliance Matrix: (Units=1/GPa)
#
#
# Indices 1 2 3 4 5 6 
#
# 1 0.021137 -0.004058 -0.003924 0.000000 0.000000 0.000000
# 2 -0.004058 0.016731 -0.003448 0.000000 0.000000 0.000000
# 3 -0.003924 -0.003448 0.010755 0.000000 0.000000 0.000000
# 4 0.000000 0.000000 0.000000 0.027931 0.000000 0.000000
# 5 0.000000 0.000000 0.000000 0.000000 0.026342 0.000000
# 6 0.000000 0.000000 0.000000 0.000000 0.000000 0.041857
#
#
# Mechanical properties :
#
#
# Convention : Reuss Voigt Hill
#
# Bulk Modulus (GPa) = 38.81437 43.16282 40.98859
# Shear Modulus (GPa) = 28.37663 30.42634 29.40148
#
# Velocity S-wave (km/s) = 3.73562 3.86818 3.80248
# Velocity P-wave (km/s) = 6.13957 6.41691 6.27977
#
# Compressibility (1/GPa) = 0.02576365
#
# Stress axis : x y z
#
# Youngs Moduli (GPa) = 47.31090 59.76805 92.97680
#
# Poissons Ratio (x) = 0.24254 0.36486
# Poissons Ratio (y) = 0.19199 0.32055
# Poissons Ratio (z) = 0.18566 0.20606
#
# Static dielectric constant tensor:
#      x y z
#    x 3.465750 0.000000 0.000000 
#    y 0.000000 3.840340 0.000000 
#    z 0.000000 0.000000 4.336170 
# 
# 
# High freq. dielectric constant tensor:
#      x y z
#    x 1.763520 0.000000 0.000000 
#    y 0.000000 1.800380 0.000000 
#    z 0.000000 0.000000 1.813480 
# 
# From -- ./inp_files/34755.got.cif
#   From: 2010.06.25/outbox.cif.g09.slc.cpg/sg58_18_cif.got.tgz:34755.got - 2010.06.26 21:38:00.
