data_PCOD8236658
_publ_section_title
;
Structure prediction by ZEFSAII (Michael W. Deem and Ramdas Pophale) SiO2 
 PCOD8236658
Probable space group: P N N M
;
_chemical_formula_sum "Si O2"
_cell_formula_units_Z 64
_cell_length_a 12.843565
_cell_length_b 29.293157
_cell_length_c 8.623156
_cell_angle_alpha 90.000000
_cell_angle_beta 90.000000
_cell_angle_gamma 90.000000
_cell_volume 3244.277616
_symmetry_space_group_name_H-M "P N N M"
_symmetry_group_IT_number 58
_symmetry_cell_setting 'orthorhombic'
loop_
_space_group_symop_operation_xyz
x,y,z
-x,-y,z
1/2+x,1/2-y,1/2-z
1/2-x,1/2+y,1/2-z
-x,-y,-z
x,y,-z
1/2-x,1/2+y,1/2+z
1/2+x,1/2-y,1/2+z
loop_
_atom_site_type_symbol
_atom_site_label
_atom_site_fract_x
_atom_site_fract_y
_atom_site_fract_z
Si Si1 0.677759 0.429576 0.182962
Si Si2 0.035593 0.898537 0.182108
Si Si3 0.457345 0.212861 0.820787
Si Si4 0.888695 0.378754 0.184470
Si Si5 0.338250 0.814236 0.327219
Si Si6 0.896272 0.584926 0.172814
Si Si7 0.796605 0.032947 0.684594
Si Si8 0.625188 0.698383 0.680731
O O1 0.583266 0.404720 0.266919
O O2 0.784502 0.404849 0.232232
O O3 0.683382 0.481626 0.240967
O O4 0.660350 0.426783 0.000000
O O5 0.108442 0.936223 0.259633
O O6 0.068236 0.847858 0.234949
O O7 0.045057 0.904748 0.000000
O O8 0.384939 0.171616 0.758686
O O9 0.577417 0.200260 0.799136
O O10 0.444782 0.258299 0.719785
O O11 0.432224 0.221931 0.000000
O O12 0.989747 0.407024 0.251032
O O13 0.901576 0.372826 0.000000
O O14 0.367643 0.796591 0.500000
O O15 0.329856 0.868734 0.327963
O O16 0.229267 0.793434 0.277712
O O17 0.816640 0.548976 0.254121
O O18 0.919192 0.567098 0.000000
O O19 0.792046 0.036281 0.500000
O O20 0.651561 0.696119 0.500000
#
# Coordination Sequence:
#
# PCOD8236658 Si02
#       8
#     8   8   8   8   8   8   8   8
#     4  10  22  37  58  85 119 159 198 242 290 347
#     4  11  24  39  57  82 116 154 196 244 295 351
#     4  11  23  38  59  87 117 154 193 237 294 355
#     4   9  19  38  58  83 118 156 196 243 296 348
#     4  10  19  36  60  85 113 148 186 237 295 348
#     4   8  15  30  57  85 111 144 184 235 286 337
#     4  10  19  35  59  88 116 151 198 243 291 348
#     4  11  23  39  59  85 113 149 197 247 294 351
#
# _framework density 19.727042000000001
#
# number of rings (size 3 to 8) (size 9 to 14) (size 15 to 20)
#    0.000    2.000    1.250    3.375    0.000    5.500 
#    0.000    5.000    0.000    0.000    0.000    3.500 
#    0.000    0.000    0.000    0.000    0.000    0.000 
#
# Total GULP energy -793452.357641 kJ/mol
# GULP energy per Si atom -12397.693088 kJ/mol
# Density = 1.968214 g / cm^3
# Si number density = 19.727042 Si / 1000 Ang^3
#
#
#
# Elastic Constant Matrix: (Units=GPa)
#
#
# Indices 1 2 3 4 5 6 
#
# 1 119.6544 58.0407 22.5275 0.0000 0.0000 0.0000
# 2 58.0407 116.6418 25.4596 0.0000 0.0000 0.0000
# 3 22.5275 25.4596 46.4290 0.0000 0.0000 0.0000
# 4 0.0000 0.0000 0.0000 24.5916 0.0000 0.0000
# 5 0.0000 0.0000 0.0000 0.0000 22.4697 0.0000
# 6 0.0000 0.0000 0.0000 0.0000 0.0000 26.9183
#
#
#
# Elastic Compliance Matrix: (Units=1/GPa)
#
#
# Indices 1 2 3 4 5 6 
#
# 1 0.011313 -0.005034 -0.002729 0.000000 0.000000 0.000000
# 2 -0.005034 0.011979 -0.004126 0.000000 0.000000 0.000000
# 3 -0.002729 -0.004126 0.025125 0.000000 0.000000 0.000000
# 4 0.000000 0.000000 0.000000 0.040664 0.000000 0.000000
# 5 0.000000 0.000000 0.000000 0.000000 0.044504 0.000000
# 6 0.000000 0.000000 0.000000 0.000000 0.000000 0.037149
#
#
# Mechanical properties :
#
#
# Convention : Reuss Voigt Hill
#
# Bulk Modulus (GPa) = 40.58595 54.97565 47.78080
# Shear Modulus (GPa) = 24.66400 26.57575 25.61987
#
# Velocity S-wave (km/s) = 3.53974 3.67437 3.60768
# Velocity P-wave (km/s) = 6.10940 6.77717 6.45193
#
# Compressibility (1/GPa) = 0.02463907
#
# Stress axis : x y z
#
# Youngs Moduli (GPa) = 88.39542 83.48220 39.80117
#
# Poissons Ratio (x) = 0.42022 0.10861
# Poissons Ratio (y) = 0.44495 0.16423
# Poissons Ratio (z) = 0.24121 0.34446
#
# Static dielectric constant tensor:
#      x y z
#    x 3.632790 0.000000 0.000000 
#    y 0.000000 3.677340 0.000000 
#    z 0.000000 0.000000 3.356070 
# 
# 
# High freq. dielectric constant tensor:
#      x y z
#    x 1.777860 0.000000 0.000000 
#    y 0.000000 1.768440 0.000000 
#    z 0.000000 0.000000 1.748580 
# 
# From -- ./inp_files/4711.got.cif
#   From: 2010.06.25/outbox.cif.g09.slc.cpg/sg58_3_cif.got.tgz:4711.got - 2010.06.26 21:38:00.
