data_PCOD8236059
_publ_section_title
;
Structure prediction by ZEFSAII (Michael W. Deem and Ramdas Pophale) SiO2 
 PCOD8236059
Probable space group: P N N M
;
_chemical_formula_sum "Si O2"
_cell_formula_units_Z 64
_cell_length_a 18.968137
_cell_length_b 21.655356
_cell_length_c 8.871309
_cell_angle_alpha 90.000000
_cell_angle_beta 90.000000
_cell_angle_gamma 90.000000
_cell_volume 3643.994493
_symmetry_space_group_name_H-M "P N N M"
_symmetry_group_IT_number 58
_symmetry_cell_setting 'orthorhombic'
loop_
_space_group_symop_operation_xyz
x,y,z
-x,-y,z
1/2+x,1/2-y,1/2-z
1/2-x,1/2+y,1/2-z
-x,-y,-z
x,y,-z
1/2-x,1/2+y,1/2+z
1/2+x,1/2-y,1/2+z
loop_
_atom_site_type_symbol
_atom_site_label
_atom_site_fract_x
_atom_site_fract_y
_atom_site_fract_z
Si Si1 0.873125 0.729829 0.666083
Si Si2 0.565280 0.351771 0.823129
Si Si3 0.671294 0.115724 0.675951
Si Si4 0.075694 0.804580 0.820998
Si Si5 0.032160 0.684222 0.330781
Si Si6 0.523027 0.067867 0.320760
Si Si7 0.577148 0.488059 0.822718
Si Si8 0.326610 0.402664 0.820121
O O1 0.839770 0.722094 0.500000
O O2 0.873917 0.801714 0.716629
O O3 0.829121 0.688143 0.780363
O O4 0.953987 0.710270 0.664743
O O5 0.494366 0.340831 0.729523
O O6 0.599037 0.418048 0.782444
O O7 0.544462 0.347794 0.000000
O O8 0.665696 0.110952 0.500000
O O9 0.602786 0.080099 0.742587
O O10 0.745318 0.087493 0.731304
O O11 0.142858 0.841330 0.757062
O O12 0.079296 0.734353 0.758377
O O13 0.078715 0.801836 0.000000
O O14 0.062061 0.675862 0.500000
O O15 0.031495 0.617800 0.247681
O O16 0.519801 0.074106 0.500000
O O17 0.500000 0.000000 0.266689
O O18 0.500000 0.500000 0.752491
O O19 0.632993 0.536878 0.756770
O O20 0.574069 0.498832 0.000000
O O21 0.332590 0.395014 0.000000
#
# Coordination Sequence:
#
# PCOD8236059 Si02
#       8
#     8   8   8   8   8   8   8   8
#     4   8  15  27  46  68  92 118 151 198 243 282
#     4   9  16  29  48  70  94 124 162 201 239 282
#     4   9  18  31  49  71  94 128 167 202 245 296
#     4  11  20  29  45  71  99 126 157 201 255 296
#     4   9  17  30  49  73  97 123 160 203 241 289
#     4   9  17  31  52  77 106 133 161 205 256 303
#     4   9  15  26  48  71  92 124 166 204 234 277
#     4  10  19  32  49  68  93 130 172 207 241 295
#
# _framework density 17.563144000000001
#
# number of rings (size 3 to 8) (size 9 to 14) (size 15 to 20)
#    0.000    2.750    1.250    2.250    0.000    3.750 
#    0.000    1.250    2.750    0.000    0.000    0.000 
#    0.000    0.000    0.000    0.000    0.000    0.000 
#
# Total GULP energy -793167.208568 kJ/mol
# GULP energy per Si atom -12393.237634 kJ/mol
# Density = 1.752317 g / cm^3
# Si number density = 17.563144 Si / 1000 Ang^3
#
#
#
# Elastic Constant Matrix: (Units=GPa)
#
#
# Indices 1 2 3 4 5 6 
#
# 1 81.9699 58.4621 24.5923 0.0000 0.0000 0.0000
# 2 58.4621 160.3206 30.7538 0.0000 0.0000 0.0000
# 3 24.5923 30.7538 46.5706 0.0000 0.0000 0.0000
# 4 0.0000 0.0000 0.0000 23.9430 0.0000 0.0000
# 5 0.0000 0.0000 0.0000 0.0000 14.7319 0.0000
# 6 0.0000 0.0000 0.0000 0.0000 0.0000 22.6796
#
#
#
# Elastic Compliance Matrix: (Units=1/GPa)
#
#
# Indices 1 2 3 4 5 6 
#
# 1 0.017777 -0.005361 -0.005847 0.000000 0.000000 0.000000
# 2 -0.005361 0.008759 -0.002953 0.000000 0.000000 0.000000
# 3 -0.005847 -0.002953 0.026511 0.000000 0.000000 0.000000
# 4 0.000000 0.000000 0.000000 0.041766 0.000000 0.000000
# 5 0.000000 0.000000 0.000000 0.000000 0.067880 0.000000
# 6 0.000000 0.000000 0.000000 0.000000 0.000000 0.044093
#
#
# Mechanical properties :
#
#
# Convention : Reuss Voigt Hill
#
# Bulk Modulus (GPa) = 40.44655 57.38639 48.91647
# Shear Modulus (GPa) = 20.54656 23.94110 22.24383
#
# Velocity S-wave (km/s) = 3.42404 3.69608 3.56266
# Velocity P-wave (km/s) = 6.22184 7.13863 6.69594
#
# Compressibility (1/GPa) = 0.02472399
#
# Stress axis : x y z
#
# Youngs Moduli (GPa) = 56.25106 114.16921 37.72056
#
# Poissons Ratio (x) = 0.61206 0.22057
# Poissons Ratio (y) = 0.30156 0.11140
# Poissons Ratio (z) = 0.32892 0.33716
#
# Static dielectric constant tensor:
#      x y z
#    x 3.171540 0.000000 0.000000 
#    y 0.000000 3.612780 0.000000 
#    z 0.000000 0.000000 3.110150 
# 
# 
# High freq. dielectric constant tensor:
#      x y z
#    x 1.640810 0.000000 0.000000 
#    y 0.000000 1.687500 0.000000 
#    z 0.000000 0.000000 1.659450 
# 
# From -- ./inp_files/9418.got.cif
#   From: 2010.06.25/outbox.cif.g09.slc.cpg/sg58_5_cif.got.tgz:9418.got - 2010.06.26 21:38:00.
