data_PCOD8236236
_publ_section_title
;
Structure prediction by ZEFSAII (Michael W. Deem and Ramdas Pophale) SiO2 
 PCOD8236236
Probable space group: P N N M
;
_chemical_formula_sum "Si O2"
_cell_formula_units_Z 64
_cell_length_a 24.210053
_cell_length_b 8.812857
_cell_length_c 14.890599
_cell_angle_alpha 90.000000
_cell_angle_beta 90.000000
_cell_angle_gamma 90.000000
_cell_volume 3177.054257
_symmetry_space_group_name_H-M "P N N M"
_symmetry_group_IT_number 58
_symmetry_cell_setting 'orthorhombic'
loop_
_space_group_symop_operation_xyz
x,y,z
-x,-y,z
1/2+x,1/2-y,1/2-z
1/2-x,1/2+y,1/2-z
-x,-y,-z
x,y,-z
1/2-x,1/2+y,1/2+z
1/2+x,1/2-y,1/2+z
loop_
_atom_site_type_symbol
_atom_site_label
_atom_site_fract_x
_atom_site_fract_y
_atom_site_fract_z
Si Si1 0.275626 0.353487 0.904055
Si Si2 0.812214 0.444315 0.844634
Si Si3 0.875629 0.689037 0.254539
Si Si4 0.563576 0.986836 0.896106
Si Si5 0.721188 0.385442 0.291605
Si Si6 0.603187 0.644600 0.105503
Si Si7 0.438065 0.521632 0.726430
Si Si8 0.151816 0.880616 0.895027
O O1 0.238013 0.504244 0.909961
O O2 0.232766 0.233349 0.868474
O O3 0.334127 0.375765 0.853732
O O4 0.295965 0.296648 0.000000
O O5 0.859877 0.568164 0.823400
O O6 0.780323 0.417476 0.751365
O O7 0.840811 0.299484 0.887637
O O8 0.896519 0.602158 0.343106
O O9 0.823851 0.804564 0.274470
O O10 0.923884 0.799568 0.218878
O O11 0.584192 0.816632 0.879570
O O12 0.500000 0.000000 0.863232
O O13 0.568090 0.033563 0.000000
O O14 0.700863 0.538463 0.339710
O O15 0.568042 0.535582 0.170028
O O16 0.596481 0.596011 0.000000
O O17 0.500000 0.500000 0.695594
O O18 0.404782 0.424863 0.653106
O O19 0.151331 0.928131 0.000000
#
# Coordination Sequence:
#
# PCOD8236236 Si02
#       8
#     8   8   8   8   8   8   8   8
#     4  10  19  33  53  78 110 143 176 218 274 337
#     4  11  21  37  58  82 114 147 185 233 285 344
#     4  10  21  35  56  82 109 148 192 236 292 351
#     4  10  20  35  55  81 116 155 195 241 291 346
#     4  10  20  35  55  81 113 149 184 229 281 338
#     4  10  21  36  57  86 119 155 195 242 296 356
#     4  11  23  40  61  83 113 153 198 253 307 353
#     4  11  23  39  60  86 116 154 199 242 289 348
#
# _framework density 20.144448000000001
#
# number of rings (size 3 to 8) (size 9 to 14) (size 15 to 20)
#    0.000    1.625    0.000    6.750    0.000    1.000 
#    0.000    5.000    0.000    0.750    0.000    0.000 
#    0.000    0.000    0.000    0.000    0.000    0.000 
#
# Total GULP energy -793065.314155 kJ/mol
# GULP energy per Si atom -12391.645534 kJ/mol
# Density = 2.009860 g / cm^3
# Si number density = 20.144448 Si / 1000 Ang^3
#
#
#
# Elastic Constant Matrix: (Units=GPa)
#
#
# Indices 1 2 3 4 5 6 
#
# 1 98.3371 38.2976 34.2215 0.0000 0.0000 0.0000
# 2 38.2976 99.2177 35.9190 0.0000 0.0000 0.0000
# 3 34.2215 35.9190 83.3606 0.0000 0.0000 0.0000
# 4 0.0000 0.0000 0.0000 15.6880 0.0000 0.0000
# 5 0.0000 0.0000 0.0000 0.0000 24.1673 0.0000
# 6 0.0000 0.0000 0.0000 0.0000 0.0000 27.7836
#
#
#
# Elastic Compliance Matrix: (Units=1/GPa)
#
#
# Indices 1 2 3 4 5 6 
#
# 1 0.012876 -0.003621 -0.003725 0.000000 0.000000 0.000000
# 2 -0.003621 0.012960 -0.004098 0.000000 0.000000 0.000000
# 3 -0.003725 -0.004098 0.015291 0.000000 0.000000 0.000000
# 4 0.000000 0.000000 0.000000 0.063743 0.000000 0.000000
# 5 0.000000 0.000000 0.000000 0.000000 0.041378 0.000000
# 6 0.000000 0.000000 0.000000 0.000000 0.000000 0.035992
#
#
# Mechanical properties :
#
#
# Convention : Reuss Voigt Hill
#
# Bulk Modulus (GPa) = 54.83024 55.31018 55.07021
# Shear Modulus (GPa) = 23.67321 25.02626 24.34974
#
# Velocity S-wave (km/s) = 3.43180 3.52851 3.48049
# Velocity P-wave (km/s) = 6.55596 6.64205 6.59915
#
# Compressibility (1/GPa) = 0.01823811
#
# Stress axis : x y z
#
# Youngs Moduli (GPa) = 77.66438 77.15973 65.39741
#
# Poissons Ratio (x) = 0.27942 0.24364
# Poissons Ratio (y) = 0.28125 0.26798
# Poissons Ratio (z) = 0.28934 0.31618
#
# Static dielectric constant tensor:
#      x y z
#    x 3.894860 0.000000 0.000000 
#    y 0.000000 3.805150 0.000000 
#    z 0.000000 0.000000 3.621560 
# 
# 
# High freq. dielectric constant tensor:
#      x y z
#    x 1.787520 0.000000 0.000000 
#    y 0.000000 1.796480 0.000000 
#    z 0.000000 0.000000 1.770320 
# 
# From -- ./inp_files/23544.got.cif
#   From: 2010.06.25/outbox.cif.g09.slc.cpg/sg58_12_cif.got.tgz:23544.got - 2010.06.26 21:38:00.
