data_PCOD8236092
_publ_section_title
;
Structure prediction by ZEFSAII (Michael W. Deem and Ramdas Pophale) SiO2 
 PCOD8236092
Probable space group: P N N M
;
_chemical_formula_sum "Si O2"
_cell_formula_units_Z 48
_cell_length_a 17.162557
_cell_length_b 19.441272
_cell_length_c 8.858600
_cell_angle_alpha 90.000000
_cell_angle_beta 90.000000
_cell_angle_gamma 90.000000
_cell_volume 2955.777652
_symmetry_space_group_name_H-M "P N N M"
_symmetry_group_IT_number 58
_symmetry_cell_setting 'orthorhombic'
loop_
_space_group_symop_operation_xyz
x,y,z
-x,-y,z
1/2+x,1/2-y,1/2-z
1/2-x,1/2+y,1/2-z
-x,-y,-z
x,y,-z
1/2-x,1/2+y,1/2+z
1/2+x,1/2-y,1/2+z
loop_
_atom_site_type_symbol
_atom_site_label
_atom_site_fract_x
_atom_site_fract_y
_atom_site_fract_z
Si Si1 0.048558 0.066215 0.821266
Si Si2 0.648673 0.902054 0.821253
Si Si3 0.950233 0.798235 0.670820
Si Si4 0.503754 0.158789 0.323055
Si Si5 0.580317 0.040213 0.166158
Si Si6 0.691159 0.384785 0.170666
O O1 0.008995 0.134067 0.745325
O O2 0.137541 0.058844 0.758832
O O3 0.049832 0.074968 0.000000
O O4 0.000000 0.000000 0.770084
O O5 0.577677 0.858329 0.755349
O O6 0.728122 0.872109 0.755300
O O7 0.642778 0.983364 0.776641
O O8 0.646791 0.893182 0.000000
O O9 0.981098 0.787411 0.500000
O O10 0.856621 0.812399 0.670472
O O11 0.968389 0.733254 0.772809
O O12 0.491108 0.156973 0.500000
O O13 0.571563 0.104143 0.279423
O O14 0.500000 0.000000 0.153445
O O15 0.603241 0.068720 0.000000
O O16 0.706447 0.410297 0.000000
#
# Coordination Sequence:
#
# PCOD8236092 Si02
#       6
#     8   8   8   8   8   8
#     4   9  17  31  53  76  98 126 164 205 244 293
#     4  10  19  32  52  74 101 134 167 206 251 299
#     4   9  19  33  51  73 100 134 169 207 251 297
#     4  11  20  30  50  75 102 133 168 209 250 300
#     4   8  16  30  47  70  98 130 165 201 245 294
#     4   9  19  32  51  74  99 129 164 205 248 297
#
# _framework density 16.239381000000002
#
# number of rings (size 3 to 8) (size 9 to 14) (size 15 to 20)
#    1.000    1.667    0.000    4.000    0.000    5.000 
#    0.000    0.000    3.667    0.000    0.000    0.000 
#    0.000    0.000    0.000    0.000    0.000    0.000 
#
# Total GULP energy -594723.713386 kJ/mol
# GULP energy per Si atom -12390.077362 kJ/mol
# Density = 1.620242 g / cm^3
# Si number density = 16.239381 Si / 1000 Ang^3
#
#
#
# Elastic Constant Matrix: (Units=GPa)
#
#
# Indices 1 2 3 4 5 6 
#
# 1 69.9921 33.8868 34.9169 0.0000 0.0000 0.0000
# 2 33.8868 98.2128 42.6435 0.0000 0.0000 0.0000
# 3 34.9169 42.6435 103.3751 0.0000 0.0000 0.0000
# 4 0.0000 0.0000 0.0000 25.9425 0.0000 0.0000
# 5 0.0000 0.0000 0.0000 0.0000 27.4700 0.0000
# 6 0.0000 0.0000 0.0000 0.0000 0.0000 18.8152
#
#
#
# Elastic Compliance Matrix: (Units=1/GPa)
#
#
# Indices 1 2 3 4 5 6 
#
# 1 0.018695 -0.004518 -0.004451 0.000000 0.000000 0.000000
# 2 -0.004518 0.013495 -0.004041 0.000000 0.000000 0.000000
# 3 -0.004451 -0.004041 0.012844 0.000000 0.000000 0.000000
# 4 0.000000 0.000000 0.000000 0.038547 0.000000 0.000000
# 5 0.000000 0.000000 0.000000 0.000000 0.036403 0.000000
# 6 0.000000 0.000000 0.000000 0.000000 0.000000 0.053148
#
#
# Mechanical properties :
#
#
# Convention : Reuss Voigt Hill
#
# Bulk Modulus (GPa) = 52.59093 54.94160 53.76627
# Shear Modulus (GPa) = 24.33199 25.12107 24.72653
#
# Velocity S-wave (km/s) = 3.87503 3.93736 3.90632
# Velocity P-wave (km/s) = 7.24405 7.38757 7.31616
#
# Compressibility (1/GPa) = 0.01901468
#
# Stress axis : x y z
#
# Youngs Moduli (GPa) = 53.48991 74.09943 77.85818
#
# Poissons Ratio (x) = 0.33477 0.34654
# Poissons Ratio (y) = 0.24166 0.31463
# Poissons Ratio (z) = 0.23808 0.29944
#
# Static dielectric constant tensor:
#      x y z
#    x 2.918660 0.000000 0.000000 
#    y 0.000000 3.049610 0.000000 
#    z 0.000000 0.000000 3.148350 
# 
# 
# High freq. dielectric constant tensor:
#      x y z
#    x 1.595200 0.000000 0.000000 
#    y 0.000000 1.609640 0.000000 
#    z 0.000000 0.000000 1.642150 
# 
# From -- ./inp_files/8081.got.cif
#   From: 2010.06.25/outbox.cif.g09.slc.cpg/sg58_5_cif.got.tgz:8081.got - 2010.06.26 21:38:00.
