data_PCOD8236591
_publ_section_title
;
Structure prediction by ZEFSAII (Michael W. Deem and Ramdas Pophale) SiO2 
 PCOD8236591
Probable space group: P N N M
;
_chemical_formula_sum "Si O2"
_cell_formula_units_Z 56
_cell_length_a 17.895662
_cell_length_b 5.099030
_cell_length_c 32.713209
_cell_angle_alpha 90.000000
_cell_angle_beta 90.000000
_cell_angle_gamma 90.000000
_cell_volume 2985.097247
_symmetry_space_group_name_H-M "P N N M"
_symmetry_group_IT_number 58
_symmetry_cell_setting 'orthorhombic'
loop_
_space_group_symop_operation_xyz
x,y,z
-x,-y,z
1/2+x,1/2-y,1/2-z
1/2-x,1/2+y,1/2-z
-x,-y,-z
x,y,-z
1/2-x,1/2+y,1/2+z
1/2+x,1/2-y,1/2+z
loop_
_atom_site_type_symbol
_atom_site_label
_atom_site_fract_x
_atom_site_fract_y
_atom_site_fract_z
Si Si1 0.724329 0.956527 0.916349
Si Si2 0.297576 0.547675 0.742717
Si Si3 0.914080 0.458907 0.114597
Si Si4 0.207363 0.541916 0.953013
Si Si5 0.585561 0.518531 0.187068
Si Si6 0.846209 0.958197 0.151224
Si Si7 0.585794 0.019328 0.134270
O O1 0.735756 0.683580 0.939298
O O2 0.769328 0.971303 0.873875
O O3 0.636877 0.982394 0.905701
O O4 0.750717 0.184480 0.946564
O O5 0.234579 0.340405 0.755502
O O6 0.367046 0.526611 0.772736
O O7 0.327196 0.485460 0.697830
O O8 0.869324 0.478706 0.072184
O O9 0.885244 0.677012 0.146358
O O10 0.000000 0.500000 0.103596
O O11 0.903552 0.177403 0.135381
O O12 0.185110 0.510035 0.000000
O O13 0.500000 0.500000 0.200935
O O14 0.604325 0.801413 0.168323
O O15 0.604420 0.302160 0.153026
O O16 0.500000 0.000000 0.119798
#
# Coordination Sequence:
#
# PCOD8236591 Si02
#       7
#     8   8   8   8   8   8   8
#     4  10  19  35  57  78 107 137 174 217 260 318
#     4  12  23  36  55  78 107 144 186 226 268 311
#     4  10  21  37  56  79 108 142 181 219 259 314
#     4  10  21  36  57  83 108 138 172 212 264 314
#     4  10  21  35  52  78 109 140 178 226 269 306
#     4  10  21  35  53  79 106 143 182 221 266 311
#     4  10  20  36  58  80 104 137 178 220 264 314
#
# _framework density 18.759858000000001
#
# number of rings (size 3 to 8) (size 9 to 14) (size 15 to 20)
#    0.000    1.714    0.000    5.143    0.000    3.714 
#    0.000    1.429    0.000    7.714    0.000    0.000 
#    0.000    0.000    0.000    0.000    0.000    0.000 
#
# Total GULP energy -694760.753248 kJ/mol
# GULP energy per Si atom -12406.442022 kJ/mol
# Density = 1.871716 g / cm^3
# Si number density = 18.759858 Si / 1000 Ang^3
#
#
#
# Elastic Constant Matrix: (Units=GPa)
#
#
# Indices 1 2 3 4 5 6 
#
# 1 90.0640 21.2486 47.6172 0.0000 0.0000 0.0000
# 2 21.2486 67.7175 0.4332 0.0000 0.0000 0.0000
# 3 47.6172 0.4332 93.1573 0.0000 0.0000 0.0000
# 4 0.0000 0.0000 0.0000 14.2404 0.0000 0.0000
# 5 0.0000 0.0000 0.0000 0.0000 13.4865 0.0000
# 6 0.0000 0.0000 0.0000 0.0000 0.0000 22.4633
#
#
#
# Elastic Compliance Matrix: (Units=1/GPa)
#
#
# Indices 1 2 3 4 5 6 
#
# 1 0.016893 -0.005246 -0.008611 0.000000 0.000000 0.000000
# 2 -0.005246 0.016397 0.002605 0.000000 0.000000 0.000000
# 3 -0.008611 0.002605 0.015124 0.000000 0.000000 0.000000
# 4 0.000000 0.000000 0.000000 0.070223 0.000000 0.000000
# 5 0.000000 0.000000 0.000000 0.000000 0.074148 0.000000
# 6 0.000000 0.000000 0.000000 0.000000 0.000000 0.044517
#
#
# Mechanical properties :
#
#
# Convention : Reuss Voigt Hill
#
# Bulk Modulus (GPa) = 38.59344 43.28187 40.93765
# Shear Modulus (GPa) = 18.62609 22.14738 20.38673
#
# Velocity S-wave (km/s) = 3.15440 3.43967 3.30012
# Velocity P-wave (km/s) = 5.82100 6.23673 6.03244
#
# Compressibility (1/GPa) = 0.02591114
#
# Stress axis : x y z
#
# Youngs Moduli (GPa) = 59.19514 60.98825 66.12143
#
# Poissons Ratio (x) = 0.31993 0.56934
# Poissons Ratio (y) = 0.31052 -0.17225
# Poissons Ratio (z) = 0.50970 -0.15888
#
# Static dielectric constant tensor:
#      x y z
#    x 3.425180 0.000000 0.000000 
#    y 0.000000 3.751420 0.000000 
#    z 0.000000 0.000000 3.191950 
# 
# 
# High freq. dielectric constant tensor:
#      x y z
#    x 1.728030 0.000000 0.000000 
#    y 0.000000 1.752200 0.000000 
#    z 0.000000 0.000000 1.711180 
# 
# From -- ./inp_files/23751.got.cif
#   From: 2010.06.25/outbox.cif.g09.slc.cpg/sg58_12_cif.got.tgz:23751.got - 2010.06.26 21:38:00.
