data_PCOD8236255
_publ_section_title
;
Structure prediction by ZEFSAII (Michael W. Deem and Ramdas Pophale) SiO2 
 PCOD8236255
Probable space group: P N N M
;
_chemical_formula_sum "Si O2"
_cell_formula_units_Z 64
_cell_length_a 10.151812
_cell_length_b 24.836030
_cell_length_c 12.660448
_cell_angle_alpha 90.000000
_cell_angle_beta 90.000000
_cell_angle_gamma 90.000000
_cell_volume 3192.087710
_symmetry_space_group_name_H-M "P N N M"
_symmetry_group_IT_number 58
_symmetry_cell_setting 'orthorhombic'
loop_
_space_group_symop_operation_xyz
x,y,z
-x,-y,z
1/2+x,1/2-y,1/2-z
1/2-x,1/2+y,1/2-z
-x,-y,-z
x,y,-z
1/2-x,1/2+y,1/2+z
1/2+x,1/2-y,1/2+z
loop_
_atom_site_type_symbol
_atom_site_label
_atom_site_fract_x
_atom_site_fract_y
_atom_site_fract_z
Si Si1 0.386715 0.792573 0.171304
Si Si2 0.238706 0.894043 0.116389
Si Si3 0.379007 0.468056 0.118168
Si Si4 0.006557 0.346922 0.125322
Si Si5 0.110343 0.455640 0.218407
Si Si6 0.053454 0.860925 0.292286
Si Si7 0.773566 0.815222 0.288327
Si Si8 0.845813 0.249985 0.617495
O O1 0.307427 0.836717 0.108338
O O2 0.407374 0.806872 0.298593
O O3 0.309487 0.737648 0.145412
O O4 0.525197 0.786626 0.114153
O O5 0.345837 0.934005 0.167398
O O6 0.104970 0.887680 0.183678
O O7 0.201249 0.914964 0.000000
O O8 0.500000 0.500000 0.175097
O O9 0.239472 0.483170 0.169126
O O10 0.406670 0.403731 0.118019
O O11 0.369252 0.489345 0.000000
O O12 0.853585 0.343548 0.160713
O O13 0.056823 0.407638 0.143884
O O14 0.022630 0.332503 0.000000
O O15 0.000000 0.500000 0.234661
O O16 0.127214 0.804149 0.313457
O O17 0.895726 0.856357 0.287524
O O18 0.758098 0.790476 0.170660
O O19 0.799694 0.234002 0.500000
#
# Coordination Sequence:
#
# PCOD8236255 Si02
#       8
#     8   8   8   8   8   8   8   8
#     4   9  19  37  51  81 117 151 196 244 286 347
#     4  10  20  38  62  84 114 156 202 243 302 365
#     4  10  22  39  62  90 121 162 199 239 311 377
#     4  10  22  37  60  89 121 160 202 251 309 366
#     4  10  23  42  63  92 124 152 197 265 309 361
#     4  10  21  37  55  84 121 155 197 253 296 353
#     4  10  21  36  52  84 122 155 203 246 290 358
#     4  10  19  33  54  78 112 155 193 237 292 344
#
# _framework density 20.049574
#
# number of rings (size 3 to 8) (size 9 to 14) (size 15 to 20)
#    0.000    2.125    1.250    1.125    1.750    5.250 
#    0.000    0.000    0.000    6.000    0.000    0.000 
#    0.000    0.000    0.000    0.000    0.000    0.000 
#
# Total GULP energy -793074.221150 kJ/mol
# GULP energy per Si atom -12391.784705 kJ/mol
# Density = 2.000394 g / cm^3
# Si number density = 20.049574 Si / 1000 Ang^3
#
#
#
# Elastic Constant Matrix: (Units=GPa)
#
#
# Indices 1 2 3 4 5 6 
#
# 1 114.2582 34.3714 25.1097 0.0000 0.0000 0.0000
# 2 34.3714 59.5553 10.0564 0.0000 0.0000 0.0000
# 3 25.1097 10.0564 113.1803 0.0000 0.0000 0.0000
# 4 0.0000 0.0000 0.0000 12.2131 0.0000 0.0000
# 5 0.0000 0.0000 0.0000 0.0000 12.6331 0.0000
# 6 0.0000 0.0000 0.0000 0.0000 0.0000 44.5306
#
#
#
# Elastic Compliance Matrix: (Units=1/GPa)
#
#
# Indices 1 2 3 4 5 6 
#
# 1 0.010980 -0.006016 -0.001901 0.000000 0.000000 0.000000
# 2 -0.006016 0.020343 -0.000473 0.000000 0.000000 0.000000
# 3 -0.001901 -0.000473 0.009299 0.000000 0.000000 0.000000
# 4 0.000000 0.000000 0.000000 0.081879 0.000000 0.000000
# 5 0.000000 0.000000 0.000000 0.000000 0.079157 0.000000
# 6 0.000000 0.000000 0.000000 0.000000 0.000000 0.022456
#
#
# Mechanical properties :
#
#
# Convention : Reuss Voigt Hill
#
# Bulk Modulus (GPa) = 41.94306 47.34099 44.64202
# Shear Modulus (GPa) = 20.09308 28.37244 24.23276
#
# Velocity S-wave (km/s) = 3.16914 3.76588 3.48032
# Velocity P-wave (km/s) = 5.86143 6.52475 6.20197
#
# Compressibility (1/GPa) = 0.02384185
#
# Stress axis : x y z
#
# Youngs Moduli (GPa) = 91.07803 49.15744 107.53480
#
# Poissons Ratio (x) = 0.29571 0.20447
# Poissons Ratio (y) = 0.54789 0.05085
# Poissons Ratio (z) = 0.17317 0.02325
#
# Static dielectric constant tensor:
#      x y z
#    x 3.885260 0.000000 0.000000 
#    y 0.000000 3.533450 0.000000 
#    z 0.000000 0.000000 3.553230 
# 
# 
# High freq. dielectric constant tensor:
#      x y z
#    x 1.796760 0.000000 0.000000 
#    y 0.000000 1.767480 0.000000 
#    z 0.000000 0.000000 1.764950 
# 
# From -- ./inp_files/14800.got.cif
#   From: 2010.06.25/outbox.cif.g09.slc.cpg/sg58_8_cif.got.tgz:14800.got - 2010.06.26 21:38:00.
