data_PCOD8236053
_publ_section_title
;
Structure prediction by ZEFSAII (Michael W. Deem and Ramdas Pophale) SiO2 
 PCOD8236053
Probable space group: P N N M
;
_chemical_formula_sum "Si O2"
_cell_formula_units_Z 64
_cell_length_a 17.615159
_cell_length_b 22.479667
_cell_length_c 8.908707
_cell_angle_alpha 90.000000
_cell_angle_beta 90.000000
_cell_angle_gamma 90.000000
_cell_volume 3527.695709
_symmetry_space_group_name_H-M "P N N M"
_symmetry_group_IT_number 58
_symmetry_cell_setting 'orthorhombic'
loop_
_space_group_symop_operation_xyz
x,y,z
-x,-y,z
1/2+x,1/2-y,1/2-z
1/2-x,1/2+y,1/2-z
-x,-y,-z
x,y,-z
1/2-x,1/2+y,1/2+z
1/2+x,1/2-y,1/2+z
loop_
_atom_site_type_symbol
_atom_site_label
_atom_site_fract_x
_atom_site_fract_y
_atom_site_fract_z
Si Si1 0.895430 0.203295 0.327461
Si Si2 0.044272 0.167964 0.824254
Si Si3 0.312395 0.091848 0.170094
Si Si4 0.229105 0.979928 0.829776
Si Si5 0.250956 0.846673 0.178002
Si Si6 0.598920 0.200446 0.674562
Si Si7 0.547596 0.835241 0.172104
Si Si8 0.663905 0.415278 0.176608
O O1 0.892398 0.183608 0.500000
O O2 0.815633 0.191446 0.249716
O O3 0.910165 0.272882 0.309466
O O4 0.960527 0.165321 0.245914
O O5 0.083692 0.230758 0.787655
O O6 0.091958 0.115371 0.751334
O O7 0.037156 0.156888 0.000000
O O8 0.393691 0.114171 0.230441
O O9 0.241840 0.117494 0.268422
O O10 0.307273 0.019418 0.174526
O O11 0.301870 0.115947 0.000000
O O12 0.245027 0.914813 0.764180
O O13 0.166378 0.015287 0.729940
O O14 0.198313 0.975793 0.000000
O O15 0.329866 0.819561 0.229636
O O16 0.246052 0.843148 0.000000
O O17 0.614610 0.189767 0.500000
O O18 0.526506 0.161293 0.724188
O O19 0.522926 0.846154 0.000000
O O20 0.656359 0.410800 0.000000
#
# Coordination Sequence:
#
# PCOD8236053 Si02
#       8
#     8   8   8   8   8   8   8   8
#     4  10  21  35  54  82 112 139 174 221 271 320
#     4  10  20  37  56  78 109 144 179 216 265 321
#     4   8  16  33  55  77 104 139 177 216 261 318
#     4   8  18  36  54  75 105 143 184 221 258 318
#     4  11  22  37  56  78 107 146 184 215 263 323
#     4  10  22  36  54  79 111 144 176 219 266 315
#     4   9  18  35  57  80 107 139 176 218 266 319
#     4  10  19  31  54  83 107 135 173 225 271 307
#
# _framework density 18.142154999999999
#
# number of rings (size 3 to 8) (size 9 to 14) (size 15 to 20)
#    0.750    1.750    0.000    2.250    1.750    3.500 
#    0.000    1.250    0.000    7.500    0.000    0.000 
#    0.000    0.000    0.000    0.000    0.000    0.000 
#
# Total GULP energy -793324.914214 kJ/mol
# GULP energy per Si atom -12395.701785 kJ/mol
# Density = 1.810086 g / cm^3
# Si number density = 18.142155 Si / 1000 Ang^3
#
#
#
# Elastic Constant Matrix: (Units=GPa)
#
#
# Indices 1 2 3 4 5 6 
#
# 1 81.7616 22.9201 33.4574 0.0000 0.0000 0.0000
# 2 22.9201 42.7009 25.4712 0.0000 0.0000 0.0000
# 3 33.4574 25.4712 84.9039 0.0000 0.0000 0.0000
# 4 0.0000 0.0000 0.0000 23.5200 0.0000 0.0000
# 5 0.0000 0.0000 0.0000 0.0000 36.1130 0.0000
# 6 0.0000 0.0000 0.0000 0.0000 0.0000 2.0852
#
#
#
# Elastic Compliance Matrix: (Units=1/GPa)
#
#
# Indices 1 2 3 4 5 6 
#
# 1 0.015663 -0.005756 -0.004446 0.000000 0.000000 0.000000
# 2 -0.005756 0.030638 -0.006923 0.000000 0.000000 0.000000
# 3 -0.004446 -0.006923 0.015607 0.000000 0.000000 0.000000
# 4 0.000000 0.000000 0.000000 0.042517 0.000000 0.000000
# 5 0.000000 0.000000 0.000000 0.000000 0.027691 0.000000
# 6 0.000000 0.000000 0.000000 0.000000 0.000000 0.479573
#
#
# Mechanical properties :
#
#
# Convention : Reuss Voigt Hill
#
# Bulk Modulus (GPa) = 36.15464 41.45152 38.80308
# Shear Modulus (GPa) = 7.63175 20.84481 14.23828
#
# Velocity S-wave (km/s) = 2.05323 3.39332 2.80450
# Velocity P-wave (km/s) = 5.05893 6.18471 5.64993
#
# Compressibility (1/GPa) = 0.02765897
#
# Stress axis : x y z
#
# Youngs Moduli (GPa) = 63.84340 32.63940 64.07431
#
# Poissons Ratio (x) = 0.18786 0.28485
# Poissons Ratio (y) = 0.36746 0.44361
# Poissons Ratio (z) = 0.28383 0.22597
#
# Static dielectric constant tensor:
#      x y z
#    x 3.279160 0.000000 0.000000 
#    y 0.000000 3.267260 0.000000 
#    z 0.000000 0.000000 3.376780 
# 
# 
# High freq. dielectric constant tensor:
#      x y z
#    x 1.696330 0.000000 0.000000 
#    y 0.000000 1.686950 0.000000 
#    z 0.000000 0.000000 1.707830 
# 
# From -- ./inp_files/8516.got.cif
#   From: 2010.06.25/outbox.cif.g09.slc.cpg/sg58_5_cif.got.tgz:8516.got - 2010.06.26 21:38:00.
