data_PCOD8236554
_publ_section_title
;
Structure prediction by ZEFSAII (Michael W. Deem and Ramdas Pophale) SiO2 
 PCOD8236554
Probable space group: P N N M
;
_chemical_formula_sum "Si O2"
_cell_formula_units_Z 48
_cell_length_a 17.546667
_cell_length_b 12.187132
_cell_length_c 12.457345
_cell_angle_alpha 90.000000
_cell_angle_beta 90.000000
_cell_angle_gamma 90.000000
_cell_volume 2663.922840
_symmetry_space_group_name_H-M "P N N M"
_symmetry_group_IT_number 58
_symmetry_cell_setting 'orthorhombic'
loop_
_space_group_symop_operation_xyz
x,y,z
-x,-y,z
1/2+x,1/2-y,1/2-z
1/2-x,1/2+y,1/2-z
-x,-y,-z
x,y,-z
1/2-x,1/2+y,1/2+z
1/2+x,1/2-y,1/2+z
loop_
_atom_site_type_symbol
_atom_site_label
_atom_site_fract_x
_atom_site_fract_y
_atom_site_fract_z
Si Si1 0.620431 0.465031 0.000000
Si Si2 0.837322 0.667155 0.118905
Si Si3 0.699311 0.546700 0.204845
Si Si4 0.979814 0.181930 0.500000
Si Si5 0.104558 0.733997 0.698943
Si Si6 0.003162 0.628316 0.125003
Si Si7 0.751235 0.390073 0.619040
O O1 0.672714 0.468693 0.893535
O O2 0.568906 0.354233 0.000000
O O3 0.569891 0.573040 0.000000
O O4 0.785386 0.586817 0.188075
O O5 0.802209 0.785920 0.113562
O O6 0.922329 0.676327 0.165141
O O7 0.842024 0.614949 0.000000
O O8 0.642282 0.648020 0.221559
O O9 0.703721 0.477397 0.312824
O O10 0.958784 0.253413 0.605099
O O11 0.067430 0.690537 0.807811
O O12 0.166974 0.643883 0.665987
O O13 0.000000 0.500000 0.150240
O O14 0.019937 0.652173 0.000000
O O15 0.763747 0.438718 0.500000
#
# Coordination Sequence:
#
# PCOD8236554 Si02
#       7
#     4   8   8   4   8   8   8
#     4   9  18  32  56  90 105 139 189 233 277 314
#     4   9  18  35  55  76 104 141 182 214 265 334
#     4  10  19  34  60  83 107 141 183 235 268 316
#     4   9  18  34  57  80 118 145 176 228 281 341
#     4  10  20  37  58  79 112 150 182 220 281 333
#     4  10  21  36  56  78 105 142 184 227 270 325
#     4  10  20  35  55  78 107 148 180 214 275 338
#
# _framework density 18.018540000000002
#
# number of rings (size 3 to 8) (size 9 to 14) (size 15 to 20)
#    0.000    2.333    1.667    1.000    2.333    0.667 
#    1.500    0.417    3.667    3.000    0.000    0.000 
#    0.000    0.000    0.000    0.000    0.000    0.000 
#
# Total GULP energy -595075.883329 kJ/mol
# GULP energy per Si atom -12397.414236 kJ/mol
# Density = 1.797753 g / cm^3
# Si number density = 18.018540 Si / 1000 Ang^3
#
#
#
# Elastic Constant Matrix: (Units=GPa)
#
#
# Indices 1 2 3 4 5 6 
#
# 1 105.0572 35.2209 69.9071 0.0000 0.0000 0.0000
# 2 35.2209 43.2880 45.1195 0.0000 0.0000 0.0000
# 3 69.9071 45.1195 121.2233 0.0000 0.0000 0.0000
# 4 0.0000 0.0000 0.0000 1751.1094 0.0000 0.0000
# 5 0.0000 0.0000 0.0000 0.0000 27.8376 0.0000
# 6 0.0000 0.0000 0.0000 0.0000 0.0000 15.9031
#
#
#
# Elastic Compliance Matrix: (Units=1/GPa)
#
#
# Indices 1 2 3 4 5 6 
#
# 1 0.016248 -0.005643 -0.007269 0.000000 0.000000 0.000000
# 2 -0.005643 0.039703 -0.011524 0.000000 0.000000 0.000000
# 3 -0.007269 -0.011524 0.016731 0.000000 0.000000 0.000000
# 4 0.000000 0.000000 0.000000 0.000571 0.000000 0.000000
# 5 0.000000 0.000000 0.000000 0.000000 0.035923 0.000000
# 6 0.000000 0.000000 0.000000 0.000000 0.000000 0.062881
#
#
# Mechanical properties :
#
#
# Convention : Reuss Voigt Hill
#
# Bulk Modulus (GPa) = 41.99920 63.34037 52.66979
# Shear Modulus (GPa) = 21.84701 366.92477 194.38589
#
# Velocity S-wave (km/s) = 3.48584 14.28564 10.39785
# Velocity P-wave (km/s) = 6.28975 17.53098 13.16997
#
# Compressibility (1/GPa) = 0.02380998
#
# Stress axis : x y z
#
# Youngs Moduli (GPa) = 61.54759 25.18671 59.77104
#
# Poissons Ratio (x) = 0.14212 0.43450
# Poissons Ratio (y) = 0.34729 0.68878
# Poissons Ratio (z) = 0.44742 0.29024
#
# Static dielectric constant tensor:
#      x y z
#    x 3.497210 0.000000 0.000000 
#    y 0.000000 3.165210 0.000000 
#    z 0.000000 0.000000 3.361780 
# 
# 
# High freq. dielectric constant tensor:
#      x y z
#    x 1.704160 0.000000 0.000000 
#    y 0.000000 1.679900 0.000000 
#    z 0.000000 0.000000 1.695500 
# 
# From -- ./inp_files/16375.got.cif
#   From: 2010.06.25/outbox.cif.g09.slc.cpg/sg58_9_cif.got.tgz:16375.got - 2010.06.26 21:38:00.
