data_PCOD8236577
_publ_section_title
;
Structure prediction by ZEFSAII (Michael W. Deem and Ramdas Pophale) SiO2 
 PCOD8236577
Probable space group: P N N M
;
_chemical_formula_sum "Si O2"
_cell_formula_units_Z 56
_cell_length_a 20.810316
_cell_length_b 14.599302
_cell_length_c 8.938531
_cell_angle_alpha 90.000000
_cell_angle_beta 90.000000
_cell_angle_gamma 90.000000
_cell_volume 2715.669521
_symmetry_space_group_name_H-M "P N N M"
_symmetry_group_IT_number 58
_symmetry_cell_setting 'orthorhombic'
loop_
_space_group_symop_operation_xyz
x,y,z
-x,-y,z
1/2+x,1/2-y,1/2-z
1/2-x,1/2+y,1/2-z
-x,-y,-z
x,y,-z
1/2-x,1/2+y,1/2+z
1/2+x,1/2-y,1/2+z
loop_
_atom_site_type_symbol
_atom_site_label
_atom_site_fract_x
_atom_site_fract_y
_atom_site_fract_z
Si Si1 0.403343 0.754875 0.171554
Si Si2 0.545292 0.579977 0.831781
Si Si3 0.853546 0.935698 0.663705
Si Si4 0.240577 0.501312 0.330914
Si Si5 0.658832 0.826861 0.828138
Si Si6 0.032910 0.734108 0.824757
Si Si7 0.771036 0.688495 0.176376
O O1 0.406982 0.643998 0.190029
O O2 0.465668 0.798732 0.251273
O O3 0.337243 0.786764 0.243889
O O4 0.404067 0.787024 0.000000
O O5 0.500000 0.500000 0.771775
O O6 0.616062 0.536662 0.836191
O O7 0.546052 0.660707 0.713747
O O8 0.525320 0.613534 0.000000
O O9 0.821865 0.917691 0.500000
O O10 0.800368 0.931794 0.792962
O O11 0.246210 0.464766 0.500000
O O12 0.179189 0.566987 0.312212
O O13 0.242576 0.416898 0.217322
O O14 0.593225 0.822955 0.735300
O O15 0.713205 0.755313 0.768340
O O16 0.644071 0.801326 0.000000
O O17 0.027156 0.719600 0.000000
O O18 0.780164 0.698271 0.000000
#
# Coordination Sequence:
#
# PCOD8236577 Si02
#       7
#     8   8   8   8   8   8   8
#     4  11  22  40  64  89 122 165 207 250 308 373
#     4  10  19  35  55  81 118 161 201 239 298 372
#     4  10  20  35  59  87 118 159 201 249 305 366
#     4  11  23  40  63  92 123 160 207 258 308 368
#     4  10  23  43  64  88 126 169 207 252 311 373
#     4  12  25  38  58  90 126 163 207 261 313 365
#     4  11  23  42  66  95 127 164 208 260 313 368
#
# _framework density 20.621065999999999
#
# number of rings (size 3 to 8) (size 9 to 14) (size 15 to 20)
#    0.000    1.286    2.857    3.429    0.000    7.143 
#    0.000    0.714    0.000    4.286    0.000    0.000 
#    0.000    0.000    0.000    0.000    0.000    0.000 
#
# Total GULP energy -694356.565356 kJ/mol
# GULP energy per Si atom -12399.224381 kJ/mol
# Density = 2.057413 g / cm^3
# Si number density = 20.621066 Si / 1000 Ang^3
#
#
#
# Elastic Constant Matrix: (Units=GPa)
#
#
# Indices 1 2 3 4 5 6 
#
# 1 120.3899 8.0334 54.7726 0.0000 0.0000 0.0000
# 2 8.0334 47.2726 16.5674 0.0000 0.0000 0.0000
# 3 54.7726 16.5674 108.1721 0.0000 0.0000 0.0000
# 4 0.0000 0.0000 0.0000 27.4666 0.0000 0.0000
# 5 0.0000 0.0000 0.0000 0.0000 38.7427 0.0000
# 6 0.0000 0.0000 0.0000 0.0000 0.0000 28.3082
#
#
#
# Elastic Compliance Matrix: (Units=1/GPa)
#
#
# Indices 1 2 3 4 5 6 
#
# 1 0.010793 0.000086 -0.005478 0.000000 0.000000 0.000000
# 2 0.000086 0.022354 -0.003467 0.000000 0.000000 0.000000
# 3 -0.005478 -0.003467 0.012549 0.000000 0.000000 0.000000
# 4 0.000000 0.000000 0.000000 0.036408 0.000000 0.000000
# 5 0.000000 0.000000 0.000000 0.000000 0.025811 0.000000
# 6 0.000000 0.000000 0.000000 0.000000 0.000000 0.035325
#
#
# Mechanical properties :
#
#
# Convention : Reuss Voigt Hill
#
# Bulk Modulus (GPa) = 35.74272 48.28682 42.01477
# Shear Modulus (GPa) = 29.36230 32.00091 30.68160
#
# Velocity S-wave (km/s) = 3.77755 3.94363 3.86149
# Velocity P-wave (km/s) = 6.03301 6.64856 6.34825
#
# Compressibility (1/GPa) = 0.02797772
#
# Stress axis : x y z
#
# Youngs Moduli (GPa) = 92.65317 44.73376 79.68525
#
# Poissons Ratio (x) = -0.00384 0.43652
# Poissons Ratio (y) = -0.00795 0.27628
# Poissons Ratio (z) = 0.50756 0.15510
#
# Static dielectric constant tensor:
#      x y z
#    x 3.798530 0.000000 0.000000 
#    y 0.000000 3.647720 0.000000 
#    z 0.000000 0.000000 3.629080 
# 
# 
# High freq. dielectric constant tensor:
#      x y z
#    x 1.815010 0.000000 0.000000 
#    y 0.000000 1.790870 0.000000 
#    z 0.000000 0.000000 1.801040 
# 
# From -- ./inp_files/9008.got.cif
#   From: 2010.06.25/outbox.cif.g09.slc.cpg/sg58_5_cif.got.tgz:9008.got - 2010.06.26 21:38:00.
