data_PCOD8236556
_publ_section_title
;
Structure prediction by ZEFSAII (Michael W. Deem and Ramdas Pophale) SiO2 
 PCOD8236556
Probable space group: P N N M
;
_chemical_formula_sum "Si O2"
_cell_formula_units_Z 64
_cell_length_a 17.355169
_cell_length_b 9.429050
_cell_length_c 20.032121
_cell_angle_alpha 90.000000
_cell_angle_beta 90.000000
_cell_angle_gamma 90.000000
_cell_volume 3278.111494
_symmetry_space_group_name_H-M "P N N M"
_symmetry_group_IT_number 58
_symmetry_cell_setting 'orthorhombic'
loop_
_space_group_symop_operation_xyz
x,y,z
-x,-y,z
1/2+x,1/2-y,1/2-z
1/2-x,1/2+y,1/2-z
-x,-y,-z
x,y,-z
1/2-x,1/2+y,1/2+z
1/2+x,1/2-y,1/2+z
loop_
_atom_site_type_symbol
_atom_site_label
_atom_site_fract_x
_atom_site_fract_y
_atom_site_fract_z
Si Si1 0.971023 0.146283 0.882352
Si Si2 0.470859 0.353422 0.771187
Si Si3 0.429386 0.907894 0.381727
Si Si4 0.303198 0.313993 0.189677
Si Si5 0.304220 0.306700 0.424027
Si Si6 0.233494 0.488475 0.688533
Si Si7 0.267853 0.992284 0.424775
Si Si8 0.929285 0.591682 0.728505
O O1 0.946294 0.126210 0.805526
O O2 0.896874 0.206280 0.920622
O O3 0.045278 0.245927 0.888364
O O4 0.000000 0.000000 0.914445
O O5 0.500000 0.500000 0.803258
O O6 0.395351 0.292614 0.808105
O O7 0.545076 0.253675 0.778431
O O8 0.354788 0.933762 0.425780
O O9 0.410060 0.950216 0.305063
O O10 0.500000 0.000000 0.409138
O O11 0.274748 0.415876 0.248740
O O12 0.284907 0.393134 0.120786
O O13 0.261509 0.160146 0.193546
O O14 0.279998 0.338199 0.500000
O O15 0.274183 0.436257 0.379061
O O16 0.268292 0.156285 0.399959
O O17 0.145135 0.438474 0.684101
O O18 0.235717 0.983123 0.500000
O O19 0.000000 0.500000 0.701062
#
# Coordination Sequence:
#
# PCOD8236556 Si02
#       8
#     8   8   8   8   8   8   8   8
#     4  10  21  36  57  89 126 165 208 250 303 371
#     4  10  22  37  62  94 126 155 203 259 314 368
#     4  10  19  34  60  85 120 164 206 247 297 371
#     4  12  25  40  65  97 124 165 210 260 310 370
#     4  11  25  43  61  87 129 175 210 255 311 369
#     4  12  25  39  66  94 127 164 209 259 314 371
#     4  11  25  42  61  88 127 172 214 256 310 370
#     4  10  20  37  60  91 122 157 196 259 311 365
#
# _framework density 19.523434999999999
#
# number of rings (size 3 to 8) (size 9 to 14) (size 15 to 20)
#    0.000    1.250    5.000    0.750    5.250    1.500 
#    0.000    0.000    0.000    1.500    0.000    0.000 
#    0.000    0.000    0.000    0.000    0.000    0.000 
#
# Total GULP energy -793698.325804 kJ/mol
# GULP energy per Si atom -12401.536341 kJ/mol
# Density = 1.947900 g / cm^3
# Si number density = 19.523435 Si / 1000 Ang^3
#
#
#
# Elastic Constant Matrix: (Units=GPa)
#
#
# Indices 1 2 3 4 5 6 
#
# 1 54.9708 8.5929 20.3811 0.0000 0.0000 0.0000
# 2 8.5929 122.6196 35.7504 0.0000 0.0000 0.0000
# 3 20.3811 35.7504 73.8912 0.0000 0.0000 0.0000
# 4 0.0000 0.0000 0.0000 21.2971 0.0000 0.0000
# 5 0.0000 0.0000 0.0000 0.0000 20.3993 0.0000
# 6 0.0000 0.0000 0.0000 0.0000 0.0000 31.6123
#
#
#
# Elastic Compliance Matrix: (Units=1/GPa)
#
#
# Indices 1 2 3 4 5 6 
#
# 1 0.020270 0.000244 -0.005709 0.000000 0.000000 0.000000
# 2 0.000244 0.009498 -0.004662 0.000000 0.000000 0.000000
# 3 -0.005709 -0.004662 0.017364 0.000000 0.000000 0.000000
# 4 0.000000 0.000000 0.000000 0.046955 0.000000 0.000000
# 5 0.000000 0.000000 0.000000 0.000000 0.049021 0.000000
# 6 0.000000 0.000000 0.000000 0.000000 0.000000 0.031633
#
#
# Mechanical properties :
#
#
# Convention : Reuss Voigt Hill
#
# Bulk Modulus (GPa) = 37.20716 42.32559 39.76637
# Shear Modulus (GPa) = 24.51522 27.11220 25.81371
#
# Velocity S-wave (km/s) = 3.54740 3.73057 3.64014
# Velocity P-wave (km/s) = 5.98981 6.34686 6.17092
#
# Compressibility (1/GPa) = 0.02687655
#
# Stress axis : x y z
#
# Youngs Moduli (GPa) = 49.33388 105.29002 57.59059
#
# Poissons Ratio (x) = -0.02569 0.32879
# Poissons Ratio (y) = -0.01204 0.26852
# Poissons Ratio (z) = 0.28165 0.49091
#
# Static dielectric constant tensor:
#      x y z
#    x 3.540560 0.000000 0.000000 
#    y 0.000000 3.734620 0.000000 
#    z 0.000000 0.000000 3.276460 
# 
# 
# High freq. dielectric constant tensor:
#      x y z
#    x 1.754820 0.000000 0.000000 
#    y 0.000000 1.777680 0.000000 
#    z 0.000000 0.000000 1.723830 
# 
# From -- ./inp_files/30299.got.cif
#   From: 2010.06.25/outbox.cif.g09.slc.cpg/sg58_16_cif.got.tgz:30299.got - 2010.06.26 21:38:00.
