data_PCOD8236827
_publ_section_title
;
Structure prediction by ZEFSAII (Michael W. Deem and Ramdas Pophale) SiO2 
 PCOD8236827
Probable space group: P N N M
;
_chemical_formula_sum "Si O2"
_cell_formula_units_Z 64
_cell_length_a 23.323361
_cell_length_b 15.271092
_cell_length_c 8.991013
_cell_angle_alpha 90.000000
_cell_angle_beta 90.000000
_cell_angle_gamma 90.000000
_cell_volume 3202.357796
_symmetry_space_group_name_H-M "P N N M"
_symmetry_group_IT_number 58
_symmetry_cell_setting 'orthorhombic'
loop_
_space_group_symop_operation_xyz
x,y,z
-x,-y,z
1/2+x,1/2-y,1/2-z
1/2-x,1/2+y,1/2-z
-x,-y,-z
x,y,-z
1/2-x,1/2+y,1/2+z
1/2+x,1/2-y,1/2+z
loop_
_atom_site_type_symbol
_atom_site_label
_atom_site_fract_x
_atom_site_fract_y
_atom_site_fract_z
Si Si1 0.316399 0.493226 0.671174
Si Si2 0.109726 0.342492 0.324598
Si Si3 0.684005 0.992838 0.828092
Si Si4 0.623823 0.330305 0.672421
Si Si5 0.501317 0.601495 0.327271
Si Si6 0.502036 0.900026 0.325888
Si Si7 0.613942 0.657184 0.824256
Si Si8 0.372388 0.166065 0.325271
O O1 0.334749 0.476451 0.500000
O O2 0.249362 0.479056 0.695949
O O3 0.333023 0.591976 0.716875
O O4 0.350436 0.427070 0.774887
O O5 0.106925 0.338439 0.500000
O O6 0.145113 0.427077 0.270426
O O7 0.141267 0.255459 0.265365
O O8 0.045803 0.344885 0.259349
O O9 0.671072 0.907769 0.730864
O O10 0.671403 0.971139 0.000000
O O11 0.629373 0.306869 0.500000
O O12 0.559519 0.357965 0.713936
O O13 0.500000 0.500000 0.284685
O O14 0.516784 0.614844 0.500000
O O15 0.548669 0.650999 0.230903
O O16 0.489176 0.892434 0.500000
O O17 0.563141 0.860735 0.282649
O O18 0.500000 0.000000 0.271585
O O19 0.643265 0.743233 0.754658
O O20 0.615106 0.664745 0.000000
O O21 0.364281 0.177642 0.500000
#
# Coordination Sequence:
#
# PCOD8236827 Si02
#       8
#     8   8   8   8   8   8   8   8
#     4  10  22  44  66  85 115 160 208 250 297 354
#     4  11  23  37  58  90 126 157 186 240 306 359
#     4  10  23  42  63  88 120 156 201 253 302 350
#     4  10  21  38  63  88 114 154 200 245 288 354
#     4  10  19  37  63  89 118 156 202 243 297 365
#     4  10  20  37  61  89 118 156 202 241 284 355
#     4  12  25  39  60  92 127 158 196 248 304 359
#     4  11  23  40  64  89 120 160 202 247 297 358
#
# _framework density 19.985275000000001
#
# number of rings (size 3 to 8) (size 9 to 14) (size 15 to 20)
#    0.000    1.500    2.500    2.625    0.000    7.500 
#    0.000    2.500    0.000    0.000    0.000    0.000 
#    0.000    0.000    0.000    0.000    0.000    0.000 
#
# Total GULP energy -794025.636546 kJ/mol
# GULP energy per Si atom -12406.650571 kJ/mol
# Density = 1.993979 g / cm^3
# Si number density = 19.985275 Si / 1000 Ang^3
#
#
#
# Elastic Constant Matrix: (Units=GPa)
#
#
# Indices 1 2 3 4 5 6 
#
# 1 62.6413 7.3970 23.8134 0.0000 0.0000 0.0000
# 2 7.3970 95.0511 32.6789 0.0000 0.0000 0.0000
# 3 23.8134 32.6789 73.1709 0.0000 0.0000 0.0000
# 4 0.0000 0.0000 0.0000 36.9863 0.0000 0.0000
# 5 0.0000 0.0000 0.0000 0.0000 18.5360 0.0000
# 6 0.0000 0.0000 0.0000 0.0000 0.0000 16.9007
#
#
#
# Elastic Compliance Matrix: (Units=1/GPa)
#
#
# Indices 1 2 3 4 5 6 
#
# 1 0.018261 0.000735 -0.006271 0.000000 0.000000 0.000000
# 2 0.000735 0.012459 -0.005803 0.000000 0.000000 0.000000
# 3 -0.006271 -0.005803 0.018299 0.000000 0.000000 0.000000
# 4 0.000000 0.000000 0.000000 0.027037 0.000000 0.000000
# 5 0.000000 0.000000 0.000000 0.000000 0.053949 0.000000
# 6 0.000000 0.000000 0.000000 0.000000 0.000000 0.059169
#
#
# Mechanical properties :
#
#
# Convention : Reuss Voigt Hill
#
# Bulk Modulus (GPa) = 37.96522 39.84911 38.90717
# Shear Modulus (GPa) = 22.66196 25.61620 24.13908
#
# Velocity S-wave (km/s) = 3.37105 3.58404 3.47917
# Velocity P-wave (km/s) = 5.84720 6.09177 5.97074
#
# Compressibility (1/GPa) = 0.02633990
#
# Stress axis : x y z
#
# Youngs Moduli (GPa) = 54.76096 80.26531 54.64631
#
# Poissons Ratio (x) = -0.05900 0.34271
# Poissons Ratio (y) = -0.04025 0.31713
# Poissons Ratio (z) = 0.34342 0.46581
#
# Static dielectric constant tensor:
#      x y z
#    x 3.572760 0.000000 0.000000 
#    y 0.000000 3.803030 0.000000 
#    z 0.000000 0.000000 3.507150 
# 
# 
# High freq. dielectric constant tensor:
#      x y z
#    x 1.774210 0.000000 0.000000 
#    y 0.000000 1.796750 0.000000 
#    z 0.000000 0.000000 1.770200 
# 
# From -- ./inp_files/10066.got.cif
#   From: 2010.06.25/outbox.cif.g09.slc.cpg/sg58_6_cif.got.tgz:10066.got - 2010.06.26 21:38:00.
