data_PCOD8236662
_publ_section_title
;
Structure prediction by ZEFSAII (Michael W. Deem and Ramdas Pophale) SiO2 
 PCOD8236662
Probable space group: P N N M
;
_chemical_formula_sum "Si O2"
_cell_formula_units_Z 64
_cell_length_a 24.808308
_cell_length_b 14.677636
_cell_length_c 9.038695
_cell_angle_alpha 90.000000
_cell_angle_beta 90.000000
_cell_angle_gamma 90.000000
_cell_volume 3291.235738
_symmetry_space_group_name_H-M "P N N M"
_symmetry_group_IT_number 58
_symmetry_cell_setting 'orthorhombic'
loop_
_space_group_symop_operation_xyz
x,y,z
-x,-y,z
1/2+x,1/2-y,1/2-z
1/2-x,1/2+y,1/2-z
-x,-y,-z
x,y,-z
1/2-x,1/2+y,1/2+z
1/2+x,1/2-y,1/2+z
loop_
_atom_site_type_symbol
_atom_site_label
_atom_site_fract_x
_atom_site_fract_y
_atom_site_fract_z
Si Si1 0.233095 0.161128 0.827000
Si Si2 0.129803 0.435254 0.333603
Si Si3 0.948845 0.259524 0.676285
Si Si4 0.051875 0.946698 0.324422
Si Si5 0.830826 0.993670 0.325841
Si Si6 0.650888 0.862614 0.165719
Si Si7 0.975726 0.596826 0.825322
Si Si8 0.233599 0.375107 0.171102
O O1 0.187675 0.102150 0.744906
O O2 0.290877 0.130986 0.756399
O O3 0.230063 0.268236 0.793957
O O4 0.227276 0.138909 0.000000
O O5 0.124680 0.395862 0.500000
O O6 0.119086 0.542827 0.333585
O O7 0.085715 0.390483 0.227403
O O8 0.189478 0.421112 0.273883
O O9 0.952551 0.273216 0.500000
O O10 0.956916 0.156546 0.726846
O O11 0.889811 0.289496 0.736913
O O12 0.993732 0.319770 0.752747
O O13 0.053115 0.953415 0.500000
O O14 0.109128 0.984492 0.263655
O O15 0.000000 0.000000 0.259617
O O16 0.832761 0.978538 0.500000
O O17 0.791126 0.078747 0.286953
O O18 0.664310 0.828771 0.000000
O O19 0.000000 0.500000 0.772422
O O20 0.978435 0.605869 0.000000
O O21 0.220365 0.394237 0.000000
#
# Coordination Sequence:
#
# PCOD8236662 Si02
#       8
#     8   8   8   8   8   8   8   8
#     4  10  20  36  57  82 113 152 192 233 284 343
#     4  11  21  35  57  81 110 147 191 237 275 332
#     4  10  19  35  60  84 109 149 197 237 277 334
#     4   9  19  36  59  86 113 143 186 240 286 329
#     4  10  20  36  58  84 115 149 187 235 290 344
#     4   9  17  31  54  81 107 142 191 236 273 324
#     4  11  23  37  54  81 119 152 182 229 288 343
#     4  10  21  36  55  82 118 153 186 231 292 345
#
# _framework density 19.445584
#
# number of rings (size 3 to 8) (size 9 to 14) (size 15 to 20)
#    0.000    2.000    2.500    1.500    0.000    5.000 
#    0.000    2.500    0.000    2.250    0.000    0.000 
#    0.000    0.000    0.000    0.000    0.000    0.000 
#
# Total GULP energy -793372.141785 kJ/mol
# GULP energy per Si atom -12396.439715 kJ/mol
# Density = 1.940132 g / cm^3
# Si number density = 19.445584 Si / 1000 Ang^3
#
#
#
# Elastic Constant Matrix: (Units=GPa)
#
#
# Indices 1 2 3 4 5 6 
#
# 1 160.4838 71.4204 34.9877 0.0000 0.0000 0.0000
# 2 71.4204 128.8098 34.6956 0.0000 0.0000 0.0000
# 3 34.9877 34.6956 42.5422 0.0000 0.0000 0.0000
# 4 0.0000 0.0000 0.0000 22.6531 0.0000 0.0000
# 5 0.0000 0.0000 0.0000 0.0000 25.1529 0.0000
# 6 0.0000 0.0000 0.0000 0.0000 0.0000 36.1606
#
#
#
# Elastic Compliance Matrix: (Units=1/GPa)
#
#
# Indices 1 2 3 4 5 6 
#
# 1 0.008817 -0.003762 -0.004183 0.000000 0.000000 0.000000
# 2 -0.003762 0.011554 -0.006329 0.000000 0.000000 0.000000
# 3 -0.004183 -0.006329 0.032108 0.000000 0.000000 0.000000
# 4 0.000000 0.000000 0.000000 0.044144 0.000000 0.000000
# 5 0.000000 0.000000 0.000000 0.000000 0.039757 0.000000
# 6 0.000000 0.000000 0.000000 0.000000 0.000000 0.027654
#
#
# Mechanical properties :
#
#
# Convention : Reuss Voigt Hill
#
# Bulk Modulus (GPa) = 41.78724 68.22702 55.00713
# Shear Modulus (GPa) = 24.93004 29.50879 27.21942
#
# Velocity S-wave (km/s) = 3.58444 3.89974 3.74541
# Velocity P-wave (km/s) = 6.21828 7.44578 6.85954
#
# Compressibility (1/GPa) = 0.02393075
#
# Stress axis : x y z
#
# Youngs Moduli (GPa) = 113.41106 86.54933 31.14458
#
# Poissons Ratio (x) = 0.32561 0.13029
# Poissons Ratio (y) = 0.42667 0.19711
# Poissons Ratio (z) = 0.47445 0.54777
#
# Static dielectric constant tensor:
#      x y z
#    x 3.753730 0.000000 0.000000 
#    y 0.000000 3.558310 0.000000 
#    z 0.000000 0.000000 3.221070 
# 
# 
# High freq. dielectric constant tensor:
#      x y z
#    x 1.769580 0.000000 0.000000 
#    y 0.000000 1.759480 0.000000 
#    z 0.000000 0.000000 1.721620 
# 
# From -- ./inp_files/6800.got.cif
#   From: 2010.06.25/outbox.cif.g09.slc.cpg/sg58_4_cif.got.tgz:6800.got - 2010.06.26 21:38:00.
