data_PCOD8236869
_publ_section_title
;
Structure prediction by ZEFSAII (Michael W. Deem and Ramdas Pophale) SiO2 
 PCOD8236869
Probable space group: P N N M
;
_chemical_formula_sum "Si O2"
_cell_formula_units_Z 40
_cell_length_a 13.970761
_cell_length_b 10.969500
_cell_length_c 13.064430
_cell_angle_alpha 90.000000
_cell_angle_beta 90.000000
_cell_angle_gamma 90.000000
_cell_volume 2002.153460
_symmetry_space_group_name_H-M "P N N M"
_symmetry_group_IT_number 58
_symmetry_cell_setting 'orthorhombic'
loop_
_space_group_symop_operation_xyz
x,y,z
-x,-y,z
1/2+x,1/2-y,1/2-z
1/2-x,1/2+y,1/2-z
-x,-y,-z
x,y,-z
1/2-x,1/2+y,1/2+z
1/2+x,1/2-y,1/2+z
loop_
_atom_site_type_symbol
_atom_site_label
_atom_site_fract_x
_atom_site_fract_y
_atom_site_fract_z
Si Si1 0.498374 0.358532 0.734331
Si Si2 0.805950 0.724201 0.280205
Si Si3 0.605103 0.976650 0.812187
Si Si4 0.124988 0.671992 0.117978
Si Si5 0.657388 0.722447 0.115314
O O1 0.500000 0.500000 0.703140
O O2 0.605623 0.311879 0.753812
O O3 0.447544 0.283242 0.643110
O O4 0.437306 0.339598 0.837797
O O5 0.836750 0.599027 0.333068
O O6 0.734586 0.790669 0.358729
O O7 0.752233 0.684111 0.176165
O O8 0.599490 0.941717 0.691294
O O9 0.651731 0.868995 0.877932
O O10 0.500000 0.000000 0.854845
O O11 0.114063 0.633640 0.000000
O O12 0.667868 0.676983 0.000000
#
# Coordination Sequence:
#
# PCOD8236869 Si02
#       5
#     8   8   8   8   8
#     4  10  22  42  62  80 125 160 189 237 296 348
#     4  10  21  41  60  84 121 160 188 239 299 342
#     4  10  19  42  62  82 119 154 190 246 296 342
#     4  10  24  38  60  92 115 150 203 241 285 347
#     4  10  24  38  60  92 115 150 203 241 285 347
#
# _framework density 19.978487999999999
#
# number of rings (size 3 to 8) (size 9 to 14) (size 15 to 20)
#    0.000    2.400    4.000    0.000   11.200    4.800 
#    0.000    0.000    0.000    0.000    0.000    0.000 
#    0.000    0.000    0.000    0.000    0.000    0.000 
#
# Total GULP energy -495916.059453 kJ/mol
# GULP energy per Si atom -12397.901486 kJ/mol
# Density = 1.993302 g / cm^3
# Si number density = 19.978488 Si / 1000 Ang^3
#
#
#
# Elastic Constant Matrix: (Units=GPa)
#
#
# Indices 1 2 3 4 5 6 
#
# 1 116.8787 8.8512 -8.2591 0.0000 0.0000 0.0000
# 2 8.8512 56.5065 -39.2979 0.0000 0.0000 0.0000
# 3 -8.2591 -39.2979 75.9594 0.0000 0.0000 0.0000
# 4 0.0000 0.0000 0.0000 -19.0373 0.0000 0.0000
# 5 0.0000 0.0000 0.0000 0.0000 15.2331 0.0000
# 6 0.0000 0.0000 0.0000 0.0000 0.0000 34.0140
#
#
#
# Elastic Compliance Matrix: (Units=1/GPa)
#
#
# Indices 1 2 3 4 5 6 
#
# 1 0.008665 -0.001097 0.000375 0.000000 0.000000 0.000000
# 2 -0.001097 0.027782 0.014254 0.000000 0.000000 0.000000
# 3 0.000375 0.014254 0.020580 0.000000 0.000000 0.000000
# 4 0.000000 0.000000 0.000000 -0.052529 0.000000 0.000000
# 5 0.000000 0.000000 0.000000 0.000000 0.065646 0.000000
# 6 0.000000 0.000000 0.000000 0.000000 0.000000 0.029400
#
#
# Mechanical properties :
#
#
# Convention : Reuss Voigt Hill
#
# Bulk Modulus (GPa) = 11.89191 19.10366 15.49779
# Shear Modulus (GPa) = 49.74576 25.24533 37.49554
#
# Velocity S-wave (km/s) = 4.99537 3.55861 4.33690
# Velocity P-wave (km/s) = 6.26394 5.14469 5.73170
#
# Compressibility (1/GPa) = 0.08409078
#
# Stress axis : x y z
#
# Youngs Moduli (GPa) = 115.40127 35.99491 48.59113
#
# Poissons Ratio (x) = 0.03947 -0.01821
# Poissons Ratio (y) = 0.12656 -0.69260
# Poissons Ratio (z) = -0.04326 -0.51306
#
# Static dielectric constant tensor:
#      x y z
#    x 3.746380 0.000000 0.000000 
#    y 0.000000 8.815390 0.000000 
#    z 0.000000 0.000000 3.312170 
# 
# 
# High freq. dielectric constant tensor:
#      x y z
#    x 1.794620 0.000000 0.000000 
#    y 0.000000 1.780010 0.000000 
#    z 0.000000 0.000000 1.751010 
# 
# From -- ./inp_files/20902.got.cif
#   From: 2010.06.25/outbox.cif.g09.slc.cpg/sg58_11_cif.got.tgz:20902.got - 2010.06.26 21:38:00.
