data_PCOD8236580
_publ_section_title
;
Structure prediction by ZEFSAII (Michael W. Deem and Ramdas Pophale) SiO2 
 PCOD8236580
Probable space group: P N N M
;
_chemical_formula_sum "Si O2"
_cell_formula_units_Z 56
_cell_length_a 22.126022
_cell_length_b 8.713600
_cell_length_c 14.365093
_cell_angle_alpha 90.000000
_cell_angle_beta 90.000000
_cell_angle_gamma 90.000000
_cell_volume 2769.551221
_symmetry_space_group_name_H-M "P N N M"
_symmetry_group_IT_number 58
_symmetry_cell_setting 'orthorhombic'
loop_
_space_group_symop_operation_xyz
x,y,z
-x,-y,z
1/2+x,1/2-y,1/2-z
1/2-x,1/2+y,1/2-z
-x,-y,-z
x,y,-z
1/2-x,1/2+y,1/2+z
1/2+x,1/2-y,1/2+z
loop_
_atom_site_type_symbol
_atom_site_label
_atom_site_fract_x
_atom_site_fract_y
_atom_site_fract_z
Si Si1 0.202945 0.960289 0.102822
Si Si2 0.936295 0.570865 0.107917
Si Si3 0.936044 0.586848 0.500000
Si Si4 0.867326 0.809069 0.773696
Si Si5 0.866210 0.305681 0.804948
Si Si6 0.164007 0.464767 0.651985
Si Si7 0.436631 0.421884 0.807125
Si Si8 0.973131 0.161507 0.500000
O O1 0.185331 0.799226 0.149879
O O2 0.275216 0.971678 0.092488
O O3 0.178039 0.108976 0.155505
O O4 0.174711 0.963057 0.000000
O O5 0.920958 0.721650 0.169344
O O6 0.886913 0.436853 0.123247
O O7 0.000000 0.500000 0.140735
O O8 0.937378 0.618903 0.000000
O O9 0.896639 0.547078 0.590232
O O10 0.000000 0.500000 0.500000
O O11 0.961313 0.757004 0.500000
O O12 0.830033 0.683807 0.717031
O O13 0.890299 0.935554 0.699255
O O14 0.838927 0.381369 0.712475
O O15 0.922715 0.198174 0.775257
O O16 0.500000 0.500000 0.787574
O O17 0.433314 0.325334 0.905312
O O18 0.000000 0.000000 0.500000
#
# Coordination Sequence:
#
# PCOD8236580 Si02
#       8
#     8   8   4   8   8   8   8   4
#     4  11  22  41  61  83 115 156 207 253 301 348
#     4  10  20  36  57  87 120 150 192 247 302 355
#     4  12  24  38  62  94 124 158 195 245 306 369
#     4  10  22  36  60  85 115 158 202 243 301 357
#     4  10  22  36  59  84 115 155 200 243 299 358
#     4  11  22  40  59  86 119 155 199 251 302 361
#     4  10  19  35  55  84 119 155 190 238 295 362
#     4  10  20  34  54  82 122 154 188 233 289 357
#
# _framework density 20.219881999999998
#
# number of rings (size 3 to 8) (size 9 to 14) (size 15 to 20)
#    0.000    1.571    0.714    5.143    0.000    3.429 
#    0.000    0.000    0.000    6.857    0.000    0.000 
#    0.000    0.000    0.000    0.000    0.000    0.000 
#
# Total GULP energy -694030.960073 kJ/mol
# GULP energy per Si atom -12393.410001 kJ/mol
# Density = 2.017386 g / cm^3
# Si number density = 20.219882 Si / 1000 Ang^3
#
#
#
# Elastic Constant Matrix: (Units=GPa)
#
#
# Indices 1 2 3 4 5 6 
#
# 1 110.2472 37.5565 44.9506 0.0000 0.0000 0.0000
# 2 37.5565 98.6523 37.1930 0.0000 0.0000 0.0000
# 3 44.9506 37.1930 110.8027 0.0000 0.0000 0.0000
# 4 0.0000 0.0000 0.0000 26.7210 0.0000 0.0000
# 5 0.0000 0.0000 0.0000 0.0000 29.7204 0.0000
# 6 0.0000 0.0000 0.0000 0.0000 0.0000 25.5556
#
#
#
# Elastic Compliance Matrix: (Units=1/GPa)
#
#
# Indices 1 2 3 4 5 6 
#
# 1 0.011607 -0.003027 -0.003693 0.000000 0.000000 0.000000
# 2 -0.003027 0.012394 -0.002933 0.000000 0.000000 0.000000
# 3 -0.003693 -0.002933 0.011508 0.000000 0.000000 0.000000
# 4 0.000000 0.000000 0.000000 0.037424 0.000000 0.000000
# 5 0.000000 0.000000 0.000000 0.000000 0.033647 0.000000
# 6 0.000000 0.000000 0.000000 0.000000 0.000000 0.039130
#
#
# Mechanical properties :
#
#
# Convention : Reuss Voigt Hill
#
# Bulk Modulus (GPa) = 61.70899 62.12249 61.91574
# Shear Modulus (GPa) = 29.33995 29.73288 29.53641
#
# Velocity S-wave (km/s) = 3.81339 3.83884 3.82614
# Velocity P-wave (km/s) = 7.06926 7.10205 7.08567
#
# Compressibility (1/GPa) = 0.01620509
#
# Stress axis : x y z
#
# Youngs Moduli (GPa) = 86.15317 80.68146 86.89924
#
# Poissons Ratio (x) = 0.24419 0.32091
# Poissons Ratio (y) = 0.26075 0.25484
# Poissons Ratio (z) = 0.31816 0.23661
#
# Static dielectric constant tensor:
#      x y z
#    x 3.465560 0.000000 0.000000 
#    y 0.000000 3.889550 0.000000 
#    z 0.000000 0.000000 3.364740 
# 
# 
# High freq. dielectric constant tensor:
#      x y z
#    x 1.777140 0.000000 0.000000 
#    y 0.000000 1.805990 0.000000 
#    z 0.000000 0.000000 1.792120 
# 
# From -- ./inp_files/23280.got.cif
#   From: 2010.06.25/outbox.cif.g09.slc.cpg/sg58_12_cif.got.tgz:23280.got - 2010.06.26 21:38:00.
