data_PCOD8236426
_publ_section_title
;
Structure prediction by ZEFSAII (Michael W. Deem and Ramdas Pophale) SiO2 
 PCOD8236426
Probable space group: P N N M
;
_chemical_formula_sum "Si O2"
_cell_formula_units_Z 64
_cell_length_a 14.626229
_cell_length_b 24.869506
_cell_length_c 8.873496
_cell_angle_alpha 90.000000
_cell_angle_beta 90.000000
_cell_angle_gamma 90.000000
_cell_volume 3227.708347
_symmetry_space_group_name_H-M "P N N M"
_symmetry_group_IT_number 58
_symmetry_cell_setting 'orthorhombic'
loop_
_space_group_symop_operation_xyz
x,y,z
-x,-y,z
1/2+x,1/2-y,1/2-z
1/2-x,1/2+y,1/2-z
-x,-y,-z
x,y,-z
1/2-x,1/2+y,1/2+z
1/2+x,1/2-y,1/2+z
loop_
_atom_site_type_symbol
_atom_site_label
_atom_site_fract_x
_atom_site_fract_y
_atom_site_fract_z
Si Si1 0.397257 0.484592 0.822359
Si Si2 0.550973 0.947480 0.821332
Si Si3 0.257057 0.564272 0.677408
Si Si4 0.936927 0.130126 0.328082
Si Si5 0.660511 0.238603 0.321802
Si Si6 0.136829 0.153830 0.327899
Si Si7 0.369760 0.258599 0.820715
Si Si8 0.512116 0.169140 0.179491
O O1 0.500000 0.500000 0.779991
O O2 0.325120 0.517874 0.727525
O O3 0.383891 0.422535 0.768596
O O4 0.379085 0.493065 0.000000
O O5 0.655861 0.951299 0.769111
O O6 0.506913 0.891571 0.762790
O O7 0.500000 0.000000 0.753234
O O8 0.544139 0.948248 0.000000
O O9 0.262756 0.572768 0.500000
O O10 0.280750 0.621316 0.752672
O O11 0.908121 0.137570 0.500000
O O12 0.908468 0.185824 0.247754
O O13 0.045309 0.117948 0.316580
O O14 0.653039 0.234095 0.500000
O O15 0.612093 0.292078 0.261135
O O16 0.765143 0.244144 0.266463
O O17 0.609008 0.187538 0.249460
O O18 0.161727 0.167479 0.500000
O O19 0.429846 0.208092 0.761742
O O20 0.376284 0.258463 0.000000
O O21 0.519494 0.171527 0.000000
#
# Coordination Sequence:
#
# PCOD8236426 Si02
#       8
#     8   8   8   8   8   8   8   8
#     4  10  19  34  55  81 112 151 193 229 278 351
#     4   9  20  39  61  84 114 157 203 242 288 350
#     4  11  22  36  58  87 116 149 194 250 296 331
#     4   9  17  32  55  77 104 147 192 225 264 340
#     4  11  22  35  56  88 120 147 186 244 295 335
#     4  11  20  36  60  82 110 152 197 232 276 351
#     4   9  18  34  55  80 112 152 191 225 280 351
#     4  10  19  37  63  83 108 154 203 237 280 352
#
# _framework density 19.828309999999998
#
# number of rings (size 3 to 8) (size 9 to 14) (size 15 to 20)
#    0.000    2.000    2.500    1.875    0.000    3.250 
#    0.000    3.750    0.000    2.625    0.000    0.000 
#    0.000    0.000    0.000    0.000    0.000    0.000 
#
# Total GULP energy -793381.961687 kJ/mol
# GULP energy per Si atom -12396.593151 kJ/mol
# Density = 1.978318 g / cm^3
# Si number density = 19.828310 Si / 1000 Ang^3
#
#
#
# Elastic Constant Matrix: (Units=GPa)
#
#
# Indices 1 2 3 4 5 6 
#
# 1 104.9732 60.0512 30.7892 0.0000 0.0000 0.0000
# 2 60.0512 150.3766 25.3758 0.0000 0.0000 0.0000
# 3 30.7892 25.3758 41.4926 0.0000 0.0000 0.0000
# 4 0.0000 0.0000 0.0000 20.2329 0.0000 0.0000
# 5 0.0000 0.0000 0.0000 0.0000 23.8157 0.0000
# 6 0.0000 0.0000 0.0000 0.0000 0.0000 34.7935
#
#
#
# Elastic Compliance Matrix: (Units=1/GPa)
#
#
# Indices 1 2 3 4 5 6 
#
# 1 0.014383 -0.004396 -0.007984 0.000000 0.000000 0.000000
# 2 -0.004396 0.008759 -0.002095 0.000000 0.000000 0.000000
# 3 -0.007984 -0.002095 0.031306 0.000000 0.000000 0.000000
# 4 0.000000 0.000000 0.000000 0.049425 0.000000 0.000000
# 5 0.000000 0.000000 0.000000 0.000000 0.041989 0.000000
# 6 0.000000 0.000000 0.000000 0.000000 0.000000 0.028741
#
#
# Mechanical properties :
#
#
# Convention : Reuss Voigt Hill
#
# Bulk Modulus (GPa) = 39.21832 58.80831 49.01332
# Shear Modulus (GPa) = 23.57908 27.81014 25.69461
#
# Velocity S-wave (km/s) = 3.45216 3.74912 3.60370
# Velocity P-wave (km/s) = 5.97594 6.96164 6.48753
#
# Compressibility (1/GPa) = 0.02549829
#
# Stress axis : x y z
#
# Youngs Moduli (GPa) = 69.52633 114.16729 31.94257
#
# Poissons Ratio (x) = 0.50193 0.25503
# Poissons Ratio (y) = 0.30567 0.06690
# Poissons Ratio (z) = 0.55510 0.23913
#
# Static dielectric constant tensor:
#      x y z
#    x 3.658250 0.000000 0.000000 
#    y 0.000000 3.976270 0.000000 
#    z 0.000000 0.000000 3.182740 
# 
# 
# High freq. dielectric constant tensor:
#      x y z
#    x 1.772700 0.000000 0.000000 
#    y 0.000000 1.789900 0.000000 
#    z 0.000000 0.000000 1.730250 
# 
# From -- ./inp_files/6798.got.cif
#   From: 2010.06.25/outbox.cif.g09.slc.cpg/sg58_4_cif.got.tgz:6798.got - 2010.06.26 21:38:00.
