data_PCOD8236445
_publ_section_title
;
Structure prediction by ZEFSAII (Michael W. Deem and Ramdas Pophale) SiO2 
 PCOD8236445
Probable space group: P N N M
;
_chemical_formula_sum "Si O2"
_cell_formula_units_Z 64
_cell_length_a 19.818273
_cell_length_b 9.950604
_cell_length_c 17.710535
_cell_angle_alpha 90.000000
_cell_angle_beta 90.000000
_cell_angle_gamma 90.000000
_cell_volume 3492.584564
_symmetry_space_group_name_H-M "P N N M"
_symmetry_group_IT_number 58
_symmetry_cell_setting 'orthorhombic'
loop_
_space_group_symop_operation_xyz
x,y,z
-x,-y,z
1/2+x,1/2-y,1/2-z
1/2-x,1/2+y,1/2-z
-x,-y,-z
x,y,-z
1/2-x,1/2+y,1/2+z
1/2+x,1/2-y,1/2+z
loop_
_atom_site_type_symbol
_atom_site_label
_atom_site_fract_x
_atom_site_fract_y
_atom_site_fract_z
Si Si1 0.726516 0.312517 0.825858
Si Si2 0.956039 0.128086 0.588154
Si Si3 0.014607 0.650740 0.698595
Si Si4 0.118774 0.300116 0.778023
Si Si5 0.841694 0.420285 0.272321
Si Si6 0.804482 0.079271 0.411925
Si Si7 0.276206 0.957233 0.086652
Si Si8 0.191485 0.207241 0.915920
O O1 0.654668 0.289694 0.786115
O O2 0.782293 0.325835 0.759524
O O3 0.725302 0.448340 0.872717
O O4 0.744003 0.189081 0.881671
O O5 0.957264 0.156207 0.500000
O O6 0.992085 0.254658 0.626298
O O7 0.879577 0.111078 0.618068
O O8 0.000000 0.000000 0.610720
O O9 0.089223 0.663518 0.733574
O O10 0.000000 0.500000 0.670686
O O11 0.960935 0.694794 0.762233
O O12 0.152174 0.447541 0.779532
O O13 0.129434 0.235806 0.860313
O O14 0.830963 0.470397 0.359029
O O15 0.807270 0.047578 0.500000
O O16 0.757948 0.207185 0.392854
O O17 0.209406 0.049511 0.087931
O O18 0.303991 0.946964 0.000000
O O19 0.167967 0.247528 0.000000
#
# Coordination Sequence:
#
# PCOD8236445 Si02
#       8
#     8   8   8   8   8   8   8   8
#     4  11  20  34  59  84 114 150 188 238 285 333
#     4  10  21  36  53  80 116 152 186 224 273 344
#     4  10  22  38  55  79 113 151 191 236 283 336
#     4  10  20  36  55  83 110 146 189 238 282 334
#     4  10  20  35  57  82 113 149 190 235 281 343
#     4  10  20  34  57  83 113 148 186 229 280 341
#     4  10  21  35  55  88 121 147 186 238 290 341
#     4  10  19  34  56  80 109 145 185 235 289 339
#
# _framework density 18.324539000000001
#
# number of rings (size 3 to 8) (size 9 to 14) (size 15 to 20)
#    0.000    1.875    2.500    1.875    0.000    1.750 
#    2.250    6.250    0.000    4.875    0.000    1.750 
#    0.000    0.000    0.000    0.000    0.000    0.000 
#
# Total GULP energy -793594.833845 kJ/mol
# GULP energy per Si atom -12399.919279 kJ/mol
# Density = 1.828283 g / cm^3
# Si number density = 18.324539 Si / 1000 Ang^3
#
#
#
# Elastic Constant Matrix: (Units=GPa)
#
#
# Indices 1 2 3 4 5 6 
#
# 1 93.8294 35.8926 43.5291 0.0000 0.0000 0.0000
# 2 35.8926 97.7064 53.6861 0.0000 0.0000 0.0000
# 3 43.5291 53.6861 100.3664 0.0000 0.0000 0.0000
# 4 0.0000 0.0000 0.0000 30.4261 0.0000 0.0000
# 5 0.0000 0.0000 0.0000 0.0000 19.6338 0.0000
# 6 0.0000 0.0000 0.0000 0.0000 0.0000 19.7563
#
#
#
# Elastic Compliance Matrix: (Units=1/GPa)
#
#
# Indices 1 2 3 4 5 6 
#
# 1 0.013765 -0.002516 -0.004624 0.000000 0.000000 0.000000
# 2 -0.002516 0.014955 -0.006908 0.000000 0.000000 0.000000
# 3 -0.004624 -0.006908 0.015664 0.000000 0.000000 0.000000
# 4 0.000000 0.000000 0.000000 0.032867 0.000000 0.000000
# 5 0.000000 0.000000 0.000000 0.000000 0.050933 0.000000
# 6 0.000000 0.000000 0.000000 0.000000 0.000000 0.050617
#
#
# Mechanical properties :
#
#
# Convention : Reuss Voigt Hill
#
# Bulk Modulus (GPa) = 61.39620 62.01310 61.70465
# Shear Modulus (GPa) = 23.54869 24.54954 24.04912
#
# Velocity S-wave (km/s) = 3.58871 3.66417 3.62664
# Velocity P-wave (km/s) = 7.12386 7.19837 7.16121
#
# Compressibility (1/GPa) = 0.01628765
#
# Stress axis : x y z
#
# Youngs Moduli (GPa) = 72.64632 66.86852 63.83959
#
# Poissons Ratio (x) = 0.16823 0.29522
# Poissons Ratio (y) = 0.18276 0.44102
# Poissons Ratio (z) = 0.33594 0.46194
#
# Static dielectric constant tensor:
#      x y z
#    x 3.269170 0.000000 0.000000 
#    y 0.000000 3.445510 0.000000 
#    z 0.000000 0.000000 3.318720 
# 
# 
# High freq. dielectric constant tensor:
#      x y z
#    x 1.690010 0.000000 0.000000 
#    y 0.000000 1.720420 0.000000 
#    z 0.000000 0.000000 1.703190 
# 
# From -- ./inp_files/25674.got.cif
#   From: 2010.06.25/outbox.cif.g09.slc.cpg/sg58_13_cif.got.tgz:25674.got - 2010.06.26 21:38:00.
