data_PCOD8236952
_publ_section_title
;
Structure prediction by ZEFSAII (Michael W. Deem and Ramdas Pophale) SiO2 
 PCOD8236952
Probable space group: P N N M
;
_chemical_formula_sum "Si O2"
_cell_formula_units_Z 56
_cell_length_a 20.732732
_cell_length_b 14.809067
_cell_length_c 8.979785
_cell_angle_alpha 90.000000
_cell_angle_beta 90.000000
_cell_angle_gamma 90.000000
_cell_volume 2757.085095
_symmetry_space_group_name_H-M "P N N M"
_symmetry_group_IT_number 58
_symmetry_cell_setting 'orthorhombic'
loop_
_space_group_symop_operation_xyz
x,y,z
-x,-y,z
1/2+x,1/2-y,1/2-z
1/2-x,1/2+y,1/2-z
-x,-y,-z
x,y,-z
1/2-x,1/2+y,1/2+z
1/2+x,1/2-y,1/2+z
loop_
_atom_site_type_symbol
_atom_site_label
_atom_site_fract_x
_atom_site_fract_y
_atom_site_fract_z
Si Si1 0.658821 0.168008 0.174857
Si Si2 0.368961 0.442799 0.165192
Si Si3 0.269360 0.190238 0.326143
Si Si4 0.598680 0.754222 0.176086
Si Si5 0.051481 0.069907 0.174838
Si Si6 0.271755 0.982488 0.665721
Si Si7 0.968865 0.729534 0.822440
O O1 0.709563 0.246090 0.227559
O O2 0.682671 0.067017 0.215312
O O3 0.590950 0.173527 0.260091
O O4 0.646542 0.174990 0.000000
O O5 0.404864 0.351863 0.218191
O O6 0.380790 0.527244 0.274983
O O7 0.293132 0.423337 0.167109
O O8 0.391861 0.470360 0.000000
O O9 0.281776 0.209255 0.500000
O O10 0.334591 0.207715 0.236936
O O11 0.253778 0.085501 0.292974
O O12 0.537465 0.803270 0.254429
O O13 0.595957 0.770457 0.000000
O O14 0.042774 0.169335 0.238628
O O15 0.045937 0.073774 0.000000
O O16 0.000000 0.000000 0.244947
O O17 0.303013 0.978974 0.500000
O O18 0.971607 0.721168 0.000000
#
# Coordination Sequence:
#
# PCOD8236952 Si02
#       7
#     8   8   8   8   8   8   8
#     4  11  23  40  63  92 124 159 202 252 303 357
#     4  10  20  34  56  84 117 155 192 240 297 356
#     4  10  22  40  64  90 123 163 203 249 302 363
#     4  11  22  37  60  88 120 157 201 249 297 355
#     4  10  20  33  51  80 116 152 193 238 287 354
#     4  10  21  40  62  88 120 157 202 248 301 360
#     4  11  23  39  59  84 122 164 201 247 305 363
#
# _framework density 20.311305999999998
#
# number of rings (size 3 to 8) (size 9 to 14) (size 15 to 20)
#    0.000    1.571    2.857    2.143    0.000    4.857 
#    0.000    0.714    0.000    4.286    0.000    0.000 
#    0.000    0.000    0.000    0.000    0.000    0.000 
#
# Total GULP energy -694199.456313 kJ/mol
# GULP energy per Si atom -12396.418863 kJ/mol
# Density = 2.026508 g / cm^3
# Si number density = 20.311306 Si / 1000 Ang^3
#
#
#
# Elastic Constant Matrix: (Units=GPa)
#
#
# Indices 1 2 3 4 5 6 
#
# 1 112.1721 10.6816 42.2041 0.0000 0.0000 0.0000
# 2 10.6816 45.1945 16.3928 0.0000 0.0000 0.0000
# 3 42.2041 16.3928 62.4825 0.0000 0.0000 0.0000
# 4 0.0000 0.0000 0.0000 28.6291 0.0000 0.0000
# 5 0.0000 0.0000 0.0000 0.0000 36.8718 0.0000
# 6 0.0000 0.0000 0.0000 0.0000 0.0000 28.4809
#
#
#
# Elastic Compliance Matrix: (Units=1/GPa)
#
#
# Indices 1 2 3 4 5 6 
#
# 1 0.011953 0.000114 -0.008104 0.000000 0.000000 0.000000
# 2 0.000114 0.024455 -0.006493 0.000000 0.000000 0.000000
# 3 -0.008104 -0.006493 0.023182 0.000000 0.000000 0.000000
# 4 0.000000 0.000000 0.000000 0.034930 0.000000 0.000000
# 5 0.000000 0.000000 0.000000 0.000000 0.027121 0.000000
# 6 0.000000 0.000000 0.000000 0.000000 0.000000 0.035111
#
#
# Mechanical properties :
#
#
# Convention : Reuss Voigt Hill
#
# Bulk Modulus (GPa) = 32.65369 39.82290 36.23829
# Shear Modulus (GPa) = 25.52008 28.83440 27.17724
#
# Velocity S-wave (km/s) = 3.54848 3.77188 3.66188
# Velocity P-wave (km/s) = 5.73590 6.21436 5.97991
#
# Compressibility (1/GPa) = 0.03062441
#
# Stress axis : x y z
#
# Youngs Moduli (GPa) = 83.66139 40.89186 43.13754
#
# Poissons Ratio (x) = -0.00467 0.34957
# Poissons Ratio (y) = -0.00956 0.28010
# Poissons Ratio (z) = 0.67796 0.26551
#
# Static dielectric constant tensor:
#      x y z
#    x 3.700830 0.000000 0.000000 
#    y 0.000000 3.611260 0.000000 
#    z 0.000000 0.000000 3.557160 
# 
# 
# High freq. dielectric constant tensor:
#      x y z
#    x 1.796790 0.000000 0.000000 
#    y 0.000000 1.777800 0.000000 
#    z 0.000000 0.000000 1.788760 
# 
# From -- ./inp_files/8979.got.cif
#   From: 2010.06.25/outbox.cif.g09.slc.cpg/sg58_5_cif.got.tgz:8979.got - 2010.06.26 21:38:00.
