data_PCOD8236188
_publ_section_title
;
Structure prediction by ZEFSAII (Michael W. Deem and Ramdas Pophale) SiO2 
 PCOD8236188
Probable space group: P N N M
;
_chemical_formula_sum "Si O2"
_cell_formula_units_Z 48
_cell_length_a 14.711680
_cell_length_b 19.654142
_cell_length_c 9.310230
_cell_angle_alpha 90.000000
_cell_angle_beta 90.000000
_cell_angle_gamma 90.000000
_cell_volume 2692.010622
_symmetry_space_group_name_H-M "P N N M"
_symmetry_group_IT_number 58
_symmetry_cell_setting 'orthorhombic'
loop_
_space_group_symop_operation_xyz
x,y,z
-x,-y,z
1/2+x,1/2-y,1/2-z
1/2-x,1/2+y,1/2-z
-x,-y,-z
x,y,-z
1/2-x,1/2+y,1/2+z
1/2+x,1/2-y,1/2+z
loop_
_atom_site_type_symbol
_atom_site_label
_atom_site_fract_x
_atom_site_fract_y
_atom_site_fract_z
Si Si1 0.590845 0.464071 0.334221
Si Si2 0.311478 0.155259 0.164949
Si Si3 0.989692 0.693895 0.666712
Si Si4 0.062643 0.438510 0.836248
Si Si5 0.614310 0.306633 0.336587
Si Si6 0.233345 0.525049 0.164003
O O1 0.500000 0.500000 0.277296
O O2 0.608595 0.481891 0.500000
O O3 0.582235 0.383597 0.310604
O O4 0.673959 0.494472 0.243886
O O5 0.401651 0.199750 0.191640
O O6 0.221856 0.199865 0.200480
O O7 0.316809 0.089138 0.264313
O O8 0.304967 0.129870 0.000000
O O9 0.965465 0.690705 0.500000
O O10 0.949806 0.626638 0.737961
O O11 0.943574 0.760186 0.731847
O O12 0.167784 0.460056 0.826506
O O13 0.000000 0.500000 0.779092
O O14 0.035130 0.420531 0.000000
O O15 0.595888 0.283721 0.500000
O O16 0.254979 0.544268 0.000000
#
# Coordination Sequence:
#
# PCOD8236188 Si02
#       6
#     8   8   8   8   8   8
#     4   9  19  38  61  81 108 145 182 221 272 327
#     4   9  19  36  56  76 104 144 180 216 272 324
#     4  11  22  35  55  82 109 140 182 231 269 315
#     4  10  20  35  54  80 113 145 176 214 270 330
#     4   9  19  37  57  76 106 146 179 216 270 328
#     4  10  19  32  55  83 108 138 178 223 265 315
#
# _framework density 17.830539999999999
#
# number of rings (size 3 to 8) (size 9 to 14) (size 15 to 20)
#    0.000    2.333    1.667    2.000    0.000    5.333 
#    3.000    0.000    0.000    0.000    0.000    0.000 
#    0.000    0.000    0.000    0.000    0.000    0.000 
#
# Total GULP energy -595277.646071 kJ/mol
# GULP energy per Si atom -12401.617626 kJ/mol
# Density = 1.778996 g / cm^3
# Si number density = 17.830540 Si / 1000 Ang^3
#
#
#
# Elastic Constant Matrix: (Units=GPa)
#
#
# Indices 1 2 3 4 5 6 
#
# 1 132.4935 58.7648 62.7357 0.0000 0.0000 0.0000
# 2 58.7648 69.9511 44.1954 0.0000 0.0000 0.0000
# 3 62.7357 44.1954 94.1040 0.0000 0.0000 0.0000
# 4 0.0000 0.0000 0.0000 30.3196 0.0000 0.0000
# 5 0.0000 0.0000 0.0000 0.0000 31.3695 0.0000
# 6 0.0000 0.0000 0.0000 0.0000 0.0000 30.4381
#
#
#
# Elastic Compliance Matrix: (Units=1/GPa)
#
#
# Indices 1 2 3 4 5 6 
#
# 1 0.013658 -0.008135 -0.005285 0.000000 0.000000 0.000000
# 2 -0.008135 0.025172 -0.006399 0.000000 0.000000 0.000000
# 3 -0.005285 -0.006399 0.017155 0.000000 0.000000 0.000000
# 4 0.000000 0.000000 0.000000 0.032982 0.000000 0.000000
# 5 0.000000 0.000000 0.000000 0.000000 0.031878 0.000000
# 6 0.000000 0.000000 0.000000 0.000000 0.000000 0.032854
#
#
# Mechanical properties :
#
#
# Convention : Reuss Voigt Hill
#
# Bulk Modulus (GPa) = 61.16844 69.77115 65.46980
# Shear Modulus (GPa) = 25.15276 27.14897 26.15086
#
# Velocity S-wave (km/s) = 3.75994 3.90630 3.83382
# Velocity P-wave (km/s) = 7.29585 7.71755 7.50966
#
# Compressibility (1/GPa) = 0.01634830
#
# Stress axis : x y z
#
# Youngs Moduli (GPa) = 73.21751 39.72590 58.29243
#
# Poissons Ratio (x) = 0.32317 0.30806
# Poissons Ratio (y) = 0.59562 0.37301
# Poissons Ratio (z) = 0.38694 0.25420
#
# Static dielectric constant tensor:
#      x y z
#    x 3.514440 0.000000 0.000000 
#    y 0.000000 3.045070 0.000000 
#    z 0.000000 0.000000 3.354380 
# 
# 
# High freq. dielectric constant tensor:
#      x y z
#    x 1.701130 0.000000 0.000000 
#    y 0.000000 1.665910 0.000000 
#    z 0.000000 0.000000 1.695170 
# 
# From -- ./inp_files/6040.got.cif
#   From: 2010.06.25/outbox.cif.g09.slc.cpg/sg58_4_cif.got.tgz:6040.got - 2010.06.26 21:38:00.
