data_PCOD8236026
_publ_section_title
;
Structure prediction by ZEFSAII (Michael W. Deem and Ramdas Pophale) SiO2 
 PCOD8236026
Probable space group: P N N M
;
_chemical_formula_sum "Si O2"
_cell_formula_units_Z 56
_cell_length_a 7.707756
_cell_length_b 18.805734
_cell_length_c 21.821482
_cell_angle_alpha 90.000000
_cell_angle_beta 90.000000
_cell_angle_gamma 90.000000
_cell_volume 3163.024014
_symmetry_space_group_name_H-M "P N N M"
_symmetry_group_IT_number 58
_symmetry_cell_setting 'orthorhombic'
loop_
_space_group_symop_operation_xyz
x,y,z
-x,-y,z
1/2+x,1/2-y,1/2-z
1/2-x,1/2+y,1/2-z
-x,-y,-z
x,y,-z
1/2-x,1/2+y,1/2+z
1/2+x,1/2-y,1/2+z
loop_
_atom_site_type_symbol
_atom_site_label
_atom_site_fract_x
_atom_site_fract_y
_atom_site_fract_z
Si Si1 0.251585 0.365621 0.742921
Si Si2 0.347691 0.556215 0.567881
Si Si3 0.200425 0.511973 0.307061
Si Si4 0.852570 0.231776 0.342977
Si Si5 0.062575 0.218271 0.929710
Si Si6 0.742824 0.253084 0.855394
Si Si7 0.653203 0.851078 0.255173
O O1 0.307584 0.443348 0.717100
O O2 0.353706 0.343216 0.805295
O O3 0.295248 0.311028 0.689195
O O4 0.050188 0.364161 0.759280
O O5 0.500000 0.500000 0.566053
O O6 0.257230 0.557236 0.500000
O O7 0.219643 0.529487 0.620886
O O8 0.417458 0.634567 0.584146
O O9 0.258048 0.578640 0.265404
O O10 0.000000 0.500000 0.296232
O O11 0.705087 0.234200 0.394498
O O12 0.800221 0.291380 0.294176
O O13 0.039618 0.247826 0.373986
O O14 0.867380 0.244059 0.913726
O O15 0.092864 0.235586 0.000000
O O16 0.779118 0.327786 0.821655
#
# Coordination Sequence:
#
# PCOD8236026 Si02
#       7
#     8   8   8   8   8   8   8
#     4   9  18  31  51  79 107 138 174 222 273 320
#     4  10  21  35  49  70 108 151 186 218 258 312
#     4  10  19  31  52  79 107 140 178 216 266 321
#     4  10  19  34  54  77 105 139 180 222 275 315
#     4  11  22  37  55  75 109 148 183 225 264 317
#     4  10  20  33  54  77 103 139 178 222 270 319
#     4   9  17  31  50  76 110 136 169 225 274 315
#
# _framework density 17.704577
#
# number of rings (size 3 to 8) (size 9 to 14) (size 15 to 20)
#    0.000    2.143    2.857    0.857    2.000    2.000 
#    0.000    0.000    0.000    0.000    0.000    2.000 
#    0.000    2.286    0.000    0.000    0.000    0.000 
#
# Total GULP energy -694089.485642 kJ/mol
# GULP energy per Si atom -12394.455101 kJ/mol
# Density = 1.766428 g / cm^3
# Si number density = 17.704577 Si / 1000 Ang^3
#
#
#
# Elastic Constant Matrix: (Units=GPa)
#
#
# Indices 1 2 3 4 5 6 
#
# 1 50.7136 11.1567 33.3918 0.0000 0.0000 0.0000
# 2 11.1567 98.5345 53.4395 0.0000 0.0000 0.0000
# 3 33.3918 53.4395 87.8803 0.0000 0.0000 0.0000
# 4 0.0000 0.0000 0.0000 26.6129 0.0000 0.0000
# 5 0.0000 0.0000 0.0000 0.0000 234.2377 0.0000
# 6 0.0000 0.0000 0.0000 0.0000 0.0000 18.9413
#
#
#
# Elastic Compliance Matrix: (Units=1/GPa)
#
#
# Indices 1 2 3 4 5 6 
#
# 1 0.027205 0.003769 -0.012629 0.000000 0.000000 0.000000
# 2 0.003769 0.015665 -0.010958 0.000000 0.000000 0.000000
# 3 -0.012629 -0.010958 0.022841 0.000000 0.000000 0.000000
# 4 0.000000 0.000000 0.000000 0.037576 0.000000 0.000000
# 5 0.000000 0.000000 0.000000 0.000000 0.004269 0.000000
# 6 0.000000 0.000000 0.000000 0.000000 0.000000 0.052795
#
#
# Mechanical properties :
#
#
# Convention : Reuss Voigt Hill
#
# Bulk Modulus (GPa) = 38.35062 48.12272 43.23667
# Shear Modulus (GPa) = 23.96044 65.23439 44.59742
#
# Velocity S-wave (km/s) = 3.68278 6.07668 5.02439
# Velocity P-wave (km/s) = 6.30811 8.74498 7.62453
#
# Compressibility (1/GPa) = 0.02607520
#
# Stress axis : x y z
#
# Youngs Moduli (GPa) = 36.75839 63.83712 43.78094
#
# Poissons Ratio (x) = -0.24059 0.55290
# Poissons Ratio (y) = -0.13854 0.47974
# Poissons Ratio (z) = 0.46421 0.69951
#
# Static dielectric constant tensor:
#      x y z
#    x 3.160320 0.000000 0.000000 
#    y 0.000000 3.599960 0.000000 
#    z 0.000000 0.000000 3.295760 
# 
# 
# High freq. dielectric constant tensor:
#      x y z
#    x 1.681870 0.000000 0.000000 
#    y 0.000000 1.674950 0.000000 
#    z 0.000000 0.000000 1.661540 
# 
# From -- ./inp_files/29077.got.cif
#   From: 2010.06.25/outbox.cif.g09.slc.cpg/sg58_15_cif.got.tgz:29077.got - 2010.06.26 21:38:00.
