data_PCOD8236895
_publ_section_title
;
Structure prediction by ZEFSAII (Michael W. Deem and Ramdas Pophale) SiO2 
 PCOD8236895
Probable space group: P N N M
;
_chemical_formula_sum "Si O2"
_cell_formula_units_Z 56
_cell_length_a 19.756574
_cell_length_b 10.053521
_cell_length_c 16.959985
_cell_angle_alpha 90.000000
_cell_angle_beta 90.000000
_cell_angle_gamma 90.000000
_cell_volume 3368.645333
_symmetry_space_group_name_H-M "P N N M"
_symmetry_group_IT_number 58
_symmetry_cell_setting 'orthorhombic'
loop_
_space_group_symop_operation_xyz
x,y,z
-x,-y,z
1/2+x,1/2-y,1/2-z
1/2-x,1/2+y,1/2-z
-x,-y,-z
x,y,-z
1/2-x,1/2+y,1/2+z
1/2+x,1/2-y,1/2+z
loop_
_atom_site_type_symbol
_atom_site_label
_atom_site_fract_x
_atom_site_fract_y
_atom_site_fract_z
Si Si1 0.918022 0.783726 0.712039
Si Si2 0.690444 0.837459 0.279867
Si Si3 0.693572 0.639889 0.590908
Si Si4 0.929212 0.216067 0.702535
Si Si5 0.208789 0.382980 0.721849
Si Si6 0.919584 0.002362 0.412296
Si Si7 0.926424 0.996670 0.837598
O O1 0.869297 0.656535 0.711907
O O2 0.892524 0.882672 0.642584
O O3 0.912538 0.853153 0.798034
O O4 0.994019 0.730227 0.694797
O O5 0.675686 0.783935 0.368995
O O6 0.621894 0.832738 0.227641
O O7 0.747669 0.739772 0.241610
O O8 0.715510 0.989617 0.279625
O O9 0.710635 0.661788 0.500000
O O10 0.759090 0.579249 0.636177
O O11 0.631192 0.536710 0.600018
O O12 0.900856 0.147808 0.622448
O O13 0.928650 0.099867 0.766467
O O14 0.888803 0.986539 0.500000
O O15 0.000000 0.000000 0.413049
O O16 0.000000 0.000000 0.880395
#
# Coordination Sequence:
#
# PCOD8236895 Si02
#       7
#     8   8   8   8   8   8   8
#     4   9  16  27  48  74  98 133 171 208 243 302
#     4   9  20  34  52  70  97 133 168 209 249 302
#     4   9  19  32  50  74 101 128 167 211 254 303
#     4   8  15  28  47  71  99 127 174 210 242 293
#     4  10  20  32  51  71 100 133 167 204 253 305
#     4   8  14  25  44  72 103 132 165 208 249 288
#     4   8  14  28  50  74  98 128 168 213 247 297
#
# _framework density 16.623892999999999
#
# number of rings (size 3 to 8) (size 9 to 14) (size 15 to 20)
#    0.857    2.429    0.000    2.571    2.000    1.429 
#    0.000    0.714    0.000    3.429    0.000   14.000 
#    0.000    0.000    0.000    0.000    0.000    0.000 
#
# Total GULP energy -693732.953409 kJ/mol
# GULP energy per Si atom -12388.088454 kJ/mol
# Density = 1.658606 g / cm^3
# Si number density = 16.623893 Si / 1000 Ang^3
#
#
#
# Elastic Constant Matrix: (Units=GPa)
#
#
# Indices 1 2 3 4 5 6 
#
# 1 77.7598 26.9491 14.3451 0.0000 0.0000 0.0000
# 2 26.9491 69.9687 17.8017 0.0000 0.0000 0.0000
# 3 14.3451 17.8017 67.3392 0.0000 0.0000 0.0000
# 4 0.0000 0.0000 0.0000 12.2922 0.0000 0.0000
# 5 0.0000 0.0000 0.0000 0.0000 14.4262 0.0000
# 6 0.0000 0.0000 0.0000 0.0000 0.0000 29.3814
#
#
#
# Elastic Compliance Matrix: (Units=1/GPa)
#
#
# Indices 1 2 3 4 5 6 
#
# 1 0.015040 -0.005337 -0.001793 0.000000 0.000000 0.000000
# 2 -0.005337 0.017216 -0.003414 0.000000 0.000000 0.000000
# 3 -0.001793 -0.003414 0.016135 0.000000 0.000000 0.000000
# 4 0.000000 0.000000 0.000000 0.081352 0.000000 0.000000
# 5 0.000000 0.000000 0.000000 0.000000 0.069318 0.000000
# 6 0.000000 0.000000 0.000000 0.000000 0.000000 0.034035
#
#
# Mechanical properties :
#
#
# Convention : Reuss Voigt Hill
#
# Bulk Modulus (GPa) = 36.62619 37.02883 36.82751
# Shear Modulus (GPa) = 18.99070 21.61809 20.30439
#
# Velocity S-wave (km/s) = 3.38357 3.61005 3.49864
# Velocity P-wave (km/s) = 6.11104 6.30075 6.20662
#
# Compressibility (1/GPa) = 0.02730287
#
# Stress axis : x y z
#
# Youngs Moduli (GPa) = 66.48724 58.08442 61.97772
#
# Poissons Ratio (x) = 0.30998 0.11114
# Poissons Ratio (y) = 0.35483 0.21162
# Poissons Ratio (z) = 0.11923 0.19832
#
# Static dielectric constant tensor:
#      x y z
#    x 3.296610 0.000000 0.000000 
#    y 0.000000 2.826770 0.000000 
#    z 0.000000 0.000000 2.972180 
# 
# 
# High freq. dielectric constant tensor:
#      x y z
#    x 1.642790 0.000000 0.000000 
#    y 0.000000 1.609890 0.000000 
#    z 0.000000 0.000000 1.604190 
# 
# From -- ./inp_files/27652.got.cif
#   From: 2010.06.25/outbox.cif.g09.slc.cpg/sg58_14_cif.got.tgz:27652.got - 2010.06.26 21:38:00.
