data_PCOD8236555
_publ_section_title
;
Structure prediction by ZEFSAII (Michael W. Deem and Ramdas Pophale) SiO2 
 PCOD8236555
Probable space group: P N N M
;
_chemical_formula_sum "Si O2"
_cell_formula_units_Z 52
_cell_length_a 8.901505
_cell_length_b 14.586824
_cell_length_c 22.073372
_cell_angle_alpha 90.000000
_cell_angle_beta 90.000000
_cell_angle_gamma 90.000000
_cell_volume 2866.110073
_symmetry_space_group_name_H-M "P N N M"
_symmetry_group_IT_number 58
_symmetry_cell_setting 'orthorhombic'
loop_
_space_group_symop_operation_xyz
x,y,z
-x,-y,z
1/2+x,1/2-y,1/2-z
1/2-x,1/2+y,1/2-z
-x,-y,-z
x,y,-z
1/2-x,1/2+y,1/2+z
1/2+x,1/2-y,1/2+z
loop_
_atom_site_type_symbol
_atom_site_label
_atom_site_fract_x
_atom_site_fract_y
_atom_site_fract_z
Si Si1 0.410649 0.088357 0.832060
Si Si2 0.331306 0.782430 0.843130
Si Si3 0.964524 0.176525 0.430817
Si Si4 0.970846 0.108549 0.849648
Si Si5 0.000000 0.000000 0.643977
Si Si6 0.832300 0.886418 0.263099
Si Si7 0.221266 0.173974 0.069498
O O1 0.522753 0.169762 0.814610
O O2 0.302019 0.072017 0.775717
O O3 0.321466 0.101767 0.894346
O O4 0.500000 0.000000 0.847611
O O5 0.392270 0.732070 0.903901
O O6 0.202048 0.858193 0.856018
O O7 0.278608 0.708198 0.793734
O O8 0.006792 0.157270 0.500000
O O9 0.934782 0.081182 0.396915
O O10 0.804672 0.228304 0.425375
O O11 0.024759 0.129611 0.781070
O O12 0.059111 0.173012 0.897790
O O13 0.000000 0.000000 0.864130
O O14 0.866927 0.961533 0.685930
O O15 0.203588 0.143033 0.000000
#
# Coordination Sequence:
#
# PCOD8236555 Si02
#       7
#     8   8   8   8   4   8   8
#     4  10  20  35  51  77 107 141 177 223 268 315
#     4  10  20  34  55  79 106 146 182 219 276 323
#     4   9  19  37  59  81 109 141 187 234 272 328
#     4  11  21  36  55  79 113 144 182 229 269 326
#     4  10  19  34  60  84 107 144 188 224 284 326
#     4  10  20  35  51  79 109 143 179 222 268 331
#     4   9  20  37  54  77 107 143 182 225 276 321
#
# _framework density 18.143058
#
# number of rings (size 3 to 8) (size 9 to 14) (size 15 to 20)
#    0.000    2.154    0.769    3.000    0.000    2.462 
#    2.769    3.077    0.000    0.000    0.000    5.385 
#    0.000    0.000    0.000    0.000    0.000    0.000 
#
# Total GULP energy -644497.729984 kJ/mol
# GULP energy per Si atom -12394.187115 kJ/mol
# Density = 1.810176 g / cm^3
# Si number density = 18.143058 Si / 1000 Ang^3
#
#
#
# Elastic Constant Matrix: (Units=GPa)
#
#
# Indices 1 2 3 4 5 6 
#
# 1 88.7610 30.5021 38.6145 0.0000 0.0000 0.0000
# 2 30.5021 90.6225 51.2357 0.0000 0.0000 0.0000
# 3 38.6145 51.2357 125.6063 0.0000 0.0000 0.0000
# 4 0.0000 0.0000 0.0000 17.2966 0.0000 0.0000
# 5 0.0000 0.0000 0.0000 0.0000 14.2129 0.0000
# 6 0.0000 0.0000 0.0000 0.0000 0.0000 23.5804
#
#
#
# Elastic Compliance Matrix: (Units=1/GPa)
#
#
# Indices 1 2 3 4 5 6 
#
# 1 0.013556 -0.002868 -0.002998 0.000000 0.000000 0.000000
# 2 -0.002868 0.014949 -0.005216 0.000000 0.000000 0.000000
# 3 -0.002998 -0.005216 0.011011 0.000000 0.000000 0.000000
# 4 0.000000 0.000000 0.000000 0.057815 0.000000 0.000000
# 5 0.000000 0.000000 0.000000 0.000000 0.070359 0.000000
# 6 0.000000 0.000000 0.000000 0.000000 0.000000 0.042408
#
#
# Mechanical properties :
#
#
# Convention : Reuss Voigt Hill
#
# Bulk Modulus (GPa) = 57.62938 60.63272 59.13105
# Shear Modulus (GPa) = 21.00445 23.32715 22.16580
#
# Velocity S-wave (km/s) = 3.40621 3.58960 3.49911
# Velocity P-wave (km/s) = 6.87768 7.11844 6.99909
#
# Compressibility (1/GPa) = 0.01735226
#
# Stress axis : x y z
#
# Youngs Moduli (GPa) = 73.76921 66.89322 90.82131
#
# Poissons Ratio (x) = 0.19185 0.27224
# Poissons Ratio (y) = 0.21157 0.47374
# Poissons Ratio (z) = 0.22113 0.34893
#
# Static dielectric constant tensor:
#      x y z
#    x 3.242260 0.000000 0.000000 
#    y 0.000000 3.590310 0.000000 
#    z 0.000000 0.000000 3.443940 
# 
# 
# High freq. dielectric constant tensor:
#      x y z
#    x 1.695340 0.000000 0.000000 
#    y 0.000000 1.704510 0.000000 
#    z 0.000000 0.000000 1.704720 
# 
# From -- ./inp_files/28904.got.cif
#   From: 2010.06.25/outbox.cif.g09.slc.cpg/sg58_15_cif.got.tgz:28904.got - 2010.06.26 21:38:00.
