data_PCOD8236672
_publ_section_title
;
Structure prediction by ZEFSAII (Michael W. Deem and Ramdas Pophale) SiO2 
 PCOD8236672
Probable space group: P N N M
;
_chemical_formula_sum "Si O2"
_cell_formula_units_Z 56
_cell_length_a 20.950501
_cell_length_b 9.407181
_cell_length_c 14.265766
_cell_angle_alpha 90.000000
_cell_angle_beta 90.000000
_cell_angle_gamma 90.000000
_cell_volume 2811.570703
_symmetry_space_group_name_H-M "P N N M"
_symmetry_group_IT_number 58
_symmetry_cell_setting 'orthorhombic'
loop_
_space_group_symop_operation_xyz
x,y,z
-x,-y,z
1/2+x,1/2-y,1/2-z
1/2-x,1/2+y,1/2-z
-x,-y,-z
x,y,-z
1/2-x,1/2+y,1/2+z
1/2+x,1/2-y,1/2+z
loop_
_atom_site_type_symbol
_atom_site_label
_atom_site_fract_x
_atom_site_fract_y
_atom_site_fract_z
Si Si1 0.659195 0.335768 0.893147
Si Si2 0.636138 0.948646 0.656939
Si Si3 0.860416 0.995069 0.892245
Si Si4 0.255355 0.404652 0.901081
Si Si5 0.223676 0.788957 0.209404
Si Si6 0.464829 0.271052 0.396427
Si Si7 0.411577 0.755718 0.718405
O O1 0.681170 0.499672 0.886488
O O2 0.719514 0.242386 0.861976
O O3 0.599356 0.305556 0.823584
O O4 0.639571 0.296719 0.000000
O O5 0.670646 0.833098 0.723458
O O6 0.580412 0.867921 0.601365
O O7 0.691432 0.000490 0.586601
O O8 0.608133 0.079139 0.716724
O O9 0.806190 0.064734 0.827862
O O10 0.925741 0.084056 0.881014
O O11 0.870381 0.834861 0.856306
O O12 0.838100 0.992867 0.000000
O O13 0.246307 0.303127 0.812673
O O14 0.263000 0.320520 0.000000
O O15 0.498000 0.276139 0.500000
O O16 0.514693 0.257466 0.311703
#
# Coordination Sequence:
#
# PCOD8236672 Si02
#       7
#     8   8   8   8   8   8   8
#     4  10  21  37  58  83 116 156 193 236 295 352
#     4  10  22  36  57  85 123 152 188 234 301 355
#     4  10  21  37  60  88 117 153 199 243 289 344
#     4  10  19  35  60  87 117 151 193 241 287 350
#     4  10  19  39  58  84 119 156 188 238 296 354
#     4  10  22  39  58  85 122 158 191 239 301 349
#     4  12  21  35  57  85 118 155 196 240 284 345
#
# _framework density 19.917693
#
# number of rings (size 3 to 8) (size 9 to 14) (size 15 to 20)
#    0.000    1.714    2.857    2.143    0.000    7.429 
#    0.000    0.714    0.000    6.857    0.000    0.000 
#    0.000    0.000    0.000    0.000    0.000    0.000 
#
# Total GULP energy -694079.948336 kJ/mol
# GULP energy per Si atom -12394.284792 kJ/mol
# Density = 1.987236 g / cm^3
# Si number density = 19.917693 Si / 1000 Ang^3
#
#
#
# Elastic Constant Matrix: (Units=GPa)
#
#
# Indices 1 2 3 4 5 6 
#
# 1 74.2086 6.2130 37.3973 0.0000 0.0000 0.0000
# 2 6.2130 68.3362 18.1703 0.0000 0.0000 0.0000
# 3 37.3973 18.1703 146.4831 0.0000 0.0000 0.0000
# 4 0.0000 0.0000 0.0000 17.7374 0.0000 0.0000
# 5 0.0000 0.0000 0.0000 0.0000 24.4326 0.0000
# 6 0.0000 0.0000 0.0000 0.0000 0.0000 17.8145
#
#
#
# Elastic Compliance Matrix: (Units=1/GPa)
#
#
# Indices 1 2 3 4 5 6 
#
# 1 0.015474 -0.000369 -0.003905 0.000000 0.000000 0.000000
# 2 -0.000369 0.015141 -0.001784 0.000000 0.000000 0.000000
# 3 -0.003905 -0.001784 0.008045 0.000000 0.000000 0.000000
# 4 0.000000 0.000000 0.000000 0.056378 0.000000 0.000000
# 5 0.000000 0.000000 0.000000 0.000000 0.040929 0.000000
# 6 0.000000 0.000000 0.000000 0.000000 0.000000 0.056134
#
#
# Mechanical properties :
#
#
# Convention : Reuss Voigt Hill
#
# Bulk Modulus (GPa) = 37.67118 45.84322 41.75720
# Shear Modulus (GPa) = 23.46699 27.14672 25.30686
#
# Velocity S-wave (km/s) = 3.43621 3.69581 3.56837
# Velocity P-wave (km/s) = 5.89049 6.42482 6.16345
#
# Compressibility (1/GPa) = 0.02654549
#
# Stress axis : x y z
#
# Youngs Moduli (GPa) = 64.62353 66.04400 124.30158
#
# Poissons Ratio (x) = 0.02434 0.48538
# Poissons Ratio (y) = 0.02382 0.22177
# Poissons Ratio (z) = 0.25235 0.11783
#
# Static dielectric constant tensor:
#      x y z
#    x 3.555040 0.000000 0.000000 
#    y 0.000000 3.646520 0.000000 
#    z 0.000000 0.000000 3.535710 
# 
# 
# High freq. dielectric constant tensor:
#      x y z
#    x 1.760430 0.000000 0.000000 
#    y 0.000000 1.777650 0.000000 
#    z 0.000000 0.000000 1.765370 
# 
# From -- ./inp_files/20138.got.cif
#   From: 2010.06.25/outbox.cif.g09.slc.cpg/sg58_11_cif.got.tgz:20138.got - 2010.06.26 21:38:00.
