data_PCOD8236983
_publ_section_title
;
Structure prediction by ZEFSAII (Michael W. Deem and Ramdas Pophale) SiO2 
 PCOD8236983
Probable space group: P N N M
;
_chemical_formula_sum "Si O2"
_cell_formula_units_Z 64
_cell_length_a 18.176708
_cell_length_b 13.567505
_cell_length_c 13.397484
_cell_angle_alpha 90.000000
_cell_angle_beta 90.000000
_cell_angle_gamma 90.000000
_cell_volume 3303.988050
_symmetry_space_group_name_H-M "P N N M"
_symmetry_group_IT_number 58
_symmetry_cell_setting 'orthorhombic'
loop_
_space_group_symop_operation_xyz
x,y,z
-x,-y,z
1/2+x,1/2-y,1/2-z
1/2-x,1/2+y,1/2-z
-x,-y,-z
x,y,-z
1/2-x,1/2+y,1/2+z
1/2+x,1/2-y,1/2+z
loop_
_atom_site_type_symbol
_atom_site_label
_atom_site_fract_x
_atom_site_fract_y
_atom_site_fract_z
Si Si1 0.309298 0.062456 0.383022
Si Si2 0.912895 0.122761 0.618137
Si Si3 0.431065 0.718980 0.887712
Si Si4 0.503685 0.888536 0.793234
Si Si5 0.095234 0.369172 0.884991
Si Si6 0.341901 0.199752 0.208858
Si Si7 0.186329 0.171051 0.885097
Si Si8 0.654665 0.440026 0.203956
O O1 0.307255 0.087481 0.500000
O O2 0.329836 0.163350 0.323320
O O3 0.231021 0.023989 0.343669
O O4 0.364462 0.972440 0.359205
O O5 0.891315 0.127905 0.500000
O O6 0.857270 0.184648 0.689588
O O7 0.995334 0.157619 0.635415
O O8 0.907795 0.012714 0.662201
O O9 0.441795 0.831851 0.856753
O O10 0.362698 0.671305 0.830833
O O11 0.407131 0.713979 0.000000
O O12 0.481228 0.868251 0.677322
O O13 0.584173 0.854257 0.827074
O O14 0.500000 0.000000 0.825130
O O15 0.146655 0.275217 0.859105
O O16 0.071741 0.366176 0.000000
O O17 0.272652 0.174356 0.140358
O O18 0.155002 0.076098 0.823909
O O19 0.175245 0.145048 0.000000
#
# Coordination Sequence:
#
# PCOD8236983 Si02
#       8
#     8   8   8   8   8   8   8   8
#     4  10  20  33  55  86 116 151 193 243 296 339
#     4  10  20  35  57  82 110 149 195 238 290 349
#     4  10  21  36  56  84 114 149 189 237 293 350
#     4  11  21  37  57  86 122 152 194 236 293 349
#     4  10  20  37  62  88 117 155 200 244 288 348
#     4  10  21  35  56  82 118 155 191 242 286 346
#     4  10  21  38  60  85 115 154 198 237 290 355
#     4  11  20  35  60  84 112 145 194 251 294 337
#
# _framework density 19.370529999999999
#
# number of rings (size 3 to 8) (size 9 to 14) (size 15 to 20)
#    0.000    1.750    2.500    2.625    0.000    3.500 
#    0.000    0.625    0.000    2.250    0.000    0.000 
#    0.000    0.000    0.000    0.000    0.000    0.000 
#
# Total GULP energy -793060.550372 kJ/mol
# GULP energy per Si atom -12391.571100 kJ/mol
# Density = 1.932644 g / cm^3
# Si number density = 19.370530 Si / 1000 Ang^3
#
#
#
# Elastic Constant Matrix: (Units=GPa)
#
#
# Indices 1 2 3 4 5 6 
#
# 1 39.0870 21.5254 13.9857 0.0000 0.0000 0.0000
# 2 21.5254 83.1480 29.4776 0.0000 0.0000 0.0000
# 3 13.9857 29.4776 79.6822 0.0000 0.0000 0.0000
# 4 0.0000 0.0000 0.0000 31.5300 0.0000 0.0000
# 5 0.0000 0.0000 0.0000 0.0000 25.7076 0.0000
# 6 0.0000 0.0000 0.0000 0.0000 0.0000 25.0883
#
#
#
# Elastic Compliance Matrix: (Units=1/GPa)
#
#
# Indices 1 2 3 4 5 6 
#
# 1 0.030366 -0.006873 -0.002787 0.000000 0.000000 0.000000
# 2 -0.006873 0.015398 -0.004490 0.000000 0.000000 0.000000
# 3 -0.002787 -0.004490 0.014700 0.000000 0.000000 0.000000
# 4 0.000000 0.000000 0.000000 0.031716 0.000000 0.000000
# 5 0.000000 0.000000 0.000000 0.000000 0.038899 0.000000
# 6 0.000000 0.000000 0.000000 0.000000 0.000000 0.039859
#
#
# Mechanical properties :
#
#
# Convention : Reuss Voigt Hill
#
# Bulk Modulus (GPa) = 31.09092 36.87718 33.98405
# Shear Modulus (GPa) = 23.81406 25.59374 24.70390
#
# Velocity S-wave (km/s) = 3.51008 3.63887 3.57506
# Velocity P-wave (km/s) = 5.70202 6.06088 5.88419
#
# Compressibility (1/GPa) = 0.03216373
#
# Stress axis : x y z
#
# Youngs Moduli (GPa) = 32.93120 64.94422 68.02698
#
# Poissons Ratio (x) = 0.44637 0.18960
# Poissons Ratio (y) = 0.22634 0.30543
# Poissons Ratio (z) = 0.09179 0.29159
#
# Static dielectric constant tensor:
#      x y z
#    x 3.581740 0.000000 0.000000 
#    y 0.000000 3.659890 0.000000 
#    z 0.000000 0.000000 3.577700 
# 
# 
# High freq. dielectric constant tensor:
#      x y z
#    x 1.756710 0.000000 0.000000 
#    y 0.000000 1.750170 0.000000 
#    z 0.000000 0.000000 1.749890 
# 
# From -- ./inp_files/16565.got.cif
#   From: 2010.06.25/outbox.cif.g09.slc.cpg/sg58_9_cif.got.tgz:16565.got - 2010.06.26 21:38:00.
