data_PCOD8236930
_publ_section_title
;
Structure prediction by ZEFSAII (Michael W. Deem and Ramdas Pophale) SiO2 
 PCOD8236930
Probable space group: P N N M
;
_chemical_formula_sum "Si O2"
_cell_formula_units_Z 64
_cell_length_a 23.744259
_cell_length_b 15.162733
_cell_length_c 8.846589
_cell_angle_alpha 90.000000
_cell_angle_beta 90.000000
_cell_angle_gamma 90.000000
_cell_volume 3185.018502
_symmetry_space_group_name_H-M "P N N M"
_symmetry_group_IT_number 58
_symmetry_cell_setting 'orthorhombic'
loop_
_space_group_symop_operation_xyz
x,y,z
-x,-y,z
1/2+x,1/2-y,1/2-z
1/2-x,1/2+y,1/2-z
-x,-y,-z
x,y,-z
1/2-x,1/2+y,1/2+z
1/2+x,1/2-y,1/2+z
loop_
_atom_site_type_symbol
_atom_site_label
_atom_site_fract_x
_atom_site_fract_y
_atom_site_fract_z
Si Si1 0.253923 0.429403 0.677786
Si Si2 0.366727 0.986957 0.171800
Si Si3 0.537769 0.420877 0.679255
Si Si4 0.031810 0.415966 0.821777
Si Si5 0.032470 0.753765 0.179194
Si Si6 0.638147 0.814602 0.174143
Si Si7 0.166633 0.084963 0.180717
Si Si8 0.252563 0.728553 0.179546
O O1 0.260947 0.421591 0.500000
O O2 0.197256 0.479134 0.726787
O O3 0.304181 0.493256 0.737810
O O4 0.251318 0.329581 0.743084
O O5 0.403613 0.919913 0.270396
O O6 0.387465 0.087392 0.191546
O O7 0.371891 0.955140 0.000000
O O8 0.500000 0.500000 0.746166
O O9 0.540457 0.427381 0.500000
O O10 0.504716 0.334964 0.733554
O O11 0.602020 0.419620 0.739622
O O12 0.000000 0.500000 0.751729
O O13 0.002336 0.329176 0.759452
O O14 0.029289 0.416409 0.000000
O O15 0.093392 0.755205 0.259353
O O16 0.042628 0.753180 0.000000
O O17 0.694308 0.815384 0.272492
O O18 0.651866 0.792278 0.000000
O O19 0.196165 0.172595 0.248363
O O20 0.170442 0.093079 0.000000
O O21 0.260124 0.726553 0.000000
#
# Coordination Sequence:
#
# PCOD8236930 Si02
#       8
#     8   8   8   8   8   8   8   8
#     4   9  20  38  59  83 112 153 194 236 291 353
#     4  10  20  36  56  79 110 149 191 228 274 346
#     4   9  20  37  62  88 111 154 209 249 284 338
#     4  10  20  33  50  80 118 149 178 223 281 336
#     4  10  21  37  57  85 118 152 194 240 290 343
#     4  11  22  38  60  85 115 152 196 241 293 352
#     4  10  20  40  64  88 121 155 198 251 296 348
#     4  11  23  38  61  90 117 152 195 242 301 357
#
# _framework density 20.094076000000001
#
# number of rings (size 3 to 8) (size 9 to 14) (size 15 to 20)
#    0.000    2.000    2.500    0.750    3.500    1.250 
#    0.000    2.500    0.000    0.750    0.000    0.000 
#    0.000    0.000    0.000    0.000    0.000    0.000 
#
# Total GULP energy -793377.241909 kJ/mol
# GULP energy per Si atom -12396.519405 kJ/mol
# Density = 2.004834 g / cm^3
# Si number density = 20.094076 Si / 1000 Ang^3
#
#
#
# Elastic Constant Matrix: (Units=GPa)
#
#
# Indices 1 2 3 4 5 6 
#
# 1 153.4512 67.7606 22.3349 0.0000 0.0000 0.0000
# 2 67.7606 141.5466 29.9600 0.0000 0.0000 0.0000
# 3 22.3349 29.9600 26.7506 0.0000 0.0000 0.0000
# 4 0.0000 0.0000 0.0000 19.8627 0.0000 0.0000
# 5 0.0000 0.0000 0.0000 0.0000 29.9999 0.0000
# 6 0.0000 0.0000 0.0000 0.0000 0.0000 35.9637
#
#
#
# Elastic Compliance Matrix: (Units=1/GPa)
#
#
# Indices 1 2 3 4 5 6 
#
# 1 0.008483 -0.003358 -0.003322 0.000000 0.000000 0.000000
# 2 -0.003358 0.010589 -0.009056 0.000000 0.000000 0.000000
# 3 -0.003322 -0.009056 0.050299 0.000000 0.000000 0.000000
# 4 0.000000 0.000000 0.000000 0.050346 0.000000 0.000000
# 5 0.000000 0.000000 0.000000 0.000000 0.033333 0.000000
# 6 0.000000 0.000000 0.000000 0.000000 0.000000 0.027806
#
#
# Mechanical properties :
#
#
# Convention : Reuss Voigt Hill
#
# Bulk Modulus (GPa) = 26.38595 62.42882 44.40738
# Shear Modulus (GPa) = 22.22618 30.61146 26.41882
#
# Velocity S-wave (km/s) = 3.32943 3.90732 3.62989
# Velocity P-wave (km/s) = 5.28581 7.17579 6.30205
#
# Compressibility (1/GPa) = 0.03789896
#
# Stress axis : x y z
#
# Youngs Moduli (GPa) = 117.88312 94.43731 19.88129
#
# Poissons Ratio (x) = 0.31710 0.06605
# Poissons Ratio (y) = 0.39583 0.18004
# Poissons Ratio (z) = 0.39162 0.85522
#
# Static dielectric constant tensor:
#      x y z
#    x 3.749190 0.000000 0.000000 
#    y 0.000000 3.870840 0.000000 
#    z 0.000000 0.000000 3.255220 
# 
# 
# High freq. dielectric constant tensor:
#      x y z
#    x 1.795590 0.000000 0.000000 
#    y 0.000000 1.790570 0.000000 
#    z 0.000000 0.000000 1.745450 
# 
# From -- ./inp_files/10110.got.cif
#   From: 2010.06.25/outbox.cif.g09.slc.cpg/sg58_6_cif.got.tgz:10110.got - 2010.06.26 21:38:00.
