data_PCOD8236447
_publ_section_title
;
Structure prediction by ZEFSAII (Michael W. Deem and Ramdas Pophale) SiO2 
 PCOD8236447
Probable space group: P N N M
;
_chemical_formula_sum "Si O2"
_cell_formula_units_Z 48
_cell_length_a 20.305171
_cell_length_b 14.121228
_cell_length_c 8.708142
_cell_angle_alpha 90.000000
_cell_angle_beta 90.000000
_cell_angle_gamma 90.000000
_cell_volume 2496.919946
_symmetry_space_group_name_H-M "P N N M"
_symmetry_group_IT_number 58
_symmetry_cell_setting 'orthorhombic'
loop_
_space_group_symop_operation_xyz
x,y,z
-x,-y,z
1/2+x,1/2-y,1/2-z
1/2-x,1/2+y,1/2-z
-x,-y,-z
x,y,-z
1/2-x,1/2+y,1/2+z
1/2+x,1/2-y,1/2+z
loop_
_atom_site_type_symbol
_atom_site_label
_atom_site_fract_x
_atom_site_fract_y
_atom_site_fract_z
Si Si1 0.689752 0.053355 0.321243
Si Si2 0.064204 0.944145 0.178916
Si Si3 0.695822 0.446068 0.324312
Si Si4 0.106821 0.748942 0.318318
Si Si5 0.244340 0.255628 0.821474
Si Si6 0.064551 0.556282 0.817543
O O1 0.675762 0.064503 0.500000
O O2 0.705059 0.156105 0.246102
O O3 0.753524 0.990306 0.294047
O O4 0.626002 0.003207 0.247653
O O5 0.072319 0.846760 0.270590
O O6 0.124054 0.015043 0.213048
O O7 0.058516 0.918650 0.000000
O O8 0.000000 0.000000 0.237411
O O9 0.716678 0.468519 0.500000
O O10 0.697825 0.334114 0.293141
O O11 0.106213 0.739668 0.500000
O O12 0.181886 0.744809 0.251457
O O13 0.065089 0.662009 0.249981
O O14 0.254775 0.277233 0.000000
O O15 0.000000 0.500000 0.763470
O O16 0.067816 0.565197 0.000000
#
# Coordination Sequence:
#
# PCOD8236447 Si02
#       6
#     8   8   8   8   8   8
#     4  10  19  34  56  81 110 144 186 230 274 326
#     4  10  22  38  58  85 116 150 188 233 283 340
#     4  10  19  34  56  81 110 144 186 230 274 326
#     4  11  21  36  59  83 113 150 188 233 285 341
#     4   9  18  32  53  81 109 144 184 227 277 323
#     4  10  22  38  58  85 116 150 188 233 283 340
#
# _framework density 19.223683999999999
#
# number of rings (size 3 to 8) (size 9 to 14) (size 15 to 20)
#    0.000    2.000    3.333    0.500    0.000    2.000 
#    0.000    5.833    0.000    0.000    0.000    0.000 
#    0.000    0.000    0.000    0.000    0.000    0.000 
#
# Total GULP energy -595149.202247 kJ/mol
# GULP energy per Si atom -12398.941713 kJ/mol
# Density = 1.917993 g / cm^3
# Si number density = 19.223684 Si / 1000 Ang^3
#
#
#
# Elastic Constant Matrix: (Units=GPa)
#
#
# Indices 1 2 3 4 5 6 
#
# 1 137.5055 78.1690 22.6915 0.0000 0.0000 0.0000
# 2 78.1690 163.4966 26.5484 0.0000 0.0000 0.0000
# 3 22.6915 26.5484 25.6217 0.0000 0.0000 0.0000
# 4 0.0000 0.0000 0.0000 23.7362 0.0000 0.0000
# 5 0.0000 0.0000 0.0000 0.0000 20.1145 0.0000
# 6 0.0000 0.0000 0.0000 0.0000 0.0000 38.2910
#
#
#
# Elastic Compliance Matrix: (Units=1/GPa)
#
#
# Indices 1 2 3 4 5 6 
#
# 1 0.010478 -0.004211 -0.004916 0.000000 0.000000 0.000000
# 2 -0.004211 0.009046 -0.005644 0.000000 0.000000 0.000000
# 3 -0.004916 -0.005644 0.049231 0.000000 0.000000 0.000000
# 4 0.000000 0.000000 0.000000 0.042130 0.000000 0.000000
# 5 0.000000 0.000000 0.000000 0.000000 0.049715 0.000000
# 6 0.000000 0.000000 0.000000 0.000000 0.000000 0.026116
#
#
# Mechanical properties :
#
#
# Convention : Reuss Voigt Hill
#
# Bulk Modulus (GPa) = 25.50162 64.60461 45.05311
# Shear Modulus (GPa) = 21.80279 29.70934 25.75606
#
# Velocity S-wave (km/s) = 3.37139 3.93549 3.66431
# Velocity P-wave (km/s) = 5.33381 7.37092 6.43351
#
# Compressibility (1/GPa) = 0.03921319
#
# Stress axis : x y z
#
# Youngs Moduli (GPa) = 95.44130 110.54386 20.31238
#
# Poissons Ratio (x) = 0.46552 0.09985
# Poissons Ratio (y) = 0.40192 0.11464
# Poissons Ratio (z) = 0.46917 0.62389
#
# Static dielectric constant tensor:
#      x y z
#    x 3.635880 0.000000 0.000000 
#    y 0.000000 3.736150 0.000000 
#    z 0.000000 0.000000 3.205000 
# 
# 
# High freq. dielectric constant tensor:
#      x y z
#    x 1.745060 0.000000 0.000000 
#    y 0.000000 1.765130 0.000000 
#    z 0.000000 0.000000 1.717290 
# 
# From -- ./inp_files/8861.got.cif
#   From: 2010.06.25/outbox.cif.g09.slc.cpg/sg58_5_cif.got.tgz:8861.got - 2010.06.26 21:38:00.
