data_PCOD8236078
_publ_section_title
;
Structure prediction by ZEFSAII (Michael W. Deem and Ramdas Pophale) SiO2 
 PCOD8236078
Probable space group: P N N M
;
_chemical_formula_sum "Si O2"
_cell_formula_units_Z 64
_cell_length_a 16.894998
_cell_length_b 21.732552
_cell_length_c 9.490938
_cell_angle_alpha 90.000000
_cell_angle_beta 90.000000
_cell_angle_gamma 90.000000
_cell_volume 3484.801207
_symmetry_space_group_name_H-M "P N N M"
_symmetry_group_IT_number 58
_symmetry_cell_setting 'orthorhombic'
loop_
_space_group_symop_operation_xyz
x,y,z
-x,-y,z
1/2+x,1/2-y,1/2-z
1/2-x,1/2+y,1/2-z
-x,-y,-z
x,y,-z
1/2-x,1/2+y,1/2+z
1/2+x,1/2-y,1/2+z
loop_
_atom_site_type_symbol
_atom_site_label
_atom_site_fract_x
_atom_site_fract_y
_atom_site_fract_z
Si Si1 0.670186 0.527966 0.665769
Si Si2 0.545249 0.180244 0.165687
Si Si3 0.441031 0.392706 0.157602
Si Si4 0.373808 0.162769 0.834113
Si Si5 0.407635 0.683445 0.167302
Si Si6 0.214954 0.107815 0.833667
Si Si7 0.309720 0.289942 0.158351
Si Si8 0.294086 0.871592 0.163796
O O1 0.656018 0.532649 0.500000
O O2 0.591232 0.553596 0.740494
O O3 0.683625 0.458448 0.715703
O O4 0.749195 0.566117 0.711038
O O5 0.462306 0.154187 0.230939
O O6 0.567399 0.248582 0.222574
O O7 0.612284 0.128780 0.200758
O O8 0.535778 0.187849 0.000000
O O9 0.525452 0.366860 0.207946
O O10 0.382918 0.335517 0.160823
O O11 0.446474 0.420236 0.000000
O O12 0.309484 0.110024 0.796765
O O13 0.338807 0.226309 0.775647
O O14 0.383979 0.168153 0.000000
O O15 0.329235 0.661941 0.249671
O O16 0.391823 0.683784 0.000000
O O17 0.201810 0.118168 0.000000
O O18 0.239485 0.312796 0.256189
O O19 0.276717 0.281977 0.000000
O O20 0.280011 0.859773 0.000000
#
# Coordination Sequence:
#
# PCOD8236078 Si02
#       8
#     8   8   8   8   8   8   8   8
#     4   9  19  34  47  66  99 132 162 194 229 274
#     4   9  16  29  50  75  98 120 150 196 246 284
#     4   9  17  30  50  73  93 121 158 197 235 278
#     4   9  16  29  49  70  94 124 155 190 237 286
#     4  10  19  32  51  75 100 120 153 202 245 284
#     4  10  21  34  48  68  97 132 163 192 230 280
#     4   9  15  27  48  70  92 118 151 189 235 284
#     4   9  17  29  48  70  93 123 157 192 233 277
#
# _framework density 18.365468
#
# number of rings (size 3 to 8) (size 9 to 14) (size 15 to 20)
#    0.000    2.750    1.250    0.750    0.000    1.500 
#    0.000    3.125    0.000    6.000    0.000    0.000 
#    0.000    5.000    0.000    0.000    0.000    0.000 
#
# Total GULP energy -793108.949491 kJ/mol
# GULP energy per Si atom -12392.327336 kJ/mol
# Density = 1.832367 g / cm^3
# Si number density = 18.365468 Si / 1000 Ang^3
#
#
#
# Elastic Constant Matrix: (Units=GPa)
#
#
# Indices 1 2 3 4 5 6 
#
# 1 104.9508 12.6926 19.6859 0.0000 0.0000 0.0000
# 2 12.6926 40.8604 8.1266 0.0000 0.0000 0.0000
# 3 19.6859 8.1266 23.9690 0.0000 0.0000 0.0000
# 4 0.0000 0.0000 0.0000 16.3995 0.0000 0.0000
# 5 0.0000 0.0000 0.0000 0.0000 20.7570 0.0000
# 6 0.0000 0.0000 0.0000 0.0000 0.0000 17.8817
#
#
#
# Elastic Compliance Matrix: (Units=1/GPa)
#
#
# Indices 1 2 3 4 5 6 
#
# 1 0.011385 -0.001798 -0.008741 0.000000 0.000000 0.000000
# 2 -0.001798 0.026527 -0.007517 0.000000 0.000000 0.000000
# 3 -0.008741 -0.007517 0.051448 0.000000 0.000000 0.000000
# 4 0.000000 0.000000 0.000000 0.060977 0.000000 0.000000
# 5 0.000000 0.000000 0.000000 0.000000 0.048177 0.000000
# 6 0.000000 0.000000 0.000000 0.000000 0.000000 0.055923
#
#
# Mechanical properties :
#
#
# Convention : Reuss Voigt Hill
#
# Bulk Modulus (GPa) = 18.78003 27.86560 23.32282
# Shear Modulus (GPa) = 16.21795 19.62598 17.92197
#
# Velocity S-wave (km/s) = 2.97487 3.27254 3.12725
# Velocity P-wave (km/s) = 4.69550 5.43002 5.07607
#
# Compressibility (1/GPa) = 0.05324804
#
# Stress axis : x y z
#
# Youngs Moduli (GPa) = 87.83219 37.69721 19.43693
#
# Poissons Ratio (x) = 0.06779 0.16990
# Poissons Ratio (y) = 0.15794 0.14611
# Poissons Ratio (z) = 0.76776 0.28337
#
# Static dielectric constant tensor:
#      x y z
#    x 3.711380 0.000000 0.000000 
#    y 0.000000 3.315910 0.000000 
#    z 0.000000 0.000000 3.129300 
# 
# 
# High freq. dielectric constant tensor:
#      x y z
#    x 1.722780 0.000000 0.000000 
#    y 0.000000 1.698190 0.000000 
#    z 0.000000 0.000000 1.674670 
# 
# From -- ./inp_files/8338.got.cif
#   From: 2010.06.25/outbox.cif.g09.slc.cpg/sg58_5_cif.got.tgz:8338.got - 2010.06.26 21:38:00.
