data_PCOD8236286
_publ_section_title
;
Structure prediction by ZEFSAII (Michael W. Deem and Ramdas Pophale) SiO2 
 PCOD8236286
Probable space group: P N N M
;
_chemical_formula_sum "Si O2"
_cell_formula_units_Z 48
_cell_length_a 10.235320
_cell_length_b 28.852859
_cell_length_c 9.072979
_cell_angle_alpha 90.000000
_cell_angle_beta 90.000000
_cell_angle_gamma 90.000000
_cell_volume 2679.416233
_symmetry_space_group_name_H-M "P N N M"
_symmetry_group_IT_number 58
_symmetry_cell_setting 'orthorhombic'
loop_
_space_group_symop_operation_xyz
x,y,z
-x,-y,z
1/2+x,1/2-y,1/2-z
1/2-x,1/2+y,1/2-z
-x,-y,-z
x,y,-z
1/2-x,1/2+y,1/2+z
1/2+x,1/2-y,1/2+z
loop_
_atom_site_type_symbol
_atom_site_label
_atom_site_fract_x
_atom_site_fract_y
_atom_site_fract_z
Si Si1 0.128851 0.474968 0.173798
Si Si2 0.521379 0.381407 0.670619
Si Si3 0.997473 0.214447 0.325985
Si Si4 0.778871 0.611909 0.667987
Si Si5 0.379088 0.532114 0.827113
Si Si6 0.769881 0.716411 0.672817
O O1 0.135639 0.423126 0.236270
O O2 0.250266 0.505711 0.226451
O O3 0.000000 0.500000 0.234568
O O4 0.126147 0.470000 0.000000
O O5 0.555859 0.373572 0.500000
O O6 0.543593 0.333638 0.755841
O O7 0.373673 0.398883 0.691438
O O8 0.616467 0.419759 0.739284
O O9 0.981473 0.208353 0.500000
O O10 0.860166 0.232224 0.259485
O O11 0.109023 0.251367 0.285457
O O12 0.820731 0.604861 0.500000
O O13 0.808726 0.664259 0.719965
O O14 0.500000 0.500000 0.783762
O O15 0.377471 0.543423 0.000000
O O16 0.735216 0.717790 0.500000
#
# Coordination Sequence:
#
# PCOD8236286 Si02
#       6
#     8   8   8   8   8   8
#     4  10  21  36  52  75 108 139 173 218 264 317
#     4  10  20  34  55  82 109 137 180 228 268 315
#     4  10  20  36  59  82 111 146 181 223 274 326
#     4   9  18  34  55  76 104 139 175 216 262 316
#     4  10  19  33  55  79 104 136 178 220 260 316
#     4   9  20  38  57  82 112 141 179 227 272 323
#
# _framework density 17.914349000000001
#
# number of rings (size 3 to 8) (size 9 to 14) (size 15 to 20)
#    0.000    2.333    1.667    2.000    0.000    5.333 
#    3.000    0.000    0.000    0.000    0.000    0.000 
#    0.000    0.000    0.000    0.000    0.000    0.000 
#
# Total GULP energy -595309.713391 kJ/mol
# GULP energy per Si atom -12402.285696 kJ/mol
# Density = 1.787358 g / cm^3
# Si number density = 17.914349 Si / 1000 Ang^3
#
#
#
# Elastic Constant Matrix: (Units=GPa)
#
#
# Indices 1 2 3 4 5 6 
#
# 1 125.5270 82.9301 51.3000 0.0000 0.0000 0.0000
# 2 82.9301 132.1785 58.6864 0.0000 0.0000 0.0000
# 3 51.3000 58.6864 68.1980 0.0000 0.0000 0.0000
# 4 0.0000 0.0000 0.0000 34.1479 0.0000 0.0000
# 5 0.0000 0.0000 0.0000 0.0000 20.0671 0.0000
# 6 0.0000 0.0000 0.0000 0.0000 0.0000 32.5095
#
#
#
# Elastic Compliance Matrix: (Units=1/GPa)
#
#
# Indices 1 2 3 4 5 6 
#
# 1 0.014594 -0.006930 -0.005014 0.000000 0.000000 0.000000
# 2 -0.006930 0.015534 -0.008155 0.000000 0.000000 0.000000
# 3 -0.005014 -0.008155 0.025452 0.000000 0.000000 0.000000
# 4 0.000000 0.000000 0.000000 0.029284 0.000000 0.000000
# 5 0.000000 0.000000 0.000000 0.000000 0.049833 0.000000
# 6 0.000000 0.000000 0.000000 0.000000 0.000000 0.030760
#
#
# Mechanical properties :
#
#
# Convention : Reuss Voigt Hill
#
# Bulk Modulus (GPa) = 65.00945 79.08180 72.04563
# Shear Modulus (GPa) = 23.72098 26.21072 24.96585
#
# Velocity S-wave (km/s) = 3.64281 3.82922 3.73718
# Velocity P-wave (km/s) = 7.35264 7.98691 7.67633
#
# Compressibility (1/GPa) = 0.01538238
#
# Stress axis : x y z
#
# Youngs Moduli (GPa) = 68.52077 64.37433 39.28899
#
# Poissons Ratio (x) = 0.44612 0.19701
# Poissons Ratio (y) = 0.47486 0.32039
# Poissons Ratio (z) = 0.34359 0.52495
#
# Static dielectric constant tensor:
#      x y z
#    x 3.278080 0.000000 0.000000 
#    y 0.000000 3.321730 0.000000 
#    z 0.000000 0.000000 3.247400 
# 
# 
# High freq. dielectric constant tensor:
#      x y z
#    x 1.679800 0.000000 0.000000 
#    y 0.000000 1.700190 0.000000 
#    z 0.000000 0.000000 1.693450 
# 
# From -- ./inp_files/2861.got.cif
#   From: 2010.06.25/outbox.cif.g09.slc.cpg/sg58_2_cif.got.tgz:2861.got - 2010.06.26 21:38:00.
