data_PCOD8236264
_publ_section_title
;
Structure prediction by ZEFSAII (Michael W. Deem and Ramdas Pophale) SiO2 
 PCOD8236264
Probable space group: P N N M
;
_chemical_formula_sum "Si O2"
_cell_formula_units_Z 56
_cell_length_a 11.099517
_cell_length_b 21.323229
_cell_length_c 12.858871
_cell_angle_alpha 90.000000
_cell_angle_beta 90.000000
_cell_angle_gamma 90.000000
_cell_volume 3043.405991
_symmetry_space_group_name_H-M "P N N M"
_symmetry_group_IT_number 58
_symmetry_cell_setting 'orthorhombic'
loop_
_space_group_symop_operation_xyz
x,y,z
-x,-y,z
1/2+x,1/2-y,1/2-z
1/2-x,1/2+y,1/2-z
-x,-y,-z
x,y,-z
1/2-x,1/2+y,1/2+z
1/2+x,1/2-y,1/2+z
loop_
_atom_site_type_symbol
_atom_site_label
_atom_site_fract_x
_atom_site_fract_y
_atom_site_fract_z
Si Si1 0.609615 0.365894 0.253929
Si Si2 0.089597 0.808639 0.880544
Si Si3 0.021970 0.569964 0.232049
Si Si4 0.765586 0.458089 0.619873
Si Si5 0.242254 0.412091 0.714027
Si Si6 0.928527 0.064312 0.382508
Si Si7 0.326693 0.169709 0.381265
O O1 0.543064 0.321277 0.335831
O O2 0.657096 0.426202 0.316646
O O3 0.514776 0.383536 0.165428
O O4 0.715437 0.328736 0.197434
O O5 0.193341 0.849149 0.824545
O O6 0.107890 0.735235 0.864062
O O7 0.092119 0.828070 0.000000
O O8 0.106299 0.564171 0.333912
O O9 0.084182 0.612278 0.144178
O O10 0.000000 0.500000 0.186243
O O11 0.897176 0.603222 0.263765
O O12 0.760485 0.437691 0.500000
O O13 0.748972 0.532980 0.628120
O O14 0.303870 0.438807 0.819043
O O15 0.895502 0.082913 0.500000
O O16 0.000000 0.000000 0.377889
O O17 0.282639 0.161384 0.500000
#
# Coordination Sequence:
#
# PCOD8236264 Si02
#       7
#     8   8   8   8   8   8   8
#     4  10  20  37  57  79 111 142 180 224 272 322
#     4  10  22  36  57  82 108 146 184 223 270 324
#     4   9  21  37  56  83 111 143 181 228 280 319
#     4  10  19  34  57  84 113 144 178 222 274 327
#     4  10  20  35  55  83 113 143 180 223 272 322
#     4  10  19  33  54  80 109 140 174 220 271 320
#     4  10  22  39  58  80 108 146 186 224 272 327
#
# _framework density 18.400435999999999
#
# number of rings (size 3 to 8) (size 9 to 14) (size 15 to 20)
#    0.000    2.143    1.429    1.286    2.000    4.000 
#    0.000    2.143    0.000    4.286    0.000    0.000 
#    0.000    0.000    0.000    0.000    0.000    0.000 
#
# Total GULP energy -694434.906307 kJ/mol
# GULP energy per Si atom -12400.623327 kJ/mol
# Density = 1.835856 g / cm^3
# Si number density = 18.400436 Si / 1000 Ang^3
#
#
#
# Elastic Constant Matrix: (Units=GPa)
#
#
# Indices 1 2 3 4 5 6 
#
# 1 106.4349 33.6256 41.4580 0.0000 0.0000 0.0000
# 2 33.6256 82.5467 36.9154 0.0000 0.0000 0.0000
# 3 41.4580 36.9154 103.3477 0.0000 0.0000 0.0000
# 4 0.0000 0.0000 0.0000 26.3789 0.0000 0.0000
# 5 0.0000 0.0000 0.0000 0.0000 22.6598 0.0000
# 6 0.0000 0.0000 0.0000 0.0000 0.0000 23.4958
#
#
#
# Elastic Compliance Matrix: (Units=1/GPa)
#
#
# Indices 1 2 3 4 5 6 
#
# 1 0.011806 -0.003203 -0.003592 0.000000 0.000000 0.000000
# 2 -0.003203 0.015286 -0.004175 0.000000 0.000000 0.000000
# 3 -0.003592 -0.004175 0.012608 0.000000 0.000000 0.000000
# 4 0.000000 0.000000 0.000000 0.037909 0.000000 0.000000
# 5 0.000000 0.000000 0.000000 0.000000 0.044131 0.000000
# 6 0.000000 0.000000 0.000000 0.000000 0.000000 0.042561
#
#
# Mechanical properties :
#
#
# Convention : Reuss Voigt Hill
#
# Bulk Modulus (GPa) = 56.30487 57.36969 56.83728
# Shear Modulus (GPa) = 26.01953 26.52890 26.27422
#
# Velocity S-wave (km/s) = 3.76449 3.80116 3.78287
# Velocity P-wave (km/s) = 7.03999 7.10713 7.07364
#
# Compressibility (1/GPa) = 0.01776045
#
# Stress axis : x y z
#
# Youngs Moduli (GPa) = 84.69914 65.41784 79.31178
#
# Poissons Ratio (x) = 0.20953 0.28490
# Poissons Ratio (y) = 0.27129 0.33115
# Poissons Ratio (z) = 0.30425 0.27314
#
# Static dielectric constant tensor:
#      x y z
#    x 3.483090 0.000000 0.000000 
#    y 0.000000 3.253790 0.000000 
#    z 0.000000 0.000000 3.415830 
# 
# 
# High freq. dielectric constant tensor:
#      x y z
#    x 1.721470 0.000000 0.000000 
#    y 0.000000 1.704450 0.000000 
#    z 0.000000 0.000000 1.713720 
# 
# From -- ./inp_files/14776.got.cif
#   From: 2010.06.25/outbox.cif.g09.slc.cpg/sg58_8_cif.got.tgz:14776.got - 2010.06.26 21:38:00.
