data_PCOD8236667
_publ_section_title
;
Structure prediction by ZEFSAII (Michael W. Deem and Ramdas Pophale) SiO2 
 PCOD8236667
Probable space group: P N N M
;
_chemical_formula_sum "Si O2"
_cell_formula_units_Z 48
_cell_length_a 11.659066
_cell_length_b 9.279438
_cell_length_c 22.410926
_cell_angle_alpha 90.000000
_cell_angle_beta 90.000000
_cell_angle_gamma 90.000000
_cell_volume 2424.628673
_symmetry_space_group_name_H-M "P N N M"
_symmetry_group_IT_number 58
_symmetry_cell_setting 'orthorhombic'
loop_
_space_group_symop_operation_xyz
x,y,z
-x,-y,z
1/2+x,1/2-y,1/2-z
1/2-x,1/2+y,1/2-z
-x,-y,-z
x,y,-z
1/2-x,1/2+y,1/2+z
1/2+x,1/2-y,1/2+z
loop_
_atom_site_type_symbol
_atom_site_label
_atom_site_fract_x
_atom_site_fract_y
_atom_site_fract_z
Si Si1 0.520944 0.840835 0.568522
Si Si2 0.314182 0.361144 0.160278
Si Si3 0.102991 0.170050 0.840310
Si Si4 0.001812 0.171229 0.567679
Si Si5 0.871783 0.139876 0.792132
Si Si6 0.741608 0.324700 0.877145
O O1 0.491672 0.847089 0.500000
O O2 0.431317 0.722312 0.593381
O O3 0.652137 0.791366 0.579190
O O4 0.500000 0.000000 0.596974
O O5 0.217554 0.249399 0.179468
O O6 0.402013 0.282562 0.114135
O O7 0.370690 0.404928 0.223094
O O8 0.263025 0.504299 0.131631
O O9 0.994291 0.220212 0.799893
O O10 0.126537 0.000222 0.834947
O O11 0.981006 0.230696 0.500000
O O12 0.123471 0.230026 0.592644
O O13 0.000000 0.000000 0.566324
O O14 0.766990 0.241920 0.814413
#
# Coordination Sequence:
#
# PCOD8236667 Si02
#       6
#     8   8   8   8   8   8
#     4  10  19  35  60  86 113 148 193 247 287 338
#     4  11  21  35  62  82 114 154 196 241 287 347
#     4  10  22  39  54  88 115 147 194 235 296 352
#     4   9  20  35  57  87 114 147 193 244 292 338
#     4  10  23  36  58  81 122 154 185 241 295 356
#     4  10  20  37  58  86 115 151 197 237 289 351
#
# _framework density 19.796845999999999
#
# number of rings (size 3 to 8) (size 9 to 14) (size 15 to 20)
#    0.000    2.000    1.667    1.500    9.333    1.333 
#    0.000    8.333    0.000    1.000    0.000    0.000 
#    0.000    0.000    0.000    0.000    0.000    0.000 
#
# Total GULP energy -594898.795390 kJ/mol
# GULP energy per Si atom -12393.724904 kJ/mol
# Density = 1.975179 g / cm^3
# Si number density = 19.796846 Si / 1000 Ang^3
#
#
#
# Elastic Constant Matrix: (Units=GPa)
#
#
# Indices 1 2 3 4 5 6 
#
# 1 114.5280 41.2439 44.6426 0.0000 0.0000 0.0000
# 2 41.2439 50.9914 28.5635 0.0000 0.0000 0.0000
# 3 44.6426 28.5635 110.2010 0.0000 0.0000 0.0000
# 4 0.0000 0.0000 0.0000 19.1908 0.0000 0.0000
# 5 0.0000 0.0000 0.0000 0.0000 22.3523 0.0000
# 6 0.0000 0.0000 0.0000 0.0000 0.0000 20.4751
#
#
#
# Elastic Compliance Matrix: (Units=1/GPa)
#
#
# Indices 1 2 3 4 5 6 
#
# 1 0.013116 -0.008929 -0.002999 0.000000 0.000000 0.000000
# 2 -0.008929 0.029020 -0.003905 0.000000 0.000000 0.000000
# 3 -0.002999 -0.003905 0.011301 0.000000 0.000000 0.000000
# 4 0.000000 0.000000 0.000000 0.052108 0.000000 0.000000
# 5 0.000000 0.000000 0.000000 0.000000 0.044738 0.000000
# 6 0.000000 0.000000 0.000000 0.000000 0.000000 0.048840
#
#
# Mechanical properties :
#
#
# Convention : Reuss Voigt Hill
#
# Bulk Modulus (GPa) = 45.92962 56.06894 50.99928
# Shear Modulus (GPa) = 21.00429 23.15501 22.07965
#
# Velocity S-wave (km/s) = 3.26082 3.42370 3.34325
# Velocity P-wave (km/s) = 6.11785 6.63420 6.38125
#
# Compressibility (1/GPa) = 0.02177244
#
# Stress axis : x y z
#
# Youngs Moduli (GPa) = 76.24329 34.45849 88.48499
#
# Poissons Ratio (x) = 0.30767 0.26537
# Poissons Ratio (y) = 0.68076 0.34552
# Poissons Ratio (z) = 0.22865 0.13456
#
# Static dielectric constant tensor:
#      x y z
#    x 3.792330 0.000000 0.000000 
#    y 0.000000 3.336320 0.000000 
#    z 0.000000 0.000000 3.635120 
# 
# 
# High freq. dielectric constant tensor:
#      x y z
#    x 1.783600 0.000000 0.000000 
#    y 0.000000 1.738140 0.000000 
#    z 0.000000 0.000000 1.768670 
# 
# From -- ./inp_files/31892.got.cif
#   From: 2010.06.25/outbox.cif.g09.slc.cpg/sg58_16_cif.got.tgz:31892.got - 2010.06.26 21:38:00.
