data_PCOD8236874
_publ_section_title
;
Structure prediction by ZEFSAII (Michael W. Deem and Ramdas Pophale) SiO2 
 PCOD8236874
Probable space group: P N N M
;
_chemical_formula_sum "Si O2"
_cell_formula_units_Z 52
_cell_length_a 12.215203
_cell_length_b 13.249928
_cell_length_c 17.406947
_cell_angle_alpha 90.000000
_cell_angle_beta 90.000000
_cell_angle_gamma 90.000000
_cell_volume 2817.324124
_symmetry_space_group_name_H-M "P N N M"
_symmetry_group_IT_number 58
_symmetry_cell_setting 'orthorhombic'
loop_
_space_group_symop_operation_xyz
x,y,z
-x,-y,z
1/2+x,1/2-y,1/2-z
1/2-x,1/2+y,1/2-z
-x,-y,-z
x,y,-z
1/2-x,1/2+y,1/2+z
1/2+x,1/2-y,1/2+z
loop_
_atom_site_type_symbol
_atom_site_label
_atom_site_fract_x
_atom_site_fract_y
_atom_site_fract_z
Si Si1 0.688231 0.624426 0.766441
Si Si2 0.472298 0.382580 0.500000
Si Si3 0.718277 0.123119 0.000000
Si Si4 0.484571 0.618103 0.337005
Si Si5 0.605783 0.926655 0.000000
Si Si6 0.357264 0.789538 0.841932
Si Si7 0.609695 0.809457 0.158834
Si Si8 0.217310 0.104044 0.264401
O O1 0.588144 0.656558 0.711122
O O2 0.799996 0.637350 0.719587
O O3 0.675689 0.701886 0.838175
O O4 0.689014 0.508361 0.794006
O O5 0.500000 0.500000 0.500000
O O6 0.344911 0.355102 0.500000
O O7 0.519391 0.331837 0.422186
O O8 0.656627 0.169923 0.927390
O O9 0.708955 0.001560 0.000000
O O10 0.500000 0.500000 0.347797
O O11 0.370468 0.643643 0.297718
O O12 0.614737 0.856421 0.925610
O O13 0.500000 0.000000 0.000000
O O14 0.484266 0.788858 0.819289
O O15 0.300222 0.678562 0.836794
O O16 0.664485 0.884350 0.222846
#
# Coordination Sequence:
#
# PCOD8236874 Si02
#       8
#     8   4   4   8   4   8   8   8
#     4  10  20  37  56  78 114 148 189 241 275 342
#     4  10  20  30  54  83 106 141 177 230 283 339
#     4  12  22  36  55  82 120 143 185 236 295 342
#     4   9  17  31  51  78 105 138 176 226 282 322
#     4  12  24  36  55  83 117 155 176 241 291 349
#     4  11  21  36  56  86 112 149 194 234 287 347
#     4  11  23  36  56  85 115 151 196 231 290 349
#     4  10  22  36  59  80 114 152 191 238 289 337
#
# _framework density 18.457231
#
# number of rings (size 3 to 8) (size 9 to 14) (size 15 to 20)
#    0.000    1.538    4.615    0.923    4.308    0.000 
#    0.000    0.769    0.000    1.846    0.000    0.000 
#    0.000    7.692    0.000    0.000    0.000    0.000 
#
# Total GULP energy -644442.481591 kJ/mol
# GULP energy per Si atom -12393.124646 kJ/mol
# Density = 1.841522 g / cm^3
# Si number density = 18.457231 Si / 1000 Ang^3
#
#
#
# Elastic Constant Matrix: (Units=GPa)
#
#
# Indices 1 2 3 4 5 6 
#
# 1 84.6193 24.1961 24.4636 0.0000 0.0000 0.0000
# 2 24.1961 111.4550 51.3624 0.0000 0.0000 0.0000
# 3 24.4636 51.3624 88.9585 0.0000 0.0000 0.0000
# 4 0.0000 0.0000 0.0000 23.5644 0.0000 0.0000
# 5 0.0000 0.0000 0.0000 0.0000 11.9871 0.0000
# 6 0.0000 0.0000 0.0000 0.0000 0.0000 22.4691
#
#
#
# Elastic Compliance Matrix: (Units=1/GPa)
#
#
# Indices 1 2 3 4 5 6 
#
# 1 0.013046 -0.001606 -0.002660 0.000000 0.000000 0.000000
# 2 -0.001606 0.012423 -0.006731 0.000000 0.000000 0.000000
# 3 -0.002660 -0.006731 0.015859 0.000000 0.000000 0.000000
# 4 0.000000 0.000000 0.000000 0.042437 0.000000 0.000000
# 5 0.000000 0.000000 0.000000 0.000000 0.083423 0.000000
# 6 0.000000 0.000000 0.000000 0.000000 0.000000 0.044506
#
#
# Mechanical properties :
#
#
# Convention : Reuss Voigt Hill
#
# Bulk Modulus (GPa) = 51.72494 53.89744 52.81119
# Shear Modulus (GPa) = 20.82186 23.93818 22.38002
#
# Velocity S-wave (km/s) = 3.36238 3.60523 3.48592
# Velocity P-wave (km/s) = 6.56957 6.82605 6.69903
#
# Compressibility (1/GPa) = 0.01933303
#
# Stress axis : x y z
#
# Youngs Moduli (GPa) = 76.65176 80.49742 63.05576
#
# Poissons Ratio (x) = 0.12930 0.16774
# Poissons Ratio (y) = 0.12312 0.42442
# Poissons Ratio (z) = 0.20391 0.54182
#
# Static dielectric constant tensor:
#      x y z
#    x 3.553750 0.000000 0.000000 
#    y 0.000000 3.380790 0.000000 
#    z 0.000000 0.000000 3.564940 
# 
# 
# High freq. dielectric constant tensor:
#      x y z
#    x 1.730900 0.000000 0.000000 
#    y 0.000000 1.699510 0.000000 
#    z 0.000000 0.000000 1.698730 
# 
# From -- ./inp_files/26303.got.cif
#   From: 2010.06.25/outbox.cif.g09.slc.cpg/sg58_14_cif.got.tgz:26303.got - 2010.06.26 21:38:00.
