data_PCOD8236527
_publ_section_title
;
Structure prediction by ZEFSAII (Michael W. Deem and Ramdas Pophale) SiO2 
 PCOD8236527
Probable space group: P N N M
;
_chemical_formula_sum "Si O2"
_cell_formula_units_Z 64
_cell_length_a 12.944200
_cell_length_b 27.737208
_cell_length_c 8.788530
_cell_angle_alpha 90.000000
_cell_angle_beta 90.000000
_cell_angle_gamma 90.000000
_cell_volume 3155.398374
_symmetry_space_group_name_H-M "P N N M"
_symmetry_group_IT_number 58
_symmetry_cell_setting 'orthorhombic'
loop_
_space_group_symop_operation_xyz
x,y,z
-x,-y,z
1/2+x,1/2-y,1/2-z
1/2-x,1/2+y,1/2-z
-x,-y,-z
x,y,-z
1/2-x,1/2+y,1/2+z
1/2+x,1/2-y,1/2+z
loop_
_atom_site_type_symbol
_atom_site_label
_atom_site_fract_x
_atom_site_fract_y
_atom_site_fract_z
Si Si1 0.952526 0.050185 0.324382
Si Si2 0.842342 0.691211 0.678834
Si Si3 0.133511 0.122770 0.676523
Si Si4 0.220675 0.210527 0.180235
Si Si5 0.932239 0.337063 0.679107
Si Si6 0.317027 0.070988 0.823716
Si Si7 0.747760 0.090119 0.824272
Si Si8 0.108846 0.481475 0.822736
O O1 0.930450 0.040527 0.500000
O O2 0.844142 0.064305 0.252663
O O3 0.024554 0.096667 0.297977
O O4 0.000000 0.000000 0.255471
O O5 0.846804 0.703736 0.500000
O O6 0.795821 0.734412 0.775539
O O7 0.763857 0.646877 0.708663
O O8 0.957355 0.679855 0.744961
O O9 0.167623 0.118705 0.500000
O O10 0.133733 0.178719 0.730208
O O11 0.211015 0.098109 0.793665
O O12 0.336214 0.195741 0.236574
O O13 0.207689 0.203261 0.000000
O O14 0.937771 0.332834 0.500000
O O15 0.910730 0.392960 0.723464
O O16 0.312292 0.024497 0.715959
O O17 0.323822 0.055841 0.000000
O O18 0.641988 0.066648 0.763462
O O19 0.757852 0.079333 0.000000
O O20 0.000000 0.500000 0.757575
O O21 0.105291 0.470488 0.000000
#
# Coordination Sequence:
#
# PCOD8236527 Si02
#       8
#     8   8   8   8   8   8   8   8
#     4  10  22  40  61  85 119 162 201 239 290 358
#     4  10  21  39  59  81 112 149 189 235 293 353
#     4  10  20  36  59  85 114 151 192 236 288 346
#     4  10  21  37  58  85 113 148 197 247 292 344
#     4   8  17  35  57  79 108 145 182 224 280 344
#     4  10  19  34  58  85 112 143 184 235 282 330
#     4  11  24  39  59  87 117 150 191 244 298 350
#     4  11  23  37  55  81 114 151 189 229 276 337
#
# _framework density 20.282700999999999
#
# number of rings (size 3 to 8) (size 9 to 14) (size 15 to 20)
#    0.000    2.000    0.000    4.125    0.000    6.250 
#    0.000    7.500    0.000    0.000    0.000    0.000 
#    0.000    0.000    0.000    0.000    0.000    0.000 
#
# Total GULP energy -793436.064980 kJ/mol
# GULP energy per Si atom -12397.438515 kJ/mol
# Density = 2.023654 g / cm^3
# Si number density = 20.282701 Si / 1000 Ang^3
#
#
#
# Elastic Constant Matrix: (Units=GPa)
#
#
# Indices 1 2 3 4 5 6 
#
# 1 88.4368 33.6435 34.0850 0.0000 0.0000 0.0000
# 2 33.6435 103.1431 38.7555 0.0000 0.0000 0.0000
# 3 34.0850 38.7555 40.4062 0.0000 0.0000 0.0000
# 4 0.0000 0.0000 0.0000 32.8924 0.0000 0.0000
# 5 0.0000 0.0000 0.0000 0.0000 26.1148 0.0000
# 6 0.0000 0.0000 0.0000 0.0000 0.0000 28.1561
#
#
#
# Elastic Compliance Matrix: (Units=1/GPa)
#
#
# Indices 1 2 3 4 5 6 
#
# 1 0.016759 -0.000242 -0.013905 0.000000 0.000000 0.000000
# 2 -0.000242 0.015162 -0.014338 0.000000 0.000000 0.000000
# 3 -0.013905 -0.014338 0.050231 0.000000 0.000000 0.000000
# 4 0.000000 0.000000 0.000000 0.030402 0.000000 0.000000
# 5 0.000000 0.000000 0.000000 0.000000 0.038292 0.000000
# 6 0.000000 0.000000 0.000000 0.000000 0.000000 0.035516
#
#
# Mechanical properties :
#
#
# Convention : Reuss Voigt Hill
#
# Bulk Modulus (GPa) = 39.71241 49.43933 44.57587
# Shear Modulus (GPa) = 19.86280 25.79948 22.83114
#
# Velocity S-wave (km/s) = 3.13277 3.57037 3.35870
# Velocity P-wave (km/s) = 5.71906 6.43621 6.08820
#
# Compressibility (1/GPa) = 0.02518105
#
# Stress axis : x y z
#
# Youngs Moduli (GPa) = 59.67045 65.95579 19.90792
#
# Poissons Ratio (x) = 0.01593 0.27682
# Poissons Ratio (y) = 0.01441 0.28545
# Poissons Ratio (z) = 0.82973 0.94571
#
# Static dielectric constant tensor:
#      x y z
#    x 3.801580 0.000000 0.000000 
#    y 0.000000 3.939040 0.000000 
#    z 0.000000 0.000000 3.490400 
# 
# 
# High freq. dielectric constant tensor:
#      x y z
#    x 1.788830 0.000000 0.000000 
#    y 0.000000 1.801330 0.000000 
#    z 0.000000 0.000000 1.780990 
# 
# From -- ./inp_files/4636.got.cif
#   From: 2010.06.25/outbox.cif.g09.slc.cpg/sg58_3_cif.got.tgz:4636.got - 2010.06.26 21:38:00.
