data_PCOD8236628
_publ_section_title
;
Structure prediction by ZEFSAII (Michael W. Deem and Ramdas Pophale) SiO2 
 PCOD8236628
Probable space group: P N N M
;
_chemical_formula_sum "Si O2"
_cell_formula_units_Z 64
_cell_length_a 23.751217
_cell_length_b 15.081269
_cell_length_c 8.955131
_cell_angle_alpha 90.000000
_cell_angle_beta 90.000000
_cell_angle_gamma 90.000000
_cell_volume 3207.714426
_symmetry_space_group_name_H-M "P N N M"
_symmetry_group_IT_number 58
_symmetry_cell_setting 'orthorhombic'
loop_
_space_group_symop_operation_xyz
x,y,z
-x,-y,z
1/2+x,1/2-y,1/2-z
1/2-x,1/2+y,1/2-z
-x,-y,-z
x,y,-z
1/2-x,1/2+y,1/2+z
1/2+x,1/2-y,1/2+z
loop_
_atom_site_type_symbol
_atom_site_label
_atom_site_fract_x
_atom_site_fract_y
_atom_site_fract_z
Si Si1 0.470660 0.591210 0.832311
Si Si2 0.248547 0.575124 0.176723
Si Si3 0.753077 0.723092 0.322822
Si Si4 0.045986 0.425703 0.823994
Si Si5 0.630233 0.681434 0.323754
Si Si6 0.832264 0.561376 0.321842
Si Si7 0.363752 0.491784 0.168164
Si Si8 0.982858 0.255746 0.175399
O O1 0.500000 0.500000 0.786094
O O2 0.403435 0.577963 0.823831
O O3 0.485438 0.666066 0.715382
O O4 0.489261 0.619176 0.000000
O O5 0.262851 0.675572 0.230011
O O6 0.196350 0.528867 0.260237
O O7 0.302201 0.517841 0.224061
O O8 0.236349 0.574343 0.000000
O O9 0.752486 0.717741 0.500000
O O10 0.691510 0.700691 0.254941
O O11 0.799288 0.651032 0.264763
O O12 0.104226 0.439452 0.737725
O O13 0.000000 0.500000 0.788270
O O14 0.017137 0.337419 0.756215
O O15 0.059429 0.420962 0.000000
O O16 0.633472 0.683454 0.500000
O O17 0.610558 0.584505 0.271919
O O18 0.582428 0.751344 0.268503
O O19 0.832570 0.557802 0.500000
O O20 0.361549 0.454866 0.000000
O O21 0.982753 0.267698 0.000000
#
# Coordination Sequence:
#
# PCOD8236628 Si02
#       8
#     8   8   8   8   8   8   8   8
#     4  10  20  34  53  80 118 158 189 228 290 358
#     4  10  21  38  62  85 114 159 202 237 289 359
#     4   9  20  37  60  87 116 155 194 236 296 360
#     4  10  24  45  66  86 115 160 210 253 297 353
#     4  10  19  35  58  82 114 150 193 244 296 348
#     4  11  23  41  64  93 125 154 196 252 306 355
#     4  10  20  34  54  83 116 152 194 231 284 354
#     4  10  22  37  58  87 112 150 203 248 290 343
#
# _framework density 19.951900999999999
#
# number of rings (size 3 to 8) (size 9 to 14) (size 15 to 20)
#    0.000    2.000    2.500    0.375    3.500    1.500 
#    0.000    1.875    0.000    0.000    0.000    0.000 
#    0.000    0.000    0.000    0.000    0.000    0.000 
#
# Total GULP energy -793239.954809 kJ/mol
# GULP energy per Si atom -12394.374294 kJ/mol
# Density = 1.990649 g / cm^3
# Si number density = 19.951901 Si / 1000 Ang^3
#
#
#
# Elastic Constant Matrix: (Units=GPa)
#
#
# Indices 1 2 3 4 5 6 
#
# 1 143.6667 48.8256 32.6833 0.0000 0.0000 0.0000
# 2 48.8256 102.7816 21.4340 0.0000 0.0000 0.0000
# 3 32.6833 21.4340 24.2055 0.0000 0.0000 0.0000
# 4 0.0000 0.0000 0.0000 19.0570 0.0000 0.0000
# 5 0.0000 0.0000 0.0000 0.0000 21.0826 0.0000
# 6 0.0000 0.0000 0.0000 0.0000 0.0000 30.7320
#
#
#
# Elastic Compliance Matrix: (Units=1/GPa)
#
#
# Indices 1 2 3 4 5 6 
#
# 1 0.010547 -0.002502 -0.012024 0.000000 0.000000 0.000000
# 2 -0.002502 0.012527 -0.007713 0.000000 0.000000 0.000000
# 3 -0.012024 -0.007713 0.064379 0.000000 0.000000 0.000000
# 4 0.000000 0.000000 0.000000 0.052474 0.000000 0.000000
# 5 0.000000 0.000000 0.000000 0.000000 0.047433 0.000000
# 6 0.000000 0.000000 0.000000 0.000000 0.000000 0.032539
#
#
# Mechanical properties :
#
#
# Convention : Reuss Voigt Hill
#
# Bulk Modulus (GPa) = 23.27115 52.94883 38.10999
# Shear Modulus (GPa) = 17.94024 25.35504 21.64764
#
# Velocity S-wave (km/s) = 3.00188 3.56871 3.29749
# Velocity P-wave (km/s) = 4.86867 6.60127 5.80003
#
# Compressibility (1/GPa) = 0.04297167
#
# Stress axis : x y z
#
# Youngs Moduli (GPa) = 94.81812 79.82942 15.53299
#
# Poissons Ratio (x) = 0.19977 0.18677
# Poissons Ratio (y) = 0.23728 0.11981
# Poissons Ratio (z) = 1.14013 0.61576
#
# Static dielectric constant tensor:
#      x y z
#    x 3.970120 0.000000 0.000000 
#    y 0.000000 3.730890 0.000000 
#    z 0.000000 0.000000 3.322480 
# 
# 
# High freq. dielectric constant tensor:
#      x y z
#    x 1.796350 0.000000 0.000000 
#    y 0.000000 1.778220 0.000000 
#    z 0.000000 0.000000 1.747970 
# 
# From -- ./inp_files/10076.got.cif
#   From: 2010.06.25/outbox.cif.g09.slc.cpg/sg58_6_cif.got.tgz:10076.got - 2010.06.26 21:38:00.
