data_PCOD8236034
_publ_section_title
;
Structure prediction by ZEFSAII (Michael W. Deem and Ramdas Pophale) SiO2 
 PCOD8236034
Probable space group: P N N M
;
_chemical_formula_sum "Si O2"
_cell_formula_units_Z 56
_cell_length_a 22.629841
_cell_length_b 14.230469
_cell_length_c 9.004087
_cell_angle_alpha 90.000000
_cell_angle_beta 90.000000
_cell_angle_gamma 90.000000
_cell_volume 2899.615407
_symmetry_space_group_name_H-M "P N N M"
_symmetry_group_IT_number 58
_symmetry_cell_setting 'orthorhombic'
loop_
_space_group_symop_operation_xyz
x,y,z
-x,-y,z
1/2+x,1/2-y,1/2-z
1/2-x,1/2+y,1/2-z
-x,-y,-z
x,y,-z
1/2-x,1/2+y,1/2+z
1/2+x,1/2-y,1/2+z
loop_
_atom_site_type_symbol
_atom_site_label
_atom_site_fract_x
_atom_site_fract_y
_atom_site_fract_z
Si Si1 0.281291 0.114725 0.329621
Si Si2 0.114500 0.720203 0.324303
Si Si3 0.655566 0.605827 0.327031
Si Si4 0.395043 0.793620 0.669842
Si Si5 0.001405 0.606203 0.324076
Si Si6 0.276901 0.899012 0.669721
Si Si7 0.838690 0.894596 0.170273
O O1 0.287537 0.146669 0.500000
O O2 0.324934 0.174221 0.228741
O O3 0.214926 0.133983 0.276444
O O4 0.297427 0.005895 0.308688
O O5 0.113694 0.726266 0.500000
O O6 0.110260 0.825528 0.258137
O O7 0.059733 0.658657 0.263932
O O8 0.651082 0.627612 0.500000
O O9 0.722486 0.626368 0.275552
O O10 0.637357 0.498450 0.289134
O O11 0.409845 0.819938 0.500000
O O12 0.444674 0.835863 0.773999
O O13 0.331684 0.834853 0.716556
O O14 0.391419 0.680667 0.692225
O O15 0.001372 0.603175 0.500000
O O16 0.000000 0.500000 0.259635
O O17 0.257173 0.880149 0.500000
O O18 0.815812 0.893310 0.000000
#
# Coordination Sequence:
#
# PCOD8236034 Si02
#       7
#     8   8   8   8   8   8   8
#     4  10  19  31  52  83 113 142 177 215 259 316
#     4  11  22  36  54  75 104 142 179 221 272 316
#     4  10  20  34  54  80 109 142 180 219 260 313
#     4  10  20  35  56  79 105 140 177 215 262 313
#     4  10  23  41  58  78 104 135 174 219 266 317
#     4   9  18  32  52  82 116 143 170 211 265 320
#     4   9  19  35  54  80 113 144 174 214 266 317
#
# _framework density 19.312906000000002
#
# number of rings (size 3 to 8) (size 9 to 14) (size 15 to 20)
#    0.000    2.143    0.000    3.000    0.000    4.857 
#    0.000    0.714    0.000    4.286    0.000    0.000 
#    0.000    0.000    0.000    0.000    0.000    0.000 
#
# Total GULP energy -694533.094630 kJ/mol
# GULP energy per Si atom -12402.376690 kJ/mol
# Density = 1.926895 g / cm^3
# Si number density = 19.312906 Si / 1000 Ang^3
#
#
#
# Elastic Constant Matrix: (Units=GPa)
#
#
# Indices 1 2 3 4 5 6 
#
# 1 61.4703 64.3046 26.5323 0.0000 0.0000 0.0000
# 2 64.3046 136.1906 35.8143 0.0000 0.0000 0.0000
# 3 26.5323 35.8143 53.2014 0.0000 0.0000 0.0000
# 4 0.0000 0.0000 0.0000 31.5802 0.0000 0.0000
# 5 0.0000 0.0000 0.0000 0.0000 30.4448 0.0000
# 6 0.0000 0.0000 0.0000 0.0000 0.0000 31.4677
#
#
#
# Elastic Compliance Matrix: (Units=1/GPa)
#
#
# Indices 1 2 3 4 5 6 
#
# 1 0.034491 -0.014292 -0.007580 0.000000 0.000000 0.000000
# 2 -0.014292 0.014844 -0.002865 0.000000 0.000000 0.000000
# 3 -0.007580 -0.002865 0.024506 0.000000 0.000000 0.000000
# 4 0.000000 0.000000 0.000000 0.031665 0.000000 0.000000
# 5 0.000000 0.000000 0.000000 0.000000 0.032846 0.000000
# 6 0.000000 0.000000 0.000000 0.000000 0.000000 0.031779
#
#
# Mechanical properties :
#
#
# Convention : Reuss Voigt Hill
#
# Bulk Modulus (GPa) = 41.04042 56.01828 48.52935
# Shear Modulus (GPa) = 21.95605 26.97929 24.46767
#
# Velocity S-wave (km/s) = 3.37539 3.74164 3.56323
# Velocity P-wave (km/s) = 6.04048 6.90906 6.48932
#
# Compressibility (1/GPa) = 0.02436622
#
# Stress axis : x y z
#
# Youngs Moduli (GPa) = 28.99325 67.36551 40.80709
#
# Poissons Ratio (x) = 0.96279 0.30931
# Poissons Ratio (y) = 0.41437 0.11693
# Poissons Ratio (z) = 0.21976 0.19302
#
# Static dielectric constant tensor:
#      x y z
#    x 3.294970 0.000000 0.000000 
#    y 0.000000 3.963640 0.000000 
#    z 0.000000 0.000000 3.479830 
# 
# 
# High freq. dielectric constant tensor:
#      x y z
#    x 1.722250 0.000000 0.000000 
#    y 0.000000 1.773320 0.000000 
#    z 0.000000 0.000000 1.749680 
# 
# From -- ./inp_files/6368.got.cif
#   From: 2010.06.25/outbox.cif.g09.slc.cpg/sg58_4_cif.got.tgz:6368.got - 2010.06.26 21:38:00.
