data_PCOD8236061
_publ_section_title
;
Structure prediction by ZEFSAII (Michael W. Deem and Ramdas Pophale) SiO2 
 PCOD8236061
Probable space group: P N N M
;
_chemical_formula_sum "Si O2"
_cell_formula_units_Z 64
_cell_length_a 29.519095
_cell_length_b 12.799930
_cell_length_c 9.301559
_cell_angle_alpha 90.000000
_cell_angle_beta 90.000000
_cell_angle_gamma 90.000000
_cell_volume 3514.522908
_symmetry_space_group_name_H-M "P N N M"
_symmetry_group_IT_number 58
_symmetry_cell_setting 'orthorhombic'
loop_
_space_group_symop_operation_xyz
x,y,z
-x,-y,z
1/2+x,1/2-y,1/2-z
1/2-x,1/2+y,1/2-z
-x,-y,-z
x,y,-z
1/2-x,1/2+y,1/2+z
1/2+x,1/2-y,1/2+z
loop_
_atom_site_type_symbol
_atom_site_label
_atom_site_fract_x
_atom_site_fract_y
_atom_site_fract_z
Si Si1 0.860202 0.489057 0.829991
Si Si2 0.710750 0.306174 0.343576
Si Si3 0.742707 0.974890 0.329311
Si Si4 0.377009 0.216098 0.828449
Si Si5 0.447129 0.391464 0.830274
Si Si6 0.208096 0.835764 0.343158
Si Si7 0.049695 0.124571 0.670362
Si Si8 0.614549 0.220918 0.331217
O O1 0.808324 0.493799 0.773415
O O2 0.886094 0.394726 0.748630
O O3 0.884960 0.597966 0.790105
O O4 0.861985 0.468306 0.000000
O O5 0.706808 0.363505 0.500000
O O6 0.738680 0.365702 0.223138
O O7 0.741116 0.204836 0.366216
O O8 0.661951 0.272866 0.285369
O O9 0.743397 0.980497 0.500000
O O10 0.780478 0.055479 0.262987
O O11 0.413479 0.301557 0.773560
O O12 0.328283 0.259101 0.768525
O O13 0.378467 0.197730 0.000000
O O14 0.497728 0.365325 0.778027
O O15 0.432434 0.509011 0.780560
O O16 0.446803 0.392248 0.000000
O O17 0.185878 0.857998 0.500000
O O18 0.054664 0.138661 0.500000
O O19 0.075791 0.218738 0.746197
O O20 0.606205 0.233853 0.500000
#
# Coordination Sequence:
#
# PCOD8236061 Si02
#       8
#     8   8   8   8   8   8   8   8
#     4  10  20  35  51  71 106 144 175 212 255 299
#     4  10  19  33  49  70 101 136 171 209 250 296
#     4  10  19  32  49  70  99 137 175 211 253 300
#     4  10  19  33  55  78 101 134 175 211 253 311
#     4   8  17  35  58  83 107 130 161 215 272 308
#     4   9  17  30  49  71  98 134 170 203 249 304
#     4   9  18  36  60  82 104 130 168 215 262 312
#     4  10  21  36  53  75 107 143 174 209 260 310
#
# _framework density 18.210152000000001
#
# number of rings (size 3 to 8) (size 9 to 14) (size 15 to 20)
#    0.000    2.500    2.500    0.750    1.750    1.000 
#    0.000    4.375    0.000    3.750    0.000    0.000 
#    0.000    0.000    0.000    0.000    0.000    0.000 
#
# Total GULP energy -792847.339687 kJ/mol
# GULP energy per Si atom -12388.239683 kJ/mol
# Density = 1.816871 g / cm^3
# Si number density = 18.210152 Si / 1000 Ang^3
#
#
#
# Elastic Constant Matrix: (Units=GPa)
#
#
# Indices 1 2 3 4 5 6 
#
# 1 88.8199 61.3483 24.3857 0.0000 0.0000 0.0000
# 2 61.3483 135.5383 42.4557 0.0000 0.0000 0.0000
# 3 24.3857 42.4557 30.3904 0.0000 0.0000 0.0000
# 4 0.0000 0.0000 0.0000 24.7866 0.0000 0.0000
# 5 0.0000 0.0000 0.0000 0.0000 22.9226 0.0000
# 6 0.0000 0.0000 0.0000 0.0000 0.0000 35.2800
#
#
#
# Elastic Compliance Matrix: (Units=1/GPa)
#
#
# Indices 1 2 3 4 5 6 
#
# 1 0.016810 -0.006016 -0.005084 0.000000 0.000000 0.000000
# 2 -0.006016 0.015272 -0.016507 0.000000 0.000000 0.000000
# 3 -0.005084 -0.016507 0.060046 0.000000 0.000000 0.000000
# 4 0.000000 0.000000 0.000000 0.040344 0.000000 0.000000
# 5 0.000000 0.000000 0.000000 0.000000 0.043625 0.000000
# 6 0.000000 0.000000 0.000000 0.000000 0.000000 0.028345
#
#
# Mechanical properties :
#
#
# Convention : Reuss Voigt Hill
#
# Bulk Modulus (GPa) = 27.09119 56.79200 41.94160
# Shear Modulus (GPa) = 18.38502 25.03510 21.71006
#
# Velocity S-wave (km/s) = 3.18087 3.71184 3.45656
# Velocity P-wave (km/s) = 5.32915 7.04450 6.24599
#
# Compressibility (1/GPa) = 0.03691237
#
# Stress axis : x y z
#
# Youngs Moduli (GPa) = 59.48873 65.48005 16.65401
#
# Poissons Ratio (x) = 0.39394 0.08467
# Poissons Ratio (y) = 0.35789 0.27492
# Poissons Ratio (z) = 0.30243 1.08091
#
# Static dielectric constant tensor:
#      x y z
#    x 3.440520 0.000000 0.000000 
#    y 0.000000 3.524300 0.000000 
#    z 0.000000 0.000000 3.008080 
# 
# 
# High freq. dielectric constant tensor:
#      x y z
#    x 1.697780 0.000000 0.000000 
#    y 0.000000 1.714600 0.000000 
#    z 0.000000 0.000000 1.668790 
# 
# From -- ./inp_files/10983.got.cif
#   From: 2010.06.25/outbox.cif.g09.slc.cpg/sg58_6_cif.got.tgz:10983.got - 2010.06.26 21:38:00.
