data_PCOD8236150
_publ_section_title
;
Structure prediction by ZEFSAII (Michael W. Deem and Ramdas Pophale) SiO2 
 PCOD8236150
Probable space group: P N N M
;
_chemical_formula_sum "Si O2"
_cell_formula_units_Z 64
_cell_length_a 24.234216
_cell_length_b 14.454178
_cell_length_c 9.042740
_cell_angle_alpha 90.000000
_cell_angle_beta 90.000000
_cell_angle_gamma 90.000000
_cell_volume 3167.542255
_symmetry_space_group_name_H-M "P N N M"
_symmetry_group_IT_number 58
_symmetry_cell_setting 'orthorhombic'
loop_
_space_group_symop_operation_xyz
x,y,z
-x,-y,z
1/2+x,1/2-y,1/2-z
1/2-x,1/2+y,1/2-z
-x,-y,-z
x,y,-z
1/2-x,1/2+y,1/2+z
1/2+x,1/2-y,1/2+z
loop_
_atom_site_type_symbol
_atom_site_label
_atom_site_fract_x
_atom_site_fract_y
_atom_site_fract_z
Si Si1 0.663465 0.492185 0.331211
Si Si2 0.245324 0.650647 0.674513
Si Si3 0.949436 0.562509 0.825345
Si Si4 0.943986 0.947820 0.674468
Si Si5 0.586814 0.751269 0.167347
Si Si6 0.804941 0.191079 0.169824
Si Si7 0.865936 0.445217 0.334120
Si Si8 0.476346 0.731083 0.674797
O O1 0.643085 0.482570 0.500000
O O2 0.698673 0.402428 0.284030
O O3 0.609627 0.504671 0.228656
O O4 0.704456 0.580788 0.316981
O O5 0.240040 0.669803 0.500000
O O6 0.245452 0.749028 0.761171
O O7 0.192903 0.589627 0.728577
O O8 0.890730 0.527227 0.764555
O O9 0.955890 0.668240 0.772817
O O10 0.000000 0.500000 0.764023
O O11 0.947715 0.555557 0.000000
O O12 0.941938 0.935794 0.500000
O O13 0.938864 0.847368 0.750664
O O14 0.000000 0.000000 0.724105
O O15 0.642322 0.710872 0.231578
O O16 0.589786 0.862127 0.169230
O O17 0.538283 0.714727 0.270324
O O18 0.577707 0.714457 0.000000
O O19 0.814068 0.220991 0.000000
O O20 0.858095 0.483047 0.500000
O O21 0.473918 0.720218 0.500000
#
# Coordination Sequence:
#
# PCOD8236150 Si02
#       8
#     8   8   8   8   8   8   8   8
#     4  10  22  42  65  88 121 158 196 243 300 361
#     4   9  20  40  61  85 118 153 192 243 296 347
#     4  10  20  34  52  80 119 156 194 242 291 347
#     4  11  25  43  63  89 120 153 196 251 305 362
#     4  10  19  32  53  82 116 152 195 243 289 341
#     4  10  20  35  60  90 115 149 196 243 292 349
#     4   9  18  32  53  79 110 153 197 237 286 342
#     4  11  22  36  56  83 118 158 196 238 296 355
#
# _framework density 20.204939
#
# number of rings (size 3 to 8) (size 9 to 14) (size 15 to 20)
#    0.000    2.000    1.250    3.000    0.000    7.750 
#    2.250    0.000    0.000    0.000    0.000    0.000 
#    0.000    0.000    0.000    0.000    0.000    0.000 
#
# Total GULP energy -793592.612628 kJ/mol
# GULP energy per Si atom -12399.884572 kJ/mol
# Density = 2.015895 g / cm^3
# Si number density = 20.204939 Si / 1000 Ang^3
#
#
#
# Elastic Constant Matrix: (Units=GPa)
#
#
# Indices 1 2 3 4 5 6 
#
# 1 76.1926 33.9317 30.4215 0.0000 0.0000 0.0000
# 2 33.9317 110.9264 49.9851 0.0000 0.0000 0.0000
# 3 30.4215 49.9851 65.5619 0.0000 0.0000 0.0000
# 4 0.0000 0.0000 0.0000 32.0032 0.0000 0.0000
# 5 0.0000 0.0000 0.0000 0.0000 26.5437 0.0000
# 6 0.0000 0.0000 0.0000 0.0000 0.0000 29.1789
#
#
#
# Elastic Compliance Matrix: (Units=1/GPa)
#
#
# Indices 1 2 3 4 5 6 
#
# 1 0.016531 -0.002438 -0.005812 0.000000 0.000000 0.000000
# 2 -0.002438 0.014092 -0.009613 0.000000 0.000000 0.000000
# 3 -0.005812 -0.009613 0.025279 0.000000 0.000000 0.000000
# 4 0.000000 0.000000 0.000000 0.031247 0.000000 0.000000
# 5 0.000000 0.000000 0.000000 0.000000 0.037674 0.000000
# 6 0.000000 0.000000 0.000000 0.000000 0.000000 0.034271
#
#
# Mechanical properties :
#
#
# Convention : Reuss Voigt Hill
#
# Bulk Modulus (GPa) = 49.56281 53.48415 51.52348
# Shear Modulus (GPa) = 24.80838 26.76801 25.78820
#
# Velocity S-wave (km/s) = 3.50785 3.64376 3.57645
# Velocity P-wave (km/s) = 6.40234 6.65064 6.52767
#
# Compressibility (1/GPa) = 0.02017642
#
# Stress axis : x y z
#
# Youngs Moduli (GPa) = 60.49320 70.95984 39.55902
#
# Poissons Ratio (x) = 0.17298 0.22991
# Poissons Ratio (y) = 0.14747 0.38029
# Poissons Ratio (z) = 0.35158 0.68215
#
# Static dielectric constant tensor:
#      x y z
#    x 3.482790 0.000000 0.000000 
#    y 0.000000 3.952960 0.000000 
#    z 0.000000 0.000000 3.607080 
# 
# 
# High freq. dielectric constant tensor:
#      x y z
#    x 1.768910 0.000000 0.000000 
#    y 0.000000 1.792750 0.000000 
#    z 0.000000 0.000000 1.786230 
# 
# From -- ./inp_files/9948.got.cif
#   From: 2010.06.25/outbox.cif.g09.slc.cpg/sg58_5_cif.got.tgz:9948.got - 2010.06.26 21:38:00.
