data_PCOD8236817
_publ_section_title
;
Structure prediction by ZEFSAII (Michael W. Deem and Ramdas Pophale) SiO2 
 PCOD8236817
Probable space group: P N N M
;
_chemical_formula_sum "Si O2"
_cell_formula_units_Z 40
_cell_length_a 18.817642
_cell_length_b 12.291679
_cell_length_c 8.841538
_cell_angle_alpha 90.000000
_cell_angle_beta 90.000000
_cell_angle_gamma 90.000000
_cell_volume 2045.051409
_symmetry_space_group_name_H-M "P N N M"
_symmetry_group_IT_number 58
_symmetry_cell_setting 'orthorhombic'
loop_
_space_group_symop_operation_xyz
x,y,z
-x,-y,z
1/2+x,1/2-y,1/2-z
1/2-x,1/2+y,1/2-z
-x,-y,-z
x,y,-z
1/2-x,1/2+y,1/2+z
1/2+x,1/2-y,1/2+z
loop_
_atom_site_type_symbol
_atom_site_label
_atom_site_fract_x
_atom_site_fract_y
_atom_site_fract_z
Si Si1 0.610360 0.823940 0.679414
Si Si2 0.429408 0.569592 0.674214
Si Si3 0.182062 0.894792 0.178997
Si Si4 0.336903 0.960464 0.178064
Si Si5 0.959584 0.706138 0.677167
O O1 0.609026 0.823229 0.500000
O O2 0.649015 0.716381 0.745430
O O3 0.530102 0.828996 0.736670
O O4 0.654417 0.926369 0.736719
O O5 0.500000 0.500000 0.694054
O O6 0.419817 0.605289 0.500000
O O7 0.363589 0.498109 0.734871
O O8 0.432815 0.675135 0.777815
O O9 0.262962 0.907465 0.233427
O O10 0.176582 0.888872 0.000000
O O11 0.399356 0.879199 0.224683
O O12 0.336011 0.983157 0.000000
O O13 0.975010 0.702466 0.500000
#
# Coordination Sequence:
#
# PCOD8236817 Si02
#       5
#     8   8   8   8   8
#     4  11  22  40  64  87 116 155 202 245 288 349
#     4  10  19  37  62  86 115 153 197 243 292 348
#     4   9  20  39  60  83 117 156 190 239 299 351
#     4  10  23  41  59  84 121 159 192 239 303 353
#     4  11  23  38  60  88 121 156 195 244 297 351
#
# _framework density 19.55941
#
# number of rings (size 3 to 8) (size 9 to 14) (size 15 to 20)
#    0.000    1.800    2.000    1.800    2.800    4.400 
#    0.000    2.000    0.000    0.000    0.000    0.000 
#    0.000    0.000    0.000    0.000    0.000    0.000 
#
# Total GULP energy -496153.659716 kJ/mol
# GULP energy per Si atom -12403.841493 kJ/mol
# Density = 1.951489 g / cm^3
# Si number density = 19.559410 Si / 1000 Ang^3
#
#
#
# Elastic Constant Matrix: (Units=GPa)
#
#
# Indices 1 2 3 4 5 6 
#
# 1 153.3347 44.9598 29.9346 0.0000 0.0000 0.0000
# 2 44.9598 85.8706 22.5237 0.0000 0.0000 0.0000
# 3 29.9346 22.5237 37.7706 0.0000 0.0000 0.0000
# 4 0.0000 0.0000 0.0000 36.5274 0.0000 0.0000
# 5 0.0000 0.0000 0.0000 0.0000 23.2948 0.0000
# 6 0.0000 0.0000 0.0000 0.0000 0.0000 35.2013
#
#
#
# Elastic Compliance Matrix: (Units=1/GPa)
#
#
# Indices 1 2 3 4 5 6 
#
# 1 0.008371 -0.003133 -0.004766 0.000000 0.000000 0.000000
# 2 -0.003133 0.014977 -0.006449 0.000000 0.000000 0.000000
# 3 -0.004766 -0.006449 0.034098 0.000000 0.000000 0.000000
# 4 0.000000 0.000000 0.000000 0.027377 0.000000 0.000000
# 5 0.000000 0.000000 0.000000 0.000000 0.042928 0.000000
# 6 0.000000 0.000000 0.000000 0.000000 0.000000 0.028408
#
#
# Mechanical properties :
#
#
# Convention : Reuss Voigt Hill
#
# Bulk Modulus (GPa) = 34.78051 52.42355 43.60203
# Shear Modulus (GPa) = 25.71530 30.97523 28.34526
#
# Velocity S-wave (km/s) = 3.62985 3.98383 3.81095
# Velocity P-wave (km/s) = 5.94881 6.92976 6.45794
#
# Compressibility (1/GPa) = 0.02875174
#
# Stress axis : x y z
#
# Youngs Moduli (GPa) = 119.46543 66.76906 29.32693
#
# Poissons Ratio (x) = 0.20916 0.13977
# Poissons Ratio (y) = 0.37423 0.18912
# Poissons Ratio (z) = 0.56937 0.43057
#
# Static dielectric constant tensor:
#      x y z
#    x 3.826270 0.000000 0.000000 
#    y 0.000000 3.772410 0.000000 
#    z 0.000000 0.000000 3.342030 
# 
# 
# High freq. dielectric constant tensor:
#      x y z
#    x 1.776000 0.000000 0.000000 
#    y 0.000000 1.776270 0.000000 
#    z 0.000000 0.000000 1.740100 
# 
# From -- ./inp_files/3790.got.cif
#   From: 2010.06.25/outbox.cif.g09.slc.cpg/sg58_2_cif.got.tgz:3790.got - 2010.06.26 21:38:00.
