data_PCOD8236958
_publ_section_title
;
Structure prediction by ZEFSAII (Michael W. Deem and Ramdas Pophale) SiO2 
 PCOD8236958
Probable space group: P N N M
;
_chemical_formula_sum "Si O2"
_cell_formula_units_Z 64
_cell_length_a 14.863318
_cell_length_b 25.207753
_cell_length_c 9.200957
_cell_angle_alpha 90.000000
_cell_angle_beta 90.000000
_cell_angle_gamma 90.000000
_cell_volume 3447.330370
_symmetry_space_group_name_H-M "P N N M"
_symmetry_group_IT_number 58
_symmetry_cell_setting 'orthorhombic'
loop_
_space_group_symop_operation_xyz
x,y,z
-x,-y,z
1/2+x,1/2-y,1/2-z
1/2-x,1/2+y,1/2-z
-x,-y,-z
x,y,-z
1/2-x,1/2+y,1/2+z
1/2+x,1/2-y,1/2+z
loop_
_atom_site_type_symbol
_atom_site_label
_atom_site_fract_x
_atom_site_fract_y
_atom_site_fract_z
Si Si1 0.372391 0.659927 0.658103
Si Si2 0.869706 0.089568 0.832312
Si Si3 0.545373 0.426138 0.170901
Si Si4 0.873358 0.718212 0.837185
Si Si5 0.071005 0.694187 0.172070
Si Si6 0.203177 0.017171 0.832588
Si Si7 0.689811 0.705467 0.327618
Si Si8 0.681817 0.887636 0.835467
O O1 0.400788 0.636152 0.500000
O O2 0.428996 0.633986 0.787619
O O3 0.396641 0.720520 0.659211
O O4 0.267147 0.650760 0.682080
O O5 0.846923 0.148262 0.773984
O O6 0.948165 0.062690 0.738348
O O7 0.786396 0.046941 0.815364
O O8 0.899263 0.093169 0.000000
O O9 0.618784 0.465195 0.237261
O O10 0.541120 0.434561 0.000000
O O11 0.790923 0.707880 0.731142
O O12 0.966633 0.693302 0.778762
O O13 0.849587 0.697826 0.000000
O O14 0.126687 0.746162 0.230741
O O15 0.107564 0.638272 0.232129
O O16 0.079055 0.694121 0.000000
O O17 0.291513 0.051795 0.786383
O O18 0.183082 0.032347 0.000000
O O19 0.695794 0.707318 0.500000
O O20 0.644940 0.887554 0.000000
#
# Coordination Sequence:
#
# PCOD8236958 Si02
#       8
#     8   8   8   8   8   8   8   8
#     4   9  17  32  51  70 100 140 176 208 252 311
#     4  10  20  36  54  71 101 143 180 215 263 322
#     4  11  21  30  47  78 110 137 173 221 265 310
#     4  10  20  35  54  76 106 143 177 213 263 320
#     4  10  20  33  52  78 108 138 168 208 265 322
#     4   9  19  35  54  73  98 140 184 218 261 316
#     4  10  21  36  55  80 108 138 176 220 263 313
#     4   9  17  31  52  75  97 127 172 217 252 297
#
# _framework density 18.565090999999999
#
# number of rings (size 3 to 8) (size 9 to 14) (size 15 to 20)
#    0.000    2.250    1.250    3.000    0.000    7.500 
#    0.000    1.250    0.000    0.750    0.000    5.250 
#    0.000    0.000    0.000    0.000    0.000    0.000 
#
# Total GULP energy -792959.599654 kJ/mol
# GULP energy per Si atom -12389.993745 kJ/mol
# Density = 1.852284 g / cm^3
# Si number density = 18.565091 Si / 1000 Ang^3
#
#
#
# Elastic Constant Matrix: (Units=GPa)
#
#
# Indices 1 2 3 4 5 6 
#
# 1 63.7937 5.1726 20.8901 0.0000 0.0000 0.0000
# 2 5.1726 52.6437 12.1054 0.0000 0.0000 0.0000
# 3 20.8901 12.1054 51.4726 0.0000 0.0000 0.0000
# 4 0.0000 0.0000 0.0000 17.9284 0.0000 0.0000
# 5 0.0000 0.0000 0.0000 0.0000 22.0701 0.0000
# 6 0.0000 0.0000 0.0000 0.0000 0.0000 15.9875
#
#
#
# Elastic Compliance Matrix: (Units=1/GPa)
#
#
# Indices 1 2 3 4 5 6 
#
# 1 0.018079 -0.000094 -0.007315 0.000000 0.000000 0.000000
# 2 -0.000094 0.020082 -0.004685 0.000000 0.000000 0.000000
# 3 -0.007315 -0.004685 0.023498 0.000000 0.000000 0.000000
# 4 0.000000 0.000000 0.000000 0.055777 0.000000 0.000000
# 5 0.000000 0.000000 0.000000 0.000000 0.045310 0.000000
# 6 0.000000 0.000000 0.000000 0.000000 0.000000 0.062549
#
#
# Mechanical properties :
#
#
# Convention : Reuss Voigt Hill
#
# Bulk Modulus (GPa) = 26.68719 27.13846 26.91283
# Shear Modulus (GPa) = 19.08587 19.84665 19.46626
#
# Velocity S-wave (km/s) = 3.20980 3.27315 3.24163
# Velocity P-wave (km/s) = 5.30502 5.37907 5.34218
#
# Compressibility (1/GPa) = 0.03747116
#
# Stress axis : x y z
#
# Youngs Moduli (GPa) = 55.31411 49.79548 42.55613
#
# Poissons Ratio (x) = 0.00469 0.31130
# Poissons Ratio (y) = 0.00521 0.19936
# Poissons Ratio (z) = 0.40462 0.23328
#
# Static dielectric constant tensor:
#      x y z
#    x 3.218430 0.000000 0.000000 
#    y 0.000000 3.580160 0.000000 
#    z 0.000000 0.000000 3.330820 
# 
# 
# High freq. dielectric constant tensor:
#      x y z
#    x 1.694630 0.000000 0.000000 
#    y 0.000000 1.722030 0.000000 
#    z 0.000000 0.000000 1.705740 
# 
# From -- ./inp_files/6988.got.cif
#   From: 2010.06.25/outbox.cif.g09.slc.cpg/sg58_4_cif.got.tgz:6988.got - 2010.06.26 21:38:00.
