data_PCOD8236354
_publ_section_title
;
Structure prediction by ZEFSAII (Michael W. Deem and Ramdas Pophale) SiO2 
 PCOD8236354
Probable space group: P N N M
;
_chemical_formula_sum "Si O2"
_cell_formula_units_Z 64
_cell_length_a 13.682145
_cell_length_b 17.348480
_cell_length_c 14.019022
_cell_angle_alpha 90.000000
_cell_angle_beta 90.000000
_cell_angle_gamma 90.000000
_cell_volume 3327.617010
_symmetry_space_group_name_H-M "P N N M"
_symmetry_group_IT_number 58
_symmetry_cell_setting 'orthorhombic'
loop_
_space_group_symop_operation_xyz
x,y,z
-x,-y,z
1/2+x,1/2-y,1/2-z
1/2-x,1/2+y,1/2-z
-x,-y,-z
x,y,-z
1/2-x,1/2+y,1/2+z
1/2+x,1/2-y,1/2+z
loop_
_atom_site_type_symbol
_atom_site_label
_atom_site_fract_x
_atom_site_fract_y
_atom_site_fract_z
Si Si1 0.712738 0.428830 0.388727
Si Si2 0.954460 0.741157 0.270527
Si Si3 0.353472 0.451841 0.111165
Si Si4 0.361493 0.200159 0.112575
Si Si5 0.522893 0.345279 0.393178
Si Si6 0.758466 0.669161 0.781194
Si Si7 0.817945 0.096478 0.893552
Si Si8 0.565675 0.386506 0.111566
O O1 0.689542 0.437044 0.500000
O O2 0.812753 0.383089 0.369406
O O3 0.619059 0.384081 0.346144
O O4 0.721045 0.515741 0.349179
O O5 0.006648 0.774926 0.176077
O O6 0.873905 0.681491 0.231676
O O7 0.903810 0.810035 0.331374
O O8 0.033688 0.697997 0.336248
O O9 0.263842 0.412525 0.167188
O O10 0.451891 0.403769 0.133886
O O11 0.367761 0.540730 0.143947
O O12 0.329851 0.449233 0.000000
O O13 0.290049 0.263864 0.156517
O O14 0.374742 0.217319 0.000000
O O15 0.543020 0.313101 0.500000
O O16 0.435661 0.407144 0.395031
O O17 0.716282 0.666059 0.673851
O O18 0.776742 0.112053 0.000000
O O19 0.580349 0.371587 0.000000
#
# Coordination Sequence:
#
# PCOD8236354 Si02
#       8
#     8   8   8   8   8   8   8   8
#     4   9  19  36  60  84 114 155 198 241 296 360
#     4  12  23  35  56  91 122 160 200 244 304 357
#     4   9  18  34  58  87 115 150 195 248 304 357
#     4  11  22  40  61  87 123 161 204 251 301 364
#     4  10  19  33  56  87 119 150 192 243 298 355
#     4  12  23  34  56  85 121 160 199 243 302 357
#     4  10  21  37  55  82 119 153 193 247 300 353
#     4   9  18  34  58  86 117 150 191 247 310 358
#
# _framework density 19.232982
#
# number of rings (size 3 to 8) (size 9 to 14) (size 15 to 20)
#    0.000    1.750    3.750    1.875    1.750    3.000 
#    0.000    0.625    0.000    2.250    0.000    0.875 
#    0.000    7.000    0.000    0.000    0.000    0.000 
#
# Total GULP energy -793387.433897 kJ/mol
# GULP energy per Si atom -12396.678655 kJ/mol
# Density = 1.918921 g / cm^3
# Si number density = 19.232982 Si / 1000 Ang^3
#
#
#
# Elastic Constant Matrix: (Units=GPa)
#
#
# Indices 1 2 3 4 5 6 
#
# 1 99.6273 51.3565 39.2170 0.0000 0.0000 0.0000
# 2 51.3565 78.5997 43.5693 0.0000 0.0000 0.0000
# 3 39.2170 43.5693 92.7821 0.0000 0.0000 0.0000
# 4 0.0000 0.0000 0.0000 21.6018 0.0000 0.0000
# 5 0.0000 0.0000 0.0000 0.0000 27.1322 0.0000
# 6 0.0000 0.0000 0.0000 0.0000 0.0000 35.7175
#
#
#
# Elastic Compliance Matrix: (Units=1/GPa)
#
#
# Indices 1 2 3 4 5 6 
#
# 1 0.015531 -0.008799 -0.002432 0.000000 0.000000 0.000000
# 2 -0.008799 0.022185 -0.006699 0.000000 0.000000 0.000000
# 3 -0.002432 -0.006699 0.014952 0.000000 0.000000 0.000000
# 4 0.000000 0.000000 0.000000 0.046293 0.000000 0.000000
# 5 0.000000 0.000000 0.000000 0.000000 0.036857 0.000000
# 6 0.000000 0.000000 0.000000 0.000000 0.000000 0.027998
#
#
# Mechanical properties :
#
#
# Convention : Reuss Voigt Hill
#
# Bulk Modulus (GPa) = 59.49946 59.92165 59.71055
# Shear Modulus (GPa) = 24.35722 26.01470 25.18596
#
# Velocity S-wave (km/s) = 3.56255 3.68177 3.62265
# Velocity P-wave (km/s) = 6.92284 7.02120 6.97219
#
# Compressibility (1/GPa) = 0.01680688
#
# Stress axis : x y z
#
# Youngs Moduli (GPa) = 64.38781 45.07482 66.88205
#
# Poissons Ratio (x) = 0.39663 0.16269
# Poissons Ratio (y) = 0.56657 0.44802
# Poissons Ratio (z) = 0.15662 0.30194
#
# Static dielectric constant tensor:
#      x y z
#    x 3.255840 0.000000 0.000000 
#    y 0.000000 3.463190 0.000000 
#    z 0.000000 0.000000 3.669200 
# 
# 
# High freq. dielectric constant tensor:
#      x y z
#    x 1.712320 0.000000 0.000000 
#    y 0.000000 1.729240 0.000000 
#    z 0.000000 0.000000 1.768120 
# 
# From -- ./inp_files/21528.got.cif
#   From: 2010.06.25/outbox.cif.g09.slc.cpg/sg58_11_cif.got.tgz:21528.got - 2010.06.26 21:38:00.
