data_PCOD8236355
_publ_section_title
;
Structure prediction by ZEFSAII (Michael W. Deem and Ramdas Pophale) SiO2 
 PCOD8236355
Probable space group: P N N M
;
_chemical_formula_sum "Si O2"
_cell_formula_units_Z 64
_cell_length_a 19.303261
_cell_length_b 18.956648
_cell_length_c 9.220752
_cell_angle_alpha 90.000000
_cell_angle_beta 90.000000
_cell_angle_gamma 90.000000
_cell_volume 3374.104819
_symmetry_space_group_name_H-M "P N N M"
_symmetry_group_IT_number 58
_symmetry_cell_setting 'orthorhombic'
loop_
_space_group_symop_operation_xyz
x,y,z
-x,-y,z
1/2+x,1/2-y,1/2-z
1/2-x,1/2+y,1/2-z
-x,-y,-z
x,y,-z
1/2-x,1/2+y,1/2+z
1/2+x,1/2-y,1/2+z
loop_
_atom_site_type_symbol
_atom_site_label
_atom_site_fract_x
_atom_site_fract_y
_atom_site_fract_z
Si Si1 0.307484 0.978692 0.329437
Si Si2 0.619272 0.160991 0.671312
Si Si3 0.830582 0.365018 0.173169
Si Si4 0.455668 0.366520 0.328934
Si Si5 0.193267 0.216123 0.671208
Si Si6 0.342986 0.447566 0.165809
Si Si7 0.030522 0.706685 0.171820
Si Si8 0.085755 0.096344 0.335759
O O1 0.300352 0.989632 0.500000
O O2 0.365664 0.920839 0.290400
O O3 0.234721 0.948518 0.272150
O O4 0.324099 0.055594 0.262077
O O5 0.624933 0.175173 0.500000
O O6 0.675968 0.210991 0.747877
O O7 0.541717 0.174879 0.730708
O O8 0.767028 0.315301 0.225217
O O9 0.903156 0.334970 0.234804
O O10 0.830640 0.366666 0.000000
O O11 0.454939 0.374136 0.500000
O O12 0.383623 0.393942 0.267254
O O13 0.464856 0.286773 0.275628
O O14 0.519233 0.411551 0.266335
O O15 0.195086 0.229957 0.500000
O O16 0.133608 0.160918 0.714279
O O17 0.370397 0.526317 0.179667
O O18 0.347274 0.420944 0.000000
O O19 0.031728 0.701692 0.000000
O O20 0.059636 0.106983 0.500000
#
# Coordination Sequence:
#
# PCOD8236355 Si02
#       8
#     8   8   8   8   8   8   8   8
#     4   9  18  33  55  79 104 136 176 222 262 302
#     4  10  20  35  54  80 111 138 167 213 270 313
#     4   9  17  33  55  79 105 135 177 220 257 303
#     4  11  22  34  49  77 113 143 170 210 265 319
#     4  10  19  33  57  80 101 137 179 215 256 307
#     4  10  20  35  52  76 106 136 177 223 258 301
#     4   9  19  33  50  76 110 139 167 212 262 311
#     4  10  19  34  55  76 101 139 180 218 257 303
#
# _framework density 18.967994000000001
#
# number of rings (size 3 to 8) (size 9 to 14) (size 15 to 20)
#    0.000    2.250    2.500    0.750    1.750    2.500 
#    0.000    2.500    0.000    1.500    0.000    0.875 
#    0.000    0.000    0.000    0.000    0.000    0.000 
#
# Total GULP energy -793573.204461 kJ/mol
# GULP energy per Si atom -12399.581320 kJ/mol
# Density = 1.892482 g / cm^3
# Si number density = 18.967994 Si / 1000 Ang^3
#
#
#
# Elastic Constant Matrix: (Units=GPa)
#
#
# Indices 1 2 3 4 5 6 
#
# 1 118.8111 47.5935 27.0145 0.0000 0.0000 0.0000
# 2 47.5935 73.7102 24.6227 0.0000 0.0000 0.0000
# 3 27.0145 24.6227 36.5644 0.0000 0.0000 0.0000
# 4 0.0000 0.0000 0.0000 22.7372 0.0000 0.0000
# 5 0.0000 0.0000 0.0000 0.0000 15.9080 0.0000
# 6 0.0000 0.0000 0.0000 0.0000 0.0000 31.7863
#
#
#
# Elastic Compliance Matrix: (Units=1/GPa)
#
#
# Indices 1 2 3 4 5 6 
#
# 1 0.011945 -0.006147 -0.004685 0.000000 0.000000 0.000000
# 2 -0.006147 0.020668 -0.009376 0.000000 0.000000 0.000000
# 3 -0.004685 -0.009376 0.037125 0.000000 0.000000 0.000000
# 4 0.000000 0.000000 0.000000 0.043981 0.000000 0.000000
# 5 0.000000 0.000000 0.000000 0.000000 0.062861 0.000000
# 6 0.000000 0.000000 0.000000 0.000000 0.000000 0.031460
#
#
# Mechanical properties :
#
#
# Convention : Reuss Voigt Hill
#
# Bulk Modulus (GPa) = 34.10692 47.50525 40.80608
# Shear Modulus (GPa) = 19.36258 22.74329 21.05294
#
# Velocity S-wave (km/s) = 3.19847 3.46647 3.33516
# Velocity P-wave (km/s) = 5.62677 6.41258 6.03249
#
# Compressibility (1/GPa) = 0.02931957
#
# Stress axis : x y z
#
# Youngs Moduli (GPa) = 83.72041 48.38401 26.93637
#
# Poissons Ratio (x) = 0.29743 0.12620
# Poissons Ratio (y) = 0.51466 0.25256
# Poissons Ratio (z) = 0.39225 0.45366
#
# Static dielectric constant tensor:
#      x y z
#    x 3.694920 0.000000 0.000000 
#    y 0.000000 3.558590 0.000000 
#    z 0.000000 0.000000 3.038030 
# 
# 
# High freq. dielectric constant tensor:
#      x y z
#    x 1.749530 0.000000 0.000000 
#    y 0.000000 1.744770 0.000000 
#    z 0.000000 0.000000 1.687260 
# 
# From -- ./inp_files/8355.got.cif
#   From: 2010.06.25/outbox.cif.g09.slc.cpg/sg58_5_cif.got.tgz:8355.got - 2010.06.26 21:38:00.
