data_PCOD8236219
_publ_section_title
;
Structure prediction by ZEFSAII (Michael W. Deem and Ramdas Pophale) SiO2 
 PCOD8236219
Probable space group: P N N M
;
_chemical_formula_sum "Si O2"
_cell_formula_units_Z 32
_cell_length_a 8.980793
_cell_length_b 8.113908
_cell_length_c 22.863810
_cell_angle_alpha 90.000000
_cell_angle_beta 90.000000
_cell_angle_gamma 90.000000
_cell_volume 1666.070474
_symmetry_space_group_name_H-M "P N N M"
_symmetry_group_IT_number 58
_symmetry_cell_setting 'orthorhombic'
loop_
_space_group_symop_operation_xyz
x,y,z
-x,-y,z
1/2+x,1/2-y,1/2-z
1/2-x,1/2+y,1/2-z
-x,-y,-z
x,y,-z
1/2-x,1/2+y,1/2+z
1/2+x,1/2-y,1/2+z
loop_
_atom_site_type_symbol
_atom_site_label
_atom_site_fract_x
_atom_site_fract_y
_atom_site_fract_z
Si Si1 0.168732 0.053180 0.436296
Si Si2 0.333879 0.530239 0.290827
Si Si3 0.184159 0.855506 0.673890
Si Si4 0.406882 0.844783 0.135120
O O1 0.248562 0.034780 0.500000
O O2 0.172965 0.245492 0.417287
O O3 0.242688 0.934899 0.387186
O O4 0.000000 0.000000 0.443087
O O5 0.500000 0.500000 0.314223
O O6 0.300162 0.718726 0.305719
O O7 0.321595 0.501298 0.221337
O O8 0.219560 0.406012 0.321191
O O9 0.018737 0.778744 0.668948
O O10 0.500000 0.000000 0.109485
#
# Coordination Sequence:
#
# PCOD8236219 Si02
#       4
#     8   8   8   8
#     4   9  17  32  54  76  99 130 170 213 253 295
#     4  11  20  32  52  76 104 134 165 206 258 311
#     4  10  19  33  52  76 104 130 167 212 255 303
#     4   9  19  33  51  78 104 129 166 211 255 302
#
# _framework density 19.206869999999999
#
# number of rings (size 3 to 8) (size 9 to 14) (size 15 to 20)
#    0.000    2.250    0.000    5.250    0.000    0.500 
#    0.000    7.500    0.000    4.500    0.000    0.000 
#    0.000    0.000    0.000    0.000    0.000    0.000 
#
# Total GULP energy -396656.565149 kJ/mol
# GULP energy per Si atom -12395.517661 kJ/mol
# Density = 1.916315 g / cm^3
# Si number density = 19.206870 Si / 1000 Ang^3
#
#
#
# Elastic Constant Matrix: (Units=GPa)
#
#
# Indices 1 2 3 4 5 6 
#
# 1 66.6735 30.4845 35.1271 0.0000 0.0000 0.0000
# 2 30.4845 130.9584 91.1980 0.0000 0.0000 0.0000
# 3 35.1271 91.1980 148.7359 0.0000 0.0000 0.0000
# 4 0.0000 0.0000 0.0000 16.7789 0.0000 0.0000
# 5 0.0000 0.0000 0.0000 0.0000 0.7098 0.0000
# 6 0.0000 0.0000 0.0000 0.0000 0.0000 23.6652
#
#
#
# Elastic Compliance Matrix: (Units=1/GPa)
#
#
# Indices 1 2 3 4 5 6 
#
# 1 0.017449 -0.002080 -0.002845 0.000000 0.000000 0.000000
# 2 -0.002080 0.013574 -0.007832 0.000000 0.000000 0.000000
# 3 -0.002845 -0.007832 0.012197 0.000000 0.000000 0.000000
# 4 0.000000 0.000000 0.000000 0.059599 0.000000 0.000000
# 5 0.000000 0.000000 0.000000 0.000000 1.408808 0.000000
# 6 0.000000 0.000000 0.000000 0.000000 0.000000 0.042256
#
#
# Mechanical properties :
#
#
# Convention : Reuss Voigt Hill
#
# Bulk Modulus (GPa) = 56.47954 73.33190 64.90572
# Shear Modulus (GPa) = 3.15398 20.86798 12.01098
#
# Velocity S-wave (km/s) = 1.28284 3.29976 2.50341
# Velocity P-wave (km/s) = 5.62708 7.26504 6.49788
#
# Compressibility (1/GPa) = 0.01770553
#
# Stress axis : x y z
#
# Youngs Moduli (GPa) = 57.31093 73.66895 81.98444
#
# Poissons Ratio (x) = 0.15325 0.23328
# Poissons Ratio (y) = 0.11922 0.64209
# Poissons Ratio (z) = 0.16307 0.57696
#
# Static dielectric constant tensor:
#      x y z
#    x 3.233810 0.000000 0.000000 
#    y 0.000000 3.813260 0.000000 
#    z 0.000000 0.000000 3.869690 
# 
# 
# High freq. dielectric constant tensor:
#      x y z
#    x 1.710040 0.000000 0.000000 
#    y 0.000000 1.765550 0.000000 
#    z 0.000000 0.000000 1.736370 
# 
# From -- ./inp_files/28433.got.cif
#   From: 2010.06.25/outbox.cif.g09.slc.cpg/sg58_15_cif.got.tgz:28433.got - 2010.06.26 21:38:00.
