data_PCOD8236417
_publ_section_title
;
Structure prediction by ZEFSAII (Michael W. Deem and Ramdas Pophale) SiO2 
 PCOD8236417
Probable space group: P N N M
;
_chemical_formula_sum "Si O2"
_cell_formula_units_Z 48
_cell_length_a 29.594637
_cell_length_b 9.952779
_cell_length_c 8.917453
_cell_angle_alpha 90.000000
_cell_angle_beta 90.000000
_cell_angle_gamma 90.000000
_cell_volume 2626.625808
_symmetry_space_group_name_H-M "P N N M"
_symmetry_group_IT_number 58
_symmetry_cell_setting 'orthorhombic'
loop_
_space_group_symop_operation_xyz
x,y,z
-x,-y,z
1/2+x,1/2-y,1/2-z
1/2-x,1/2+y,1/2-z
-x,-y,-z
x,y,-z
1/2-x,1/2+y,1/2+z
1/2+x,1/2-y,1/2+z
loop_
_atom_site_type_symbol
_atom_site_label
_atom_site_fract_x
_atom_site_fract_y
_atom_site_fract_z
Si Si1 0.708378 0.836999 0.826038
Si Si2 0.956505 0.165480 0.177226
Si Si3 0.057202 0.134623 0.822560
Si Si4 0.385069 0.120453 0.678068
Si Si5 0.225581 0.361634 0.671260
Si Si6 0.378458 0.841611 0.825640
O O1 0.662757 0.822104 0.731874
O O2 0.742273 0.719066 0.782252
O O3 0.731799 0.980474 0.794011
O O4 0.695446 0.825617 0.000000
O O5 0.923988 0.280909 0.241572
O O6 0.008232 0.193313 0.225601
O O7 0.939791 0.019538 0.232458
O O8 0.954418 0.163360 0.000000
O O9 0.095937 0.212487 0.735268
O O10 0.065017 0.148660 0.000000
O O11 0.385232 0.114069 0.500000
O O12 0.395890 0.973570 0.740882
O O13 0.238782 0.328742 0.500000
O O14 0.174375 0.318372 0.704809
O O15 0.388104 0.862760 0.000000
#
# Coordination Sequence:
#
# PCOD8236417 Si02
#       6
#     8   8   8   8   8   8
#     4  10  21  36  54  78 105 132 168 213 256 300
#     4   8  17  33  54  78 102 131 173 217 252 303
#     4   9  17  34  56  76 101 135 173 213 258 305
#     4  10  19  34  55  77 102 135 172 209 254 305
#     4   9  20  37  53  72 102 136 169 206 249 303
#     4  10  21  36  51  75 108 137 171 214 255 300
#
# _framework density 18.274395999999999
#
# number of rings (size 3 to 8) (size 9 to 14) (size 15 to 20)
#    0.000    2.667    0.000    3.500    0.000    6.000 
#    0.000   13.333    0.000    0.000    0.000    0.000 
#    0.000    0.000    0.000    0.000    0.000    0.000 
#
# Total GULP energy -595212.144496 kJ/mol
# GULP energy per Si atom -12400.253010 kJ/mol
# Density = 1.823280 g / cm^3
# Si number density = 18.274396 Si / 1000 Ang^3
#
#
#
# Elastic Constant Matrix: (Units=GPa)
#
#
# Indices 1 2 3 4 5 6 
#
# 1 28.4057 7.7147 11.1658 0.0000 0.0000 0.0000
# 2 7.7147 37.5929 11.7535 0.0000 0.0000 0.0000
# 3 11.1658 11.7535 55.4113 0.0000 0.0000 0.0000
# 4 0.0000 0.0000 0.0000 22.2525 0.0000 0.0000
# 5 0.0000 0.0000 0.0000 0.0000 25.3663 0.0000
# 6 0.0000 0.0000 0.0000 0.0000 0.0000 40.7763
#
#
#
# Elastic Compliance Matrix: (Units=1/GPa)
#
#
# Indices 1 2 3 4 5 6 
#
# 1 0.039461 -0.006011 -0.006677 0.000000 0.000000 0.000000
# 2 -0.006011 0.029406 -0.005026 0.000000 0.000000 0.000000
# 3 -0.006677 -0.005026 0.020458 0.000000 0.000000 0.000000
# 4 0.000000 0.000000 0.000000 0.044939 0.000000 0.000000
# 5 0.000000 0.000000 0.000000 0.000000 0.039422 0.000000
# 6 0.000000 0.000000 0.000000 0.000000 0.000000 0.024524
#
#
# Mechanical properties :
#
#
# Convention : Reuss Voigt Hill
#
# Bulk Modulus (GPa) = 18.55350 20.29753 19.42551
# Shear Modulus (GPa) = 19.87254 23.73075 21.80165
#
# Velocity S-wave (km/s) = 3.30123 3.60749 3.45775
# Velocity P-wave (km/s) = 4.97047 5.33696 5.15698
#
# Compressibility (1/GPa) = 0.05389818
#
# Stress axis : x y z
#
# Youngs Moduli (GPa) = 25.34142 34.00700 48.87967
#
# Poissons Ratio (x) = 0.20440 0.32636
# Poissons Ratio (y) = 0.15232 0.24568
# Poissons Ratio (z) = 0.16920 0.17093
#
# Static dielectric constant tensor:
#      x y z
#    x 3.456990 0.000000 0.000000 
#    y 0.000000 3.528210 0.000000 
#    z 0.000000 0.000000 3.195220 
# 
# 
# High freq. dielectric constant tensor:
#      x y z
#    x 1.708880 0.000000 0.000000 
#    y 0.000000 1.712440 0.000000 
#    z 0.000000 0.000000 1.697970 
# 
# From -- ./inp_files/2901.got.cif
#   From: 2010.06.25/outbox.cif.g09.slc.cpg/sg58_2_cif.got.tgz:2901.got - 2010.06.26 21:38:00.
