data_PCOD8236208
_publ_section_title
;
Structure prediction by ZEFSAII (Michael W. Deem and Ramdas Pophale) SiO2 
 PCOD8236208
Probable space group: P N N M
;
_chemical_formula_sum "Si O2"
_cell_formula_units_Z 64
_cell_length_a 30.086044
_cell_length_b 14.272845
_cell_length_c 8.692504
_cell_angle_alpha 90.000000
_cell_angle_beta 90.000000
_cell_angle_gamma 90.000000
_cell_volume 3732.678068
_symmetry_space_group_name_H-M "P N N M"
_symmetry_group_IT_number 58
_symmetry_cell_setting 'orthorhombic'
loop_
_space_group_symop_operation_xyz
x,y,z
-x,-y,z
1/2+x,1/2-y,1/2-z
1/2-x,1/2+y,1/2-z
-x,-y,-z
x,y,-z
1/2-x,1/2+y,1/2+z
1/2+x,1/2-y,1/2+z
loop_
_atom_site_type_symbol
_atom_site_label
_atom_site_fract_x
_atom_site_fract_y
_atom_site_fract_z
Si Si1 0.320802 0.471705 0.827517
Si Si2 0.697909 0.838480 0.319545
Si Si3 0.715624 0.227298 0.817628
Si Si4 0.868903 0.837187 0.326568
Si Si5 0.545817 0.599384 0.819578
Si Si6 0.372393 0.312153 0.322912
Si Si7 0.229745 0.483778 0.680755
Si Si8 0.954184 0.897033 0.819398
O O1 0.356244 0.554201 0.827434
O O2 0.336077 0.391844 0.710602
O O3 0.274322 0.512789 0.769773
O O4 0.316315 0.430658 0.000000
O O5 0.704003 0.856443 0.500000
O O6 0.739664 0.777402 0.254972
O O7 0.651438 0.786179 0.285568
O O8 0.694176 0.937535 0.230699
O O9 0.670939 0.276053 0.751601
O O10 0.714351 0.119155 0.765065
O O11 0.715226 0.237264 0.000000
O O12 0.878993 0.802823 0.500000
O O13 0.913643 0.828176 0.225826
O O14 0.583901 0.675320 0.781460
O O15 0.498378 0.640058 0.766230
O O16 0.556234 0.503311 0.730627
O O17 0.545338 0.578409 0.000000
O O18 0.386595 0.318565 0.500000
O O19 0.238094 0.485652 0.500000
O O20 0.962223 0.893431 0.000000
#
# Coordination Sequence:
#
# PCOD8236208 Si02
#       8
#     8   8   8   8   8   8   8   8
#     4  11  20  30  49  73 102 138 173 211 252 300
#     4  10  20  36  52  71 102 138 172 209 257 305
#     4   9  18  34  51  69  98 137 173 207 251 299
#     4  10  19  33  51  70  98 138 176 207 251 303
#     4  11  21  34  51  73 103 135 170 206 251 307
#     4  11  21  34  52  73 102 138 174 211 255 302
#     4  11  21  34  51  73 101 135 177 219 252 294
#     4  11  21  33  50  74 104 133 168 209 254 303
#
# _framework density 17.145866000000002
#
# number of rings (size 3 to 8) (size 9 to 14) (size 15 to 20)
#    0.000    1.500    3.750    4.125    0.000    1.500 
#    0.000    1.250    0.000    0.000    0.000    0.875 
#    0.000    7.000    0.000    0.000    0.000    0.000 
#
# Total GULP energy -793645.060720 kJ/mol
# GULP energy per Si atom -12400.704074 kJ/mol
# Density = 1.710684 g / cm^3
# Si number density = 17.145866 Si / 1000 Ang^3
#
#
#
# Elastic Constant Matrix: (Units=GPa)
#
#
# Indices 1 2 3 4 5 6 
#
# 1 94.0624 21.0908 24.1845 0.0000 0.0000 0.0000
# 2 21.0908 67.4006 14.5169 0.0000 0.0000 0.0000
# 3 24.1845 14.5169 54.9958 0.0000 0.0000 0.0000
# 4 0.0000 0.0000 0.0000 20.8202 0.0000 0.0000
# 5 0.0000 0.0000 0.0000 0.0000 25.8217 0.0000
# 6 0.0000 0.0000 0.0000 0.0000 0.0000 21.8700
#
#
#
# Elastic Compliance Matrix: (Units=1/GPa)
#
#
# Indices 1 2 3 4 5 6 
#
# 1 0.012496 -0.002891 -0.004732 0.000000 0.000000 0.000000
# 2 -0.002891 0.016400 -0.003058 0.000000 0.000000 0.000000
# 3 -0.004732 -0.003058 0.021071 0.000000 0.000000 0.000000
# 4 0.000000 0.000000 0.000000 0.048030 0.000000 0.000000
# 5 0.000000 0.000000 0.000000 0.000000 0.038727 0.000000
# 6 0.000000 0.000000 0.000000 0.000000 0.000000 0.045725
#
#
# Mechanical properties :
#
#
# Convention : Reuss Voigt Hill
#
# Bulk Modulus (GPa) = 34.95796 37.33812 36.14804
# Shear Modulus (GPa) = 23.43610 24.14683 23.79146
#
# Velocity S-wave (km/s) = 3.70113 3.75683 3.72908
# Velocity P-wave (km/s) = 6.22071 6.37514 6.29840
#
# Compressibility (1/GPa) = 0.02860579
#
# Stress axis : x y z
#
# Youngs Moduli (GPa) = 80.02473 60.97604 47.45800
#
# Poissons Ratio (x) = 0.17628 0.22457
# Poissons Ratio (y) = 0.23136 0.14511
# Poissons Ratio (z) = 0.37868 0.18644
#
# Static dielectric constant tensor:
#      x y z
#    x 3.289420 0.000000 0.000000 
#    y 0.000000 3.009860 0.000000 
#    z 0.000000 0.000000 3.128360 
# 
# 
# High freq. dielectric constant tensor:
#      x y z
#    x 1.657880 0.000000 0.000000 
#    y 0.000000 1.627130 0.000000 
#    z 0.000000 0.000000 1.661090 
# 
# From -- ./inp_files/7151.got.cif
#   From: 2010.06.25/outbox.cif.g09.slc.cpg/sg58_4_cif.got.tgz:7151.got - 2010.06.26 21:38:00.
