data_PCOD8236005
_publ_section_title
;
Structure prediction by ZEFSAII (Michael W. Deem and Ramdas Pophale) SiO2 
 PCOD8236005
Probable space group: P N N M
;
_chemical_formula_sum "Si O2"
_cell_formula_units_Z 64
_cell_length_a 22.903363
_cell_length_b 18.894828
_cell_length_c 8.947432
_cell_angle_alpha 90.000000
_cell_angle_beta 90.000000
_cell_angle_gamma 90.000000
_cell_volume 3872.046870
_symmetry_space_group_name_H-M "P N N M"
_symmetry_group_IT_number 58
_symmetry_cell_setting 'orthorhombic'
loop_
_space_group_symop_operation_xyz
x,y,z
-x,-y,z
1/2+x,1/2-y,1/2-z
1/2-x,1/2+y,1/2-z
-x,-y,-z
x,y,-z
1/2-x,1/2+y,1/2+z
1/2+x,1/2-y,1/2+z
loop_
_atom_site_type_symbol
_atom_site_label
_atom_site_fract_x
_atom_site_fract_y
_atom_site_fract_z
Si Si1 0.727984 0.636132 0.173563
Si Si2 0.119280 0.510168 0.327331
Si Si3 0.935861 0.355631 0.175655
Si Si4 0.670957 0.214775 0.170207
Si Si5 0.839629 0.274246 0.675062
Si Si6 0.056696 0.363254 0.328860
Si Si7 0.764594 0.854123 0.326993
Si Si8 0.255245 0.504886 0.674379
O O1 0.790296 0.667728 0.220138
O O2 0.677523 0.693281 0.209789
O O3 0.713230 0.565399 0.264643
O O4 0.730540 0.617443 0.000000
O O5 0.111723 0.531840 0.500000
O O6 0.090703 0.569945 0.226241
O O7 0.086777 0.437529 0.290781
O O8 0.186872 0.500856 0.285982
O O9 0.902473 0.290151 0.253631
O O10 0.003327 0.350376 0.219023
O O11 0.929273 0.348109 0.000000
O O12 0.603052 0.199599 0.200789
O O13 0.683148 0.297850 0.196479
O O14 0.687161 0.192461 0.000000
O O15 0.840993 0.289818 0.500000
O O16 0.793736 0.328499 0.745542
O O17 0.034698 0.362571 0.500000
O O18 0.749635 0.864887 0.500000
O O19 0.784718 0.927939 0.255102
O O20 0.267144 0.511130 0.500000
#
# Coordination Sequence:
#
# PCOD8236005 Si02
#       8
#     8   8   8   8   8   8   8   8
#     4  10  20  32  51  75 100 127 164 210 251 291
#     4  10  20  34  50  68  98 138 175 203 235 294
#     4  12  24  34  48  72 100 132 171 216 250 284
#     4   9  18  34  52  72  98 131 167 203 250 300
#     4  10  20  35  51  70  97 133 168 203 250 302
#     4  10  20  36  53  68  94 136 175 205 242 295
#     4  10  19  31  51  76 101 127 163 209 249 292
#     4  11  20  32  51  74 103 137 168 198 246 304
#
# _framework density 16.528724
#
# number of rings (size 3 to 8) (size 9 to 14) (size 15 to 20)
#    0.000    1.750    2.500    3.000    0.000    5.000 
#    0.000    0.000    0.000    0.000    0.000    0.875 
#    0.000    7.000    0.000    0.000    0.000    0.000 
#
# Total GULP energy -793814.543707 kJ/mol
# GULP energy per Si atom -12403.352245 kJ/mol
# Density = 1.649110 g / cm^3
# Si number density = 16.528724 Si / 1000 Ang^3
#
#
#
# Elastic Constant Matrix: (Units=GPa)
#
#
# Indices 1 2 3 4 5 6 
#
# 1 63.2508 43.4877 37.7322 0.0000 0.0000 0.0000
# 2 43.4877 116.0152 59.3942 0.0000 0.0000 0.0000
# 3 37.7322 59.3942 99.3615 0.0000 0.0000 0.0000
# 4 0.0000 0.0000 0.0000 28.5954 0.0000 0.0000
# 5 0.0000 0.0000 0.0000 0.0000 23.3521 0.0000
# 6 0.0000 0.0000 0.0000 0.0000 0.0000 21.0510
#
#
#
# Elastic Compliance Matrix: (Units=1/GPa)
#
#
# Indices 1 2 3 4 5 6 
#
# 1 0.022999 -0.005980 -0.005159 0.000000 0.000000 0.000000
# 2 -0.005980 0.013975 -0.006083 0.000000 0.000000 0.000000
# 3 -0.005159 -0.006083 0.015660 0.000000 0.000000 0.000000
# 4 0.000000 0.000000 0.000000 0.034971 0.000000 0.000000
# 5 0.000000 0.000000 0.000000 0.000000 0.042823 0.000000
# 6 0.000000 0.000000 0.000000 0.000000 0.000000 0.047504
#
#
# Mechanical properties :
#
#
# Convention : Reuss Voigt Hill
#
# Bulk Modulus (GPa) = 54.97595 62.20621 58.59108
# Shear Modulus (GPa) = 22.88969 23.80062 23.34516
#
# Velocity S-wave (km/s) = 3.72539 3.79879 3.76227
# Velocity P-wave (km/s) = 7.19984 7.54705 7.37549
#
# Compressibility (1/GPa) = 0.01818977
#
# Stress axis : x y z
#
# Youngs Moduli (GPa) = 43.47959 71.55496 63.85802
#
# Poissons Ratio (x) = 0.42788 0.32947
# Poissons Ratio (y) = 0.26000 0.38845
# Poissons Ratio (z) = 0.22433 0.43527
#
# Static dielectric constant tensor:
#      x y z
#    x 2.959780 0.000000 0.000000 
#    y 0.000000 3.239080 0.000000 
#    z 0.000000 0.000000 3.179450 
# 
# 
# High freq. dielectric constant tensor:
#      x y z
#    x 1.605030 0.000000 0.000000 
#    y 0.000000 1.636510 0.000000 
#    z 0.000000 0.000000 1.647710 
# 
# From -- ./inp_files/8275.got.cif
#   From: 2010.06.25/outbox.cif.g09.slc.cpg/sg58_5_cif.got.tgz:8275.got - 2010.06.26 21:38:00.
