data_PCOD8236310
_publ_section_title
;
Structure prediction by ZEFSAII (Michael W. Deem and Ramdas Pophale) SiO2 
 PCOD8236310
Probable space group: P N N M
;
_chemical_formula_sum "Si O2"
_cell_formula_units_Z 64
_cell_length_a 12.499660
_cell_length_b 28.581784
_cell_length_c 9.334801
_cell_angle_alpha 90.000000
_cell_angle_beta 90.000000
_cell_angle_gamma 90.000000
_cell_volume 3334.975110
_symmetry_space_group_name_H-M "P N N M"
_symmetry_group_IT_number 58
_symmetry_cell_setting 'orthorhombic'
loop_
_space_group_symop_operation_xyz
x,y,z
-x,-y,z
1/2+x,1/2-y,1/2-z
1/2-x,1/2+y,1/2-z
-x,-y,-z
x,y,-z
1/2-x,1/2+y,1/2+z
1/2+x,1/2-y,1/2+z
loop_
_atom_site_type_symbol
_atom_site_label
_atom_site_fract_x
_atom_site_fract_y
_atom_site_fract_z
Si Si1 0.332348 0.120049 0.332136
Si Si2 0.209403 0.333539 0.331866
Si Si3 0.120628 0.136259 0.170831
Si Si4 0.014416 0.949345 0.167101
Si Si5 0.382669 0.014436 0.669175
Si Si6 0.007844 0.304755 0.833769
Si Si7 0.243823 0.437868 0.335693
Si Si8 0.065386 0.796557 0.832076
O O1 0.305985 0.122474 0.500000
O O2 0.234454 0.142627 0.245921
O O3 0.356190 0.067123 0.281614
O O4 0.436208 0.150564 0.294135
O O5 0.203535 0.322940 0.500000
O O6 0.116953 0.304706 0.254713
O O7 0.188689 0.388443 0.300298
O O8 0.323712 0.316705 0.267719
O O9 0.072512 0.086966 0.226860
O O10 0.039432 0.176413 0.226309
O O11 0.135994 0.137940 0.000000
O O12 0.131713 0.929558 0.196790
O O13 0.992217 0.954498 0.000000
O O14 0.000000 0.000000 0.242058
O O15 0.374796 0.009156 0.500000
O O16 0.500000 0.000000 0.724409
O O17 0.298198 0.979279 0.737374
O O18 0.942853 0.258009 0.793128
O O19 0.039101 0.304790 0.000000
O O20 0.225197 0.452708 0.500000
O O21 0.069256 0.806078 0.000000
#
# Coordination Sequence:
#
# PCOD8236310 Si02
#       8
#     8   8   8   8   8   8   8   8
#     4  10  22  38  55  81 116 151 188 231 277 329
#     4  10  20  37  60  86 114 141 183 238 284 328
#     4  10  19  35  58  81 110 145 184 228 279 339
#     4   9  16  28  49  77 105 136 173 214 267 327
#     4  10  21  37  55  76 109 152 192 227 272 330
#     4  10  22  39  59  81 111 151 190 227 280 342
#     4  10  19  33  55  83 110 138 180 232 281 330
#     4   9  19  37  59  83 110 144 182 231 287 334
#
# _framework density 19.190548
#
# number of rings (size 3 to 8) (size 9 to 14) (size 15 to 20)
#    0.000    2.250    1.250    1.500    1.750    3.750 
#    0.000    1.875    0.000    2.250    0.000    0.000 
#    0.000    0.000    0.000    0.000    0.000    0.000 
#
# Total GULP energy -793621.949373 kJ/mol
# GULP energy per Si atom -12400.342959 kJ/mol
# Density = 1.914687 g / cm^3
# Si number density = 19.190548 Si / 1000 Ang^3
#
#
#
# Elastic Constant Matrix: (Units=GPa)
#
#
# Indices 1 2 3 4 5 6 
#
# 1 104.7190 51.4721 34.8644 0.0000 0.0000 0.0000
# 2 51.4721 108.4330 32.1342 0.0000 0.0000 0.0000
# 3 34.8644 32.1342 30.6459 0.0000 0.0000 0.0000
# 4 0.0000 0.0000 0.0000 19.8074 0.0000 0.0000
# 5 0.0000 0.0000 0.0000 0.0000 28.9345 0.0000
# 6 0.0000 0.0000 0.0000 0.0000 0.0000 33.5163
#
#
#
# Elastic Compliance Matrix: (Units=1/GPa)
#
#
# Indices 1 2 3 4 5 6 
#
# 1 0.016108 -0.003215 -0.014955 0.000000 0.000000 0.000000
# 2 -0.003215 0.014022 -0.011045 0.000000 0.000000 0.000000
# 3 -0.014955 -0.011045 0.061226 0.000000 0.000000 0.000000
# 4 0.000000 0.000000 0.000000 0.050486 0.000000 0.000000
# 5 0.000000 0.000000 0.000000 0.000000 0.034561 0.000000
# 6 0.000000 0.000000 0.000000 0.000000 0.000000 0.029836
#
#
# Mechanical properties :
#
#
# Convention : Reuss Voigt Hill
#
# Bulk Modulus (GPa) = 30.37104 53.41547 41.89326
# Shear Modulus (GPa) = 18.13926 24.80679 21.47303
#
# Velocity S-wave (km/s) = 3.07778 3.59925 3.34868
# Velocity P-wave (km/s) = 5.33767 6.72068 6.06870
#
# Compressibility (1/GPa) = 0.03292610
#
# Stress axis : x y z
#
# Youngs Moduli (GPa) = 62.07922 71.31887 16.33283
#
# Poissons Ratio (x) = 0.22926 0.24426
# Poissons Ratio (y) = 0.19956 0.18040
# Poissons Ratio (z) = 0.92840 0.78775
#
# Static dielectric constant tensor:
#      x y z
#    x 3.505040 0.000000 0.000000 
#    y 0.000000 3.698870 0.000000 
#    z 0.000000 0.000000 3.105810 
# 
# 
# High freq. dielectric constant tensor:
#      x y z
#    x 1.754680 0.000000 0.000000 
#    y 0.000000 1.761880 0.000000 
#    z 0.000000 0.000000 1.704620 
# 
# From -- ./inp_files/4750.got.cif
#   From: 2010.06.25/outbox.cif.g09.slc.cpg/sg58_3_cif.got.tgz:4750.got - 2010.06.26 21:38:00.
