data_PCOD8236446
_publ_section_title
;
Structure prediction by ZEFSAII (Michael W. Deem and Ramdas Pophale) SiO2 
 PCOD8236446
Probable space group: P N N M
;
_chemical_formula_sum "Si O2"
_cell_formula_units_Z 64
_cell_length_a 16.011614
_cell_length_b 22.031541
_cell_length_c 9.503583
_cell_angle_alpha 90.000000
_cell_angle_beta 90.000000
_cell_angle_gamma 90.000000
_cell_volume 3352.488979
_symmetry_space_group_name_H-M "P N N M"
_symmetry_group_IT_number 58
_symmetry_cell_setting 'orthorhombic'
loop_
_space_group_symop_operation_xyz
x,y,z
-x,-y,z
1/2+x,1/2-y,1/2-z
1/2-x,1/2+y,1/2-z
-x,-y,-z
x,y,-z
1/2-x,1/2+y,1/2+z
1/2+x,1/2-y,1/2+z
loop_
_atom_site_type_symbol
_atom_site_label
_atom_site_fract_x
_atom_site_fract_y
_atom_site_fract_z
Si Si1 0.682585 0.159179 0.841844
Si Si2 0.374092 0.147595 0.156283
Si Si3 0.305889 0.239160 0.655481
Si Si4 0.087742 0.532903 0.164026
Si Si5 0.242539 0.449046 0.162471
Si Si6 0.432521 0.448394 0.163150
Si Si7 0.469511 0.770501 0.843670
Si Si8 0.041010 0.826850 0.835934
O O1 0.718390 0.227212 0.834362
O O2 0.730618 0.114205 0.740630
O O3 0.587918 0.172657 0.793140
O O4 0.688082 0.132279 0.000000
O O5 0.299857 0.180737 0.241603
O O6 0.412553 0.092155 0.241205
O O7 0.439172 0.201931 0.147588
O O8 0.345482 0.126904 0.000000
O O9 0.323440 0.212703 0.500000
O O10 0.373004 0.291644 0.688475
O O11 0.169793 0.495031 0.212179
O O12 0.000000 0.500000 0.196170
O O13 0.093769 0.550104 0.000000
O O14 0.337262 0.472633 0.192394
O O15 0.229298 0.434894 0.000000
O O16 0.500000 0.500000 0.200337
O O17 0.453171 0.391695 0.261217
O O18 0.440456 0.428769 0.000000
O O19 0.467889 0.713555 0.736524
O O20 0.441379 0.748601 0.000000
O O21 0.020054 0.836611 0.000000
#
# Coordination Sequence:
#
# PCOD8236446 Si02
#       8
#     8   8   8   8   8   8   8   8
#     4  10  19  34  56  82 109 139 179 226 277 331
#     4  10  20  34  53  78 107 142 180 219 268 322
#     4   9  18  33  54  77 104 139 174 215 272 330
#     4  10  21  37  56  80 113 150 185 225 278 337
#     4  10  21  36  57  83 109 145 191 235 279 331
#     4  10  21  38  58  78 105 145 191 236 281 332
#     4   9  19  34  54  81 111 143 178 219 272 335
#     4  10  19  34  56  81 108 138 177 226 280 330
#
# _framework density 19.090294
#
# number of rings (size 3 to 8) (size 9 to 14) (size 15 to 20)
#    0.000    2.250    1.250    1.500    0.000    3.000 
#    2.250    0.000    0.000    0.000    0.000    0.000 
#    0.000    0.000    0.000    0.000    0.000    0.000 
#
# Total GULP energy -793133.537680 kJ/mol
# GULP energy per Si atom -12392.711526 kJ/mol
# Density = 1.904684 g / cm^3
# Si number density = 19.090294 Si / 1000 Ang^3
#
#
#
# Elastic Constant Matrix: (Units=GPa)
#
#
# Indices 1 2 3 4 5 6 
#
# 1 81.3789 28.2178 30.7162 0.0000 0.0000 0.0000
# 2 28.2178 86.6519 65.5394 0.0000 0.0000 0.0000
# 3 30.7162 65.5394 100.6367 0.0000 0.0000 0.0000
# 4 0.0000 0.0000 0.0000 37.1057 0.0000 0.0000
# 5 0.0000 0.0000 0.0000 0.0000 16.3442 0.0000
# 6 0.0000 0.0000 0.0000 0.0000 0.0000 21.7023
#
#
#
# Elastic Compliance Matrix: (Units=1/GPa)
#
#
# Indices 1 2 3 4 5 6 
#
# 1 0.014191 -0.002651 -0.002605 0.000000 0.000000 0.000000
# 2 -0.002651 0.023238 -0.014325 0.000000 0.000000 0.000000
# 3 -0.002605 -0.014325 0.020061 0.000000 0.000000 0.000000
# 4 0.000000 0.000000 0.000000 0.026950 0.000000 0.000000
# 5 0.000000 0.000000 0.000000 0.000000 0.061184 0.000000
# 6 0.000000 0.000000 0.000000 0.000000 0.000000 0.046078
#
#
# Mechanical properties :
#
#
# Convention : Reuss Voigt Hill
#
# Bulk Modulus (GPa) = 54.55965 57.51271 56.03618
# Shear Modulus (GPa) = 21.09954 24.64338 22.87146
#
# Velocity S-wave (km/s) = 3.32814 3.59679 3.46507
# Velocity P-wave (km/s) = 6.58866 6.88776 6.73987
#
# Compressibility (1/GPa) = 0.01832856
#
# Stress axis : x y z
#
# Youngs Moduli (GPa) = 70.46931 43.03254 49.84874
#
# Poissons Ratio (x) = 0.11408 0.12985
# Poissons Ratio (y) = 0.18681 0.71407
# Poissons Ratio (z) = 0.18356 0.61643
#
# Static dielectric constant tensor:
#      x y z
#    x 3.610780 0.000000 0.000000 
#    y 0.000000 3.266780 0.000000 
#    z 0.000000 0.000000 3.706460 
# 
# 
# High freq. dielectric constant tensor:
#      x y z
#    x 1.738200 0.000000 0.000000 
#    y 0.000000 1.727990 0.000000 
#    z 0.000000 0.000000 1.745100 
# 
# From -- ./inp_files/8330.got.cif
#   From: 2010.06.25/outbox.cif.g09.slc.cpg/sg58_5_cif.got.tgz:8330.got - 2010.06.26 21:38:00.
