data_PCOD8236432
_publ_section_title
;
Structure prediction by ZEFSAII (Michael W. Deem and Ramdas Pophale) SiO2 
 PCOD8236432
Probable space group: P N N M
;
_chemical_formula_sum "Si O2"
_cell_formula_units_Z 52
_cell_length_a 22.236093
_cell_length_b 14.520771
_cell_length_c 7.712762
_cell_angle_alpha 90.000000
_cell_angle_beta 90.000000
_cell_angle_gamma 90.000000
_cell_volume 2490.336812
_symmetry_space_group_name_H-M "P N N M"
_symmetry_group_IT_number 58
_symmetry_cell_setting 'orthorhombic'
loop_
_space_group_symop_operation_xyz
x,y,z
-x,-y,z
1/2+x,1/2-y,1/2-z
1/2-x,1/2+y,1/2-z
-x,-y,-z
x,y,-z
1/2-x,1/2+y,1/2+z
1/2+x,1/2-y,1/2+z
loop_
_atom_site_type_symbol
_atom_site_label
_atom_site_fract_x
_atom_site_fract_y
_atom_site_fract_z
Si Si1 0.181095 0.948064 0.204885
Si Si2 0.917953 0.185262 0.305022
Si Si3 0.579039 0.940908 0.500000
Si Si4 0.801996 0.654780 0.696616
Si Si5 0.853582 0.369745 0.310379
Si Si6 0.104397 0.363967 0.000000
Si Si7 0.007324 0.745711 0.000000
Si Si8 0.285417 0.646403 0.305689
O O1 0.119506 0.908407 0.284233
O O2 0.240557 0.892480 0.267908
O O3 0.181076 0.055012 0.264512
O O4 0.177998 0.939650 0.000000
O O5 0.944445 0.190732 0.500000
O O6 0.869864 0.264838 0.263458
O O7 0.972993 0.196317 0.169843
O O8 0.557543 0.047736 0.500000
O O9 0.619632 0.938048 0.328947
O O10 0.532044 0.858430 0.500000
O O11 0.816716 0.620453 0.500000
O O12 0.855742 0.630531 0.826563
O O13 0.795082 0.765529 0.685111
O O14 0.879979 0.394895 0.500000
O O15 0.783245 0.383612 0.309305
O O16 0.064683 0.269872 0.000000
O O17 0.307080 0.672977 0.500000
#
# Coordination Sequence:
#
# PCOD8236432 Si02
#       8
#     8   8   4   8   8   4   4   8
#     4  10  20  34  58  91 124 152 195 248 298 356
#     4  10  19  34  60  86 113 152 200 249 293 346
#     4  10  21  36  62  86 112 160 211 243 292 351
#     4  11  24  39  58  88 127 163 194 242 300 365
#     4   9  18  32  52  84 123 153 189 241 291 353
#     4  12  25  42  59  84 123 165 202 245 307 360
#     4  10  23  42  61  84 117 161 209 257 290 342
#     4  10  19  34  55  84 124 162 191 233 303 364
#
# _framework density 20.880710000000001
#
# number of rings (size 3 to 8) (size 9 to 14) (size 15 to 20)
#    0.000    1.846    3.077    1.154    2.154    3.077 
#    0.000    0.000    0.000    6.462    0.000    2.154 
#    0.000    0.000    0.000    0.000    0.000    0.000 
#
# Total GULP energy -644506.416194 kJ/mol
# GULP energy per Si atom -12394.354158 kJ/mol
# Density = 2.083318 g / cm^3
# Si number density = 20.880710 Si / 1000 Ang^3
#
#
#
# Elastic Constant Matrix: (Units=GPa)
#
#
# Indices 1 2 3 4 5 6 
#
# 1 24.6725 -11.9580 10.6984 0.0000 0.0000 0.0000
# 2 -11.9580 77.1782 3.5780 0.0000 0.0000 0.0000
# 3 10.6984 3.5780 95.8013 0.0000 0.0000 0.0000
# 4 0.0000 0.0000 0.0000 25.4265 0.0000 0.0000
# 5 0.0000 0.0000 0.0000 0.0000 17.3587 0.0000
# 6 0.0000 0.0000 0.0000 0.0000 0.0000 18.1553
#
#
#
# Elastic Compliance Matrix: (Units=1/GPa)
#
#
# Indices 1 2 3 4 5 6 
#
# 1 0.046521 0.007462 -0.005474 0.000000 0.000000 0.000000
# 2 0.007462 0.014176 -0.001363 0.000000 0.000000 0.000000
# 3 -0.005474 -0.001363 0.011100 0.000000 0.000000 0.000000
# 4 0.000000 0.000000 0.000000 0.039329 0.000000 0.000000
# 5 0.000000 0.000000 0.000000 0.000000 0.057608 0.000000
# 6 0.000000 0.000000 0.000000 0.000000 0.000000 0.055080
#
#
# Mechanical properties :
#
#
# Convention : Reuss Voigt Hill
#
# Bulk Modulus (GPa) = 13.68959 22.47652 18.08306
# Shear Modulus (GPa) = 20.24996 25.21036 22.73016
#
# Velocity S-wave (km/s) = 3.11753 3.47847 3.30293
# Velocity P-wave (km/s) = 4.41916 5.18851 4.81921
#
# Compressibility (1/GPa) = 0.07304820
#
# Stress axis : x y z
#
# Youngs Moduli (GPa) = 21.49568 70.54015 90.08656
#
# Poissons Ratio (x) = -0.52635 0.49312
# Poissons Ratio (y) = -0.16040 0.12276
# Poissons Ratio (z) = 0.11766 0.09613
#
# Static dielectric constant tensor:
#      x y z
#    x 3.359750 0.000000 0.000000 
#    y 0.000000 3.828960 0.000000 
#    z 0.000000 0.000000 3.789660 
# 
# 
# High freq. dielectric constant tensor:
#      x y z
#    x 1.776860 0.000000 0.000000 
#    y 0.000000 1.821760 0.000000 
#    z 0.000000 0.000000 1.820590 
# 
# From -- ./inp_files/8959.got.cif
#   From: 2010.06.25/outbox.cif.g09.slc.cpg/sg58_5_cif.got.tgz:8959.got - 2010.06.26 21:38:00.
