data_PCOD8236119
_publ_section_title
;
Structure prediction by ZEFSAII (Michael W. Deem and Ramdas Pophale) SiO2 
 PCOD8236119
Probable space group: P N N M
;
_chemical_formula_sum "Si O2"
_cell_formula_units_Z 48
_cell_length_a 13.916152
_cell_length_b 20.243107
_cell_length_c 9.625744
_cell_angle_alpha 90.000000
_cell_angle_beta 90.000000
_cell_angle_gamma 90.000000
_cell_volume 2711.631321
_symmetry_space_group_name_H-M "P N N M"
_symmetry_group_IT_number 58
_symmetry_cell_setting 'orthorhombic'
loop_
_space_group_symop_operation_xyz
x,y,z
-x,-y,z
1/2+x,1/2-y,1/2-z
1/2-x,1/2+y,1/2-z
-x,-y,-z
x,y,-z
1/2-x,1/2+y,1/2+z
1/2+x,1/2-y,1/2+z
loop_
_atom_site_type_symbol
_atom_site_label
_atom_site_fract_x
_atom_site_fract_y
_atom_site_fract_z
Si Si1 0.748491 0.236251 0.659694
Si Si2 0.250540 0.114301 0.164265
Si Si3 0.546247 0.932883 0.165254
Si Si4 0.961374 0.184039 0.656996
Si Si5 0.415474 0.811670 0.838170
Si Si6 0.542969 0.429924 0.336788
O O1 0.714022 0.234892 0.500000
O O2 0.744231 0.310762 0.720647
O O3 0.854376 0.208992 0.676305
O O4 0.681886 0.188060 0.750024
O O5 0.345268 0.077386 0.224421
O O6 0.154959 0.074322 0.208926
O O7 0.261497 0.118201 0.000000
O O8 0.480948 0.871954 0.214051
O O9 0.500000 0.000000 0.226504
O O10 0.549902 0.936325 0.000000
O O11 0.979587 0.159663 0.500000
O O12 0.030798 0.243934 0.694753
O O13 0.979797 0.124616 0.761058
O O14 0.390336 0.819531 0.000000
O O15 0.500000 0.500000 0.292189
O O16 0.532585 0.417383 0.500000
#
# Coordination Sequence:
#
# PCOD8236119 Si02
#       6
#     8   8   8   8   8   8
#     4  10  19  33  54  76 104 144 177 208 261 319
#     4   9  16  30  50  72 102 139 173 206 259 320
#     4   9  17  30  51  77 105 137 171 214 264 309
#     4  10  20  34  53  77 105 138 179 217 257 315
#     4  10  19  32  52  80 104 128 177 227 253 297
#     4  10  21  35  54  80 109 139 175 220 267 315
#
# _framework density 17.701521
#
# number of rings (size 3 to 8) (size 9 to 14) (size 15 to 20)
#    0.000    2.333    3.333    0.000    0.000    2.333 
#    0.000    3.333    0.000    1.500    0.000    0.000 
#    0.000    0.000    0.000    0.000    0.000    0.000 
#
# Total GULP energy -595185.546751 kJ/mol
# GULP energy per Si atom -12399.698891 kJ/mol
# Density = 1.766123 g / cm^3
# Si number density = 17.701521 Si / 1000 Ang^3
#
#
#
# Elastic Constant Matrix: (Units=GPa)
#
#
# Indices 1 2 3 4 5 6 
#
# 1 96.8685 44.7692 27.1957 0.0000 0.0000 0.0000
# 2 44.7692 102.1704 29.6638 0.0000 0.0000 0.0000
# 3 27.1957 29.6638 32.8377 0.0000 0.0000 0.0000
# 4 0.0000 0.0000 0.0000 17.9221 0.0000 0.0000
# 5 0.0000 0.0000 0.0000 0.0000 25.0790 0.0000
# 6 0.0000 0.0000 0.0000 0.0000 0.0000 27.7286
#
#
#
# Elastic Compliance Matrix: (Units=1/GPa)
#
#
# Indices 1 2 3 4 5 6 
#
# 1 0.014507 -0.003888 -0.008502 0.000000 0.000000 0.000000
# 2 -0.003888 0.014309 -0.009706 0.000000 0.000000 0.000000
# 3 -0.008502 -0.009706 0.046262 0.000000 0.000000 0.000000
# 4 0.000000 0.000000 0.000000 0.055797 0.000000 0.000000
# 5 0.000000 0.000000 0.000000 0.000000 0.039874 0.000000
# 6 0.000000 0.000000 0.000000 0.000000 0.000000 0.036064
#
#
# Mechanical properties :
#
#
# Convention : Reuss Voigt Hill
#
# Bulk Modulus (GPa) = 32.37755 48.34822 40.36288
# Shear Modulus (GPa) = 19.13494 22.82914 20.98204
#
# Velocity S-wave (km/s) = 3.29139 3.59509 3.44659
# Velocity P-wave (km/s) = 5.72493 6.67872 6.22013
#
# Compressibility (1/GPa) = 0.03088560
#
# Stress axis : x y z
#
# Youngs Moduli (GPa) = 68.93076 69.88423 21.61596
#
# Poissons Ratio (x) = 0.27173 0.18378
# Poissons Ratio (y) = 0.26803 0.20981
# Poissons Ratio (z) = 0.58607 0.67830
#
# Static dielectric constant tensor:
#      x y z
#    x 3.455990 0.000000 0.000000 
#    y 0.000000 3.368990 0.000000 
#    z 0.000000 0.000000 2.934250 
# 
# 
# High freq. dielectric constant tensor:
#      x y z
#    x 1.700090 0.000000 0.000000 
#    y 0.000000 1.684310 0.000000 
#    z 0.000000 0.000000 1.642770 
# 
# From -- ./inp_files/5811.got.cif
#   From: 2010.06.25/outbox.cif.g09.slc.cpg/sg58_3_cif.got.tgz:5811.got - 2010.06.26 21:38:00.
