data_PCOD8236111
_publ_section_title
;
Structure prediction by ZEFSAII (Michael W. Deem and Ramdas Pophale) SiO2 
 PCOD8236111
Probable space group: P N N M
;
_chemical_formula_sum "Si O2"
_cell_formula_units_Z 40
_cell_length_a 12.477218
_cell_length_b 20.581659
_cell_length_c 8.782171
_cell_angle_alpha 90.000000
_cell_angle_beta 90.000000
_cell_angle_gamma 90.000000
_cell_volume 2255.277726
_symmetry_space_group_name_H-M "P N N M"
_symmetry_group_IT_number 58
_symmetry_cell_setting 'orthorhombic'
loop_
_space_group_symop_operation_xyz
x,y,z
-x,-y,z
1/2+x,1/2-y,1/2-z
1/2-x,1/2+y,1/2-z
-x,-y,-z
x,y,-z
1/2-x,1/2+y,1/2+z
1/2+x,1/2-y,1/2+z
loop_
_atom_site_type_symbol
_atom_site_label
_atom_site_fract_x
_atom_site_fract_y
_atom_site_fract_z
Si Si1 0.513411 0.925188 0.676508
Si Si2 0.686701 0.838533 0.820997
Si Si3 0.844113 0.660601 0.673075
Si Si4 0.402270 0.690957 0.823603
Si Si5 0.383803 0.293876 0.323031
O O1 0.540190 0.914898 0.500000
O O2 0.611203 0.898286 0.776033
O O3 0.402402 0.888744 0.714256
O O4 0.500000 0.000000 0.719069
O O5 0.801767 0.848760 0.742004
O O6 0.629436 0.772406 0.770134
O O7 0.703710 0.836928 0.000000
O O8 0.871208 0.640788 0.500000
O O9 0.884112 0.733105 0.705779
O O10 0.716512 0.657984 0.703955
O O11 0.509904 0.669485 0.735293
O O12 0.414565 0.673972 0.000000
O O13 0.392654 0.275017 0.500000
#
# Coordination Sequence:
#
# PCOD8236111 Si02
#       5
#     8   8   8   8   8
#     4  11  23  37  54  76 105 141 181 224 265 310
#     4  11  21  33  51  76 106 141 178 215 264 315
#     4   9  19  33  50  76 106 137 175 213 259 317
#     4  10  19  32  52  79 109 138 171 214 266 318
#     4  10  19  32  52  78 109 138 170 216 265 316
#
# _framework density 17.736173000000001
#
# number of rings (size 3 to 8) (size 9 to 14) (size 15 to 20)
#    0.000    1.800    2.000    4.800    0.000    5.600 
#    0.000    0.000    0.000    1.200    0.000    8.400 
#    0.000    0.000    0.000    0.000    0.000    0.000 
#
# Total GULP energy -496130.021286 kJ/mol
# GULP energy per Si atom -12403.250532 kJ/mol
# Density = 1.769581 g / cm^3
# Si number density = 17.736173 Si / 1000 Ang^3
#
#
#
# Elastic Constant Matrix: (Units=GPa)
#
#
# Indices 1 2 3 4 5 6 
#
# 1 138.5136 28.0303 38.9281 0.0000 0.0000 0.0000
# 2 28.0303 57.5643 30.3130 0.0000 0.0000 0.0000
# 3 38.9281 30.3130 87.9045 0.0000 0.0000 0.0000
# 4 0.0000 0.0000 0.0000 20.8257 0.0000 0.0000
# 5 0.0000 0.0000 0.0000 0.0000 36.7884 0.0000
# 6 0.0000 0.0000 0.0000 0.0000 0.0000 16.8881
#
#
#
# Elastic Compliance Matrix: (Units=1/GPa)
#
#
# Indices 1 2 3 4 5 6 
#
# 1 0.008566 -0.002656 -0.002877 0.000000 0.000000 0.000000
# 2 -0.002656 0.022050 -0.006428 0.000000 0.000000 0.000000
# 3 -0.002877 -0.006428 0.014867 0.000000 0.000000 0.000000
# 4 0.000000 0.000000 0.000000 0.048018 0.000000 0.000000
# 5 0.000000 0.000000 0.000000 0.000000 0.027182 0.000000
# 6 0.000000 0.000000 0.000000 0.000000 0.000000 0.059213
#
#
# Mechanical properties :
#
#
# Convention : Reuss Voigt Hill
#
# Bulk Modulus (GPa) = 46.38076 53.16947 49.77511
# Shear Modulus (GPa) = 23.69626 27.34784 25.52205
#
# Velocity S-wave (km/s) = 3.65916 3.93099 3.79751
# Velocity P-wave (km/s) = 6.63775 7.11665 6.88137
#
# Compressibility (1/GPa) = 0.02156066
#
# Stress axis : x y z
#
# Youngs Moduli (GPa) = 116.74592 45.35203 67.26427
#
# Poissons Ratio (x) = 0.12044 0.19355
# Poissons Ratio (y) = 0.31004 0.43235
# Poissons Ratio (z) = 0.33593 0.29150
#
# Static dielectric constant tensor:
#      x y z
#    x 3.600470 0.000000 0.000000 
#    y 0.000000 2.851130 0.000000 
#    z 0.000000 0.000000 3.342330 
# 
# 
# High freq. dielectric constant tensor:
#      x y z
#    x 1.705150 0.000000 0.000000 
#    y 0.000000 1.630280 0.000000 
#    z 0.000000 0.000000 1.701130 
# 
# From -- ./inp_files/3767.got.cif
#   From: 2010.06.25/outbox.cif.g09.slc.cpg/sg58_2_cif.got.tgz:3767.got - 2010.06.26 21:38:00.
