data_PCOD8236994
_publ_section_title
;
Structure prediction by ZEFSAII (Michael W. Deem and Ramdas Pophale) SiO2 
 PCOD8236994
Probable space group: P N N M
;
_chemical_formula_sum "Si O2"
_cell_formula_units_Z 64
_cell_length_a 22.920270
_cell_length_b 18.545992
_cell_length_c 8.789838
_cell_angle_alpha 90.000000
_cell_angle_beta 90.000000
_cell_angle_gamma 90.000000
_cell_volume 3736.376813
_symmetry_space_group_name_H-M "P N N M"
_symmetry_group_IT_number 58
_symmetry_cell_setting 'orthorhombic'
loop_
_space_group_symop_operation_xyz
x,y,z
-x,-y,z
1/2+x,1/2-y,1/2-z
1/2-x,1/2+y,1/2-z
-x,-y,-z
x,y,-z
1/2-x,1/2+y,1/2+z
1/2+x,1/2-y,1/2+z
loop_
_atom_site_type_symbol
_atom_site_label
_atom_site_fract_x
_atom_site_fract_y
_atom_site_fract_z
Si Si1 0.377580 0.430313 0.317259
Si Si2 0.670963 0.787016 0.330013
Si Si3 0.762045 0.137881 0.166092
Si Si4 0.163819 0.296866 0.166093
Si Si5 0.054502 0.214411 0.817210
Si Si6 0.880692 0.918469 0.680584
Si Si7 0.771733 0.853986 0.169952
Si Si8 0.431935 0.290579 0.180517
O O1 0.380681 0.434484 0.500000
O O2 0.311010 0.414299 0.259867
O O3 0.399715 0.502917 0.238774
O O4 0.419439 0.366488 0.261770
O O5 0.652225 0.811312 0.500000
O O6 0.710980 0.717022 0.342212
O O7 0.708314 0.850557 0.250099
O O8 0.614217 0.770517 0.228883
O O9 0.699574 0.140071 0.249533
O O10 0.747562 0.108142 0.000000
O O11 0.101523 0.274772 0.239047
O O12 0.202688 0.225638 0.157926
O O13 0.152174 0.328446 0.000000
O O14 0.074688 0.136354 0.759041
O O15 0.994343 0.236662 0.739254
O O16 0.050402 0.212158 0.000000
O O17 0.886297 0.912796 0.500000
O O18 0.814123 0.904204 0.730885
O O19 0.765565 0.886847 0.000000
O O20 0.431071 0.300441 0.000000
#
# Coordination Sequence:
#
# PCOD8236994 Si02
#       8
#     8   8   8   8   8   8   8   8
#     4  10  20  34  47  62  87 121 154 186 223 265
#     4   9  16  28  45  65  87 113 143 180 224 268
#     4   8  15  26  43  63  83 107 138 175 219 263
#     4   8  15  26  43  63  83 107 138 175 219 263
#     4  10  20  34  47  62  87 121 154 186 223 265
#     4  11  21  32  46  66  89 117 153 191 225 264
#     4   9  16  28  45  65  87 113 143 180 224 268
#     4  11  21  32  46  66  89 117 153 191 225 264
#
# _framework density 17.128892
#
# number of rings (size 3 to 8) (size 9 to 14) (size 15 to 20)
#    0.000    2.500    0.000    5.250    0.000    7.500 
#    0.000    2.500    0.000    0.000    0.000    0.000 
#    0.000    1.000    0.000   10.500    0.000    6.250 
#
# Total GULP energy -793210.270623 kJ/mol
# GULP energy per Si atom -12393.910478 kJ/mol
# Density = 1.708991 g / cm^3
# Si number density = 17.128892 Si / 1000 Ang^3
#
#
#
# Elastic Constant Matrix: (Units=GPa)
#
#
# Indices 1 2 3 4 5 6 
#
# 1 106.0204 13.2175 31.3243 0.0000 0.0000 0.0000
# 2 13.2175 4.6482 6.6363 0.0000 0.0000 0.0000
# 3 31.3243 6.6363 92.9818 0.0000 0.0000 0.0000
# 4 0.0000 0.0000 0.0000 17.7919 0.0000 0.0000
# 5 0.0000 0.0000 0.0000 0.0000 30.9126 0.0000
# 6 0.0000 0.0000 0.0000 0.0000 0.0000 14.9836
#
#
#
# Elastic Compliance Matrix: (Units=1/GPa)
#
#
# Indices 1 2 3 4 5 6 
#
# 1 0.015020 -0.039512 -0.002240 0.000000 0.000000 0.000000
# 2 -0.039512 0.343486 -0.011204 0.000000 0.000000 0.000000
# 3 -0.002240 -0.011204 0.012309 0.000000 0.000000 0.000000
# 4 0.000000 0.000000 0.000000 0.056205 0.000000 0.000000
# 5 0.000000 0.000000 0.000000 0.000000 0.032349 0.000000
# 6 0.000000 0.000000 0.000000 0.000000 0.000000 0.066740
#
#
# Mechanical properties :
#
#
# Convention : Reuss Voigt Hill
#
# Bulk Modulus (GPa) = 3.77498 34.00074 18.88786
# Shear Modulus (GPa) = 6.94134 22.90244 14.92189
#
# Velocity S-wave (km/s) = 2.01524 3.66056 2.95473
# Velocity P-wave (km/s) = 2.76109 6.14486 4.76355
#
# Compressibility (1/GPa) = 0.26490233
#
# Stress axis : x y z
#
# Youngs Moduli (GPa) = 66.57848 2.91133 81.24081
#
# Poissons Ratio (x) = 0.11503 0.18197
# Poissons Ratio (y) = 2.63064 0.91026
# Poissons Ratio (z) = 0.14913 0.03262
#
# Static dielectric constant tensor:
#      x y z
#    x 3.300410 0.000000 0.000000 
#    y 0.000000 2.819060 0.000000 
#    z 0.000000 0.000000 3.429360 
# 
# 
# High freq. dielectric constant tensor:
#      x y z
#    x 1.655600 0.000000 0.000000 
#    y 0.000000 1.603290 0.000000 
#    z 0.000000 0.000000 1.674180 
# 
# From -- ./inp_files/9449.got.cif
#   From: 2010.06.25/outbox.cif.g09.slc.cpg/sg58_5_cif.got.tgz:9449.got - 2010.06.26 21:38:00.
