data_PCOD8236797
_publ_section_title
;
Structure prediction by ZEFSAII (Michael W. Deem and Ramdas Pophale) SiO2 
 PCOD8236797
Probable space group: P N N M
;
_chemical_formula_sum "Si O2"
_cell_formula_units_Z 64
_cell_length_a 8.889065
_cell_length_b 12.466480
_cell_length_c 28.317085
_cell_angle_alpha 90.000000
_cell_angle_beta 90.000000
_cell_angle_gamma 90.000000
_cell_volume 3137.967715
_symmetry_space_group_name_H-M "P N N M"
_symmetry_group_IT_number 58
_symmetry_cell_setting 'orthorhombic'
loop_
_space_group_symop_operation_xyz
x,y,z
-x,-y,z
1/2+x,1/2-y,1/2-z
1/2-x,1/2+y,1/2-z
-x,-y,-z
x,y,-z
1/2-x,1/2+y,1/2+z
1/2+x,1/2-y,1/2+z
loop_
_atom_site_type_symbol
_atom_site_label
_atom_site_fract_x
_atom_site_fract_y
_atom_site_fract_z
Si Si1 0.307908 0.305597 0.300703
Si Si2 0.180958 0.380860 0.447687
Si Si3 0.160528 0.524843 0.313083
Si Si4 0.177779 0.003415 0.554369
Si Si5 0.328672 0.808857 0.607713
Si Si6 0.843933 0.777673 0.789061
Si Si7 0.324937 0.200387 0.605149
Si Si8 0.851265 0.389229 0.584004
O O1 0.262974 0.420735 0.322045
O O2 0.200330 0.292856 0.255782
O O3 0.481634 0.307446 0.286201
O O4 0.283168 0.210385 0.339157
O O5 0.215292 0.341444 0.500000
O O6 0.298004 0.319219 0.414812
O O7 0.208128 0.508336 0.444711
O O8 0.009753 0.348026 0.435804
O O9 0.252090 0.611845 0.283144
O O10 0.118523 0.577785 0.362598
O O11 0.000000 0.500000 0.287674
O O12 0.237486 0.993514 0.500000
O O13 0.223719 0.115759 0.577630
O O14 0.239733 0.911032 0.588495
O O15 0.000000 0.000000 0.554379
O O16 0.302472 0.789208 0.663653
O O17 0.502428 0.830535 0.597436
O O18 0.271904 0.704373 0.579292
#
# Coordination Sequence:
#
# PCOD8236797 Si02
#       8
#     8   8   8   8   8   8   8   8
#     4  11  22  41  61  89 126 159 208 253 316 371
#     4  11  21  36  59  91 125 160 204 249 296 363
#     4  11  19  36  62  87 119 159 200 245 308 365
#     4  11  25  44  66  90 121 167 217 263 314 377
#     4  10  24  41  63  89 125 158 208 259 313 369
#     4  10  24  39  62  93 121 163 204 259 309 376
#     4  11  23  41  62  90 123 163 203 260 313 373
#     4  10  19  37  59  89 120 161 199 246 298 358
#
# _framework density 20.395365000000002
#
# number of rings (size 3 to 8) (size 9 to 14) (size 15 to 20)
#    0.000    1.375    2.500    3.375    0.000    8.000 
#    0.000    1.875    0.000    0.000    0.000    0.000 
#    0.000    0.000    0.000    0.000    0.000    0.000 
#
# Total GULP energy -793618.787553 kJ/mol
# GULP energy per Si atom -12400.293556 kJ/mol
# Density = 2.034894 g / cm^3
# Si number density = 20.395365 Si / 1000 Ang^3
#
#
#
# Elastic Constant Matrix: (Units=GPa)
#
#
# Indices 1 2 3 4 5 6 
#
# 1 81.0948 33.1321 37.4487 0.0000 0.0000 0.0000
# 2 33.1321 88.8429 30.4595 0.0000 0.0000 0.0000
# 3 37.4487 30.4595 91.3705 0.0000 0.0000 0.0000
# 4 0.0000 0.0000 0.0000 22.2079 0.0000 0.0000
# 5 0.0000 0.0000 0.0000 0.0000 26.8089 0.0000
# 6 0.0000 0.0000 0.0000 0.0000 0.0000 39.4094
#
#
#
# Elastic Compliance Matrix: (Units=1/GPa)
#
#
# Indices 1 2 3 4 5 6 
#
# 1 0.016576 -0.004350 -0.005344 0.000000 0.000000 0.000000
# 2 -0.004350 0.013850 -0.002834 0.000000 0.000000 0.000000
# 3 -0.005344 -0.002834 0.014079 0.000000 0.000000 0.000000
# 4 0.000000 0.000000 0.000000 0.045029 0.000000 0.000000
# 5 0.000000 0.000000 0.000000 0.000000 0.037301 0.000000
# 6 0.000000 0.000000 0.000000 0.000000 0.000000 0.025375
#
#
# Mechanical properties :
#
#
# Convention : Reuss Voigt Hill
#
# Bulk Modulus (GPa) = 51.41422 51.48766 51.45094
# Shear Modulus (GPa) = 27.21112 28.36976 27.79044
#
# Velocity S-wave (km/s) = 3.65661 3.73364 3.69533
# Velocity P-wave (km/s) = 6.56439 6.62468 6.59460
#
# Compressibility (1/GPa) = 0.01944987
#
# Stress axis : x y z
#
# Youngs Moduli (GPa) = 60.32818 72.20416 71.02542
#
# Poissons Ratio (x) = 0.31406 0.37954
# Poissons Ratio (y) = 0.26240 0.20130
# Poissons Ratio (z) = 0.32238 0.20464
#
# Static dielectric constant tensor:
#      x y z
#    x 3.716370 0.000000 0.000000 
#    y 0.000000 3.910070 0.000000 
#    z 0.000000 0.000000 3.719360 
# 
# 
# High freq. dielectric constant tensor:
#      x y z
#    x 1.801180 0.000000 0.000000 
#    y 0.000000 1.797900 0.000000 
#    z 0.000000 0.000000 1.797040 
# 
# From -- ./inp_files/34740.got.cif
#   From: 2010.06.25/outbox.cif.g09.slc.cpg/sg58_18_cif.got.tgz:34740.got - 2010.06.26 21:38:00.
