data_PCOD8236444
_publ_section_title
;
Structure prediction by ZEFSAII (Michael W. Deem and Ramdas Pophale) SiO2 
 PCOD8236444
Probable space group: P N N M
;
_chemical_formula_sum "Si O2"
_cell_formula_units_Z 64
_cell_length_a 22.322387
_cell_length_b 16.725840
_cell_length_c 8.922648
_cell_angle_alpha 90.000000
_cell_angle_beta 90.000000
_cell_angle_gamma 90.000000
_cell_volume 3331.365866
_symmetry_space_group_name_H-M "P N N M"
_symmetry_group_IT_number 58
_symmetry_cell_setting 'orthorhombic'
loop_
_space_group_symop_operation_xyz
x,y,z
-x,-y,z
1/2+x,1/2-y,1/2-z
1/2-x,1/2+y,1/2-z
-x,-y,-z
x,y,-z
1/2-x,1/2+y,1/2+z
1/2+x,1/2-y,1/2+z
loop_
_atom_site_type_symbol
_atom_site_label
_atom_site_fract_x
_atom_site_fract_y
_atom_site_fract_z
Si Si1 0.357243 0.353275 0.322084
Si Si2 0.119225 0.676360 0.176399
Si Si3 0.003674 0.406756 0.825165
Si Si4 0.359526 0.654612 0.677239
Si Si5 0.567183 0.499262 0.321510
Si Si6 0.268692 0.092241 0.822650
Si Si7 0.768953 0.588456 0.321812
Si Si8 0.114171 0.320449 0.322223
O O1 0.356997 0.359572 0.500000
O O2 0.383277 0.268279 0.269557
O O3 0.399008 0.423163 0.255458
O O4 0.289460 0.364450 0.261987
O O5 0.174244 0.634621 0.255358
O O6 0.058166 0.633896 0.225841
O O7 0.129500 0.669872 0.000000
O O8 0.056001 0.367918 0.729463
O O9 0.000000 0.500000 0.786981
O O10 0.016474 0.391851 0.000000
O O11 0.364678 0.666120 0.500000
O O12 0.399174 0.580165 0.732964
O O13 0.291070 0.639234 0.727279
O O14 0.386281 0.731832 0.756799
O O15 0.500000 0.500000 0.257232
O O16 0.567060 0.502614 0.500000
O O17 0.266492 0.001900 0.760181
O O18 0.274195 0.091400 0.000000
O O19 0.769848 0.587343 0.500000
O O20 0.827687 0.632857 0.259409
O O21 0.114811 0.315576 0.500000
#
# Coordination Sequence:
#
# PCOD8236444 Si02
#       8
#     8   8   8   8   8   8   8   8
#     4   9  16  30  51  78 106 133 176 224 264 311
#     4  10  21  34  55  82 108 141 179 226 276 324
#     4  10  22  40  58  81 114 147 183 230 285 339
#     4  10  20  35  56  83 113 143 181 229 281 332
#     4   9  17  29  52  82 108 138 178 225 271 321
#     4  10  19  34  56  80 108 143 180 222 275 329
#     4   9  17  32  52  76 106 140 179 225 270 318
#     4  11  23  36  56  82 111 149 190 232 279 332
#
# _framework density 19.211338999999999
#
# number of rings (size 3 to 8) (size 9 to 14) (size 15 to 20)
#    0.000    2.250    1.250    1.875    1.750    2.250 
#    0.000    0.625    0.000    1.875    0.000    0.000 
#    0.000    0.000    0.000    0.000    0.000    0.000 
#
# Total GULP energy -793680.755433 kJ/mol
# GULP energy per Si atom -12401.261804 kJ/mol
# Density = 1.916761 g / cm^3
# Si number density = 19.211339 Si / 1000 Ang^3
#
#
#
# Elastic Constant Matrix: (Units=GPa)
#
#
# Indices 1 2 3 4 5 6 
#
# 1 169.1314 83.8728 26.4022 0.0000 0.0000 0.0000
# 2 83.8728 167.3228 27.9972 0.0000 0.0000 0.0000
# 3 26.4022 27.9972 22.8635 0.0000 0.0000 0.0000
# 4 0.0000 0.0000 0.0000 19.0443 0.0000 0.0000
# 5 0.0000 0.0000 0.0000 0.0000 16.6415 0.0000
# 6 0.0000 0.0000 0.0000 0.0000 0.0000 36.7755
#
#
#
# Elastic Compliance Matrix: (Units=1/GPa)
#
#
# Indices 1 2 3 4 5 6 
#
# 1 0.008426 -0.003265 -0.005733 0.000000 0.000000 0.000000
# 2 -0.003265 0.008781 -0.006983 0.000000 0.000000 0.000000
# 3 -0.005733 -0.006983 0.058909 0.000000 0.000000 0.000000
# 4 0.000000 0.000000 0.000000 0.052509 0.000000 0.000000
# 5 0.000000 0.000000 0.000000 0.000000 0.060091 0.000000
# 6 0.000000 0.000000 0.000000 0.000000 0.000000 0.027192
#
#
# Mechanical properties :
#
#
# Convention : Reuss Voigt Hill
#
# Bulk Modulus (GPa) = 22.64728 70.65133 46.64930
# Shear Modulus (GPa) = 19.04117 29.22864 24.13490
#
# Velocity S-wave (km/s) = 3.15166 3.90478 3.54826
# Velocity P-wave (km/s) = 5.00580 7.56210 6.41262
#
# Compressibility (1/GPa) = 0.04415542
#
# Stress axis : x y z
#
# Youngs Moduli (GPa) = 118.67419 113.87772 16.97528
#
# Poissons Ratio (x) = 0.37176 0.09732
# Poissons Ratio (y) = 0.38742 0.11854
# Poissons Ratio (z) = 0.68036 0.79523
#
# Static dielectric constant tensor:
#      x y z
#    x 3.735430 0.000000 0.000000 
#    y 0.000000 3.966770 0.000000 
#    z 0.000000 0.000000 3.024580 
# 
# 
# High freq. dielectric constant tensor:
#      x y z
#    x 1.763600 0.000000 0.000000 
#    y 0.000000 1.766370 0.000000 
#    z 0.000000 0.000000 1.697640 
# 
# From -- ./inp_files/10105.got.cif
#   From: 2010.06.25/outbox.cif.g09.slc.cpg/sg58_6_cif.got.tgz:10105.got - 2010.06.26 21:38:00.
