data_PCOD8236713
_publ_section_title
;
Structure prediction by ZEFSAII (Michael W. Deem and Ramdas Pophale) SiO2 
 PCOD8236713
Probable space group: P N N M
;
_chemical_formula_sum "Si O2"
_cell_formula_units_Z 48
_cell_length_a 20.154393
_cell_length_b 14.077498
_cell_length_c 9.207511
_cell_angle_alpha 90.000000
_cell_angle_beta 90.000000
_cell_angle_gamma 90.000000
_cell_volume 2612.386576
_symmetry_space_group_name_H-M "P N N M"
_symmetry_group_IT_number 58
_symmetry_cell_setting 'orthorhombic'
loop_
_space_group_symop_operation_xyz
x,y,z
-x,-y,z
1/2+x,1/2-y,1/2-z
1/2-x,1/2+y,1/2-z
-x,-y,-z
x,y,-z
1/2-x,1/2+y,1/2+z
1/2+x,1/2-y,1/2+z
loop_
_atom_site_type_symbol
_atom_site_label
_atom_site_fract_x
_atom_site_fract_y
_atom_site_fract_z
Si Si1 0.188047 0.451078 0.671955
Si Si2 0.757796 0.743642 0.331526
Si Si3 0.392199 0.256381 0.328778
Si Si4 0.570745 0.953195 0.333809
Si Si5 0.064320 0.942259 0.670021
Si Si6 0.697204 0.447122 0.167339
O O1 0.183273 0.455098 0.500000
O O2 0.202222 0.345387 0.733429
O O3 0.119519 0.486933 0.734971
O O4 0.248226 0.515067 0.723896
O O5 0.746491 0.726123 0.500000
O O6 0.683205 0.751245 0.266045
O O7 0.803897 0.834592 0.302936
O O8 0.393699 0.275673 0.500000
O O9 0.429398 0.157895 0.289176
O O10 0.430992 0.342124 0.251933
O O11 0.594652 0.961807 0.500000
O O12 0.500000 0.000000 0.308969
O O13 0.059572 0.919958 0.500000
O O14 0.126813 0.008470 0.707885
O O15 0.000000 0.000000 0.724048
O O16 0.716689 0.468570 0.000000
#
# Coordination Sequence:
#
# PCOD8236713 Si02
#       6
#     8   8   8   8   8   8
#     4  11  21  34  56  86 113 139 183 235 278 324
#     4   9  18  33  55  81 109 146 186 226 278 330
#     4  10  19  36  59  80 109 148 187 228 279 335
#     4  10  22  40  60  82 112 151 190 225 273 339
#     4  10  22  37  56  85 117 148 186 231 280 335
#     4  10  19  36  58  78 109 152 189 224 272 329
#
# _framework density 18.374002999999998
#
# number of rings (size 3 to 8) (size 9 to 14) (size 15 to 20)
#    0.000    2.000    3.333    0.500    0.000    2.667 
#    0.000    3.333    0.000    0.000    0.000    0.000 
#    0.000    0.000    0.000    0.000    0.000    0.000 
#
# Total GULP energy -595166.426020 kJ/mol
# GULP energy per Si atom -12399.300542 kJ/mol
# Density = 1.833218 g / cm^3
# Si number density = 18.374003 Si / 1000 Ang^3
#
#
#
# Elastic Constant Matrix: (Units=GPa)
#
#
# Indices 1 2 3 4 5 6 
#
# 1 92.2816 53.9619 38.1263 0.0000 0.0000 0.0000
# 2 53.9619 148.4563 41.4698 0.0000 0.0000 0.0000
# 3 38.1263 41.4698 49.5071 0.0000 0.0000 0.0000
# 4 0.0000 0.0000 0.0000 26.5312 0.0000 0.0000
# 5 0.0000 0.0000 0.0000 0.0000 193.7078 0.0000
# 6 0.0000 0.0000 0.0000 0.0000 0.0000 37.9015
#
#
#
# Elastic Compliance Matrix: (Units=1/GPa)
#
#
# Indices 1 2 3 4 5 6 
#
# 1 0.017049 -0.003302 -0.010364 0.000000 0.000000 0.000000
# 2 -0.003302 0.009433 -0.005359 0.000000 0.000000 0.000000
# 3 -0.010364 -0.005359 0.032669 0.000000 0.000000 0.000000
# 4 0.000000 0.000000 0.000000 0.037691 0.000000 0.000000
# 5 0.000000 0.000000 0.000000 0.000000 0.005162 0.000000
# 6 0.000000 0.000000 0.000000 0.000000 0.000000 0.026384
#
#
# Mechanical properties :
#
#
# Convention : Reuss Voigt Hill
#
# Bulk Modulus (GPa) = 47.38829 61.92900 54.65864
# Shear Modulus (GPa) = 28.82291 62.07390 45.44841
#
# Velocity S-wave (km/s) = 3.96495 5.81867 4.97884
# Velocity P-wave (km/s) = 6.84164 8.88371 7.92870
#
# Compressibility (1/GPa) = 0.02110226
#
# Stress axis : x y z
#
# Youngs Moduli (GPa) = 58.65392 106.00902 30.60976
#
# Poissons Ratio (x) = 0.35005 0.31724
# Poissons Ratio (y) = 0.19368 0.16403
# Poissons Ratio (z) = 0.60788 0.56807
#
# Static dielectric constant tensor:
#      x y z
#    x 4.659560 0.000000 0.000000 
#    y 0.000000 3.500050 0.000000 
#    z 0.000000 0.000000 3.218460 
# 
# 
# High freq. dielectric constant tensor:
#      x y z
#    x 1.709370 0.000000 0.000000 
#    y 0.000000 1.729270 0.000000 
#    z 0.000000 0.000000 1.692510 
# 
# From -- ./inp_files/5761.got.cif
#   From: 2010.06.25/outbox.cif.g09.slc.cpg/sg58_3_cif.got.tgz:5761.got - 2010.06.26 21:38:00.
