data_PCOD8236536
_publ_section_title
;
Structure prediction by ZEFSAII (Michael W. Deem and Ramdas Pophale) SiO2 
 PCOD8236536
Probable space group: P N N M
;
_chemical_formula_sum "Si O2"
_cell_formula_units_Z 64
_cell_length_a 12.429227
_cell_length_b 28.454797
_cell_length_c 8.858112
_cell_angle_alpha 90.000000
_cell_angle_beta 90.000000
_cell_angle_gamma 90.000000
_cell_volume 3132.858491
_symmetry_space_group_name_H-M "P N N M"
_symmetry_group_IT_number 58
_symmetry_cell_setting 'orthorhombic'
loop_
_space_group_symop_operation_xyz
x,y,z
-x,-y,z
1/2+x,1/2-y,1/2-z
1/2-x,1/2+y,1/2-z
-x,-y,-z
x,y,-z
1/2-x,1/2+y,1/2+z
1/2+x,1/2-y,1/2+z
loop_
_atom_site_type_symbol
_atom_site_label
_atom_site_fract_x
_atom_site_fract_y
_atom_site_fract_z
Si Si1 0.336089 0.621972 0.678037
Si Si2 0.275420 0.334454 0.173765
Si Si3 0.257100 0.438676 0.828839
Si Si4 0.613813 0.861157 0.320361
Si Si5 0.062817 0.297636 0.324589
Si Si6 0.987494 0.550859 0.174444
Si Si7 0.509461 0.307582 0.173603
Si Si8 0.113449 0.017669 0.177966
O O1 0.318682 0.621766 0.500000
O O2 0.232719 0.645657 0.755559
O O3 0.438743 0.653354 0.719035
O O4 0.355605 0.569112 0.741344
O O5 0.309755 0.388436 0.209632
O O6 0.178718 0.317270 0.277815
O O7 0.381652 0.303899 0.206846
O O8 0.237335 0.330347 0.000000
O O9 0.131441 0.429837 0.802091
O O10 0.296431 0.479867 0.720432
O O11 0.281359 0.454522 0.000000
O O12 0.617425 0.860007 0.500000
O O13 0.535312 0.820029 0.266901
O O14 0.568825 0.910910 0.255951
O O15 0.044177 0.308224 0.500000
O O16 0.062736 0.242316 0.290028
O O17 0.000000 0.500000 0.254973
O O18 0.017981 0.545114 0.000000
O O19 0.528527 0.322347 0.000000
O O20 0.104109 0.020860 0.000000
O O21 0.000000 0.000000 0.247524
#
# Coordination Sequence:
#
# PCOD8236536 Si02
#       8
#     8   8   8   8   8   8   8   8
#     4  11  24  41  62  92 129 167 209 257 309 368
#     4  10  21  41  65  90 122 160 207 259 310 370
#     4  10  19  34  58  87 115 152 205 252 299 359
#     4  11  22  40  64  88 124 166 204 253 312 371
#     4  11  24  41  62  93 125 158 204 258 318 377
#     4   9  17  31  53  83 116 151 195 246 295 350
#     4  10  24  43  64  91 122 160 208 258 310 373
#     4  10  22  39  58  85 125 167 205 248 309 371
#
# _framework density 20.428626999999999
#
# number of rings (size 3 to 8) (size 9 to 14) (size 15 to 20)
#    0.000    1.750    1.250    2.625    1.750    4.250 
#    0.000    0.000    0.000    2.625    0.000    0.000 
#    0.000    0.000    0.000    0.000    0.000    0.000 
#
# Total GULP energy -793763.998938 kJ/mol
# GULP energy per Si atom -12402.562483 kJ/mol
# Density = 2.038213 g / cm^3
# Si number density = 20.428627 Si / 1000 Ang^3
#
#
#
# Elastic Constant Matrix: (Units=GPa)
#
#
# Indices 1 2 3 4 5 6 
#
# 1 94.3646 40.7282 31.8797 0.0000 0.0000 0.0000
# 2 40.7282 98.7017 35.3702 0.0000 0.0000 0.0000
# 3 31.8797 35.3702 56.6224 0.0000 0.0000 0.0000
# 4 0.0000 0.0000 0.0000 29.2268 0.0000 0.0000
# 5 0.0000 0.0000 0.0000 0.0000 32.1626 0.0000
# 6 0.0000 0.0000 0.0000 0.0000 0.0000 35.3619
#
#
#
# Elastic Compliance Matrix: (Units=1/GPa)
#
#
# Indices 1 2 3 4 5 6 
#
# 1 0.014132 -0.003840 -0.005558 0.000000 0.000000 0.000000
# 2 -0.003840 0.014097 -0.006644 0.000000 0.000000 0.000000
# 3 -0.005558 -0.006644 0.024941 0.000000 0.000000 0.000000
# 4 0.000000 0.000000 0.000000 0.034215 0.000000 0.000000
# 5 0.000000 0.000000 0.000000 0.000000 0.031092 0.000000
# 6 0.000000 0.000000 0.000000 0.000000 0.000000 0.028279
#
#
# Mechanical properties :
#
#
# Convention : Reuss Voigt Hill
#
# Bulk Modulus (GPa) = 47.42539 51.73834 49.58187
# Shear Modulus (GPa) = 26.90076 28.79762 27.84919
#
# Velocity S-wave (km/s) = 3.63273 3.75863 3.69622
# Velocity P-wave (km/s) = 6.39228 6.64964 6.52223
#
# Compressibility (1/GPa) = 0.02108575
#
# Stress axis : x y z
#
# Youngs Moduli (GPa) = 70.76045 70.93776 40.09528
#
# Poissons Ratio (x) = 0.27238 0.22286
# Poissons Ratio (y) = 0.27170 0.26639
# Poissons Ratio (z) = 0.39330 0.47131
#
# Static dielectric constant tensor:
#      x y z
#    x 3.694470 0.000000 0.000000 
#    y 0.000000 3.866010 0.000000 
#    z 0.000000 0.000000 3.453660 
# 
# 
# High freq. dielectric constant tensor:
#      x y z
#    x 1.806030 0.000000 0.000000 
#    y 0.000000 1.810170 0.000000 
#    z 0.000000 0.000000 1.776010 
# 
# From -- ./inp_files/4703.got.cif
#   From: 2010.06.25/outbox.cif.g09.slc.cpg/sg58_3_cif.got.tgz:4703.got - 2010.06.26 21:38:00.
