data_PCOD8236494
_publ_section_title
;
Structure prediction by ZEFSAII (Michael W. Deem and Ramdas Pophale) SiO2 
 PCOD8236494
Probable space group: P N N M
;
_chemical_formula_sum "Si O2"
_cell_formula_units_Z 56
_cell_length_a 15.877236
_cell_length_b 19.539943
_cell_length_c 9.174371
_cell_angle_alpha 90.000000
_cell_angle_beta 90.000000
_cell_angle_gamma 90.000000
_cell_volume 2846.259487
_symmetry_space_group_name_H-M "P N N M"
_symmetry_group_IT_number 58
_symmetry_cell_setting 'orthorhombic'
loop_
_space_group_symop_operation_xyz
x,y,z
-x,-y,z
1/2+x,1/2-y,1/2-z
1/2-x,1/2+y,1/2-z
-x,-y,-z
x,y,-z
1/2-x,1/2+y,1/2+z
1/2+x,1/2-y,1/2+z
loop_
_atom_site_type_symbol
_atom_site_label
_atom_site_fract_x
_atom_site_fract_y
_atom_site_fract_z
Si Si1 0.718126 0.128568 0.670904
Si Si2 0.249932 0.239023 0.666352
Si Si3 0.938975 0.801800 0.668376
Si Si4 0.941064 0.937893 0.829896
Si Si5 0.967931 0.668679 0.832449
Si Si6 0.642269 0.890547 0.332932
Si Si7 0.742159 0.492359 0.670859
O O1 0.733531 0.121121 0.500000
O O2 0.763987 0.196994 0.727168
O O3 0.619055 0.131763 0.711089
O O4 0.760005 0.065249 0.751671
O O5 0.256788 0.264766 0.500000
O O6 0.160520 0.203701 0.695272
O O7 0.320597 0.183761 0.704597
O O8 0.963299 0.805325 0.500000
O O9 0.971374 0.870781 0.744413
O O10 0.984806 0.736079 0.737010
O O11 0.844514 0.954328 0.791423
O O12 0.953065 0.923396 0.000000
O O13 0.000000 0.000000 0.778292
O O14 0.042115 0.613829 0.805788
O O15 0.965345 0.692672 0.000000
O O16 0.663094 0.910539 0.500000
O O17 0.679718 0.948167 0.228856
O O18 0.753460 0.503857 0.500000
#
# Coordination Sequence:
#
# PCOD8236494 Si02
#       7
#     8   8   8   8   8   8   8
#     4  10  21  37  57  81 114 152 191 232 277 337
#     4   9  18  34  57  81 107 143 184 232 285 333
#     4  10  19  34  57  83 111 141 179 233 287 329
#     4  10  22  39  58  80 110 150 191 230 281 347
#     4   9  20  37  58  83 111 151 192 229 275 335
#     4  10  20  37  60  84 113 149 192 234 281 341
#     4  11  23  38  58  83 113 150 190 236 288 340
#
# _framework density 19.674945999999998
#
# number of rings (size 3 to 8) (size 9 to 14) (size 15 to 20)
#    0.000    2.143    1.429    1.286    0.000    4.857 
#    0.000    8.571    0.000    0.000    0.000    0.000 
#    0.000    0.000    0.000    0.000    0.000    0.000 
#
# Total GULP energy -694657.901221 kJ/mol
# GULP energy per Si atom -12404.605379 kJ/mol
# Density = 1.963017 g / cm^3
# Si number density = 19.674946 Si / 1000 Ang^3
#
#
#
# Elastic Constant Matrix: (Units=GPa)
#
#
# Indices 1 2 3 4 5 6 
#
# 1 17.6825 -3.7479 8.6532 0.0000 0.0000 0.0000
# 2 -3.7479 84.3082 51.4776 0.0000 0.0000 0.0000
# 3 8.6532 51.4776 85.3408 0.0000 0.0000 0.0000
# 4 0.0000 0.0000 0.0000 44.2216 0.0000 0.0000
# 5 0.0000 0.0000 0.0000 0.0000 25.0363 0.0000
# 6 0.0000 0.0000 0.0000 0.0000 0.0000 24.9704
#
#
#
# Elastic Compliance Matrix: (Units=1/GPa)
#
#
# Indices 1 2 3 4 5 6 
#
# 1 0.065380 0.011009 -0.013270 0.000000 0.000000 0.000000
# 2 0.011009 0.020631 -0.013561 0.000000 0.000000 0.000000
# 3 -0.013270 -0.013561 0.021243 0.000000 0.000000 0.000000
# 4 0.000000 0.000000 0.000000 0.022613 0.000000 0.000000
# 5 0.000000 0.000000 0.000000 0.000000 0.039942 0.000000
# 6 0.000000 0.000000 0.000000 0.000000 0.000000 0.040047
#
#
# Mechanical properties :
#
#
# Convention : Reuss Voigt Hill
#
# Bulk Modulus (GPa) = 13.22563 33.34416 23.28490
# Shear Modulus (GPa) = 18.74739 27.57556 23.16147
#
# Velocity S-wave (km/s) = 3.09019 3.74780 3.43477
# Velocity P-wave (km/s) = 4.41237 5.97598 5.25268
#
# Compressibility (1/GPa) = 0.07561076
#
# Stress axis : x y z
#
# Youngs Moduli (GPa) = 15.29510 48.47164 47.07420
#
# Poissons Ratio (x) = -0.53362 0.62467
# Poissons Ratio (y) = -0.16838 0.63836
# Poissons Ratio (z) = 0.20296 0.65731
#
# Static dielectric constant tensor:
#      x y z
#    x 3.523270 0.000000 0.000000 
#    y 0.000000 3.479960 0.000000 
#    z 0.000000 0.000000 3.563420 
# 
# 
# High freq. dielectric constant tensor:
#      x y z
#    x 1.759290 0.000000 0.000000 
#    y 0.000000 1.767730 0.000000 
#    z 0.000000 0.000000 1.766600 
# 
# From -- ./inp_files/8185.got.cif
#   From: 2010.06.25/outbox.cif.g09.slc.cpg/sg58_5_cif.got.tgz:8185.got - 2010.06.26 21:38:00.
