data_PCOD8236760
_publ_section_title
;
Structure prediction by ZEFSAII (Michael W. Deem and Ramdas Pophale) SiO2 
 PCOD8236760
Probable space group: P N N M
;
_chemical_formula_sum "Si O2"
_cell_formula_units_Z 48
_cell_length_a 30.662517
_cell_length_b 9.046800
_cell_length_c 8.465071
_cell_angle_alpha 90.000000
_cell_angle_beta 90.000000
_cell_angle_gamma 90.000000
_cell_volume 2348.190877
_symmetry_space_group_name_H-M "P N N M"
_symmetry_group_IT_number 58
_symmetry_cell_setting 'orthorhombic'
loop_
_space_group_symop_operation_xyz
x,y,z
-x,-y,z
1/2+x,1/2-y,1/2-z
1/2-x,1/2+y,1/2-z
-x,-y,-z
x,y,-z
1/2-x,1/2+y,1/2+z
1/2+x,1/2-y,1/2+z
loop_
_atom_site_type_symbol
_atom_site_label
_atom_site_fract_x
_atom_site_fract_y
_atom_site_fract_z
Si Si1 0.452298 0.656531 0.314944
Si Si2 0.879633 0.339520 0.184232
Si Si3 0.631857 0.170257 0.687363
Si Si4 0.213354 0.141530 0.813960
Si Si5 0.544157 0.660180 0.182921
Si Si6 0.299066 0.321970 0.182984
O O1 0.459148 0.681939 0.500000
O O2 0.411651 0.750158 0.248853
O O3 0.495352 0.712697 0.224843
O O4 0.443171 0.484031 0.283860
O O5 0.866701 0.501739 0.248241
O O6 0.922775 0.290964 0.276840
O O7 0.840362 0.226699 0.214462
O O8 0.890750 0.342523 0.000000
O O9 0.632482 0.174035 0.500000
O O10 0.674218 0.255956 0.751214
O O11 0.212785 0.989676 0.719888
O O12 0.258299 0.220880 0.770723
O O13 0.208682 0.111687 0.000000
O O14 0.546822 0.618397 0.000000
O O15 0.311070 0.305593 0.000000
#
# Coordination Sequence:
#
# PCOD8236760 Si02
#       6
#     8   8   8   8   8   8
#     4  10  19  36  61  86 111 149 197 238 285 343
#     4  11  22  39  60  82 113 153 193 235 286 342
#     4   9  20  37  59  84 110 146 194 238 277 336
#     4  10  21  39  61  85 116 153 190 231 284 342
#     4  11  22  37  56  84 118 150 189 238 290 342
#     4  11  23  38  59  89 119 149 191 238 283 335
#
# _framework density 20.441269999999999
#
# number of rings (size 3 to 8) (size 9 to 14) (size 15 to 20)
#    0.000    1.667    0.000    6.000    0.000    4.667 
#    0.000    9.167    0.000    0.000    0.000    0.000 
#    0.000    0.000    0.000    0.000    0.000    0.000 
#
# Total GULP energy -595468.895415 kJ/mol
# GULP energy per Si atom -12405.601988 kJ/mol
# Density = 2.039474 g / cm^3
# Si number density = 20.441270 Si / 1000 Ang^3
#
#
#
# Elastic Constant Matrix: (Units=GPa)
#
#
# Indices 1 2 3 4 5 6 
#
# 1 103.7068 29.6578 25.4031 0.0000 0.0000 0.0000
# 2 29.6578 88.7964 12.2423 0.0000 0.0000 0.0000
# 3 25.4031 12.2423 47.9565 0.0000 0.0000 0.0000
# 4 0.0000 0.0000 0.0000 18.1219 0.0000 0.0000
# 5 0.0000 0.0000 0.0000 0.0000 26.0552 0.0000
# 6 0.0000 0.0000 0.0000 0.0000 0.0000 40.3653
#
#
#
# Elastic Compliance Matrix: (Units=1/GPa)
#
#
# Indices 1 2 3 4 5 6 
#
# 1 0.011907 -0.003221 -0.005485 0.000000 0.000000 0.000000
# 2 -0.003221 0.012544 -0.001496 0.000000 0.000000 0.000000
# 3 -0.005485 -0.001496 0.024140 0.000000 0.000000 0.000000
# 4 0.000000 0.000000 0.000000 0.055182 0.000000 0.000000
# 5 0.000000 0.000000 0.000000 0.000000 0.038380 0.000000
# 6 0.000000 0.000000 0.000000 0.000000 0.000000 0.024774
#
#
# Mechanical properties :
#
#
# Convention : Reuss Voigt Hill
#
# Bulk Modulus (GPa) = 35.47787 41.67402 38.57595
# Shear Modulus (GPa) = 25.41607 28.45225 26.93416
#
# Velocity S-wave (km/s) = 3.52997 3.73487 3.63386
# Velocity P-wave (km/s) = 5.83163 6.24743 6.04311
#
# Compressibility (1/GPa) = 0.02818659
#
# Stress axis : x y z
#
# Youngs Moduli (GPa) = 83.98258 79.72128 41.42548
#
# Poissons Ratio (x) = 0.25676 0.22723
# Poissons Ratio (y) = 0.27049 0.06198
# Poissons Ratio (z) = 0.46066 0.11927
#
# Static dielectric constant tensor:
#      x y z
#    x 3.889100 0.000000 0.000000 
#    y 0.000000 3.736630 0.000000 
#    z 0.000000 0.000000 3.474350 
# 
# 
# High freq. dielectric constant tensor:
#      x y z
#    x 1.814960 0.000000 0.000000 
#    y 0.000000 1.801150 0.000000 
#    z 0.000000 0.000000 1.785470 
# 
# From -- ./inp_files/3000.got.cif
#   From: 2010.06.25/outbox.cif.g09.slc.cpg/sg58_2_cif.got.tgz:3000.got - 2010.06.26 21:38:00.
