data_PCOD8236686
_publ_section_title
;
Structure prediction by ZEFSAII (Michael W. Deem and Ramdas Pophale) SiO2 
 PCOD8236686
Probable space group: P N N M
;
_chemical_formula_sum "Si O2"
_cell_formula_units_Z 56
_cell_length_a 13.095841
_cell_length_b 11.903220
_cell_length_c 17.399177
_cell_angle_alpha 90.000000
_cell_angle_beta 90.000000
_cell_angle_gamma 90.000000
_cell_volume 2712.230280
_symmetry_space_group_name_H-M "P N N M"
_symmetry_group_IT_number 58
_symmetry_cell_setting 'orthorhombic'
loop_
_space_group_symop_operation_xyz
x,y,z
-x,-y,z
1/2+x,1/2-y,1/2-z
1/2-x,1/2+y,1/2-z
-x,-y,-z
x,y,-z
1/2-x,1/2+y,1/2+z
1/2+x,1/2-y,1/2+z
loop_
_atom_site_type_symbol
_atom_site_label
_atom_site_fract_x
_atom_site_fract_y
_atom_site_fract_z
Si Si1 0.945127 0.117907 0.085830
Si Si2 0.675802 0.888743 0.088829
Si Si3 0.939335 0.175813 0.412688
Si Si4 0.766325 0.603874 0.333210
Si Si5 0.746714 0.556814 0.156210
Si Si6 0.865856 0.747949 0.090256
Si Si7 0.826698 0.831846 0.409525
O O1 0.850909 0.103578 0.141942
O O2 0.023508 0.211137 0.121354
O O3 0.908064 0.153676 0.000000
O O4 0.000000 0.000000 0.080223
O O5 0.576617 0.809613 0.103297
O O6 0.775694 0.826574 0.124101
O O7 0.663317 0.009117 0.127763
O O8 0.692718 0.913322 0.000000
O O9 0.903691 0.150587 0.500000
O O10 0.865893 0.105464 0.358139
O O11 0.054630 0.135913 0.400328
O O12 0.773548 0.575079 0.244277
O O13 0.811984 0.722845 0.357325
O O14 0.838205 0.619687 0.110772
O O15 0.745246 0.427981 0.127214
O O16 0.868930 0.763766 0.000000
O O17 0.800097 0.812744 0.500000
#
# Coordination Sequence:
#
# PCOD8236686 Si02
#       7
#     8   8   8   8   8   8   8
#     4  10  19  35  61  89 113 150 207 257 296 357
#     4   9  17  35  61  88 117 153 200 250 307 365
#     4   9  20  40  68  91 114 159 213 257 302 376
#     4  12  25  35  59  91 133 160 196 257 320 374
#     4  11  24  38  61  88 127 164 202 257 315 377
#     4   9  18  36  63  85 111 156 209 254 296 359
#     4  11  24  43  64  91 125 166 215 258 308 378
#
# _framework density 20.647214999999999
#
# number of rings (size 3 to 8) (size 9 to 14) (size 15 to 20)
#    0.000    1.857    1.429    3.857    4.000    4.000 
#    0.000    2.857    3.143    2.571    0.000    0.000 
#    0.000    0.000    0.000    0.000    0.000    0.000 
#
# Total GULP energy -694178.549711 kJ/mol
# GULP energy per Si atom -12396.045531 kJ/mol
# Density = 2.060022 g / cm^3
# Si number density = 20.647215 Si / 1000 Ang^3
#
#
#
# Elastic Constant Matrix: (Units=GPa)
#
#
# Indices 1 2 3 4 5 6 
#
# 1 34.1941 -0.4665 5.2844 0.0000 0.0000 0.0000
# 2 -0.4665 107.2946 26.9576 0.0000 0.0000 0.0000
# 3 5.2844 26.9576 63.8820 0.0000 0.0000 0.0000
# 4 0.0000 0.0000 0.0000 -11.2693 0.0000 0.0000
# 5 0.0000 0.0000 0.0000 0.0000 57.9237 0.0000
# 6 0.0000 0.0000 0.0000 0.0000 0.0000 37.4369
#
#
#
# Elastic Compliance Matrix: (Units=1/GPa)
#
#
# Indices 1 2 3 4 5 6 
#
# 1 0.029690 0.000835 -0.002808 0.000000 0.000000 0.000000
# 2 0.000835 0.010449 -0.004478 0.000000 0.000000 0.000000
# 3 -0.002808 -0.004478 0.017776 0.000000 0.000000 0.000000
# 4 0.000000 0.000000 0.000000 -0.088737 0.000000 0.000000
# 5 0.000000 0.000000 0.000000 0.000000 0.017264 0.000000
# 6 0.000000 0.000000 0.000000 0.000000 0.000000 0.026712
#
#
# Mechanical properties :
#
#
# Convention : Reuss Voigt Hill
#
# Bulk Modulus (GPa) = 22.21668 29.88017 26.04842
# Shear Modulus (GPa) = 121.76877 28.39130 75.08004
#
# Velocity S-wave (km/s) = 7.68791 3.71221 6.03674
# Velocity P-wave (km/s) = 9.46513 5.73387 7.82515
#
# Compressibility (1/GPa) = 0.04501123
#
# Stress axis : x y z
#
# Youngs Moduli (GPa) = 33.68116 95.70345 56.25563
#
# Poissons Ratio (x) = -0.07988 0.15798
# Poissons Ratio (y) = -0.02811 0.25193
# Poissons Ratio (z) = 0.09458 0.42860
#
# Static dielectric constant tensor:
#      x y z
#    x 4.132390 0.000000 0.000000 
#    y 0.000000 3.934450 0.000000 
#    z 0.000000 0.000000 3.557960 
# 
# 
# High freq. dielectric constant tensor:
#      x y z
#    x 1.794200 0.000000 0.000000 
#    y 0.000000 1.813210 0.000000 
#    z 0.000000 0.000000 1.790510 
# 
# From -- ./inp_files/22188.got.cif
#   From: 2010.06.25/outbox.cif.g09.slc.cpg/sg58_12_cif.got.tgz:22188.got - 2010.06.26 21:38:00.
