data_PCOD8236873
_publ_section_title
;
Structure prediction by ZEFSAII (Michael W. Deem and Ramdas Pophale) SiO2 
 PCOD8236873
Probable space group: P N N M
;
_chemical_formula_sum "Si O2"
_cell_formula_units_Z 56
_cell_length_a 18.874296
_cell_length_b 16.947547
_cell_length_c 9.329939
_cell_angle_alpha 90.000000
_cell_angle_beta 90.000000
_cell_angle_gamma 90.000000
_cell_volume 2984.395751
_symmetry_space_group_name_H-M "P N N M"
_symmetry_group_IT_number 58
_symmetry_cell_setting 'orthorhombic'
loop_
_space_group_symop_operation_xyz
x,y,z
-x,-y,z
1/2+x,1/2-y,1/2-z
1/2-x,1/2+y,1/2-z
-x,-y,-z
x,y,-z
1/2-x,1/2+y,1/2+z
1/2+x,1/2-y,1/2+z
loop_
_atom_site_type_symbol
_atom_site_label
_atom_site_fract_x
_atom_site_fract_y
_atom_site_fract_z
Si Si1 0.139179 0.678629 0.329894
Si Si2 0.597145 0.358979 0.170225
Si Si3 0.937974 0.167315 0.329187
Si Si4 0.155801 0.975256 0.670099
Si Si5 0.305615 0.919455 0.335587
Si Si6 0.918741 0.488735 0.669651
Si Si7 0.291185 0.735853 0.335279
O O1 0.135733 0.679983 0.500000
O O2 0.089795 0.748901 0.269165
O O3 0.109786 0.595355 0.271654
O O4 0.219722 0.693275 0.279245
O O5 0.517555 0.346016 0.224662
O O6 0.623732 0.443309 0.228587
O O7 0.644004 0.290577 0.237947
O O8 0.602987 0.353346 0.000000
O O9 0.934482 0.166260 0.500000
O O10 0.889469 0.097205 0.265519
O O11 0.150322 0.971586 0.500000
O O12 0.237752 0.969767 0.717577
O O13 0.324456 0.938357 0.500000
O O14 0.283275 0.829075 0.316745
O O15 0.373154 0.941430 0.239909
O O16 0.910365 0.495496 0.500000
O O17 0.000000 0.500000 0.716406
O O18 0.305933 0.713320 0.500000
#
# Coordination Sequence:
#
# PCOD8236873 Si02
#       7
#     8   8   8   8   8   8   8
#     4   9  17  33  53  73 101 142 180 205 249 317
#     4  10  20  30  52  84 107 127 162 220 270 298
#     4   9  16  29  52  79 106 134 167 209 255 310
#     4   9  16  31  52  79 107 132 169 212 258 310
#     4  10  20  35  55  75 101 139 179 216 254 307
#     4  10  22  36  54  80 109 139 175 221 267 312
#     4  10  20  35  54  74 101 143 183 209 248 315
#
# _framework density 18.764265999999999
#
# number of rings (size 3 to 8) (size 9 to 14) (size 15 to 20)
#    0.000    2.429    1.429    1.286    2.000    2.571 
#    0.000    0.000    0.000    3.429    0.000    0.000 
#    0.000    0.000    0.000    0.000    0.000    0.000 
#
# Total GULP energy -694432.945512 kJ/mol
# GULP energy per Si atom -12400.588313 kJ/mol
# Density = 1.872156 g / cm^3
# Si number density = 18.764266 Si / 1000 Ang^3
#
#
#
# Elastic Constant Matrix: (Units=GPa)
#
#
# Indices 1 2 3 4 5 6 
#
# 1 145.4462 41.1227 32.1219 0.0000 0.0000 0.0000
# 2 41.1227 72.3223 18.8957 0.0000 0.0000 0.0000
# 3 32.1219 18.8957 21.5844 0.0000 0.0000 0.0000
# 4 0.0000 0.0000 0.0000 21.5976 0.0000 0.0000
# 5 0.0000 0.0000 0.0000 0.0000 22.2578 0.0000
# 6 0.0000 0.0000 0.0000 0.0000 0.0000 39.1869
#
#
#
# Elastic Compliance Matrix: (Units=1/GPa)
#
#
# Indices 1 2 3 4 5 6 
#
# 1 0.010570 -0.002464 -0.013573 0.000000 0.000000 0.000000
# 2 -0.002464 0.018502 -0.012531 0.000000 0.000000 0.000000
# 3 -0.013573 -0.012531 0.077498 0.000000 0.000000 0.000000
# 4 0.000000 0.000000 0.000000 0.046301 0.000000 0.000000
# 5 0.000000 0.000000 0.000000 0.000000 0.044928 0.000000
# 6 0.000000 0.000000 0.000000 0.000000 0.000000 0.025519
#
#
# Mechanical properties :
#
#
# Convention : Reuss Voigt Hill
#
# Bulk Modulus (GPa) = 20.22831 47.07037 33.64934
# Shear Modulus (GPa) = 16.83896 26.42264 21.63080
#
# Velocity S-wave (km/s) = 2.99891 3.75659 3.39892
# Velocity P-wave (km/s) = 4.77440 6.62989 5.77713
#
# Compressibility (1/GPa) = 0.04943568
#
# Stress axis : x y z
#
# Youngs Moduli (GPa) = 94.61177 54.04907 12.90349
#
# Poissons Ratio (x) = 0.13316 0.17514
# Poissons Ratio (y) = 0.23309 0.16169
# Poissons Ratio (z) = 1.28414 0.67726
#
# Static dielectric constant tensor:
#      x y z
#    x 3.569260 0.000000 0.000000 
#    y 0.000000 3.624560 0.000000 
#    z 0.000000 0.000000 2.889800 
# 
# 
# High freq. dielectric constant tensor:
#      x y z
#    x 1.743860 0.000000 0.000000 
#    y 0.000000 1.741730 0.000000 
#    z 0.000000 0.000000 1.669920 
# 
# From -- ./inp_files/8994.got.cif
#   From: 2010.06.25/outbox.cif.g09.slc.cpg/sg58_5_cif.got.tgz:8994.got - 2010.06.26 21:38:00.
