data_PCOD8236230
_publ_section_title
;
Structure prediction by ZEFSAII (Michael W. Deem and Ramdas Pophale) SiO2 
 PCOD8236230
Probable space group: P N N M
;
_chemical_formula_sum "Si O2"
_cell_formula_units_Z 64
_cell_length_a 24.375025
_cell_length_b 14.682137
_cell_length_c 9.789198
_cell_angle_alpha 90.000000
_cell_angle_beta 90.000000
_cell_angle_gamma 90.000000
_cell_volume 3503.333281
_symmetry_space_group_name_H-M "P N N M"
_symmetry_group_IT_number 58
_symmetry_cell_setting 'orthorhombic'
loop_
_space_group_symop_operation_xyz
x,y,z
-x,-y,z
1/2+x,1/2-y,1/2-z
1/2-x,1/2+y,1/2-z
-x,-y,-z
x,y,-z
1/2-x,1/2+y,1/2+z
1/2+x,1/2-y,1/2+z
loop_
_atom_site_type_symbol
_atom_site_label
_atom_site_fract_x
_atom_site_fract_y
_atom_site_fract_z
Si Si1 0.526336 0.403789 0.158484
Si Si2 0.447038 0.050379 0.160607
Si Si3 0.878593 0.940688 0.845042
Si Si4 0.172333 0.498502 0.337464
Si Si5 0.640716 0.644645 0.652417
Si Si6 0.738493 0.356541 0.341242
Si Si7 0.734715 0.179175 0.156267
Si Si8 0.936012 0.242885 0.657859
O O1 0.500000 0.500000 0.198780
O O2 0.581373 0.386011 0.244295
O O3 0.485165 0.323552 0.198616
O O4 0.542307 0.400644 0.000000
O O5 0.389288 0.013171 0.220970
O O6 0.454576 0.156022 0.195318
O O7 0.500000 0.000000 0.226043
O O8 0.445921 0.032379 0.000000
O O9 0.816298 0.913799 0.818834
O O10 0.885477 0.047303 0.812791
O O11 0.895996 0.918623 0.000000
O O12 0.174082 0.501803 0.500000
O O13 0.211263 0.581211 0.285670
O O14 0.193240 0.399111 0.289128
O O15 0.623939 0.675424 0.500000
O O16 0.705604 0.634846 0.664266
O O17 0.618448 0.719143 0.757881
O O18 0.746943 0.330065 0.500000
O O19 0.732194 0.265853 0.253229
O O20 0.720563 0.207563 0.000000
O O21 0.919774 0.233368 0.500000
#
# Coordination Sequence:
#
# PCOD8236230 Si02
#       8
#     8   8   8   8   8   8   8   8
#     4  10  20  33  49  76 113 140 167 217 274 321
#     4   9  18  32  52  78 102 131 177 222 257 306
#     4  10  20  34  53  75 104 142 181 217 258 321
#     4   9  17  33  55  75 103 141 177 215 264 319
#     4  10  19  33  53  77 106 138 178 221 261 316
#     4  10  20  36  55  79 109 142 180 222 266 320
#     4  10  20  34  54  80 107 140 179 220 270 322
#     4  10  20  34  54  79 106 139 179 221 266 317
#
# _framework density 18.268315999999999
#
# number of rings (size 3 to 8) (size 9 to 14) (size 15 to 20)
#    0.000    2.250    2.500    0.750    0.000    3.750 
#    0.000    3.125    0.000    1.125    0.000    0.000 
#    0.000    0.000    0.000    0.000    0.000    0.000 
#
# Total GULP energy -793575.049924 kJ/mol
# GULP energy per Si atom -12399.610155 kJ/mol
# Density = 1.822674 g / cm^3
# Si number density = 18.268316 Si / 1000 Ang^3
#
#
#
# Elastic Constant Matrix: (Units=GPa)
#
#
# Indices 1 2 3 4 5 6 
#
# 1 126.4718 65.5559 41.9214 0.0000 0.0000 0.0000
# 2 65.5559 126.6629 43.9700 0.0000 0.0000 0.0000
# 3 41.9214 43.9700 50.8796 0.0000 0.0000 0.0000
# 4 0.0000 0.0000 0.0000 25.0153 0.0000 0.0000
# 5 0.0000 0.0000 0.0000 0.0000 23.4129 0.0000
# 6 0.0000 0.0000 0.0000 0.0000 0.0000 30.9035
#
#
#
# Elastic Compliance Matrix: (Units=1/GPa)
#
#
# Indices 1 2 3 4 5 6 
#
# 1 0.012161 -0.004022 -0.006544 0.000000 0.000000 0.000000
# 2 -0.004022 0.012609 -0.007582 0.000000 0.000000 0.000000
# 3 -0.006544 -0.007582 0.031598 0.000000 0.000000 0.000000
# 4 0.000000 0.000000 0.000000 0.039976 0.000000 0.000000
# 5 0.000000 0.000000 0.000000 0.000000 0.042712 0.000000
# 6 0.000000 0.000000 0.000000 0.000000 0.000000 0.032359
#
#
# Mechanical properties :
#
#
# Convention : Reuss Voigt Hill
#
# Bulk Modulus (GPa) = 49.82208 67.43433 58.62821
# Shear Modulus (GPa) = 23.32070 26.03746 24.67908
#
# Velocity S-wave (km/s) = 3.57678 3.77938 3.67948
# Velocity P-wave (km/s) = 6.66254 7.48588 7.08618
#
# Compressibility (1/GPa) = 0.02007142
#
# Stress axis : x y z
#
# Youngs Moduli (GPa) = 82.23068 79.30807 31.64708
#
# Poissons Ratio (x) = 0.31902 0.20708
# Poissons Ratio (y) = 0.33077 0.23996
# Poissons Ratio (z) = 0.53808 0.60135
#
# Static dielectric constant tensor:
#      x y z
#    x 3.528560 0.000000 0.000000 
#    y 0.000000 3.423400 0.000000 
#    z 0.000000 0.000000 3.149560 
# 
# 
# High freq. dielectric constant tensor:
#      x y z
#    x 1.715760 0.000000 0.000000 
#    y 0.000000 1.709600 0.000000 
#    z 0.000000 0.000000 1.674610 
# 
# From -- ./inp_files/9942.got.cif
#   From: 2010.06.25/outbox.cif.g09.slc.cpg/sg58_5_cif.got.tgz:9942.got - 2010.06.26 21:38:00.
