data_PCOD8236904
_publ_section_title
;
Structure prediction by ZEFSAII (Michael W. Deem and Ramdas Pophale) SiO2 
 PCOD8236904
Probable space group: P N N M
;
_chemical_formula_sum "Si O2"
_cell_formula_units_Z 40
_cell_length_a 16.431662
_cell_length_b 10.263883
_cell_length_c 10.706656
_cell_angle_alpha 90.000000
_cell_angle_beta 90.000000
_cell_angle_gamma 90.000000
_cell_volume 1805.705974
_symmetry_space_group_name_H-M "P N N M"
_symmetry_group_IT_number 58
_symmetry_cell_setting 'orthorhombic'
loop_
_space_group_symop_operation_xyz
x,y,z
-x,-y,z
1/2+x,1/2-y,1/2-z
1/2-x,1/2+y,1/2-z
-x,-y,-z
x,y,-z
1/2-x,1/2+y,1/2+z
1/2+x,1/2-y,1/2+z
loop_
_atom_site_type_symbol
_atom_site_label
_atom_site_fract_x
_atom_site_fract_y
_atom_site_fract_z
Si Si1 0.412233 0.436978 0.645030
Si Si2 0.828838 0.822417 0.756205
Si Si3 0.175901 0.569782 0.000000
Si Si4 0.306390 0.784606 0.500000
Si Si5 0.180342 0.273034 0.500000
Si Si6 0.636595 0.829286 0.256143
Si Si7 0.161779 0.575825 0.500000
O O1 0.500000 0.500000 0.656032
O O2 0.386566 0.418519 0.500000
O O3 0.347577 0.526334 0.718988
O O4 0.413900 0.301840 0.719791
O O5 0.868171 0.770034 0.626135
O O6 0.732493 0.798787 0.749273
O O7 0.861648 0.740245 0.876176
O O8 0.225759 0.433443 0.000000
O O9 0.234604 0.695165 0.000000
O O10 0.120713 0.575379 0.125231
O O11 0.235283 0.678129 0.500000
O O12 0.195284 0.428162 0.500000
O O13 0.608688 0.897095 0.125674
#
# Coordination Sequence:
#
# PCOD8236904 Si02
#       7
#     8   8   4   4   4   8   4
#     4  11  24  45  69 101 138 183 226 278 339 413
#     4  10  22  34  63  92 134 166 229 271 330 383
#     4  10  20  32  56  91 131 169 221 277 329 381
#     4  10  20  32  56  91 131 169 221 277 329 381
#     4  10  22  34  56  91 133 169 211 277 341 381
#     4  10  22  34  63  92 134 166 229 271 330 383
#     4  10  22  34  56  91 133 169 211 277 341 381
#
# _framework density 22.152000999999998
#
# number of rings (size 3 to 8) (size 9 to 14) (size 15 to 20)
#    0.000    1.800    2.000    1.200   22.400    0.000 
#    0.000    2.000    0.000    7.200    0.000    0.000 
#    0.000    0.000    0.000    0.000    0.000    0.000 
#
# Total GULP energy -495542.284745 kJ/mol
# GULP energy per Si atom -12388.557119 kJ/mol
# Density = 2.210158 g / cm^3
# Si number density = 22.152001 Si / 1000 Ang^3
#
#
#
# Elastic Constant Matrix: (Units=GPa)
#
#
# Indices 1 2 3 4 5 6 
#
# 1 13.0416 -10.4277 -1.1883 0.0000 0.0000 0.0000
# 2 -10.4277 43.8360 18.6612 0.0000 0.0000 0.0000
# 3 -1.1883 18.6612 242.6115 0.0000 0.0000 0.0000
# 4 0.0000 0.0000 0.0000 34.2363 0.0000 0.0000
# 5 0.0000 0.0000 0.0000 0.0000 12.2631 0.0000
# 6 0.0000 0.0000 0.0000 0.0000 0.0000 11.4113
#
#
#
# Elastic Compliance Matrix: (Units=1/GPa)
#
#
# Indices 1 2 3 4 5 6 
#
# 1 0.095093 0.023182 -0.001317 0.000000 0.000000 0.000000
# 2 0.023182 0.029236 -0.002135 0.000000 0.000000 0.000000
# 3 -0.001317 -0.002135 0.004280 0.000000 0.000000 0.000000
# 4 0.000000 0.000000 0.000000 0.029209 0.000000 0.000000
# 5 0.000000 0.000000 0.000000 0.000000 0.081546 0.000000
# 6 0.000000 0.000000 0.000000 0.000000 0.000000 0.087632
#
#
# Mechanical properties :
#
#
# Convention : Reuss Voigt Hill
#
# Bulk Modulus (GPa) = 5.95002 34.84217 20.39610
# Shear Modulus (GPa) = 14.55352 31.07840 22.81596
#
# Velocity S-wave (km/s) = 2.56595 3.74968 3.21280
# Velocity P-wave (km/s) = 3.38683 5.87449 4.79480
#
# Compressibility (1/GPa) = 0.16806660
#
# Stress axis : x y z
#
# Youngs Moduli (GPa) = 10.51600 34.20474 233.66664
#
# Poissons Ratio (x) = -0.79292 0.30782
# Poissons Ratio (y) = -0.24378 0.49893
# Poissons Ratio (z) = 0.01385 0.07303
#
# Static dielectric constant tensor:
#      x y z
#    x 3.183670 0.000000 0.000000 
#    y 0.000000 4.015050 0.000000 
#    z 0.000000 0.000000 7.002040 
# 
# 
# High freq. dielectric constant tensor:
#      x y z
#    x 1.782340 0.000000 0.000000 
#    y 0.000000 1.876810 0.000000 
#    z 0.000000 0.000000 1.916510 
# 
# From -- ./inp_files/16917.got.cif
#   From: 2010.06.25/outbox.cif.g09.slc.cpg/sg58_9_cif.got.tgz:16917.got - 2010.06.26 21:38:00.
