data_PCOD8236065
_publ_section_title
;
Structure prediction by ZEFSAII (Michael W. Deem and Ramdas Pophale) SiO2 
 PCOD8236065
Probable space group: P N N M
;
_chemical_formula_sum "Si O2"
_cell_formula_units_Z 48
_cell_length_a 9.112760
_cell_length_b 14.816766
_cell_length_c 18.958021
_cell_angle_alpha 90.000000
_cell_angle_beta 90.000000
_cell_angle_gamma 90.000000
_cell_volume 2559.742945
_symmetry_space_group_name_H-M "P N N M"
_symmetry_group_IT_number 58
_symmetry_cell_setting 'orthorhombic'
loop_
_space_group_symop_operation_xyz
x,y,z
-x,-y,z
1/2+x,1/2-y,1/2-z
1/2-x,1/2+y,1/2-z
-x,-y,-z
x,y,-z
1/2-x,1/2+y,1/2+z
1/2+x,1/2-y,1/2+z
loop_
_atom_site_type_symbol
_atom_site_label
_atom_site_fract_x
_atom_site_fract_y
_atom_site_fract_z
Si Si1 0.440535 0.748455 0.424147
Si Si2 0.105851 0.296690 0.776889
Si Si3 0.666334 0.026404 0.200026
Si Si4 0.725974 0.859063 0.286469
Si Si5 0.617474 0.926953 0.576463
Si Si6 0.879674 0.072083 0.080691
O O1 0.358155 0.726458 0.500000
O O2 0.337000 0.766511 0.355707
O O3 0.533112 0.836197 0.438194
O O4 0.554110 0.669948 0.404925
O O5 0.180047 0.391088 0.755517
O O6 0.148292 0.216349 0.722908
O O7 0.930469 0.309044 0.777586
O O8 0.735017 0.057773 0.126686
O O9 0.500000 0.000000 0.184575
O O10 0.749785 0.938681 0.229911
O O11 0.739072 0.907377 0.363487
O O12 0.684872 0.958544 0.500000
O O13 0.500000 0.000000 0.605705
O O14 0.831727 0.058582 0.000000
O O15 0.000000 0.000000 0.104036
#
# Coordination Sequence:
#
# PCOD8236065 Si02
#       6
#     8   8   8   8   8   8
#     4   9  17  30  49  71  94 122 160 202 238 279
#     4  10  19  32  50  72  99 129 162 200 244 291
#     4  10  20  32  48  73 103 131 160 200 250 300
#     4  10  19  32  49  72 100 128 162 201 244 292
#     4   9  16  28  48  72  95 120 155 199 240 278
#     4  10  20  34  52  73  97 129 169 207 242 285
#
# _framework density 18.751882999999999
#
# number of rings (size 3 to 8) (size 9 to 14) (size 15 to 20)
#    0.000    2.333    0.000    5.500    0.000    0.333 
#    0.000    0.000    0.000    3.000    0.000    0.000 
#    0.000   17.333    0.000    0.000    0.000    0.000 
#
# Total GULP energy -594686.019278 kJ/mol
# GULP energy per Si atom -12389.292068 kJ/mol
# Density = 1.870920 g / cm^3
# Si number density = 18.751883 Si / 1000 Ang^3
#
#
#
# Elastic Constant Matrix: (Units=GPa)
#
#
# Indices 1 2 3 4 5 6 
#
# 1 34.6475 32.2204 42.1738 0.0000 0.0000 0.0000
# 2 32.2204 124.3962 42.4728 0.0000 0.0000 0.0000
# 3 42.1738 42.4728 139.6948 0.0000 0.0000 0.0000
# 4 0.0000 0.0000 0.0000 29.4125 0.0000 0.0000
# 5 0.0000 0.0000 0.0000 0.0000 21.1874 0.0000
# 6 0.0000 0.0000 0.0000 0.0000 0.0000 27.2959
#
#
#
# Elastic Compliance Matrix: (Units=1/GPa)
#
#
# Indices 1 2 3 4 5 6 
#
# 1 0.053937 -0.009385 -0.013430 0.000000 0.000000 0.000000
# 2 -0.009385 0.010603 -0.000390 0.000000 0.000000 0.000000
# 3 -0.013430 -0.000390 0.011332 0.000000 0.000000 0.000000
# 4 0.000000 0.000000 0.000000 0.033999 0.000000 0.000000
# 5 0.000000 0.000000 0.000000 0.000000 0.047198 0.000000
# 6 0.000000 0.000000 0.000000 0.000000 0.000000 0.036636
#
#
# Mechanical properties :
#
#
# Convention : Reuss Voigt Hill
#
# Bulk Modulus (GPa) = 33.94344 59.16360 46.55352
# Shear Modulus (GPa) = 20.00509 27.70392 23.85451
#
# Velocity S-wave (km/s) = 3.26978 3.84786 3.57054
# Velocity P-wave (km/s) = 5.69174 7.16663 6.47134
#
# Compressibility (1/GPa) = 0.02946077
#
# Stress axis : x y z
#
# Youngs Moduli (GPa) = 18.54000 94.31300 88.24776
#
# Poissons Ratio (x) = 0.88513 1.18519
# Poissons Ratio (y) = 0.17400 0.03445
# Poissons Ratio (z) = 0.24900 0.03682
#
# Static dielectric constant tensor:
#      x y z
#    x 2.862480 0.000000 0.000000 
#    y 0.000000 3.679280 0.000000 
#    z 0.000000 0.000000 4.060880 
# 
# 
# High freq. dielectric constant tensor:
#      x y z
#    x 1.654430 0.000000 0.000000 
#    y 0.000000 1.756930 0.000000 
#    z 0.000000 0.000000 1.747820 
# 
# From -- ./inp_files/25297.got.cif
#   From: 2010.06.25/outbox.cif.g09.slc.cpg/sg58_13_cif.got.tgz:25297.got - 2010.06.26 21:38:00.
