data_PCOD8236108
_publ_section_title
;
Structure prediction by ZEFSAII (Michael W. Deem and Ramdas Pophale) SiO2 
 PCOD8236108
Probable space group: P N N M
;
_chemical_formula_sum "Si O2"
_cell_formula_units_Z 64
_cell_length_a 11.371021
_cell_length_b 17.661240
_cell_length_c 18.835710
_cell_angle_alpha 90.000000
_cell_angle_beta 90.000000
_cell_angle_gamma 90.000000
_cell_volume 3782.706530
_symmetry_space_group_name_H-M "P N N M"
_symmetry_group_IT_number 58
_symmetry_cell_setting 'orthorhombic'
loop_
_space_group_symop_operation_xyz
x,y,z
-x,-y,z
1/2+x,1/2-y,1/2-z
1/2-x,1/2+y,1/2-z
-x,-y,-z
x,y,-z
1/2-x,1/2+y,1/2+z
1/2+x,1/2-y,1/2+z
loop_
_atom_site_type_symbol
_atom_site_label
_atom_site_fract_x
_atom_site_fract_y
_atom_site_fract_z
Si Si1 0.088174 0.168833 0.319596
Si Si2 0.198396 0.040685 0.222999
Si Si3 0.644307 0.627256 0.234532
Si Si4 0.104457 0.307188 0.222322
Si Si5 0.574984 0.930495 0.301934
Si Si6 0.294534 0.163459 0.580741
Si Si7 0.956740 0.208348 0.871461
Si Si8 0.089522 0.067200 0.078099
O O1 0.134965 0.109260 0.262100
O O2 0.110279 0.253090 0.290350
O O3 0.158333 0.165996 0.393639
O O4 0.949819 0.147833 0.328037
O O5 0.335237 0.039692 0.242406
O O6 0.187875 0.058063 0.138947
O O7 0.139958 0.961368 0.246039
O O8 0.771102 0.653179 0.206868
O O9 0.608114 0.675242 0.302883
O O10 0.006605 0.370381 0.238361
O O11 0.064863 0.262126 0.152008
O O12 0.639298 0.896854 0.370414
O O13 0.500000 0.000000 0.331666
O O14 0.294662 0.134894 0.500000
O O15 0.358756 0.244822 0.585060
O O16 0.013536 0.143893 0.919451
O O17 0.149532 0.063054 0.000000
O O18 0.000000 0.000000 0.089865
#
# Coordination Sequence:
#
# PCOD8236108 Si02
#       8
#     8   8   8   8   8   8   8   8
#     4  10  20  31  54  79 103 135 178 215 265 311
#     4  11  19  34  54  79 107 136 174 222 268 314
#     4  11  18  31  55  79 107 135 174 224 264 311
#     4  10  19  32  53  82 104 132 177 226 258 309
#     4  10  21  35  56  81 101 138 181 220 269 315
#     4  10  21  36  53  77 108 141 177 219 266 318
#     4  10  19  32  52  77 108 140 176 214 269 311
#     4  11  20  30  48  79 111 140 174 215 268 326
#
# _framework density 16.919103
#
# number of rings (size 3 to 8) (size 9 to 14) (size 15 to 20)
#    0.000    1.625    6.250    0.750    1.750    0.250 
#    0.000    0.000    0.000   12.375    0.000    0.000 
#    0.000    0.000    0.000    0.000    0.000    0.000 
#
# Total GULP energy -793406.992122 kJ/mol
# GULP energy per Si atom -12396.984252 kJ/mol
# Density = 1.688059 g / cm^3
# Si number density = 16.919103 Si / 1000 Ang^3
#
#
#
# Elastic Constant Matrix: (Units=GPa)
#
#
# Indices 1 2 3 4 5 6 
#
# 1 107.6984 31.4163 53.4481 0.0000 0.0000 0.0000
# 2 31.4163 92.2323 34.9565 0.0000 0.0000 0.0000
# 3 53.4481 34.9565 103.1267 0.0000 0.0000 0.0000
# 4 0.0000 0.0000 0.0000 -7.9892 0.0000 0.0000
# 5 0.0000 0.0000 0.0000 0.0000 14.6822 0.0000
# 6 0.0000 0.0000 0.0000 0.0000 0.0000 29.9092
#
#
#
# Elastic Compliance Matrix: (Units=1/GPa)
#
#
# Indices 1 2 3 4 5 6 
#
# 1 0.012854 -0.002127 -0.005941 0.000000 0.000000 0.000000
# 2 -0.002127 0.012792 -0.003234 0.000000 0.000000 0.000000
# 3 -0.005941 -0.003234 0.013872 0.000000 0.000000 0.000000
# 4 0.000000 0.000000 0.000000 -0.125169 0.000000 0.000000
# 5 0.000000 0.000000 0.000000 0.000000 0.068110 0.000000
# 6 0.000000 0.000000 0.000000 0.000000 0.000000 0.033435
#
#
# Mechanical properties :
#
#
# Convention : Reuss Voigt Hill
#
# Bulk Modulus (GPa) = 59.11899 60.29991 59.70945
# Shear Modulus (GPa) = 113.28821 19.53622 66.41221
#
# Velocity S-wave (km/s) = 8.19171 3.40175 6.27200
# Velocity P-wave (km/s) = 11.15752 7.15169 9.37115
#
# Compressibility (1/GPa) = 0.01691504
#
# Stress axis : x y z
#
# Youngs Moduli (GPa) = 77.79724 78.17235 72.08710
#
# Poissons Ratio (x) = 0.16624 0.42827
# Poissons Ratio (y) = 0.16545 0.23313
# Poissons Ratio (z) = 0.46220 0.25281
#
# Static dielectric constant tensor:
#      x y z
#    x 3.386560 0.000000 0.000000 
#    y 0.000000 3.446750 0.000000 
#    z 0.000000 0.000000 2.913200 
# 
# 
# High freq. dielectric constant tensor:
#      x y z
#    x 1.652100 0.000000 0.000000 
#    y 0.000000 1.672580 0.000000 
#    z 0.000000 0.000000 1.616330 
# 
# From -- ./inp_files/26469.got.cif
#   From: 2010.06.25/outbox.cif.g09.slc.cpg/sg58_14_cif.got.tgz:26469.got - 2010.06.26 21:38:00.
