data_PCOD8236887
_publ_section_title
;
Structure prediction by ZEFSAII (Michael W. Deem and Ramdas Pophale) SiO2 
 PCOD8236887
Probable space group: P N N M
;
_chemical_formula_sum "Si O2"
_cell_formula_units_Z 40
_cell_length_a 18.183844
_cell_length_b 13.685278
_cell_length_c 8.817229
_cell_angle_alpha 90.000000
_cell_angle_beta 90.000000
_cell_angle_gamma 90.000000
_cell_volume 2194.175903
_symmetry_space_group_name_H-M "P N N M"
_symmetry_group_IT_number 58
_symmetry_cell_setting 'orthorhombic'
loop_
_space_group_symop_operation_xyz
x,y,z
-x,-y,z
1/2+x,1/2-y,1/2-z
1/2-x,1/2+y,1/2-z
-x,-y,-z
x,y,-z
1/2-x,1/2+y,1/2+z
1/2+x,1/2-y,1/2+z
loop_
_atom_site_type_symbol
_atom_site_label
_atom_site_fract_x
_atom_site_fract_y
_atom_site_fract_z
Si Si1 0.319309 0.322062 0.820298
Si Si2 0.536640 0.599866 0.320124
Si Si3 0.833291 0.587918 0.180470
Si Si4 0.869105 0.372459 0.179113
Si Si5 0.473690 0.801325 0.678461
O O1 0.383613 0.389680 0.754178
O O2 0.242796 0.367109 0.761204
O O3 0.322727 0.211265 0.761968
O O4 0.324317 0.322926 0.000000
O O5 0.500000 0.500000 0.262562
O O6 0.547527 0.600828 0.500000
O O7 0.484543 0.689431 0.266634
O O8 0.839505 0.476375 0.237202
O O9 0.900628 0.651172 0.251504
O O10 0.837956 0.589369 0.000000
O O11 0.954921 0.364379 0.224854
O O12 0.859289 0.357865 0.000000
O O13 0.463987 0.802677 0.500000
#
# Coordination Sequence:
#
# PCOD8236887 Si02
#       5
#     8   8   8   8   8
#     4  10  20  32  47  72 104 129 151 191 248 298
#     4   9  18  33  53  73  94 127 169 204 232 273
#     4   9  17  29  48  73  96 123 160 197 238 287
#     4   9  17  32  52  69  90 123 163 202 234 274
#     4   8  14  27  49  73  92 116 158 204 234 268
#
# _framework density 18.230079
#
# number of rings (size 3 to 8) (size 9 to 14) (size 15 to 20)
#    0.000    3.000    0.000    2.400    0.000    4.400 
#    0.000    4.000    0.000   19.200    0.000    0.000 
#    0.000    0.000    0.000    0.000    0.000    0.000 
#
# Total GULP energy -495889.360244 kJ/mol
# GULP energy per Si atom -12397.234006 kJ/mol
# Density = 1.818859 g / cm^3
# Si number density = 18.230079 Si / 1000 Ang^3
#
#
#
# Elastic Constant Matrix: (Units=GPa)
#
#
# Indices 1 2 3 4 5 6 
#
# 1 165.1269 112.5049 28.2908 0.0000 0.0000 0.0000
# 2 112.5049 153.6094 23.9498 0.0000 0.0000 0.0000
# 3 28.2908 23.9498 26.5577 0.0000 0.0000 0.0000
# 4 0.0000 0.0000 0.0000 21.1798 0.0000 0.0000
# 5 0.0000 0.0000 0.0000 0.0000 21.7144 0.0000
# 6 0.0000 0.0000 0.0000 0.0000 0.0000 26.6554
#
#
#
# Elastic Compliance Matrix: (Units=1/GPa)
#
#
# Indices 1 2 3 4 5 6 
#
# 1 0.012876 -0.008485 -0.006064 0.000000 0.000000 0.000000
# 2 -0.008485 0.013166 -0.002835 0.000000 0.000000 0.000000
# 3 -0.006064 -0.002835 0.046671 0.000000 0.000000 0.000000
# 4 0.000000 0.000000 0.000000 0.047215 0.000000 0.000000
# 5 0.000000 0.000000 0.000000 0.000000 0.046052 0.000000
# 6 0.000000 0.000000 0.000000 0.000000 0.000000 0.037516
#
#
# Mechanical properties :
#
#
# Convention : Reuss Voigt Hill
#
# Bulk Modulus (GPa) = 26.35430 74.97610 50.66520
# Shear Modulus (GPa) = 19.92724 25.94650 22.93687
#
# Velocity S-wave (km/s) = 3.30979 3.77673 3.55094
# Velocity P-wave (km/s) = 5.39390 7.76114 6.68316
#
# Compressibility (1/GPa) = 0.03794447
#
# Stress axis : x y z
#
# Youngs Moduli (GPa) = 77.66423 75.95058 21.42671
#
# Poissons Ratio (x) = 0.64443 0.12994
# Poissons Ratio (y) = 0.65897 0.06074
# Poissons Ratio (z) = 0.47099 0.21531
#
# Static dielectric constant tensor:
#      x y z
#    x 3.551530 0.000000 0.000000 
#    y 0.000000 3.636230 0.000000 
#    z 0.000000 0.000000 2.926850 
# 
# 
# High freq. dielectric constant tensor:
#      x y z
#    x 1.708570 0.000000 0.000000 
#    y 0.000000 1.718080 0.000000 
#    z 0.000000 0.000000 1.662750 
# 
# From -- ./inp_files/4014.got.cif
#   From: 2010.06.25/outbox.cif.g09.slc.cpg/sg58_3_cif.got.tgz:4014.got - 2010.06.26 21:38:00.
