data_PCOD8236956
_publ_section_title
;
Structure prediction by ZEFSAII (Michael W. Deem and Ramdas Pophale) SiO2 
 PCOD8236956
Probable space group: P N N M
;
_chemical_formula_sum "Si O2"
_cell_formula_units_Z 64
_cell_length_a 14.015443
_cell_length_b 19.022064
_cell_length_c 14.028568
_cell_angle_alpha 90.000000
_cell_angle_beta 90.000000
_cell_angle_gamma 90.000000
_cell_volume 3740.053457
_symmetry_space_group_name_H-M "P N N M"
_symmetry_group_IT_number 58
_symmetry_cell_setting 'orthorhombic'
loop_
_space_group_symop_operation_xyz
x,y,z
-x,-y,z
1/2+x,1/2-y,1/2-z
1/2-x,1/2+y,1/2-z
-x,-y,-z
x,y,-z
1/2-x,1/2+y,1/2+z
1/2+x,1/2-y,1/2+z
loop_
_atom_site_type_symbol
_atom_site_label
_atom_site_fract_x
_atom_site_fract_y
_atom_site_fract_z
Si Si1 0.521266 0.694683 0.387159
Si Si2 0.919336 0.943252 0.111545
Si Si3 0.721092 0.969794 0.211280
Si Si4 0.135868 0.378771 0.712394
Si Si5 0.542404 0.922535 0.893334
Si Si6 0.729369 0.726546 0.611882
Si Si7 0.535222 0.153802 0.391463
Si Si8 0.319516 0.113689 0.608219
O O1 0.525234 0.693685 0.500000
O O2 0.459975 0.630050 0.347920
O O3 0.630578 0.691489 0.352641
O O4 0.472421 0.766456 0.353987
O O5 0.825171 0.960708 0.168966
O O6 0.894051 0.939847 0.000000
O O7 0.000000 0.000000 0.132501
O O8 0.644955 0.919792 0.157942
O O9 0.722318 0.946069 0.321882
O O10 0.694634 0.050700 0.191788
O O11 0.190737 0.309841 0.676478
O O12 0.116283 0.380587 0.825751
O O13 0.033118 0.373902 0.661039
O O14 0.500000 0.000000 0.893507
O O15 0.556105 0.893701 0.000000
O O16 0.748517 0.711486 0.500000
O O17 0.726194 0.810133 0.631269
O O18 0.571110 0.149148 0.500000
O O19 0.433833 0.115246 0.380606
O O20 0.293278 0.092153 0.500000
#
# Coordination Sequence:
#
# PCOD8236956 Si02
#       8
#     8   8   8   8   8   8   8   8
#     4   8  16  32  51  72  97 128 169 212 252 296
#     4  10  20  33  52  77 104 134 169 212 264 316
#     4  11  21  32  49  78 105 134 173 210 261 309
#     4  11  20  30  50  77 104 135 170 207 255 316
#     4   9  18  31  45  69 107 137 156 192 248 310
#     4   9  18  33  54  77 103 137 173 212 256 310
#     4   9  18  33  51  73 102 135 172 215 255 293
#     4   9  19  36  54  74 103 137 178 219 255 304
#
# _framework density 17.112055000000002
#
# number of rings (size 3 to 8) (size 9 to 14) (size 15 to 20)
#    0.000    2.500    1.250    3.000    1.750    3.000 
#    0.000    1.250    0.000    0.375    0.000    0.875 
#    0.000    0.000    0.000    0.000    0.000    0.000 
#
# Total GULP energy -793416.138712 kJ/mol
# GULP energy per Si atom -12397.127167 kJ/mol
# Density = 1.707311 g / cm^3
# Si number density = 17.112055 Si / 1000 Ang^3
#
#
#
# Elastic Constant Matrix: (Units=GPa)
#
#
# Indices 1 2 3 4 5 6 
#
# 1 79.2083 12.9414 40.6976 0.0000 0.0000 0.0000
# 2 12.9414 30.5641 14.7072 0.0000 0.0000 0.0000
# 3 40.6976 14.7072 88.8123 0.0000 0.0000 0.0000
# 4 0.0000 0.0000 0.0000 24.2226 0.0000 0.0000
# 5 0.0000 0.0000 0.0000 0.0000 28.3854 0.0000
# 6 0.0000 0.0000 0.0000 0.0000 0.0000 22.0470
#
#
#
# Elastic Compliance Matrix: (Units=1/GPa)
#
#
# Indices 1 2 3 4 5 6 
#
# 1 0.016894 -0.003725 -0.007125 0.000000 0.000000 0.000000
# 2 -0.003725 0.036372 -0.004316 0.000000 0.000000 0.000000
# 3 -0.007125 -0.004316 0.015239 0.000000 0.000000 0.000000
# 4 0.000000 0.000000 0.000000 0.041284 0.000000 0.000000
# 5 0.000000 0.000000 0.000000 0.000000 0.035229 0.000000
# 6 0.000000 0.000000 0.000000 0.000000 0.000000 0.045358
#
#
# Mechanical properties :
#
#
# Convention : Reuss Voigt Hill
#
# Bulk Modulus (GPa) = 26.19595 37.25300 31.72448
# Shear Modulus (GPa) = 21.41939 23.61358 22.51648
#
# Velocity S-wave (km/s) = 3.54179 3.71878 3.63137
# Velocity P-wave (km/s) = 5.66281 6.34479 6.01348
#
# Compressibility (1/GPa) = 0.03817384
#
# Stress axis : x y z
#
# Youngs Moduli (GPa) = 59.19153 27.49349 65.61949
#
# Poissons Ratio (x) = 0.10241 0.46753
# Poissons Ratio (y) = 0.22048 0.28323
# Poissons Ratio (z) = 0.42173 0.11867
#
# Static dielectric constant tensor:
#      x y z
#    x 3.100340 0.000000 0.000000 
#    y 0.000000 3.320790 0.000000 
#    z 0.000000 0.000000 3.112340 
# 
# 
# High freq. dielectric constant tensor:
#      x y z
#    x 1.650290 0.000000 0.000000 
#    y 0.000000 1.651480 0.000000 
#    z 0.000000 0.000000 1.649250 
# 
# From -- ./inp_files/21486.got.cif
#   From: 2010.06.25/outbox.cif.g09.slc.cpg/sg58_11_cif.got.tgz:21486.got - 2010.06.26 21:38:00.
