data_PCOD8236872
_publ_section_title
;
Structure prediction by ZEFSAII (Michael W. Deem and Ramdas Pophale) SiO2 
 PCOD8236872
Probable space group: P N N M
;
_chemical_formula_sum "Si O2"
_cell_formula_units_Z 36
_cell_length_a 5.419744
_cell_length_b 12.110089
_cell_length_c 29.948136
_cell_angle_alpha 90.000000
_cell_angle_beta 90.000000
_cell_angle_gamma 90.000000
_cell_volume 1965.603446
_symmetry_space_group_name_H-M "P N N M"
_symmetry_group_IT_number 58
_symmetry_cell_setting 'orthorhombic'
loop_
_space_group_symop_operation_xyz
x,y,z
-x,-y,z
1/2+x,1/2-y,1/2-z
1/2-x,1/2+y,1/2-z
-x,-y,-z
x,y,-z
1/2-x,1/2+y,1/2+z
1/2+x,1/2-y,1/2+z
loop_
_atom_site_type_symbol
_atom_site_label
_atom_site_fract_x
_atom_site_fract_y
_atom_site_fract_z
Si Si1 0.492847 0.868881 0.449637
Si Si2 0.008455 0.131319 0.401842
Si Si3 0.615018 0.388352 0.729231
Si Si4 0.500000 0.000000 0.290183
Si Si5 0.322737 0.312438 0.812270
O O1 0.490243 0.822628 0.500000
O O2 0.242875 0.825575 0.425687
O O3 0.743912 0.825309 0.426087
O O4 0.500000 0.000000 0.450152
O O5 0.021413 0.185311 0.352099
O O6 0.000000 0.000000 0.399767
O O7 0.500000 0.500000 0.708075
O O8 0.424490 0.328891 0.762416
O O9 0.681548 0.305162 0.688897
O O10 0.849455 0.418777 0.758565
O O11 0.652355 0.080409 0.322940
#
# Coordination Sequence:
#
# PCOD8236872 Si02
#       5
#     8   8   8   4   8
#     4   9  18  32  48  70 103 139 168 208 267 325
#     4  10  20  30  50  75 103 135 178 218 254 318
#     4  10  21  35  50  71 100 142 175 221 264 311
#     4  10  20  34  50  68  99 138 175 218 256 312
#     4  11  21  33  52  73 102 138 182 219 263 305
#
# _framework density 18.314986000000001
#
# number of rings (size 3 to 8) (size 9 to 14) (size 15 to 20)
#    0.000    2.000    2.222    2.667    7.778    2.667 
#    0.000    0.000    0.000    0.000    0.000    0.000 
#    0.000    5.333    0.000    0.000    0.000    0.000 
#
# Total GULP energy -446227.098930 kJ/mol
# GULP energy per Si atom -12395.197193 kJ/mol
# Density = 1.827330 g / cm^3
# Si number density = 18.314986 Si / 1000 Ang^3
#
#
#
# Elastic Constant Matrix: (Units=GPa)
#
#
# Indices 1 2 3 4 5 6 
#
# 1 114.4795 29.7937 32.5296 0.0000 0.0000 0.0000
# 2 29.7937 67.8899 35.1674 0.0000 0.0000 0.0000
# 3 32.5296 35.1674 76.8594 0.0000 0.0000 0.0000
# 4 0.0000 0.0000 0.0000 2.1979 0.0000 0.0000
# 5 0.0000 0.0000 0.0000 0.0000 49.5266 0.0000
# 6 0.0000 0.0000 0.0000 0.0000 0.0000 19.5593
#
#
#
# Elastic Compliance Matrix: (Units=1/GPa)
#
#
# Indices 1 2 3 4 5 6 
#
# 1 0.010371 -0.002985 -0.003024 0.000000 0.000000 0.000000
# 2 -0.002985 0.020165 -0.007963 0.000000 0.000000 0.000000
# 3 -0.003024 -0.007963 0.017934 0.000000 0.000000 0.000000
# 4 0.000000 0.000000 0.000000 0.454982 0.000000 0.000000
# 5 0.000000 0.000000 0.000000 0.000000 0.020191 0.000000
# 6 0.000000 0.000000 0.000000 0.000000 0.000000 0.051126
#
#
# Mechanical properties :
#
#
# Convention : Reuss Voigt Hill
#
# Bulk Modulus (GPa) = 48.71799 50.46782 49.59291
# Shear Modulus (GPa) = 8.20270 25.03930 16.62100
#
# Velocity S-wave (km/s) = 2.11859 3.70151 3.01576
# Velocity P-wave (km/s) = 5.71335 6.77374 6.26601
#
# Compressibility (1/GPa) = 0.02052630
#
# Stress axis : x y z
#
# Youngs Moduli (GPa) = 96.42032 49.59163 55.76008
#
# Poissons Ratio (x) = 0.14804 0.16859
# Poissons Ratio (y) = 0.28784 0.44402
# Poissons Ratio (z) = 0.29153 0.39490
#
# Static dielectric constant tensor:
#      x y z
#    x 3.774520 0.000000 0.000000 
#    y 0.000000 3.176160 0.000000 
#    z 0.000000 0.000000 3.213610 
# 
# 
# High freq. dielectric constant tensor:
#      x y z
#    x 1.730220 0.000000 0.000000 
#    y 0.000000 1.656270 0.000000 
#    z 0.000000 0.000000 1.687120 
# 
# From -- ./inp_files/30838.got.cif
#   From: 2010.06.25/outbox.cif.g09.slc.cpg/sg58_16_cif.got.tgz:30838.got - 2010.06.26 21:38:00.
