data_PCOD8236345
_publ_section_title
;
Structure prediction by ZEFSAII (Michael W. Deem and Ramdas Pophale) SiO2 
 PCOD8236345
Probable space group: P N N M
;
_chemical_formula_sum "Si O2"
_cell_formula_units_Z 64
_cell_length_a 29.044482
_cell_length_b 12.442799
_cell_length_c 8.836197
_cell_angle_alpha 90.000000
_cell_angle_beta 90.000000
_cell_angle_gamma 90.000000
_cell_volume 3193.354336
_symmetry_space_group_name_H-M "P N N M"
_symmetry_group_IT_number 58
_symmetry_cell_setting 'orthorhombic'
loop_
_space_group_symop_operation_xyz
x,y,z
-x,-y,z
1/2+x,1/2-y,1/2-z
1/2-x,1/2+y,1/2-z
-x,-y,-z
x,y,-z
1/2-x,1/2+y,1/2+z
1/2+x,1/2-y,1/2+z
loop_
_atom_site_type_symbol
_atom_site_label
_atom_site_fract_x
_atom_site_fract_y
_atom_site_fract_z
Si Si1 0.312374 0.115512 0.170721
Si Si2 0.117862 0.155160 0.823758
Si Si3 0.595618 0.935852 0.321621
Si Si4 0.577683 0.568999 0.323967
Si Si5 0.032849 0.743785 0.322483
Si Si6 0.166254 0.859482 0.329753
Si Si7 0.566611 0.155408 0.822476
Si Si8 0.212295 0.043468 0.823351
O O1 0.313403 0.242384 0.178109
O O2 0.261338 0.088615 0.227721
O O3 0.350621 0.061147 0.276862
O O4 0.320927 0.073670 0.000000
O O5 0.105455 0.260100 0.727738
O O6 0.170939 0.126888 0.787342
O O7 0.084303 0.055682 0.775610
O O8 0.111126 0.181166 0.000000
O O9 0.590396 0.930687 0.500000
O O10 0.571251 0.042961 0.262212
O O11 0.571654 0.831260 0.251156
O O12 0.566585 0.577404 0.500000
O O13 0.537357 0.632391 0.235067
O O14 0.624680 0.631247 0.287892
O O15 0.041333 0.740848 0.500000
O O16 0.982769 0.702686 0.276413
O O17 0.149526 0.887918 0.500000
O O18 0.206828 0.937862 0.277765
O O19 0.570759 0.134354 0.000000
O O20 0.210663 0.013306 0.000000
#
# Coordination Sequence:
#
# PCOD8236345 Si02
#       8
#     8   8   8   8   8   8   8   8
#     4  10  21  38  60  86 118 155 196 245 299 354
#     4   9  20  39  60  86 123 160 198 247 299 353
#     4  12  25  40  62  89 119 155 201 252 302 361
#     4  10  20  36  61  89 118 154 197 247 297 350
#     4  11  23  40  62  89 120 157 201 250 301 359
#     4  10  19  33  56  84 116 154 194 243 296 350
#     4  11  25  42  61  86 122 164 202 244 302 364
#     4   9  20  38  59  85 119 157 196 243 298 355
#
# _framework density 20.041623000000001
#
# number of rings (size 3 to 8) (size 9 to 14) (size 15 to 20)
#    0.000    1.750    1.250    3.750    0.000    8.500 
#    0.000    3.750    0.000    0.000    0.000    0.000 
#    0.000    0.000    0.000    0.000    0.000    0.000 
#
# Total GULP energy -793675.461202 kJ/mol
# GULP energy per Si atom -12401.179081 kJ/mol
# Density = 1.999601 g / cm^3
# Si number density = 20.041623 Si / 1000 Ang^3
#
#
#
# Elastic Constant Matrix: (Units=GPa)
#
#
# Indices 1 2 3 4 5 6 
#
# 1 74.4499 0.0298 15.5467 0.0000 0.0000 0.0000
# 2 0.0298 39.5527 13.4484 0.0000 0.0000 0.0000
# 3 15.5467 13.4484 62.4616 0.0000 0.0000 0.0000
# 4 0.0000 0.0000 0.0000 27.6017 0.0000 0.0000
# 5 0.0000 0.0000 0.0000 0.0000 27.0287 0.0000
# 6 0.0000 0.0000 0.0000 0.0000 0.0000 27.1952
#
#
#
# Elastic Compliance Matrix: (Units=1/GPa)
#
#
# Indices 1 2 3 4 5 6 
#
# 1 0.014229 0.001288 -0.003819 0.000000 0.000000 0.000000
# 2 0.001288 0.027396 -0.006219 0.000000 0.000000 0.000000
# 3 -0.003819 -0.006219 0.018299 0.000000 0.000000 0.000000
# 4 0.000000 0.000000 0.000000 0.036230 0.000000 0.000000
# 5 0.000000 0.000000 0.000000 0.000000 0.036998 0.000000
# 6 0.000000 0.000000 0.000000 0.000000 0.000000 0.036771
#
#
# Mechanical properties :
#
#
# Convention : Reuss Voigt Hill
#
# Bulk Modulus (GPa) = 23.57154 26.05712 24.81433
# Shear Modulus (GPa) = 24.80592 26.19441 25.50017
#
# Velocity S-wave (km/s) = 3.52194 3.61917 3.57089
# Velocity P-wave (km/s) = 5.32218 5.52216 5.42309
#
# Compressibility (1/GPa) = 0.04242404
#
# Stress axis : x y z
#
# Youngs Moduli (GPa) = 70.28003 36.50127 54.64668
#
# Poissons Ratio (x) = -0.04700 0.20869
# Poissons Ratio (y) = -0.09050 0.33985
# Poissons Ratio (z) = 0.26839 0.22701
#
# Static dielectric constant tensor:
#      x y z
#    x 3.676180 0.000000 0.000000 
#    y 0.000000 3.732610 0.000000 
#    z 0.000000 0.000000 3.729850 
# 
# 
# High freq. dielectric constant tensor:
#      x y z
#    x 1.781500 0.000000 0.000000 
#    y 0.000000 1.785610 0.000000 
#    z 0.000000 0.000000 1.783320 
# 
# From -- ./inp_files/11042.got.cif
#   From: 2010.06.25/outbox.cif.g09.slc.cpg/sg58_6_cif.got.tgz:11042.got - 2010.06.26 21:38:00.
