data_PCOD8236837
_publ_section_title
;
Structure prediction by ZEFSAII (Michael W. Deem and Ramdas Pophale) SiO2 
 PCOD8236837
Probable space group: P N N M
;
_chemical_formula_sum "Si O2"
_cell_formula_units_Z 48
_cell_length_a 27.440927
_cell_length_b 9.922034
_cell_length_c 8.715538
_cell_angle_alpha 90.000000
_cell_angle_beta 90.000000
_cell_angle_gamma 90.000000
_cell_volume 2372.977881
_symmetry_space_group_name_H-M "P N N M"
_symmetry_group_IT_number 58
_symmetry_cell_setting 'orthorhombic'
loop_
_space_group_symop_operation_xyz
x,y,z
-x,-y,z
1/2+x,1/2-y,1/2-z
1/2-x,1/2+y,1/2-z
-x,-y,-z
x,y,-z
1/2-x,1/2+y,1/2+z
1/2+x,1/2-y,1/2+z
loop_
_atom_site_type_symbol
_atom_site_label
_atom_site_fract_x
_atom_site_fract_y
_atom_site_fract_z
Si Si1 0.216580 0.850938 0.179955
Si Si2 0.055068 0.522116 0.817661
Si Si3 0.391502 0.285108 0.319224
Si Si4 0.796887 0.838701 0.819809
Si Si5 0.895244 0.727548 0.321446
Si Si6 0.555044 0.457086 0.326711
O O1 0.165403 0.780004 0.222219
O O2 0.255648 0.768235 0.276516
O O3 0.217356 0.008560 0.229332
O O4 0.228198 0.837383 0.000000
O O5 0.077809 0.660506 0.750819
O O6 0.093305 0.410793 0.763700
O O7 0.000000 0.500000 0.753181
O O8 0.053599 0.522503 0.000000
O O9 0.399655 0.286963 0.500000
O O10 0.412890 0.423757 0.252945
O O11 0.845712 0.794996 0.735227
O O12 0.806530 0.834227 0.000000
O O13 0.892065 0.697991 0.500000
O O14 0.939417 0.828112 0.281773
O O15 0.500000 0.500000 0.328897
O O16 0.572500 0.421141 0.500000
#
# Coordination Sequence:
#
# PCOD8236837 Si02
#       6
#     8   8   8   8   8   8
#     4  10  22  41  63  91 123 154 202 258 313 369
#     4  10  21  39  64  93 123 163 212 254 304 366
#     4   9  18  36  61  89 120 154 197 254 305 360
#     4  11  24  43  66  90 121 160 206 253 306 373
#     4  12  25  40  60  90 130 166 203 252 306 364
#     4  10  19  37  66  93 118 155 204 253 303 363
#
# _framework density 20.227747000000001
#
# number of rings (size 3 to 8) (size 9 to 14) (size 15 to 20)
#    0.000    1.667    1.667    3.000    2.333    4.667 
#    0.000    0.833    0.000    0.000    0.000    0.000 
#    0.000    0.000    0.000    0.000    0.000    0.000 
#
# Total GULP energy -595199.147340 kJ/mol
# GULP energy per Si atom -12399.982236 kJ/mol
# Density = 2.018171 g / cm^3
# Si number density = 20.227747 Si / 1000 Ang^3
#
#
#
# Elastic Constant Matrix: (Units=GPa)
#
#
# Indices 1 2 3 4 5 6 
#
# 1 76.6749 26.7021 15.5366 0.0000 0.0000 0.0000
# 2 26.7021 104.6226 11.9638 0.0000 0.0000 0.0000
# 3 15.5366 11.9638 16.6011 0.0000 0.0000 0.0000
# 4 0.0000 0.0000 0.0000 9.1527 0.0000 0.0000
# 5 0.0000 0.0000 0.0000 0.0000 -40.6672 0.0000
# 6 0.0000 0.0000 0.0000 0.0000 0.0000 43.2626
#
#
#
# Elastic Compliance Matrix: (Units=1/GPa)
#
#
# Indices 1 2 3 4 5 6 
#
# 1 0.016770 -0.002709 -0.013743 0.000000 0.000000 0.000000
# 2 -0.002709 0.010854 -0.005287 0.000000 0.000000 0.000000
# 3 -0.013743 -0.005287 0.076909 0.000000 0.000000 0.000000
# 4 0.000000 0.000000 0.000000 0.109257 0.000000 0.000000
# 5 0.000000 0.000000 0.000000 0.000000 -0.024590 0.000000
# 6 0.000000 0.000000 0.000000 0.000000 0.000000 0.023115
#
#
# Mechanical properties :
#
#
# Convention : Reuss Voigt Hill
#
# Bulk Modulus (GPa) = 16.37845 34.03371 25.20608
# Shear Modulus (GPa) = 18.10652 11.92937 15.01795
#
# Velocity S-wave (km/s) = 2.99512 2.43112 2.72774
# Velocity P-wave (km/s) = 4.48058 4.97416 4.73381
#
# Compressibility (1/GPa) = 0.06105584
#
# Stress axis : x y z
#
# Youngs Moduli (GPa) = 59.63027 92.13143 13.00244
#
# Poissons Ratio (x) = 0.24955 0.17869
# Poissons Ratio (y) = 0.16151 0.06875
# Poissons Ratio (z) = 0.81948 0.48712
#
# Static dielectric constant tensor:
#      x y z
#    x 3.886360 0.000000 0.000000 
#    y 0.000000 5.742420 0.000000 
#    z 0.000000 0.000000 3.429150 
# 
# 
# High freq. dielectric constant tensor:
#      x y z
#    x 1.802570 0.000000 0.000000 
#    y 0.000000 1.806820 0.000000 
#    z 0.000000 0.000000 1.757280 
# 
# From -- ./inp_files/10731.got.cif
#   From: 2010.06.25/outbox.cif.g09.slc.cpg/sg58_6_cif.got.tgz:10731.got - 2010.06.26 21:38:00.
