data_PCOD8236224
_publ_section_title
;
Structure prediction by ZEFSAII (Michael W. Deem and Ramdas Pophale) SiO2 
 PCOD8236224
Probable space group: P N N M
;
_chemical_formula_sum "Si O2"
_cell_formula_units_Z 56
_cell_length_a 18.899573
_cell_length_b 19.182345
_cell_length_c 9.007241
_cell_angle_alpha 90.000000
_cell_angle_beta 90.000000
_cell_angle_gamma 90.000000
_cell_volume 3265.468305
_symmetry_space_group_name_H-M "P N N M"
_symmetry_group_IT_number 58
_symmetry_cell_setting 'orthorhombic'
loop_
_space_group_symop_operation_xyz
x,y,z
-x,-y,z
1/2+x,1/2-y,1/2-z
1/2-x,1/2+y,1/2-z
-x,-y,-z
x,y,-z
1/2-x,1/2+y,1/2+z
1/2+x,1/2-y,1/2+z
loop_
_atom_site_type_symbol
_atom_site_label
_atom_site_fract_x
_atom_site_fract_y
_atom_site_fract_z
Si Si1 0.269758 0.666174 0.170177
Si Si2 0.371125 0.763993 0.327383
Si Si3 0.018045 0.707998 0.676163
Si Si4 0.797370 0.477033 0.828639
Si Si5 0.749176 0.629085 0.171598
Si Si6 0.352849 0.272274 0.327604
Si Si7 0.942524 0.445538 0.675885
O O1 0.331464 0.693453 0.277236
O O2 0.258125 0.584754 0.203699
O O3 0.196575 0.705760 0.205425
O O4 0.292220 0.679550 0.000000
O O5 0.390241 0.758532 0.500000
O O6 0.441245 0.771461 0.232462
O O7 0.321659 0.830240 0.292050
O O8 0.019325 0.711835 0.500000
O O9 0.074123 0.762813 0.740411
O O10 0.037265 0.630928 0.735568
O O11 0.758943 0.548643 0.785598
O O12 0.866275 0.468531 0.730403
O O13 0.821132 0.476708 0.000000
O O14 0.685136 0.657833 0.270352
O O15 0.728910 0.639291 0.000000
O O16 0.369973 0.280800 0.500000
O O17 0.941613 0.446158 0.500000
O O18 0.000000 0.500000 0.738498
#
# Coordination Sequence:
#
# PCOD8236224 Si02
#       7
#     8   8   8   8   8   8   8
#     4   9  18  33  52  74 100 133 173 213 255 304
#     4  10  20  33  51  75 103 135 173 214 255 305
#     4  11  21  33  51  74 104 139 173 213 259 306
#     4  10  19  33  53  76 103 137 173 212 254 305
#     4   9  19  34  52  76 105 136 172 212 257 306
#     4  10  19  33  53  75 101 134 175 216 255 306
#     4  10  21  33  47  73 109 143 172 206 254 310
#
# _framework density 17.149148
#
# number of rings (size 3 to 8) (size 9 to 14) (size 15 to 20)
#    0.000    2.143    1.429    2.143    0.000    3.143 
#    0.000    0.000    0.000    0.857    0.000    6.000 
#    0.000    0.000    0.000    0.000    0.000    0.000 
#
# Total GULP energy -694628.121222 kJ/mol
# GULP energy per Si atom -12404.073593 kJ/mol
# Density = 1.711012 g / cm^3
# Si number density = 17.149148 Si / 1000 Ang^3
#
#
#
# Elastic Constant Matrix: (Units=GPa)
#
#
# Indices 1 2 3 4 5 6 
#
# 1 71.1021 57.3245 38.4366 0.0000 0.0000 0.0000
# 2 57.3245 110.7900 31.5027 0.0000 0.0000 0.0000
# 3 38.4366 31.5027 57.0959 0.0000 0.0000 0.0000
# 4 0.0000 0.0000 0.0000 22.3108 0.0000 0.0000
# 5 0.0000 0.0000 0.0000 0.0000 34.1997 0.0000
# 6 0.0000 0.0000 0.0000 0.0000 0.0000 18.3151
#
#
#
# Elastic Compliance Matrix: (Units=1/GPa)
#
#
# Indices 1 2 3 4 5 6 
#
# 1 0.031988 -0.012368 -0.014710 0.000000 0.000000 0.000000
# 2 -0.012368 0.015488 -0.000219 0.000000 0.000000 0.000000
# 3 -0.014710 -0.000219 0.027538 0.000000 0.000000 0.000000
# 4 0.000000 0.000000 0.000000 0.044821 0.000000 0.000000
# 5 0.000000 0.000000 0.000000 0.000000 0.029240 0.000000
# 6 0.000000 0.000000 0.000000 0.000000 0.000000 0.054600
#
#
# Mechanical properties :
#
#
# Convention : Reuss Voigt Hill
#
# Bulk Modulus (GPa) = 48.97392 54.83507 51.90449
# Shear Modulus (GPa) = 18.86252 22.41340 20.63796
#
# Velocity S-wave (km/s) = 3.32009 3.61912 3.47283
# Velocity P-wave (km/s) = 6.58156 7.03626 6.81270
#
# Compressibility (1/GPa) = 0.02041903
#
# Stress axis : x y z
#
# Youngs Moduli (GPa) = 31.26186 64.56605 36.31368
#
# Poissons Ratio (x) = 0.79858 0.53417
# Poissons Ratio (y) = 0.38666 0.00796
# Poissons Ratio (z) = 0.45985 0.01415
#
# Static dielectric constant tensor:
#      x y z
#    x 3.021530 0.000000 0.000000 
#    y 0.000000 3.321460 0.000000 
#    z 0.000000 0.000000 3.191270 
# 
# 
# High freq. dielectric constant tensor:
#      x y z
#    x 1.650560 0.000000 0.000000 
#    y 0.000000 1.656370 0.000000 
#    z 0.000000 0.000000 1.666780 
# 
# From -- ./inp_files/8152.got.cif
#   From: 2010.06.25/outbox.cif.g09.slc.cpg/sg58_5_cif.got.tgz:8152.got - 2010.06.26 21:38:00.
