data_PCOD8236512
_publ_section_title
;
Structure prediction by ZEFSAII (Michael W. Deem and Ramdas Pophale) SiO2 
 PCOD8236512
Probable space group: P N N M
;
_chemical_formula_sum "Si O2"
_cell_formula_units_Z 64
_cell_length_a 11.648674
_cell_length_b 16.366007
_cell_length_c 15.604582
_cell_angle_alpha 90.000000
_cell_angle_beta 90.000000
_cell_angle_gamma 90.000000
_cell_volume 2974.893094
_symmetry_space_group_name_H-M "P N N M"
_symmetry_group_IT_number 58
_symmetry_cell_setting 'orthorhombic'
loop_
_space_group_symop_operation_xyz
x,y,z
-x,-y,z
1/2+x,1/2-y,1/2-z
1/2-x,1/2+y,1/2-z
-x,-y,-z
x,y,-z
1/2-x,1/2+y,1/2+z
1/2+x,1/2-y,1/2+z
loop_
_atom_site_type_symbol
_atom_site_label
_atom_site_fract_x
_atom_site_fract_y
_atom_site_fract_z
Si Si1 0.098221 0.687065 0.171836
Si Si2 0.271211 0.464298 0.818180
Si Si3 0.539503 0.664041 0.769940
Si Si4 0.607702 0.949655 0.792549
Si Si5 0.032496 0.091247 0.905591
Si Si6 0.641156 0.175413 0.401218
Si Si7 0.768471 0.331881 0.593892
Si Si8 0.832298 0.865159 0.601190
O O1 0.098844 0.747282 0.255998
O O2 0.078279 0.593881 0.202765
O O3 0.219507 0.689926 0.121227
O O4 0.990523 0.703375 0.109912
O O5 0.379490 0.406179 0.806064
O O6 0.220815 0.494920 0.726481
O O7 0.169142 0.411822 0.860207
O O8 0.310447 0.539543 0.877854
O O9 0.510644 0.647090 0.671015
O O10 0.432620 0.669018 0.836033
O O11 0.629329 0.875567 0.856906
O O12 0.500000 0.000000 0.828184
O O13 0.168707 0.100610 0.910985
O O14 0.980014 0.114896 0.000000
O O15 0.000000 0.000000 0.880881
O O16 0.668671 0.168926 0.500000
O O17 0.722199 0.247773 0.362485
O O18 0.816183 0.310742 0.500000
O O19 0.864479 0.856329 0.500000
#
# Coordination Sequence:
#
# PCOD8236512 Si02
#       8
#     8   8   8   8   8   8   8   8
#     4  11  24  40  65  95 131 174 221 281 334 403
#     4  11  24  40  66  99 131 180 222 279 341 406
#     4  12  24  41  70  94 137 177 227 278 348 408
#     4  11  22  40  61  91 131 170 225 270 333 399
#     4  10  19  34  57  89 122 163 223 285 335 393
#     4  11  22  40  65  94 127 170 224 274 333 403
#     4  10  21  37  59  87 123 168 219 274 329 398
#     4  11  26  45  68 101 141 179 227 285 346 412
#
# _framework density 21.513379
#
# number of rings (size 3 to 8) (size 9 to 14) (size 15 to 20)
#    0.000    1.125    2.500    4.875    1.750    2.250 
#    0.000    2.500    0.000    1.500    0.000    0.000 
#    0.000    0.000    0.000    0.000    0.000    0.000 
#
# Total GULP energy -792972.155595 kJ/mol
# GULP energy per Si atom -12390.189931 kJ/mol
# Density = 2.146441 g / cm^3
# Si number density = 21.513379 Si / 1000 Ang^3
#
#
#
# Elastic Constant Matrix: (Units=GPa)
#
#
# Indices 1 2 3 4 5 6 
#
# 1 87.0620 27.7049 44.1130 0.0000 0.0000 0.0000
# 2 27.7049 99.1138 36.7268 0.0000 0.0000 0.0000
# 3 44.1130 36.7268 97.3911 0.0000 0.0000 0.0000
# 4 0.0000 0.0000 0.0000 26.0500 0.0000 0.0000
# 5 0.0000 0.0000 0.0000 0.0000 28.0463 0.0000
# 6 0.0000 0.0000 0.0000 0.0000 0.0000 42.1332
#
#
#
# Elastic Compliance Matrix: (Units=1/GPa)
#
#
# Indices 1 2 3 4 5 6 
#
# 1 0.015234 -0.001978 -0.006154 0.000000 0.000000 0.000000
# 2 -0.001978 0.011985 -0.003624 0.000000 0.000000 0.000000
# 3 -0.006154 -0.003624 0.014422 0.000000 0.000000 0.000000
# 4 0.000000 0.000000 0.000000 0.038388 0.000000 0.000000
# 5 0.000000 0.000000 0.000000 0.000000 0.035655 0.000000
# 6 0.000000 0.000000 0.000000 0.000000 0.000000 0.023734
#
#
# Mechanical properties :
#
#
# Convention : Reuss Voigt Hill
#
# Bulk Modulus (GPa) = 55.15988 55.62848 55.39418
# Shear Modulus (GPa) = 29.59058 30.91405 30.25231
#
# Velocity S-wave (km/s) = 3.71273 3.79485 3.75401
# Velocity P-wave (km/s) = 6.63887 6.71676 6.67793
#
# Compressibility (1/GPa) = 0.01812912
#
# Stress axis : x y z
#
# Youngs Moduli (GPa) = 65.64402 83.43726 69.33859
#
# Poissons Ratio (x) = 0.16502 0.42673
# Poissons Ratio (y) = 0.12983 0.25127
# Poissons Ratio (z) = 0.40399 0.30236
#
# Static dielectric constant tensor:
#      x y z
#    x 3.791670 0.000000 0.000000 
#    y 0.000000 4.188060 0.000000 
#    z 0.000000 0.000000 3.863970 
# 
# 
# High freq. dielectric constant tensor:
#      x y z
#    x 1.835790 0.000000 0.000000 
#    y 0.000000 1.858410 0.000000 
#    z 0.000000 0.000000 1.836610 
# 
# From -- ./inp_files/21535.got.cif
#   From: 2010.06.25/outbox.cif.g09.slc.cpg/sg58_11_cif.got.tgz:21535.got - 2010.06.26 21:38:00.
