data_PCOD8236117
_publ_section_title
;
Structure prediction by ZEFSAII (Michael W. Deem and Ramdas Pophale) SiO2 
 PCOD8236117
Probable space group: P N N M
;
_chemical_formula_sum "Si O2"
_cell_formula_units_Z 56
_cell_length_a 20.915611
_cell_length_b 14.671936
_cell_length_c 9.288063
_cell_angle_alpha 90.000000
_cell_angle_beta 90.000000
_cell_angle_gamma 90.000000
_cell_volume 2850.251169
_symmetry_space_group_name_H-M "P N N M"
_symmetry_group_IT_number 58
_symmetry_cell_setting 'orthorhombic'
loop_
_space_group_symop_operation_xyz
x,y,z
-x,-y,z
1/2+x,1/2-y,1/2-z
1/2-x,1/2+y,1/2-z
-x,-y,-z
x,y,-z
1/2-x,1/2+y,1/2+z
1/2+x,1/2-y,1/2+z
loop_
_atom_site_type_symbol
_atom_site_label
_atom_site_fract_x
_atom_site_fract_y
_atom_site_fract_z
Si Si1 0.260020 0.024450 0.670578
Si Si2 0.975809 0.267361 0.666954
Si Si3 0.735868 0.185074 0.329980
Si Si4 0.902215 0.742642 0.164014
Si Si5 0.640173 0.439042 0.335935
Si Si6 0.662654 0.836726 0.170029
Si Si7 0.441500 0.433380 0.841370
O O1 0.263056 0.036478 0.500000
O O2 0.201531 0.081360 0.737774
O O3 0.321929 0.070743 0.742992
O O4 0.251677 0.919075 0.716791
O O5 0.992078 0.276842 0.500000
O O6 0.911558 0.320787 0.707855
O O7 0.965038 0.163435 0.712787
O O8 0.038318 0.303078 0.751860
O O9 0.732668 0.194918 0.500000
O O10 0.666005 0.212507 0.268315
O O11 0.793127 0.251431 0.275201
O O12 0.906681 0.852480 0.175156
O O13 0.907634 0.709150 0.000000
O O14 0.661901 0.455465 0.500000
O O15 0.606871 0.529695 0.277252
O O16 0.672564 0.851570 0.000000
O O17 0.500000 0.500000 0.858331
O O18 0.407592 0.424372 0.000000
#
# Coordination Sequence:
#
# PCOD8236117 Si02
#       7
#     8   8   8   8   8   8   8
#     4  11  22  37  61  87 111 144 195 246 285 337
#     4  10  21  36  56  82 116 156 188 231 290 345
#     4   9  19  39  62  82 110 153 195 232 285 343
#     4  10  20  36  58  80 109 149 189 231 278 339
#     4  11  21  34  55  81 113 150 185 228 288 346
#     4  10  20  39  61  82 116 154 188 231 292 347
#     4  10  19  32  52  79 112 146 185 228 276 339
#
# _framework density 19.647392
#
# number of rings (size 3 to 8) (size 9 to 14) (size 15 to 20)
#    0.000    1.857    2.857    1.714    0.000    4.286 
#    0.000    5.000    0.000    4.286    0.000    0.000 
#    0.000    0.000    0.000    0.000    0.000    0.000 
#
# Total GULP energy -694228.501268 kJ/mol
# GULP energy per Si atom -12396.937523 kJ/mol
# Density = 1.960267 g / cm^3
# Si number density = 19.647392 Si / 1000 Ang^3
#
#
#
# Elastic Constant Matrix: (Units=GPa)
#
#
# Indices 1 2 3 4 5 6 
#
# 1 120.5111 10.7816 43.9310 0.0000 0.0000 0.0000
# 2 10.7816 45.6203 21.8936 0.0000 0.0000 0.0000
# 3 43.9310 21.8936 70.1428 0.0000 0.0000 0.0000
# 4 0.0000 0.0000 0.0000 25.1597 0.0000 0.0000
# 5 0.0000 0.0000 0.0000 0.0000 35.9338 0.0000
# 6 0.0000 0.0000 0.0000 0.0000 0.0000 25.5551
#
#
#
# Elastic Compliance Matrix: (Units=1/GPa)
#
#
# Indices 1 2 3 4 5 6 
#
# 1 0.010779 0.000814 -0.007005 0.000000 0.000000 0.000000
# 2 0.000814 0.025844 -0.008577 0.000000 0.000000 0.000000
# 3 -0.007005 -0.008577 0.021321 0.000000 0.000000 0.000000
# 4 0.000000 0.000000 0.000000 0.039746 0.000000 0.000000
# 5 0.000000 0.000000 0.000000 0.000000 0.027829 0.000000
# 6 0.000000 0.000000 0.000000 0.000000 0.000000 0.039131
#
#
# Mechanical properties :
#
#
# Convention : Reuss Voigt Hill
#
# Bulk Modulus (GPa) = 35.20031 43.27628 39.23830
# Shear Modulus (GPa) = 24.55152 27.97426 26.26289
#
# Velocity S-wave (km/s) = 3.53881 3.77744 3.66007
# Velocity P-wave (km/s) = 5.88664 6.41091 6.15436
#
# Compressibility (1/GPa) = 0.02840884
#
# Stress axis : x y z
#
# Youngs Moduli (GPa) = 92.77539 38.69429 46.90233
#
# Poissons Ratio (x) = -0.03151 0.32855
# Poissons Ratio (y) = -0.07556 0.40226
# Poissons Ratio (z) = 0.64989 0.33187
#
# Static dielectric constant tensor:
#      x y z
#    x 3.700100 0.000000 0.000000 
#    y 0.000000 3.220170 0.000000 
#    z 0.000000 0.000000 3.413490 
# 
# 
# High freq. dielectric constant tensor:
#      x y z
#    x 1.771400 0.000000 0.000000 
#    y 0.000000 1.748340 0.000000 
#    z 0.000000 0.000000 1.745670 
# 
# From -- ./inp_files/6293.got.cif
#   From: 2010.06.25/outbox.cif.g09.slc.cpg/sg58_4_cif.got.tgz:6293.got - 2010.06.26 21:38:00.
