data_PCOD8236589
_publ_section_title
;
Structure prediction by ZEFSAII (Michael W. Deem and Ramdas Pophale) SiO2 
 PCOD8236589
Probable space group: P N N M
;
_chemical_formula_sum "Si O2"
_cell_formula_units_Z 64
_cell_length_a 13.622450
_cell_length_b 9.317688
_cell_length_c 27.974110
_cell_angle_alpha 90.000000
_cell_angle_beta 90.000000
_cell_angle_gamma 90.000000
_cell_volume 3550.746478
_symmetry_space_group_name_H-M "P N N M"
_symmetry_group_IT_number 58
_symmetry_cell_setting 'orthorhombic'
loop_
_space_group_symop_operation_xyz
x,y,z
-x,-y,z
1/2+x,1/2-y,1/2-z
1/2-x,1/2+y,1/2-z
-x,-y,-z
x,y,-z
1/2-x,1/2+y,1/2+z
1/2+x,1/2-y,1/2+z
loop_
_atom_site_type_symbol
_atom_site_label
_atom_site_fract_x
_atom_site_fract_y
_atom_site_fract_z
Si Si1 0.712940 0.992318 0.655167
Si Si2 0.189893 0.979851 0.147609
Si Si3 0.249691 0.728168 0.286771
Si Si4 0.333425 0.751274 0.180618
Si Si5 0.074285 0.377739 0.911171
Si Si6 0.025422 0.665006 0.723033
Si Si7 0.898115 0.922288 0.947052
Si Si8 0.548243 0.767208 0.325592
O O1 0.808566 0.890375 0.649156
O O2 0.625608 0.896405 0.676607
O O3 0.735678 0.113344 0.693491
O O4 0.679450 0.051705 0.603037
O O5 0.290546 0.891559 0.154016
O O6 0.096313 0.882557 0.159596
O O7 0.186095 0.114977 0.183221
O O8 0.182128 0.033061 0.092583
O O9 0.279466 0.730738 0.231607
O O10 0.136000 0.686992 0.293972
O O11 0.450463 0.765840 0.184608
O O12 0.087068 0.250720 0.949069
O O13 0.000000 0.500000 0.931119
O O14 0.037040 0.304737 0.862335
O O15 0.002519 0.746080 0.772895
O O16 0.000000 0.500000 0.729366
O O17 0.861100 0.968052 0.000000
O O18 0.000000 0.000000 0.935085
#
# Coordination Sequence:
#
# PCOD8236589 Si02
#       8
#     8   8   8   8   8   8   8   8
#     4  10  20  34  49  73 108 149 190 226 268 339
#     4  11  21  38  55  78 112 155 186 232 289 330
#     4  12  21  35  54  78 112 155 195 236 275 337
#     4  11  23  35  51  79 114 148 197 232 275 340
#     4  10  19  35  57  77 107 152 182 219 284 343
#     4  12  22  34  53  79 113 156 201 239 274 328
#     4  11  23  38  59  88 114 143 194 244 286 345
#     4  10  20  33  54  76 111 157 192 220 282 337
#
# _framework density 18.024380000000001
#
# number of rings (size 3 to 8) (size 9 to 14) (size 15 to 20)
#    0.000    1.125    6.250    3.375    0.000    0.750 
#    0.000    0.000    0.000    0.000    0.000    1.750 
#    0.000    1.000    0.000    0.000    0.000    0.000 
#
# Total GULP energy -793562.049057 kJ/mol
# GULP energy per Si atom -12399.407017 kJ/mol
# Density = 1.798336 g / cm^3
# Si number density = 18.024380 Si / 1000 Ang^3
#
#
#
# Elastic Constant Matrix: (Units=GPa)
#
#
# Indices 1 2 3 4 5 6 
#
# 1 68.1468 26.2610 28.5051 0.0000 0.0000 0.0000
# 2 26.2610 99.0249 31.9264 0.0000 0.0000 0.0000
# 3 28.5051 31.9264 75.7277 0.0000 0.0000 0.0000
# 4 0.0000 0.0000 0.0000 12.5392 0.0000 0.0000
# 5 0.0000 0.0000 0.0000 0.0000 13.1089 0.0000
# 6 0.0000 0.0000 0.0000 0.0000 0.0000 23.3674
#
#
#
# Elastic Compliance Matrix: (Units=1/GPa)
#
#
# Indices 1 2 3 4 5 6 
#
# 1 0.018167 -0.003024 -0.005563 0.000000 0.000000 0.000000
# 2 -0.003024 0.012190 -0.004001 0.000000 0.000000 0.000000
# 3 -0.005563 -0.004001 0.016986 0.000000 0.000000 0.000000
# 4 0.000000 0.000000 0.000000 0.079750 0.000000 0.000000
# 5 0.000000 0.000000 0.000000 0.000000 0.076284 0.000000
# 6 0.000000 0.000000 0.000000 0.000000 0.000000 0.042795
#
#
# Mechanical properties :
#
#
# Convention : Reuss Voigt Hill
#
# Bulk Modulus (GPa) = 45.11352 46.25381 45.68366
# Shear Modulus (GPa) = 17.93802 20.21689 19.07745
#
# Velocity S-wave (km/s) = 3.15812 3.35272 3.25687
# Velocity P-wave (km/s) = 6.19530 6.38006 6.28836
#
# Compressibility (1/GPa) = 0.02216630
#
# Stress axis : x y z
#
# Youngs Moduli (GPa) = 55.04601 82.03157 58.87147
#
# Poissons Ratio (x) = 0.24807 0.32752
# Poissons Ratio (y) = 0.16646 0.23555
# Poissons Ratio (z) = 0.30624 0.32822
#
# Static dielectric constant tensor:
#      x y z
#    x 3.421690 0.000000 0.000000 
#    y 0.000000 3.724750 0.000000 
#    z 0.000000 0.000000 3.036850 
# 
# 
# High freq. dielectric constant tensor:
#      x y z
#    x 1.679720 0.000000 0.000000 
#    y 0.000000 1.723460 0.000000 
#    z 0.000000 0.000000 1.652320 
# 
# From -- ./inp_files/35097.got.cif
#   From: 2010.06.25/outbox.cif.g09.slc.cpg/sg58_18_cif.got.tgz:35097.got - 2010.06.26 21:38:00.
