data_PCOD8236151
_publ_section_title
;
Structure prediction by ZEFSAII (Michael W. Deem and Ramdas Pophale) SiO2 
 PCOD8236151
Probable space group: P N N M
;
_chemical_formula_sum "Si O2"
_cell_formula_units_Z 64
_cell_length_a 28.810046
_cell_length_b 12.567907
_cell_length_c 9.035554
_cell_angle_alpha 90.000000
_cell_angle_beta 90.000000
_cell_angle_gamma 90.000000
_cell_volume 3271.611272
_symmetry_space_group_name_H-M "P N N M"
_symmetry_group_IT_number 58
_symmetry_cell_setting 'orthorhombic'
loop_
_space_group_symop_operation_xyz
x,y,z
-x,-y,z
1/2+x,1/2-y,1/2-z
1/2-x,1/2+y,1/2-z
-x,-y,-z
x,y,-z
1/2-x,1/2+y,1/2+z
1/2+x,1/2-y,1/2+z
loop_
_atom_site_type_symbol
_atom_site_label
_atom_site_fract_x
_atom_site_fract_y
_atom_site_fract_z
Si Si1 0.397202 0.881098 0.828029
Si Si2 0.828709 0.324154 0.835534
Si Si3 0.295374 0.371159 0.174561
Si Si4 0.416935 0.116838 0.167087
Si Si5 0.195793 0.438292 0.167778
Si Si6 0.110884 0.979882 0.326316
Si Si7 0.028725 0.818622 0.668078
Si Si8 0.564513 0.325162 0.675197
O O1 0.344515 0.892199 0.771503
O O2 0.423196 0.790474 0.737770
O O3 0.425892 0.991495 0.802724
O O4 0.396043 0.849687 0.000000
O O5 0.800918 0.249116 0.725992
O O6 0.881247 0.337859 0.784647
O O7 0.802753 0.435399 0.832528
O O8 0.829320 0.275180 0.000000
O O9 0.245617 0.407860 0.236382
O O10 0.338437 0.442895 0.231424
O O11 0.295226 0.375093 0.000000
O O12 0.462385 0.191085 0.184845
O O13 0.396947 0.130217 0.000000
O O14 0.188544 0.394862 0.000000
O O15 0.111191 0.006081 0.500000
O O16 0.099361 0.086716 0.237917
O O17 0.074582 0.885517 0.290513
O O18 0.013329 0.844116 0.500000
O O19 0.987703 0.854564 0.776162
O O20 0.567982 0.323262 0.500000
#
# Coordination Sequence:
#
# PCOD8236151 Si02
#       8
#     8   8   8   8   8   8   8   8
#     4  10  21  39  62  85 115 154 197 240 288 349
#     4  10  19  32  53  83 117 149 186 236 291 342
#     4  10  20  37  60  85 114 151 194 238 286 344
#     4   9  18  36  62  87 110 146 194 240 286 344
#     4   9  20  37  57  84 118 152 187 235 294 346
#     4  10  21  39  62  85 114 155 201 244 288 348
#     4  10  20  38  63  88 114 149 198 244 293 353
#     4  12  26  40  56  83 123 160 195 241 299 351
#
# _framework density 19.562227
#
# number of rings (size 3 to 8) (size 9 to 14) (size 15 to 20)
#    0.000    2.000    1.250    2.250    0.000    6.000 
#    0.000    3.750    0.000    0.000    0.000    0.000 
#    0.000    0.000    0.000    0.000    0.000    0.000 
#
# Total GULP energy -793579.095294 kJ/mol
# GULP energy per Si atom -12399.673364 kJ/mol
# Density = 1.951770 g / cm^3
# Si number density = 19.562227 Si / 1000 Ang^3
#
#
#
# Elastic Constant Matrix: (Units=GPa)
#
#
# Indices 1 2 3 4 5 6 
#
# 1 55.7600 8.0301 15.4823 0.0000 0.0000 0.0000
# 2 8.0301 70.6856 24.9143 0.0000 0.0000 0.0000
# 3 15.4823 24.9143 44.1404 0.0000 0.0000 0.0000
# 4 0.0000 0.0000 0.0000 30.3590 0.0000 0.0000
# 5 0.0000 0.0000 0.0000 0.0000 24.4542 0.0000
# 6 0.0000 0.0000 0.0000 0.0000 0.0000 20.6655
#
#
#
# Elastic Compliance Matrix: (Units=1/GPa)
#
#
# Indices 1 2 3 4 5 6 
#
# 1 0.019873 0.000249 -0.007111 0.000000 0.000000 0.000000
# 2 0.000249 0.017664 -0.010057 0.000000 0.000000 0.000000
# 3 -0.007111 -0.010057 0.030826 0.000000 0.000000 0.000000
# 4 0.000000 0.000000 0.000000 0.032939 0.000000 0.000000
# 5 0.000000 0.000000 0.000000 0.000000 0.040893 0.000000
# 6 0.000000 0.000000 0.000000 0.000000 0.000000 0.048390
#
#
# Mechanical properties :
#
#
# Convention : Reuss Voigt Hill
#
# Bulk Modulus (GPa) = 28.96575 29.71548 29.34062
# Shear Modulus (GPa) = 21.19271 23.23968 22.21619
#
# Velocity S-wave (km/s) = 3.29500 3.45046 3.37362
# Velocity P-wave (km/s) = 5.41434 5.57651 5.49602
#
# Compressibility (1/GPa) = 0.03452353
#
# Stress axis : x y z
#
# Youngs Moduli (GPa) = 50.32064 56.61317 32.44044
#
# Poissons Ratio (x) = -0.01408 0.23068
# Poissons Ratio (y) = -0.01252 0.32626
# Poissons Ratio (z) = 0.35782 0.56937
#
# Static dielectric constant tensor:
#      x y z
#    x 3.572850 0.000000 0.000000 
#    y 0.000000 3.687570 0.000000 
#    z 0.000000 0.000000 3.581010 
# 
# 
# High freq. dielectric constant tensor:
#      x y z
#    x 1.754700 0.000000 0.000000 
#    y 0.000000 1.767930 0.000000 
#    z 0.000000 0.000000 1.756050 
# 
# From -- ./inp_files/11044.got.cif
#   From: 2010.06.25/outbox.cif.g09.slc.cpg/sg58_6_cif.got.tgz:11044.got - 2010.06.26 21:38:00.
