data_PCOD8236382
_publ_section_title
;
Structure prediction by ZEFSAII (Michael W. Deem and Ramdas Pophale) SiO2 
 PCOD8236382
Probable space group: P N N M
;
_chemical_formula_sum "Si O2"
_cell_formula_units_Z 64
_cell_length_a 12.676650
_cell_length_b 11.078610
_cell_length_c 22.505479
_cell_angle_alpha 90.000000
_cell_angle_beta 90.000000
_cell_angle_gamma 90.000000
_cell_volume 3160.661852
_symmetry_space_group_name_H-M "P N N M"
_symmetry_group_IT_number 58
_symmetry_cell_setting 'orthorhombic'
loop_
_space_group_symop_operation_xyz
x,y,z
-x,-y,z
1/2+x,1/2-y,1/2-z
1/2-x,1/2+y,1/2-z
-x,-y,-z
x,y,-z
1/2-x,1/2+y,1/2+z
1/2+x,1/2-y,1/2+z
loop_
_atom_site_type_symbol
_atom_site_label
_atom_site_fract_x
_atom_site_fract_y
_atom_site_fract_z
Si Si1 0.434769 0.121898 0.568710
Si Si2 0.443287 0.627688 0.566852
Si Si3 0.683865 0.543026 0.231669
Si Si4 0.282438 0.643641 0.135423
Si Si5 0.865432 0.680573 0.268936
Si Si6 0.584213 0.768070 0.178184
Si Si7 0.690069 0.359865 0.675441
Si Si8 0.484951 0.641798 0.932448
O O1 0.400900 0.111871 0.500000
O O2 0.491328 0.250256 0.580301
O O3 0.333386 0.126587 0.610270
O O4 0.500000 0.000000 0.585858
O O5 0.500000 0.500000 0.578927
O O6 0.401598 0.631871 0.500000
O O7 0.340382 0.628222 0.607249
O O8 0.681597 0.478832 0.167900
O O9 0.804917 0.556837 0.255231
O O10 0.614127 0.662434 0.224528
O O11 0.635443 0.463813 0.284616
O O12 0.289886 0.748225 0.184715
O O13 0.362991 0.671742 0.081898
O O14 0.861551 0.740759 0.203702
O O15 0.982864 0.662913 0.294444
O O16 0.682220 0.858984 0.175077
O O17 0.559667 0.715357 0.112745
O O18 0.500000 0.500000 0.924549
O O19 0.510354 0.682702 0.000000
#
# Coordination Sequence:
#
# PCOD8236382 Si02
#       8
#     8   8   8   8   8   8   8   8
#     4  10  23  40  61  91 124 159 199 254 311 357
#     4  10  24  43  63  90 120 158 209 251 297 367
#     4  10  21  38  55  86 117 158 199 245 303 362
#     4  10  20  37  56  86 121 152 199 248 295 371
#     4   9  22  36  57  85 116 156 199 247 301 359
#     4  10  21  39  54  86 120 145 204 251 293 364
#     4  10  23  36  61  85 112 163 196 245 306 356
#     4  10  19  33  59  85 112 155 189 238 307 358
#
# _framework density 20.248923000000001
#
# number of rings (size 3 to 8) (size 9 to 14) (size 15 to 20)
#    0.000    2.125    1.250    0.375    7.000    3.000 
#    0.000    0.000    0.000    0.000    0.000    2.625 
#    0.000    0.000    0.000    0.000    0.000    0.000 
#
# Total GULP energy -792952.409920 kJ/mol
# GULP energy per Si atom -12389.881405 kJ/mol
# Density = 2.020284 g / cm^3
# Si number density = 20.248923 Si / 1000 Ang^3
#
#
#
# Elastic Constant Matrix: (Units=GPa)
#
#
# Indices 1 2 3 4 5 6 
#
# 1 73.7243 3.1949 55.1186 0.0000 0.0000 0.0000
# 2 3.1949 63.7746 15.1663 0.0000 0.0000 0.0000
# 3 55.1186 15.1663 104.6533 0.0000 0.0000 0.0000
# 4 0.0000 0.0000 0.0000 -5.1563 0.0000 0.0000
# 5 0.0000 0.0000 0.0000 0.0000 -37.3075 0.0000
# 6 0.0000 0.0000 0.0000 0.0000 0.0000 19.0874
#
#
#
# Elastic Compliance Matrix: (Units=1/GPa)
#
#
# Indices 1 2 3 4 5 6 
#
# 1 0.022562 0.001756 -0.012138 0.000000 0.000000 0.000000
# 2 0.001756 0.016377 -0.003298 0.000000 0.000000 0.000000
# 3 -0.012138 -0.003298 0.016426 0.000000 0.000000 0.000000
# 4 0.000000 0.000000 0.000000 -0.193937 0.000000 0.000000
# 5 0.000000 0.000000 0.000000 0.000000 -0.026804 0.000000
# 6 0.000000 0.000000 0.000000 0.000000 0.000000 0.052391
#
#
# Mechanical properties :
#
#
# Convention : Reuss Voigt Hill
#
# Bulk Modulus (GPa) = 35.70715 43.23465 39.47090
# Shear Modulus (GPa) = -65.53861 6.56953 -29.48454
#
# Velocity S-wave (km/s) = -5.69533 1.80317 -3.82003
# Velocity P-wave (km/s) = 5.05733 5.07279 0.27980
#
# Compressibility (1/GPa) = 0.02800560
#
# Stress axis : x y z
#
# Youngs Moduli (GPa) = 44.32148 61.06271 60.87924
#
# Poissons Ratio (x) = -0.10724 0.73893
# Poissons Ratio (y) = -0.07784 0.20079
# Poissons Ratio (z) = 0.53796 0.20140
#
# Static dielectric constant tensor:
#      x y z
#    x 3.365650 0.000000 0.000000 
#    y 0.000000 3.765450 0.000000 
#    z 0.000000 0.000000 3.713800 
# 
# 
# High freq. dielectric constant tensor:
#      x y z
#    x 1.782110 0.000000 0.000000 
#    y 0.000000 1.783390 0.000000 
#    z 0.000000 0.000000 1.798280 
# 
# From -- ./inp_files/32079.got.cif
#   From: 2010.06.25/outbox.cif.g09.slc.cpg/sg58_17_cif.got.tgz:32079.got - 2010.06.26 21:38:00.
