data_PCOD8236349
_publ_section_title
;
Structure prediction by ZEFSAII (Michael W. Deem and Ramdas Pophale) SiO2 
 PCOD8236349
Probable space group: P N N M
;
_chemical_formula_sum "Si O2"
_cell_formula_units_Z 64
_cell_length_a 32.748555
_cell_length_b 10.383395
_cell_length_c 9.127249
_cell_angle_alpha 90.000000
_cell_angle_beta 90.000000
_cell_angle_gamma 90.000000
_cell_volume 3103.640541
_symmetry_space_group_name_H-M "P N N M"
_symmetry_group_IT_number 58
_symmetry_cell_setting 'orthorhombic'
loop_
_space_group_symop_operation_xyz
x,y,z
-x,-y,z
1/2+x,1/2-y,1/2-z
1/2-x,1/2+y,1/2-z
-x,-y,-z
x,y,-z
1/2-x,1/2+y,1/2+z
1/2+x,1/2-y,1/2+z
loop_
_atom_site_type_symbol
_atom_site_label
_atom_site_fract_x
_atom_site_fract_y
_atom_site_fract_z
Si Si1 0.619793 0.862554 0.168711
Si Si2 0.232618 0.011705 0.172571
Si Si3 0.464629 0.252201 0.165845
Si Si4 0.148859 0.881143 0.833974
Si Si5 0.216349 0.297759 0.169777
Si Si6 0.945492 0.750027 0.332197
Si Si7 0.062861 0.994384 0.833417
Si Si8 0.627960 0.116957 0.330816
O O1 0.570790 0.853266 0.193123
O O2 0.642762 0.735560 0.222814
O O3 0.637714 0.980288 0.259130
O O4 0.630894 0.883617 0.000000
O O5 0.188479 0.958291 0.216829
O O6 0.266404 0.921682 0.246106
O O7 0.235192 0.161383 0.226242
O O8 0.239464 0.006642 0.000000
O O9 0.509265 0.186635 0.184425
O O10 0.459778 0.365193 0.283632
O O11 0.459982 0.307513 0.000000
O O12 0.111553 0.980289 0.823400
O O13 0.152978 0.827990 0.000000
O O14 0.167371 0.292383 0.193179
O O15 0.226812 0.317259 0.000000
O O16 0.930903 0.748551 0.500000
O O17 0.912425 0.676037 0.238333
O O18 0.950677 0.894856 0.276327
O O19 0.049631 0.025925 0.000000
O O20 0.618516 0.096001 0.500000
#
# Coordination Sequence:
#
# PCOD8236349 Si02
#       8
#     8   8   8   8   8   8   8   8
#     4  10  21  38  60  86 117 155 201 248 298 358
#     4  10  22  41  65  92 123 159 200 246 297 359
#     4   9  20  37  55  81 117 155 195 246 301 355
#     4   9  19  37  60  85 118 156 195 240 297 355
#     4  10  24  44  64  91 126 160 198 248 306 364
#     4  11  22  36  56  81 114 155 199 246 300 358
#     4  10  19  33  56  85 117 153 194 243 299 358
#     4  11  24  42  61  82 116 156 198 248 307 366
#
# _framework density 20.620944000000001
#
# number of rings (size 3 to 8) (size 9 to 14) (size 15 to 20)
#    0.000    2.000    0.000    2.625    1.750    8.000 
#    0.000    3.750    0.000    0.000    0.000    0.000 
#    0.000    0.000    0.000    0.000    0.000    0.000 
#
# Total GULP energy -793635.758463 kJ/mol
# GULP energy per Si atom -12400.558726 kJ/mol
# Density = 2.057401 g / cm^3
# Si number density = 20.620944 Si / 1000 Ang^3
#
#
#
# Elastic Constant Matrix: (Units=GPa)
#
#
# Indices 1 2 3 4 5 6 
#
# 1 76.6619 33.9572 36.5750 0.0000 0.0000 0.0000
# 2 33.9572 89.8813 44.5844 0.0000 0.0000 0.0000
# 3 36.5750 44.5844 103.6583 0.0000 0.0000 0.0000
# 4 0.0000 0.0000 0.0000 36.7248 0.0000 0.0000
# 5 0.0000 0.0000 0.0000 0.0000 30.2018 0.0000
# 6 0.0000 0.0000 0.0000 0.0000 0.0000 22.4511
#
#
#
# Elastic Compliance Matrix: (Units=1/GPa)
#
#
# Indices 1 2 3 4 5 6 
#
# 1 0.016932 -0.004365 -0.004097 0.000000 0.000000 0.000000
# 2 -0.004365 0.015268 -0.005027 0.000000 0.000000 0.000000
# 3 -0.004097 -0.005027 0.013255 0.000000 0.000000 0.000000
# 4 0.000000 0.000000 0.000000 0.027230 0.000000 0.000000
# 5 0.000000 0.000000 0.000000 0.000000 0.033111 0.000000
# 6 0.000000 0.000000 0.000000 0.000000 0.000000 0.044541
#
#
# Mechanical properties :
#
#
# Convention : Reuss Voigt Hill
#
# Bulk Modulus (GPa) = 54.11880 55.60386 54.86133
# Shear Modulus (GPa) = 27.25179 28.21451 27.73315
#
# Velocity S-wave (km/s) = 3.63927 3.70299 3.67127
# Velocity P-wave (km/s) = 6.63028 6.73099 6.68082
#
# Compressibility (1/GPa) = 0.01847787
#
# Stress axis : x y z
#
# Youngs Moduli (GPa) = 59.05852 65.49493 75.44389
#
# Poissons Ratio (x) = 0.28587 0.30910
# Poissons Ratio (y) = 0.25777 0.37926
# Poissons Ratio (z) = 0.24197 0.32924
#
# Static dielectric constant tensor:
#      x y z
#    x 3.880100 0.000000 0.000000 
#    y 0.000000 3.684880 0.000000 
#    z 0.000000 0.000000 3.745750 
# 
# 
# High freq. dielectric constant tensor:
#      x y z
#    x 1.817160 0.000000 0.000000 
#    y 0.000000 1.795730 0.000000 
#    z 0.000000 0.000000 1.807750 
# 
# From -- ./inp_files/11009.got.cif
#   From: 2010.06.25/outbox.cif.g09.slc.cpg/sg58_6_cif.got.tgz:11009.got - 2010.06.26 21:38:00.
