data_PCOD8236501
_publ_section_title
;
Structure prediction by ZEFSAII (Michael W. Deem and Ramdas Pophale) SiO2 
 PCOD8236501
Probable space group: P N N M
;
_chemical_formula_sum "Si O2"
_cell_formula_units_Z 64
_cell_length_a 9.046288
_cell_length_b 29.210395
_cell_length_c 12.225876
_cell_angle_alpha 90.000000
_cell_angle_beta 90.000000
_cell_angle_gamma 90.000000
_cell_volume 3230.634499
_symmetry_space_group_name_H-M "P N N M"
_symmetry_group_IT_number 58
_symmetry_cell_setting 'orthorhombic'
loop_
_space_group_symop_operation_xyz
x,y,z
-x,-y,z
1/2+x,1/2-y,1/2-z
1/2-x,1/2+y,1/2-z
-x,-y,-z
x,y,-z
1/2-x,1/2+y,1/2+z
1/2+x,1/2-y,1/2+z
loop_
_atom_site_type_symbol
_atom_site_label
_atom_site_fract_x
_atom_site_fract_y
_atom_site_fract_z
Si Si1 0.193675 0.686139 0.125688
Si Si2 0.074212 0.415102 0.616536
Si Si3 0.323280 0.406546 0.121971
Si Si4 0.840064 0.510824 0.237363
Si Si5 0.550922 0.357099 0.731211
Si Si6 0.692166 0.707371 0.626206
Si Si7 0.758284 0.930750 0.878497
Si Si8 0.615665 0.158339 0.714545
O O1 0.337714 0.672421 0.193780
O O2 0.154337 0.739362 0.131540
O O3 0.052157 0.661321 0.177748
O O4 0.215702 0.670550 0.000000
O O5 0.144949 0.403774 0.500000
O O6 0.900275 0.406938 0.616378
O O7 0.114097 0.466798 0.647069
O O8 0.151520 0.382224 0.701107
O O9 0.251586 0.454719 0.161312
O O10 0.462439 0.392828 0.194611
O O11 0.214819 0.361412 0.115427
O O12 0.379296 0.416046 0.000000
O O13 0.741788 0.467296 0.277184
O O14 0.000000 0.500000 0.178570
O O15 0.449515 0.321594 0.664504
O O16 0.632087 0.388980 0.644147
O O17 0.736836 0.694800 0.500000
O O18 0.824468 0.701792 0.716315
O O19 0.796744 0.951308 0.000000
#
# Coordination Sequence:
#
# PCOD8236501 Si02
#       8
#     8   8   8   8   8   8   8   8
#     4  11  22  38  59  84 114 152 196 241 290 345
#     4   9  16  30  55  83 111 141 181 231 280 333
#     4  10  22  39  58  80 112 155 197 240 285 336
#     4   9  19  35  56  84 115 147 189 237 281 337
#     4  11  22  39  59  85 120 151 189 239 294 349
#     4  10  22  38  58  85 118 151 187 237 297 356
#     4  10  19  34  57  84 115 148 185 228 285 345
#     4  10  19  36  58  83 110 146 195 238 284 343
#
# _framework density 19.81035
#
# number of rings (size 3 to 8) (size 9 to 14) (size 15 to 20)
#    0.000    2.000    1.250    2.625    0.000    2.250 
#    0.000    4.375    0.000    6.000    0.000    0.000 
#    0.000    0.000    0.000    0.000    0.000    0.000 
#
# Total GULP energy -792842.677886 kJ/mol
# GULP energy per Si atom -12388.166842 kJ/mol
# Density = 1.976526 g / cm^3
# Si number density = 19.810350 Si / 1000 Ang^3
#
#
#
# Elastic Constant Matrix: (Units=GPa)
#
#
# Indices 1 2 3 4 5 6 
#
# 1 74.7015 18.4700 22.2363 0.0000 0.0000 0.0000
# 2 18.4700 70.8657 23.7824 0.0000 0.0000 0.0000
# 3 22.2363 23.7824 95.5660 0.0000 0.0000 0.0000
# 4 0.0000 0.0000 0.0000 23.4153 0.0000 0.0000
# 5 0.0000 0.0000 0.0000 0.0000 12.9396 0.0000
# 6 0.0000 0.0000 0.0000 0.0000 0.0000 35.7904
#
#
#
# Elastic Compliance Matrix: (Units=1/GPa)
#
#
# Indices 1 2 3 4 5 6 
#
# 1 0.014936 -0.002975 -0.002735 0.000000 0.000000 0.000000
# 2 -0.002975 0.015990 -0.003287 0.000000 0.000000 0.000000
# 3 -0.002735 -0.003287 0.011918 0.000000 0.000000 0.000000
# 4 0.000000 0.000000 0.000000 0.042707 0.000000 0.000000
# 5 0.000000 0.000000 0.000000 0.000000 0.077282 0.000000
# 6 0.000000 0.000000 0.000000 0.000000 0.000000 0.027940
#
#
# Mechanical properties :
#
#
# Convention : Reuss Voigt Hill
#
# Bulk Modulus (GPa) = 40.24088 41.12340 40.68214
# Shear Modulus (GPa) = 23.03599 26.20536 24.62067
#
# Velocity S-wave (km/s) = 3.41372 3.64099 3.52919
# Velocity P-wave (km/s) = 5.99126 6.20318 6.09814
#
# Compressibility (1/GPa) = 0.02485035
#
# Stress axis : x y z
#
# Youngs Moduli (GPa) = 66.95087 62.54035 83.90428
#
# Poissons Ratio (x) = 0.18606 0.22948
# Poissons Ratio (y) = 0.19918 0.27579
# Poissons Ratio (z) = 0.18311 0.20557
#
# Static dielectric constant tensor:
#      x y z
#    x 3.492410 0.000000 0.000000 
#    y 0.000000 3.592530 0.000000 
#    z 0.000000 0.000000 3.723090 
# 
# 
# High freq. dielectric constant tensor:
#      x y z
#    x 1.766620 0.000000 0.000000 
#    y 0.000000 1.772280 0.000000 
#    z 0.000000 0.000000 1.773890 
# 
# From -- ./inp_files/13419.got.cif
#   From: 2010.06.25/outbox.cif.g09.slc.cpg/sg58_7_cif.got.tgz:13419.got - 2010.06.26 21:38:00.
