data_PCOD8236100
_publ_section_title
;
Structure prediction by ZEFSAII (Michael W. Deem and Ramdas Pophale) SiO2 
 PCOD8236100
Probable space group: P N N M
;
_chemical_formula_sum "Si O2"
_cell_formula_units_Z 64
_cell_length_a 12.407236
_cell_length_b 16.027530
_cell_length_c 17.229678
_cell_angle_alpha 90.000000
_cell_angle_beta 90.000000
_cell_angle_gamma 90.000000
_cell_volume 3426.248060
_symmetry_space_group_name_H-M "P N N M"
_symmetry_group_IT_number 58
_symmetry_cell_setting 'orthorhombic'
loop_
_space_group_symop_operation_xyz
x,y,z
-x,-y,z
1/2+x,1/2-y,1/2-z
1/2-x,1/2+y,1/2-z
-x,-y,-z
x,y,-z
1/2-x,1/2+y,1/2+z
1/2+x,1/2-y,1/2+z
loop_
_atom_site_type_symbol
_atom_site_label
_atom_site_fract_x
_atom_site_fract_y
_atom_site_fract_z
Si Si1 0.100282 0.558079 0.296952
Si Si2 0.585164 0.436220 0.869474
Si Si3 0.744084 0.050066 0.291299
Si Si4 0.317110 0.728693 0.084456
Si Si5 0.538454 0.802852 0.908399
Si Si6 0.562525 0.086087 0.413351
Si Si7 0.427542 0.328251 0.784237
Si Si8 0.901796 0.304958 0.166963
O O1 0.202182 0.495494 0.287797
O O2 0.086991 0.608696 0.377812
O O3 0.113958 0.620054 0.225887
O O4 0.000000 0.500000 0.282182
O O5 0.500000 0.500000 0.911056
O O6 0.690097 0.484955 0.842924
O O7 0.624423 0.361605 0.924466
O O8 0.522967 0.395064 0.795827
O O9 0.651675 0.088306 0.346411
O O10 0.816667 0.126236 0.262994
O O11 0.409153 0.796118 0.109742
O O12 0.216360 0.726412 0.141588
O O13 0.273029 0.753433 0.000000
O O14 0.594120 0.726669 0.862244
O O15 0.562677 0.795442 0.000000
O O16 0.612673 0.096177 0.500000
O O17 0.478279 0.162966 0.402085
O O18 0.500000 0.000000 0.407401
O O19 0.460423 0.270840 0.711529
#
# Coordination Sequence:
#
# PCOD8236100 Si02
#       8
#     8   8   8   8   8   8   8   8
#     4  11  20  34  56  80 108 140 179 234 273 322
#     4   9  18  34  50  76 107 137 183 221 270 324
#     4  11  19  35  54  83 108 141 185 224 275 329
#     4  10  19  32  52  75 108 147 182 223 272 334
#     4   9  21  39  54  78 111 145 186 231 281 329
#     4  11  21  34  52  78 113 142 173 219 270 330
#     4   9  22  33  58  76 106 146 180 234 269 329
#     4  11  19  35  51  82 106 144 183 221 275 326
#
# _framework density 18.679324999999999
#
# number of rings (size 3 to 8) (size 9 to 14) (size 15 to 20)
#    0.000    1.875    3.750    0.375    1.750    3.500 
#    0.000    2.500    0.000    0.000    0.000    0.000 
#    0.000    7.500    0.000    0.000    0.000    0.000 
#
# Total GULP energy -793033.710160 kJ/mol
# GULP energy per Si atom -12391.151721 kJ/mol
# Density = 1.863681 g / cm^3
# Si number density = 18.679325 Si / 1000 Ang^3
#
#
#
# Elastic Constant Matrix: (Units=GPa)
#
#
# Indices 1 2 3 4 5 6 
#
# 1 69.7905 36.4908 16.6998 0.0000 0.0000 0.0000
# 2 36.4908 66.5867 42.3728 0.0000 0.0000 0.0000
# 3 16.6998 42.3728 65.0836 0.0000 0.0000 0.0000
# 4 0.0000 0.0000 0.0000 17.0507 0.0000 0.0000
# 5 0.0000 0.0000 0.0000 0.0000 26.3024 0.0000
# 6 0.0000 0.0000 0.0000 0.0000 0.0000 20.5713
#
#
#
# Elastic Compliance Matrix: (Units=1/GPa)
#
#
# Indices 1 2 3 4 5 6 
#
# 1 0.020544 -0.013495 0.003515 0.000000 0.000000 0.000000
# 2 -0.013495 0.034506 -0.019002 0.000000 0.000000 0.000000
# 3 0.003515 -0.019002 0.026835 0.000000 0.000000 0.000000
# 4 0.000000 0.000000 0.000000 0.058649 0.000000 0.000000
# 5 0.000000 0.000000 0.000000 0.000000 0.038019 0.000000
# 6 0.000000 0.000000 0.000000 0.000000 0.000000 0.048611
#
#
# Mechanical properties :
#
#
# Convention : Reuss Voigt Hill
#
# Bulk Modulus (GPa) = 41.80847 43.62086 42.71467
# Shear Modulus (GPa) = 17.05895 19.84471 18.45183
#
# Velocity S-wave (km/s) = 3.02529 3.26297 3.14637
# Velocity P-wave (km/s) = 5.88506 6.13181 6.00970
#
# Compressibility (1/GPa) = 0.02391860
#
# Stress axis : x y z
#
# Youngs Moduli (GPa) = 48.67716 28.98074 37.26532
#
# Poissons Ratio (x) = 0.39109 -0.13097
# Poissons Ratio (y) = 0.65689 0.70813
# Poissons Ratio (z) = -0.17108 0.55070
#
# Static dielectric constant tensor:
#      x y z
#    x 3.508180 0.000000 0.000000 
#    y 0.000000 3.934470 0.000000 
#    z 0.000000 0.000000 3.256900 
# 
# 
# High freq. dielectric constant tensor:
#      x y z
#    x 1.720360 0.000000 0.000000 
#    y 0.000000 1.725650 0.000000 
#    z 0.000000 0.000000 1.699350 
# 
# From -- ./inp_files/26353.got.cif
#   From: 2010.06.25/outbox.cif.g09.slc.cpg/sg58_14_cif.got.tgz:26353.got - 2010.06.26 21:38:00.
