data_PCOD8236520
_publ_section_title
;
Structure prediction by ZEFSAII (Michael W. Deem and Ramdas Pophale) SiO2 
 PCOD8236520
Probable space group: P N N M
;
_chemical_formula_sum "Si O2"
_cell_formula_units_Z 64
_cell_length_a 15.160943
_cell_length_b 25.266784
_cell_length_c 8.884659
_cell_angle_alpha 90.000000
_cell_angle_beta 90.000000
_cell_angle_gamma 90.000000
_cell_volume 3403.430971
_symmetry_space_group_name_H-M "P N N M"
_symmetry_group_IT_number 58
_symmetry_cell_setting 'orthorhombic'
loop_
_space_group_symop_operation_xyz
x,y,z
-x,-y,z
1/2+x,1/2-y,1/2-z
1/2-x,1/2+y,1/2-z
-x,-y,-z
x,y,-z
1/2-x,1/2+y,1/2+z
1/2+x,1/2-y,1/2+z
loop_
_atom_site_type_symbol
_atom_site_label
_atom_site_fract_x
_atom_site_fract_y
_atom_site_fract_z
Si Si1 0.695678 0.677735 0.675631
Si Si2 0.947030 0.579726 0.321158
Si Si3 0.622476 0.970667 0.176280
Si Si4 0.181992 0.037107 0.175664
Si Si5 0.507379 0.717464 0.675972
Si Si6 0.108473 0.306789 0.323718
Si Si7 0.046498 0.112865 0.329233
Si Si8 0.354024 0.428277 0.171802
O O1 0.689404 0.662376 0.500000
O O2 0.611724 0.714429 0.721269
O O3 0.788456 0.707429 0.710604
O O4 0.695418 0.623846 0.770224
O O5 0.941171 0.583450 0.500000
O O6 0.888790 0.530473 0.258182
O O7 0.911456 0.635012 0.255089
O O8 0.047582 0.569595 0.264148
O O9 0.717590 0.946915 0.214075
O O10 0.608218 0.977067 0.000000
O O11 0.124857 0.076075 0.274666
O O12 0.169315 0.976469 0.220408
O O13 0.159273 0.043617 0.000000
O O14 0.496092 0.723392 0.500000
O O15 0.460346 0.767009 0.750473
O O16 0.457694 0.664598 0.726852
O O17 0.090318 0.304726 0.500000
O O18 0.064362 0.130924 0.500000
O O19 0.958522 0.078754 0.316893
O O20 0.325423 0.439723 0.000000
#
# Coordination Sequence:
#
# PCOD8236520 Si02
#       8
#     8   8   8   8   8   8   8   8
#     4   9  19  36  57  80 106 137 177 224 275 322
#     4   8  14  28  51  76 103 136 173 214 254 301
#     4   8  15  28  47  75 109 138 169 210 254 304
#     4  11  20  30  49  78 110 142 176 213 264 323
#     4  10  21  38  56  77 107 139 175 225 275 321
#     4  10  19  34  58  83 106 139 181 221 269 326
#     4  10  21  37  53  71 102 140 178 221 268 318
#     4  10  20  33  52  77 105 137 179 224 265 315
#
# _framework density 18.804554
#
# number of rings (size 3 to 8) (size 9 to 14) (size 15 to 20)
#    0.000    2.500    0.000    3.375    0.000    6.000 
#    2.250    0.000    0.000    0.750    0.000    5.250 
#    0.000    0.000    0.000    0.000    0.000    0.000 
#
# Total GULP energy -793364.787138 kJ/mol
# GULP energy per Si atom -12396.324799 kJ/mol
# Density = 1.876175 g / cm^3
# Si number density = 18.804554 Si / 1000 Ang^3
#
#
#
# Elastic Constant Matrix: (Units=GPa)
#
#
# Indices 1 2 3 4 5 6 
#
# 1 111.7770 56.4856 35.7032 0.0000 0.0000 0.0000
# 2 56.4856 74.2153 18.8059 0.0000 0.0000 0.0000
# 3 35.7032 18.8059 36.7698 0.0000 0.0000 0.0000
# 4 0.0000 0.0000 0.0000 30.1880 0.0000 0.0000
# 5 0.0000 0.0000 0.0000 0.0000 20.3981 0.0000
# 6 0.0000 0.0000 0.0000 0.0000 0.0000 25.3289
#
#
#
# Elastic Compliance Matrix: (Units=1/GPa)
#
#
# Indices 1 2 3 4 5 6 
#
# 1 0.018352 -0.010860 -0.012265 0.000000 0.000000 0.000000
# 2 -0.010860 0.021907 -0.000659 0.000000 0.000000 0.000000
# 3 -0.012265 -0.000659 0.039443 0.000000 0.000000 0.000000
# 4 0.000000 0.000000 0.000000 0.033126 0.000000 0.000000
# 5 0.000000 0.000000 0.000000 0.000000 0.049024 0.000000
# 6 0.000000 0.000000 0.000000 0.000000 0.000000 0.039481
#
#
# Mechanical properties :
#
#
# Convention : Reuss Voigt Hill
#
# Bulk Modulus (GPa) = 31.12104 49.41681 40.26892
# Shear Modulus (GPa) = 19.25945 22.63416 20.94681
#
# Velocity S-wave (km/s) = 3.20377 3.47313 3.34117
# Velocity P-wave (km/s) = 5.50193 6.51305 6.02872
#
# Compressibility (1/GPa) = 0.03213261
#
# Stress axis : x y z
#
# Youngs Moduli (GPa) = 54.48982 45.64783 25.35296
#
# Poissons Ratio (x) = 0.49573 0.31097
# Poissons Ratio (y) = 0.59175 0.01672
# Poissons Ratio (z) = 0.66834 0.03010
#
# Static dielectric constant tensor:
#      x y z
#    x 3.807200 0.000000 0.000000 
#    y 0.000000 3.377860 0.000000 
#    z 0.000000 0.000000 3.263180 
# 
# 
# High freq. dielectric constant tensor:
#      x y z
#    x 1.742430 0.000000 0.000000 
#    y 0.000000 1.716250 0.000000 
#    z 0.000000 0.000000 1.709110 
# 
# From -- ./inp_files/6925.got.cif
#   From: 2010.06.25/outbox.cif.g09.slc.cpg/sg58_4_cif.got.tgz:6925.got - 2010.06.26 21:38:00.
