data_PCOD8236251
_publ_section_title
;
Structure prediction by ZEFSAII (Michael W. Deem and Ramdas Pophale) SiO2 
 PCOD8236251
Probable space group: P N N M
;
_chemical_formula_sum "Si O2"
_cell_formula_units_Z 64
_cell_length_a 28.621795
_cell_length_b 12.862470
_cell_length_c 9.261930
_cell_angle_alpha 90.000000
_cell_angle_beta 90.000000
_cell_angle_gamma 90.000000
_cell_volume 3409.751554
_symmetry_space_group_name_H-M "P N N M"
_symmetry_group_IT_number 58
_symmetry_cell_setting 'orthorhombic'
loop_
_space_group_symop_operation_xyz
x,y,z
-x,-y,z
1/2+x,1/2-y,1/2-z
1/2-x,1/2+y,1/2-z
-x,-y,-z
x,y,-z
1/2-x,1/2+y,1/2+z
1/2+x,1/2-y,1/2+z
loop_
_atom_site_type_symbol
_atom_site_label
_atom_site_fract_x
_atom_site_fract_y
_atom_site_fract_z
Si Si1 0.574104 0.415032 0.336074
Si Si2 0.888772 0.536362 0.671519
Si Si3 0.304184 0.880883 0.669458
Si Si4 0.319756 0.652464 0.661090
Si Si5 0.563033 0.827848 0.830650
Si Si6 0.396965 0.389575 0.828866
Si Si7 0.458606 0.780971 0.830592
Si Si8 0.704411 0.536313 0.166684
O O1 0.555569 0.429413 0.500000
O O2 0.626877 0.378559 0.336189
O O3 0.570976 0.524184 0.250685
O O4 0.544326 0.327027 0.255462
O O5 0.883328 0.532863 0.500000
O O6 0.837765 0.541017 0.744005
O O7 0.912990 0.431580 0.732774
O O8 0.919512 0.636222 0.718682
O O9 0.314847 0.893215 0.500000
O O10 0.315046 0.766256 0.728542
O O11 0.249952 0.897882 0.705961
O O12 0.299010 0.651821 0.500000
O O13 0.289583 0.572933 0.753569
O O14 0.587196 0.723032 0.769965
O O15 0.508423 0.831340 0.792224
O O16 0.570652 0.828579 0.000000
O O17 0.342342 0.402107 0.786156
O O18 0.404994 0.401913 0.000000
O O19 0.454234 0.755627 0.000000
O O20 0.701550 0.508925 0.000000
#
# Coordination Sequence:
#
# PCOD8236251 Si02
#       8
#     8   8   8   8   8   8   8   8
#     4  10  19  33  54  78 105 138 177 220 264 315
#     4  10  20  34  55  81 107 138 180 224 262 315
#     4  10  20  35  53  77 107 139 173 215 269 320
#     4   9  18  33  52  72 101 137 170 211 262 313
#     4   9  19  35  55  79 108 141 177 221 272 318
#     4   9  18  35  55  75 103 141 180 219 267 322
#     4  10  19  33  55  81 107 138 178 224 269 315
#     4   9  19  33  52  76 101 132 173 217 261 312
#
# _framework density 18.769696
#
# number of rings (size 3 to 8) (size 9 to 14) (size 15 to 20)
#    0.000    2.500    1.250    0.750    0.000    4.500 
#    0.000    6.875    0.000    4.500    0.000    0.000 
#    0.000    0.000    0.000    0.000    0.000    0.000 
#
# Total GULP energy -793551.522801 kJ/mol
# GULP energy per Si atom -12399.242544 kJ/mol
# Density = 1.872698 g / cm^3
# Si number density = 18.769696 Si / 1000 Ang^3
#
#
#
# Elastic Constant Matrix: (Units=GPa)
#
#
# Indices 1 2 3 4 5 6 
#
# 1 48.9543 31.8745 23.5508 0.0000 0.0000 0.0000
# 2 31.8745 113.6173 31.7737 0.0000 0.0000 0.0000
# 3 23.5508 31.7737 43.1559 0.0000 0.0000 0.0000
# 4 0.0000 0.0000 0.0000 20.3667 0.0000 0.0000
# 5 0.0000 0.0000 0.0000 0.0000 20.7078 0.0000
# 6 0.0000 0.0000 0.0000 0.0000 0.0000 24.2068
#
#
#
# Elastic Compliance Matrix: (Units=1/GPa)
#
#
# Indices 1 2 3 4 5 6 
#
# 1 0.029620 -0.004772 -0.012651 0.000000 0.000000 0.000000
# 2 -0.004772 0.011852 -0.006122 0.000000 0.000000 0.000000
# 3 -0.012651 -0.006122 0.034583 0.000000 0.000000 0.000000
# 4 0.000000 0.000000 0.000000 0.049100 0.000000 0.000000
# 5 0.000000 0.000000 0.000000 0.000000 0.048291 0.000000
# 6 0.000000 0.000000 0.000000 0.000000 0.000000 0.041311
#
#
# Mechanical properties :
#
#
# Convention : Reuss Voigt Hill
#
# Bulk Modulus (GPa) = 34.52361 42.23617 38.37989
# Shear Modulus (GPa) = 18.41601 20.95813 19.68707
#
# Velocity S-wave (km/s) = 3.13574 3.34517 3.24215
# Velocity P-wave (km/s) = 5.61638 6.12139 5.87431
#
# Compressibility (1/GPa) = 0.02896569
#
# Stress axis : x y z
#
# Youngs Moduli (GPa) = 33.76058 84.37176 28.91579
#
# Poissons Ratio (x) = 0.40261 0.36581
# Poissons Ratio (y) = 0.16110 0.17703
# Poissons Ratio (z) = 0.42710 0.51654
#
# Static dielectric constant tensor:
#      x y z
#    x 3.388800 0.000000 0.000000 
#    y 0.000000 3.681660 0.000000 
#    z 0.000000 0.000000 3.331920 
# 
# 
# High freq. dielectric constant tensor:
#      x y z
#    x 1.726460 0.000000 0.000000 
#    y 0.000000 1.735930 0.000000 
#    z 0.000000 0.000000 1.706060 
# 
# From -- ./inp_files/4741.got.cif
#   From: 2010.06.25/outbox.cif.g09.slc.cpg/sg58_3_cif.got.tgz:4741.got - 2010.06.26 21:38:00.
