data_PCOD8236321
_publ_section_title
;
Structure prediction by ZEFSAII (Michael W. Deem and Ramdas Pophale) SiO2 
 PCOD8236321
Probable space group: P N N M
;
_chemical_formula_sum "Si O2"
_cell_formula_units_Z 64
_cell_length_a 12.633422
_cell_length_b 21.120098
_cell_length_c 13.586279
_cell_angle_alpha 90.000000
_cell_angle_beta 90.000000
_cell_angle_gamma 90.000000
_cell_volume 3625.078881
_symmetry_space_group_name_H-M "P N N M"
_symmetry_group_IT_number 58
_symmetry_cell_setting 'orthorhombic'
loop_
_space_group_symop_operation_xyz
x,y,z
-x,-y,z
1/2+x,1/2-y,1/2-z
1/2-x,1/2+y,1/2-z
-x,-y,-z
x,y,-z
1/2-x,1/2+y,1/2+z
1/2+x,1/2-y,1/2+z
loop_
_atom_site_type_symbol
_atom_site_label
_atom_site_fract_x
_atom_site_fract_y
_atom_site_fract_z
Si Si1 0.555849 0.437689 0.615597
Si Si2 0.559137 0.799501 0.388745
Si Si3 0.817480 0.598240 0.704579
Si Si4 0.889014 0.223076 0.390164
Si Si5 0.327777 0.831821 0.393765
Si Si6 0.792687 0.463186 0.384887
Si Si7 0.550745 0.857264 0.186556
Si Si8 0.599970 0.665119 0.689096
O O1 0.500000 0.500000 0.662010
O O2 0.543618 0.440206 0.500000
O O3 0.678761 0.435581 0.646618
O O4 0.498765 0.374834 0.652019
O O5 0.592313 0.822281 0.500000
O O6 0.433303 0.790919 0.380168
O O7 0.586861 0.850025 0.301942
O O8 0.610656 0.731804 0.366988
O O9 0.815598 0.608358 0.821874
O O10 0.817253 0.524894 0.678986
O O11 0.711283 0.631266 0.662667
O O12 0.926519 0.629644 0.667174
O O13 0.925997 0.200964 0.500000
O O14 0.761832 0.221566 0.381503
O O15 0.927324 0.293735 0.372992
O O16 0.928090 0.175377 0.304801
O O17 0.323336 0.864815 0.500000
O O18 0.794709 0.481283 0.500000
O O19 0.882896 0.413098 0.361442
#
# Coordination Sequence:
#
# PCOD8236321 Si02
#       8
#     8   8   8   8   8   8   8   8
#     4  10  20  35  54  77 101 129 171 216 256 297
#     4   9  18  33  54  80 104 131 171 219 264 300
#     4  10  20  35  52  75 105 139 170 206 254 307
#     4   9  18  33  52  77 104 136 173 208 253 307
#     4   8  16  32  55  77 100 130 173 218 252 295
#     4  11  23  36  53  75 104 139 173 209 250 306
#     4  10  21  35  52  76 108 139 171 209 254 309
#     4  10  19  33  56  78 103 134 169 215 261 303
#
# _framework density 17.654788
#
# number of rings (size 3 to 8) (size 9 to 14) (size 15 to 20)
#    0.000    2.375    1.250    1.125    1.750    2.000 
#    2.250    0.625    0.000    4.125    0.000    0.000 
#    0.000    0.000    0.000    0.000    0.000    0.000 
#
# Total GULP energy -793075.134954 kJ/mol
# GULP energy per Si atom -12391.798984 kJ/mol
# Density = 1.761461 g / cm^3
# Si number density = 17.654788 Si / 1000 Ang^3
#
#
#
# Elastic Constant Matrix: (Units=GPa)
#
#
# Indices 1 2 3 4 5 6 
#
# 1 90.8248 41.7362 29.7115 0.0000 0.0000 0.0000
# 2 41.7362 66.2605 -3.6071 0.0000 0.0000 0.0000
# 3 29.7115 -3.6071 42.4142 0.0000 0.0000 0.0000
# 4 0.0000 0.0000 0.0000 21.7155 0.0000 0.0000
# 5 0.0000 0.0000 0.0000 0.0000 24.6888 0.0000
# 6 0.0000 0.0000 0.0000 0.0000 0.0000 23.7946
#
#
#
# Elastic Compliance Matrix: (Units=1/GPa)
#
#
# Indices 1 2 3 4 5 6 
#
# 1 0.024810 -0.016651 -0.018796 0.000000 0.000000 0.000000
# 2 -0.016651 0.026337 0.013904 0.000000 0.000000 0.000000
# 3 -0.018796 0.013904 0.037926 0.000000 0.000000 0.000000
# 4 0.000000 0.000000 0.000000 0.046050 0.000000 0.000000
# 5 0.000000 0.000000 0.000000 0.000000 0.040504 0.000000
# 6 0.000000 0.000000 0.000000 0.000000 0.000000 0.042026
#
#
# Mechanical properties :
#
#
# Convention : Reuss Voigt Hill
#
# Bulk Modulus (GPa) = 21.74503 37.24232 29.49367
# Shear Modulus (GPa) = 18.11142 22.81702 20.46422
#
# Velocity S-wave (km/s) = 3.20639 3.59889 3.40830
# Velocity P-wave (km/s) = 5.10406 6.19757 5.67721
#
# Compressibility (1/GPa) = 0.04598752
#
# Stress axis : x y z
#
# Youngs Moduli (GPa) = 40.30580 37.96964 26.36708
#
# Poissons Ratio (x) = 0.63222 0.49559
# Poissons Ratio (y) = 0.67112 -0.36660
# Poissons Ratio (z) = 0.75758 -0.52792
#
# Static dielectric constant tensor:
#      x y z
#    x 3.430110 0.000000 0.000000 
#    y 0.000000 3.098870 0.000000 
#    z 0.000000 0.000000 3.560640 
# 
# 
# High freq. dielectric constant tensor:
#      x y z
#    x 1.687110 0.000000 0.000000 
#    y 0.000000 1.664900 0.000000 
#    z 0.000000 0.000000 1.686270 
# 
# From -- ./inp_files/21482.got.cif
#   From: 2010.06.25/outbox.cif.g09.slc.cpg/sg58_11_cif.got.tgz:21482.got - 2010.06.26 21:38:00.
