data_PCOD8236911
_publ_section_title
;
Structure prediction by ZEFSAII (Michael W. Deem and Ramdas Pophale) SiO2 
 PCOD8236911
Probable space group: P N N M
;
_chemical_formula_sum "Si O2"
_cell_formula_units_Z 48
_cell_length_a 15.085280
_cell_length_b 20.167366
_cell_length_c 8.778321
_cell_angle_alpha 90.000000
_cell_angle_beta 90.000000
_cell_angle_gamma 90.000000
_cell_volume 2670.631784
_symmetry_space_group_name_H-M "P N N M"
_symmetry_group_IT_number 58
_symmetry_cell_setting 'orthorhombic'
loop_
_space_group_symop_operation_xyz
x,y,z
-x,-y,z
1/2+x,1/2-y,1/2-z
1/2-x,1/2+y,1/2-z
-x,-y,-z
x,y,-z
1/2-x,1/2+y,1/2+z
1/2+x,1/2-y,1/2+z
loop_
_atom_site_type_symbol
_atom_site_label
_atom_site_fract_x
_atom_site_fract_y
_atom_site_fract_z
Si Si1 0.702332 0.832414 0.680352
Si Si2 0.992388 0.304053 0.180899
Si Si3 0.772567 0.480653 0.179160
Si Si4 0.064528 0.442136 0.181483
Si Si5 0.079864 0.045036 0.680061
Si Si6 0.114799 0.185294 0.180545
O O1 0.717160 0.829001 0.500000
O O2 0.610743 0.797076 0.731121
O O3 0.697388 0.908383 0.738470
O O4 0.786684 0.797616 0.759115
O O5 0.035104 0.371397 0.250165
O O6 0.048071 0.241782 0.242236
O O7 0.996714 0.307723 0.000000
O O8 0.836729 0.538570 0.242977
O O9 0.670456 0.493541 0.224908
O O10 0.784265 0.479707 0.000000
O O11 0.000000 0.500000 0.240066
O O12 0.061325 0.438058 0.000000
O O13 0.073620 0.056750 0.500000
O O14 0.076828 0.116176 0.758730
O O15 0.000000 0.000000 0.741586
O O16 0.117284 0.183545 0.000000
#
# Coordination Sequence:
#
# PCOD8236911 Si02
#       6
#     8   8   8   8   8   8
#     4   9  16  31  52  69  91 130 168 198 240 292
#     4   9  17  29  46  70 101 131 161 201 248 300
#     4   8  13  23  44  70  92 115 150 198 243 279
#     4   9  13  21  42  72  96 117 152 198 244 283
#     4   9  18  34  53  73  95 125 169 211 246 289
#     4  10  20  33  48  73 104 133 164 201 250 303
#
# _framework density 17.973274
#
# number of rings (size 3 to 8) (size 9 to 14) (size 15 to 20)
#    0.000    3.000    1.667    1.500    0.000    0.333 
#    3.000    1.667    0.000    0.000    0.000   10.500 
#    0.000    0.000    0.000    0.000    0.000    0.000 
#
# Total GULP energy -594841.082950 kJ/mol
# GULP energy per Si atom -12392.522561 kJ/mol
# Density = 1.793237 g / cm^3
# Si number density = 17.973274 Si / 1000 Ang^3
#
#
#
# Elastic Constant Matrix: (Units=GPa)
#
#
# Indices 1 2 3 4 5 6 
#
# 1 188.5917 94.5328 26.2500 0.0000 0.0000 0.0000
# 2 94.5328 104.2276 23.2076 0.0000 0.0000 0.0000
# 3 26.2500 23.2076 23.8238 0.0000 0.0000 0.0000
# 4 0.0000 0.0000 0.0000 16.9243 0.0000 0.0000
# 5 0.0000 0.0000 0.0000 0.0000 19.0317 0.0000
# 6 0.0000 0.0000 0.0000 0.0000 0.0000 37.3002
#
#
#
# Elastic Compliance Matrix: (Units=1/GPa)
#
#
# Indices 1 2 3 4 5 6 
#
# 1 0.009862 -0.008332 -0.002749 0.000000 0.000000 0.000000
# 2 -0.008332 0.019292 -0.009612 0.000000 0.000000 0.000000
# 3 -0.002749 -0.009612 0.054368 0.000000 0.000000 0.000000
# 4 0.000000 0.000000 0.000000 0.059087 0.000000 0.000000
# 5 0.000000 0.000000 0.000000 0.000000 0.052544 0.000000
# 6 0.000000 0.000000 0.000000 0.000000 0.000000 0.026809
#
#
# Mechanical properties :
#
#
# Convention : Reuss Voigt Hill
#
# Bulk Modulus (GPa) = 23.73380 67.18043 45.45711
# Shear Modulus (GPa) = 18.02495 26.16142 22.09319
#
# Velocity S-wave (km/s) = 3.17026 3.81934 3.50983
# Velocity P-wave (km/s) = 5.16085 7.54380 6.46310
#
# Compressibility (1/GPa) = 0.04213400
#
# Stress axis : x y z
#
# Youngs Moduli (GPa) = 101.40200 51.83536 18.39328
#
# Poissons Ratio (x) = 0.43191 0.05057
# Poissons Ratio (y) = 0.84491 0.17680
# Poissons Ratio (z) = 0.27879 0.49824
#
# Static dielectric constant tensor:
#      x y z
#    x 3.728350 0.000000 0.000000 
#    y 0.000000 3.381790 0.000000 
#    z 0.000000 0.000000 2.801090 
# 
# 
# High freq. dielectric constant tensor:
#      x y z
#    x 1.713730 0.000000 0.000000 
#    y 0.000000 1.680200 0.000000 
#    z 0.000000 0.000000 1.641670 
# 
# From -- ./inp_files/6063.got.cif
#   From: 2010.06.25/outbox.cif.g09.slc.cpg/sg58_4_cif.got.tgz:6063.got - 2010.06.26 21:38:00.
