data_PCOD8236849
_publ_section_title
;
Structure prediction by ZEFSAII (Michael W. Deem and Ramdas Pophale) SiO2 
 PCOD8236849
Probable space group: P N N M
;
_chemical_formula_sum "Si O2"
_cell_formula_units_Z 48
_cell_length_a 8.816214
_cell_length_b 16.959056
_cell_length_c 15.160196
_cell_angle_alpha 90.000000
_cell_angle_beta 90.000000
_cell_angle_gamma 90.000000
_cell_volume 2266.671656
_symmetry_space_group_name_H-M "P N N M"
_symmetry_group_IT_number 58
_symmetry_cell_setting 'orthorhombic'
loop_
_space_group_symop_operation_xyz
x,y,z
-x,-y,z
1/2+x,1/2-y,1/2-z
1/2-x,1/2+y,1/2-z
-x,-y,-z
x,y,-z
1/2-x,1/2+y,1/2+z
1/2+x,1/2-y,1/2+z
loop_
_atom_site_type_symbol
_atom_site_label
_atom_site_fract_x
_atom_site_fract_y
_atom_site_fract_z
Si Si1 0.083831 0.606548 0.179858
Si Si2 0.420996 0.413103 0.000000
Si Si3 0.316727 0.697545 0.285890
Si Si4 0.597990 0.670393 0.176700
Si Si5 0.058300 0.412955 0.000000
Si Si6 0.699378 0.045052 0.752871
Si Si7 0.842026 0.954882 0.900298
O O1 0.198883 0.673209 0.209861
O O2 0.173088 0.522231 0.177249
O O3 0.010103 0.630427 0.086166
O O4 0.949155 0.600381 0.253019
O O5 0.500000 0.500000 0.000000
O O6 0.471550 0.361124 0.915408
O O7 0.239235 0.415985 0.000000
O O8 0.471535 0.717058 0.233467
O O9 0.245351 0.773146 0.335900
O O10 0.352832 0.631358 0.357959
O O11 0.648786 0.592290 0.229496
O O12 0.000000 0.500000 0.000000
O O13 0.716473 0.005538 0.848416
O O14 0.785614 0.945730 0.000000
O O15 0.000000 0.000000 0.895022
#
# Coordination Sequence:
#
# PCOD8236849 Si02
#       7
#     8   4   8   8   4   8   8
#     4  10  21  37  65  96 131 177 223 281 345 413
#     4  12  30  40  72 108 143 176 237 300 348 417
#     4  11  26  43  69  91 140 181 230 280 357 415
#     4  12  25  44  67  97 141 183 227 285 358 415
#     4  12  20  38  64  98 138 167 230 280 344 404
#     4  10  19  38  63  96 126 171 223 281 338 412
#     4  10  21  40  70  99 124 174 237 289 330 403
#
# _framework density 21.176424999999998
#
# number of rings (size 3 to 8) (size 9 to 14) (size 15 to 20)
#    0.000    1.167    5.000    1.000    8.167    0.000 
#    0.000    6.667    9.167    0.000    0.000    0.000 
#    0.000    0.000    0.000    0.000    0.000    0.000 
#
# Total GULP energy -595028.164542 kJ/mol
# GULP energy per Si atom -12396.420095 kJ/mol
# Density = 2.112823 g / cm^3
# Si number density = 21.176425 Si / 1000 Ang^3
#
#
#
# Elastic Constant Matrix: (Units=GPa)
#
#
# Indices 1 2 3 4 5 6 
#
# 1 88.7378 30.0209 48.3970 0.0000 0.0000 0.0000
# 2 30.0209 84.2242 44.7825 0.0000 0.0000 0.0000
# 3 48.3970 44.7825 143.3096 0.0000 0.0000 0.0000
# 4 0.0000 0.0000 0.0000 18.1523 0.0000 0.0000
# 5 0.0000 0.0000 0.0000 0.0000 35.6504 0.0000
# 6 0.0000 0.0000 0.0000 0.0000 0.0000 48.9121
#
#
#
# Elastic Compliance Matrix: (Units=1/GPa)
#
#
# Indices 1 2 3 4 5 6 
#
# 1 0.014444 -0.003064 -0.003920 0.000000 0.000000 0.000000
# 2 -0.003064 0.014889 -0.003618 0.000000 0.000000 0.000000
# 3 -0.003920 -0.003618 0.009432 0.000000 0.000000 0.000000
# 4 0.000000 0.000000 0.000000 0.055089 0.000000 0.000000
# 5 0.000000 0.000000 0.000000 0.000000 0.028050 0.000000
# 6 0.000000 0.000000 0.000000 0.000000 0.000000 0.020445
#
#
# Mechanical properties :
#
#
# Convention : Reuss Voigt Hill
#
# Bulk Modulus (GPa) = 56.94511 62.51914 59.73213
# Shear Modulus (GPa) = 29.51466 33.41438 31.46452
#
# Velocity S-wave (km/s) = 3.73735 3.97659 3.85883
# Velocity P-wave (km/s) = 6.75077 7.11839 6.93702
#
# Compressibility (1/GPa) = 0.01756077
#
# Stress axis : x y z
#
# Youngs Moduli (GPa) = 69.23359 67.16457 106.01759
#
# Poissons Ratio (x) = 0.20578 0.41563
# Poissons Ratio (y) = 0.21212 0.38356
# Poissons Ratio (z) = 0.27142 0.24299
#
# Static dielectric constant tensor:
#      x y z
#    x 3.942610 0.000000 0.000000 
#    y 0.000000 3.739970 0.000000 
#    z 0.000000 0.000000 4.123350 
# 
# 
# High freq. dielectric constant tensor:
#      x y z
#    x 1.839330 0.000000 0.000000 
#    y 0.000000 1.821540 0.000000 
#    z 0.000000 0.000000 1.817070 
# 
# From -- ./inp_files/19870.got.cif
#   From: 2010.06.25/outbox.cif.g09.slc.cpg/sg58_10_cif.got.tgz:19870.got - 2010.06.26 21:38:00.
