data_PCOD8236379
_publ_section_title
;
Structure prediction by ZEFSAII (Michael W. Deem and Ramdas Pophale) SiO2 
 PCOD8236379
Probable space group: P N N M
;
_chemical_formula_sum "Si O2"
_cell_formula_units_Z 56
_cell_length_a 13.657831
_cell_length_b 12.596748
_cell_length_c 15.187196
_cell_angle_alpha 90.000000
_cell_angle_beta 90.000000
_cell_angle_gamma 90.000000
_cell_volume 2612.869826
_symmetry_space_group_name_H-M "P N N M"
_symmetry_group_IT_number 58
_symmetry_cell_setting 'orthorhombic'
loop_
_space_group_symop_operation_xyz
x,y,z
-x,-y,z
1/2+x,1/2-y,1/2-z
1/2-x,1/2+y,1/2-z
-x,-y,-z
x,y,-z
1/2-x,1/2+y,1/2+z
1/2+x,1/2-y,1/2+z
loop_
_atom_site_type_symbol
_atom_site_label
_atom_site_fract_x
_atom_site_fract_y
_atom_site_fract_z
Si Si1 0.063150 0.099219 0.787526
Si Si2 0.184079 0.387507 0.100068
Si Si3 0.510162 0.825605 0.673135
Si Si4 0.758179 0.840202 0.104243
Si Si5 0.079709 0.177051 0.403877
Si Si6 0.710039 0.884274 0.599765
Si Si7 0.032184 0.613973 0.633192
O O1 0.172258 0.089494 0.830708
O O2 0.051254 0.106525 0.680717
O O3 0.016604 0.202944 0.829324
O O4 0.000000 0.000000 0.819661
O O5 0.231948 0.281182 0.141314
O O6 0.227586 0.496940 0.141623
O O7 0.065825 0.388093 0.110691
O O8 0.215496 0.383168 0.000000
O O9 0.622058 0.825866 0.646274
O O10 0.499676 0.881962 0.766375
O O11 0.647491 0.875827 0.117876
O O12 0.787694 0.850875 0.000000
O O13 0.061624 0.119691 0.500000
O O14 0.196612 0.192355 0.391762
O O15 0.025531 0.289618 0.412684
O O16 0.677584 0.903618 0.500000
O O17 0.000000 0.500000 0.593601
#
# Coordination Sequence:
#
# PCOD8236379 Si02
#       7
#     8   8   8   8   8   8   8
#     4  10  23  41  61  87 117 153 196 242 295 347
#     4   9  18  34  57  85 116 152 192 238 300 355
#     4  10  20  35  57  86 119 152 194 245 289 344
#     4  10  22  40  60  84 118 157 196 238 286 349
#     4  10  23  40  58  87 121 151 192 241 289 346
#     4  10  19  33  58  89 119 152 193 245 295 338
#     4  11  23  39  60  84 115 158 199 234 282 347
#
# _framework density 21.432372999999998
#
# number of rings (size 3 to 8) (size 9 to 14) (size 15 to 20)
#    0.000    2.000    0.000    3.000    0.000    6.857 
#    0.000    4.286    0.000    0.000    0.000    0.000 
#    0.000    0.000    0.000    0.000    0.000    0.000 
#
# Total GULP energy -693783.185471 kJ/mol
# GULP energy per Si atom -12388.985455 kJ/mol
# Density = 2.138359 g / cm^3
# Si number density = 21.432373 Si / 1000 Ang^3
#
#
#
# Elastic Constant Matrix: (Units=GPa)
#
#
# Indices 1 2 3 4 5 6 
#
# 1 139.2954 72.8667 20.9586 0.0000 0.0000 0.0000
# 2 72.8667 84.8325 31.9490 0.0000 0.0000 0.0000
# 3 20.9586 31.9490 59.2680 0.0000 0.0000 0.0000
# 4 0.0000 0.0000 0.0000 8.2746 0.0000 0.0000
# 5 0.0000 0.0000 0.0000 0.0000 29.7606 0.0000
# 6 0.0000 0.0000 0.0000 0.0000 0.0000 35.4334
#
#
#
# Elastic Compliance Matrix: (Units=1/GPa)
#
#
# Indices 1 2 3 4 5 6 
#
# 1 0.013190 -0.012011 0.001811 0.000000 0.000000 0.000000
# 2 -0.012011 0.025729 -0.009622 0.000000 0.000000 0.000000
# 3 0.001811 -0.009622 0.021419 0.000000 0.000000 0.000000
# 4 0.000000 0.000000 0.000000 0.120852 0.000000 0.000000
# 5 0.000000 0.000000 0.000000 0.000000 0.033602 0.000000
# 6 0.000000 0.000000 0.000000 0.000000 0.000000 0.028222
#
#
# Mechanical properties :
#
#
# Convention : Reuss Voigt Hill
#
# Bulk Modulus (GPa) = 48.32686 59.43828 53.88257
# Shear Modulus (GPa) = 17.26785 25.20181 21.23483
#
# Velocity S-wave (km/s) = 2.84155 3.43282 3.15109
# Velocity P-wave (km/s) = 5.77610 6.59587 6.19955
#
# Compressibility (1/GPa) = 0.02069243
#
# Stress axis : x y z
#
# Youngs Moduli (GPa) = 75.81663 38.86730 46.68750
#
# Poissons Ratio (x) = 0.46684 -0.08453
# Poissons Ratio (y) = 0.91064 0.44922
# Poissons Ratio (z) = -0.13727 0.37397
#
# Static dielectric constant tensor:
#      x y z
#    x 3.831920 0.000000 0.000000 
#    y 0.000000 3.914820 0.000000 
#    z 0.000000 0.000000 4.132880 
# 
# 
# High freq. dielectric constant tensor:
#      x y z
#    x 1.840480 0.000000 0.000000 
#    y 0.000000 1.830700 0.000000 
#    z 0.000000 0.000000 1.843090 
# 
# From -- ./inp_files/22181.got.cif
#   From: 2010.06.25/outbox.cif.g09.slc.cpg/sg58_12_cif.got.tgz:22181.got - 2010.06.26 21:38:00.
