data_PCOD8236773
_publ_section_title
;
Structure prediction by ZEFSAII (Michael W. Deem and Ramdas Pophale) SiO2 
 PCOD8236773
Probable space group: P N N M
;
_chemical_formula_sum "Si O2"
_cell_formula_units_Z 48
_cell_length_a 8.642148
_cell_length_b 13.024134
_cell_length_c 19.344560
_cell_angle_alpha 90.000000
_cell_angle_beta 90.000000
_cell_angle_gamma 90.000000
_cell_volume 2177.355844
_symmetry_space_group_name_H-M "P N N M"
_symmetry_group_IT_number 58
_symmetry_cell_setting 'orthorhombic'
loop_
_space_group_symop_operation_xyz
x,y,z
-x,-y,z
1/2+x,1/2-y,1/2-z
1/2-x,1/2+y,1/2-z
-x,-y,-z
x,y,-z
1/2-x,1/2+y,1/2+z
1/2+x,1/2-y,1/2+z
loop_
_atom_site_type_symbol
_atom_site_label
_atom_site_fract_x
_atom_site_fract_y
_atom_site_fract_z
Si Si1 0.432608 0.887395 0.000000
Si Si2 0.195362 0.628967 0.000000
Si Si3 0.396477 0.094226 0.647060
Si Si4 0.410382 0.247907 0.885284
Si Si5 0.961786 0.117414 0.500000
Si Si6 0.425802 0.606472 0.215368
Si Si7 0.431115 0.688642 0.638503
Si Si8 0.420770 0.346363 0.500000
O O1 0.490013 0.832492 0.929864
O O2 0.500000 0.000000 0.000000
O O3 0.246904 0.897962 0.000000
O O4 0.166658 0.564235 0.070004
O O5 0.080773 0.723798 0.000000
O O6 0.370030 0.674256 0.000000
O O7 0.256828 0.104216 0.701017
O O8 0.490019 0.200285 0.645942
O O9 0.500000 0.000000 0.673696
O O10 0.367484 0.347038 0.932916
O O11 0.508359 0.291423 0.821603
O O12 0.253275 0.197628 0.860527
O O13 0.000000 0.000000 0.500000
O O14 0.500000 0.500000 0.188151
O O15 0.469342 0.618424 0.295664
O O16 0.485916 0.625662 0.570127
#
# Coordination Sequence:
#
# PCOD8236773 Si02
#       8
#     4   4   8   8   4   8   8   4
#     4  11  24  43  72 100 133 179 224 273 330 401
#     4  10  19  36  61  95 132 165 210 260 330 395
#     4  11  23  40  64  99 135 175 220 276 336 406
#     4  11  22  43  64  98 134 172 226 267 337 406
#     4  11  20  32  65  97 130 173 204 267 329 404
#     4  12  25  44  67  94 133 179 225 278 343 406
#     4  11  25  42  68  94 133 176 224 284 339 406
#     4  10  20  45  65  91 127 168 216 283 330 391
#
# _framework density 22.045086999999999
#
# number of rings (size 3 to 8) (size 9 to 14) (size 15 to 20)
#    0.000    1.000    3.333    4.750    2.333    1.333 
#    0.000    6.250    0.000    0.000    0.000    0.000 
#    0.000    0.000    0.000    0.000    0.000    0.000 
#
# Total GULP energy -595108.887392 kJ/mol
# GULP energy per Si atom -12398.101821 kJ/mol
# Density = 2.199491 g / cm^3
# Si number density = 22.045087 Si / 1000 Ang^3
#
#
#
# Elastic Constant Matrix: (Units=GPa)
#
#
# Indices 1 2 3 4 5 6 
#
# 1 130.1805 33.1542 42.0892 0.0000 0.0000 0.0000
# 2 33.1542 87.7531 39.5856 0.0000 0.0000 0.0000
# 3 42.0892 39.5856 151.6172 0.0000 0.0000 0.0000
# 4 0.0000 0.0000 0.0000 19.8783 0.0000 0.0000
# 5 0.0000 0.0000 0.0000 0.0000 32.1638 0.0000
# 6 0.0000 0.0000 0.0000 0.0000 0.0000 32.9511
#
#
#
# Elastic Compliance Matrix: (Units=1/GPa)
#
#
# Indices 1 2 3 4 5 6 
#
# 1 0.008917 -0.002553 -0.001809 0.000000 0.000000 0.000000
# 2 -0.002553 0.013648 -0.002855 0.000000 0.000000 0.000000
# 3 -0.001809 -0.002855 0.007843 0.000000 0.000000 0.000000
# 4 0.000000 0.000000 0.000000 0.050306 0.000000 0.000000
# 5 0.000000 0.000000 0.000000 0.000000 0.031091 0.000000
# 6 0.000000 0.000000 0.000000 0.000000 0.000000 0.030348
#
#
# Mechanical properties :
#
#
# Convention : Reuss Voigt Hill
#
# Bulk Modulus (GPa) = 62.59801 66.57876 64.58839
# Shear Modulus (GPa) = 30.88140 33.98010 32.43075
#
# Velocity S-wave (km/s) = 3.74683 3.93031 3.83967
# Velocity P-wave (km/s) = 6.86843 7.13185 7.00138
#
# Compressibility (1/GPa) = 0.01597495
#
# Stress axis : x y z
#
# Youngs Moduli (GPa) = 112.15041 73.27163 127.50256
#
# Poissons Ratio (x) = 0.18705 0.23062
# Poissons Ratio (y) = 0.28631 0.36397
# Poissons Ratio (z) = 0.20285 0.20916
#
# Static dielectric constant tensor:
#      x y z
#    x 2.374790 0.000000 0.000000 
#    y 0.000000 2.985660 0.000000 
#    z 0.000000 0.000000 4.140170 
# 
# 
# High freq. dielectric constant tensor:
#      x y z
#    x 1.870730 0.000000 0.000000 
#    y 0.000000 1.856810 0.000000 
#    z 0.000000 0.000000 1.872050 
# 
# From -- ./inp_files/25367.got.cif
#   From: 2010.06.25/outbox.cif.g09.slc.cpg/sg58_13_cif.got.tgz:25367.got - 2010.06.26 21:38:00.
