data_PCOD8236950
_publ_section_title
;
Structure prediction by ZEFSAII (Michael W. Deem and Ramdas Pophale) SiO2 
 PCOD8236950
Probable space group: P N N M
;
_chemical_formula_sum "Si O2"
_cell_formula_units_Z 64
_cell_length_a 24.466565
_cell_length_b 14.657206
_cell_length_c 8.998566
_cell_angle_alpha 90.000000
_cell_angle_beta 90.000000
_cell_angle_gamma 90.000000
_cell_volume 3226.989101
_symmetry_space_group_name_H-M "P N N M"
_symmetry_group_IT_number 58
_symmetry_cell_setting 'orthorhombic'
loop_
_space_group_symop_operation_xyz
x,y,z
-x,-y,z
1/2+x,1/2-y,1/2-z
1/2-x,1/2+y,1/2-z
-x,-y,-z
x,y,-z
1/2-x,1/2+y,1/2+z
1/2+x,1/2-y,1/2+z
loop_
_atom_site_type_symbol
_atom_site_label
_atom_site_fract_x
_atom_site_fract_y
_atom_site_fract_z
Si Si1 0.658198 0.370520 0.336685
Si Si2 0.301847 0.340045 0.822537
Si Si3 0.603243 0.181603 0.670986
Si Si4 0.304738 0.952365 0.675831
Si Si5 0.785241 0.366200 0.333455
Si Si6 0.508128 0.272146 0.827493
Si Si7 0.570803 0.458507 0.830030
Si Si8 0.916842 0.134539 0.176065
O O1 0.635080 0.398416 0.500000
O O2 0.643766 0.266115 0.304950
O O3 0.721651 0.385091 0.332169
O O4 0.633481 0.436190 0.211002
O O5 0.249756 0.399465 0.765580
O O6 0.295687 0.234888 0.770691
O O7 0.356349 0.375038 0.742950
O O8 0.307798 0.347003 0.000000
O O9 0.586046 0.169934 0.500000
O O10 0.639381 0.096914 0.729240
O O11 0.546984 0.191989 0.763998
O O12 0.301962 0.951643 0.500000
O O13 0.311584 0.055698 0.732067
O O14 0.808894 0.375044 0.500000
O O15 0.537250 0.367964 0.795360
O O16 0.449820 0.277776 0.741870
O O17 0.497386 0.253305 0.000000
O O18 0.550621 0.543458 0.730227
O O19 0.565631 0.489617 0.000000
O O20 0.914804 0.141924 0.000000
#
# Coordination Sequence:
#
# PCOD8236950 Si02
#       8
#     8   8   8   8   8   8   8   8
#     4   9  16  30  51  75 106 142 181 221 263 318
#     4  10  21  39  58  79 114 155 188 225 276 332
#     4   9  17  33  55  78 106 141 180 222 268 321
#     4  10  20  35  57  83 112 148 185 225 277 331
#     4  10  20  34  54  80 111 148 187 227 274 327
#     4  10  21  36  55  79 107 143 184 228 277 329
#     4  10  20  33  51  78 110 144 182 224 272 328
#     4  12  24  36  52  77 108 145 187 229 276 329
#
# _framework density 19.832729
#
# number of rings (size 3 to 8) (size 9 to 14) (size 15 to 20)
#    0.000    2.000    1.250    3.000    0.000    7.000 
#    0.000    0.000    0.000    0.750    0.000    5.250 
#    0.000    0.000    0.000    0.000    0.000    0.000 
#
# Total GULP energy -793327.880569 kJ/mol
# GULP energy per Si atom -12395.748134 kJ/mol
# Density = 1.978759 g / cm^3
# Si number density = 19.832729 Si / 1000 Ang^3
#
#
#
# Elastic Constant Matrix: (Units=GPa)
#
#
# Indices 1 2 3 4 5 6 
#
# 1 35.7504 0.0032 14.1641 0.0000 0.0000 0.0000
# 2 0.0032 67.3562 15.6842 0.0000 0.0000 0.0000
# 3 14.1641 15.6842 63.0225 0.0000 0.0000 0.0000
# 4 0.0000 0.0000 0.0000 29.6482 0.0000 0.0000
# 5 0.0000 0.0000 0.0000 0.0000 22.9483 0.0000
# 6 0.0000 0.0000 0.0000 0.0000 0.0000 19.4913
#
#
#
# Elastic Compliance Matrix: (Units=1/GPa)
#
#
# Indices 1 2 3 4 5 6 
#
# 1 0.030891 0.001715 -0.007369 0.000000 0.000000 0.000000
# 2 0.001715 0.015855 -0.004331 0.000000 0.000000 0.000000
# 3 -0.007369 -0.004331 0.018601 0.000000 0.000000 0.000000
# 4 0.000000 0.000000 0.000000 0.033729 0.000000 0.000000
# 5 0.000000 0.000000 0.000000 0.000000 0.043576 0.000000
# 6 0.000000 0.000000 0.000000 0.000000 0.000000 0.051305
#
#
# Mechanical properties :
#
#
# Convention : Reuss Voigt Hill
#
# Bulk Modulus (GPa) = 22.03823 25.09245 23.56534
# Shear Modulus (GPa) = 21.82884 23.50273 22.66579
#
# Velocity S-wave (km/s) = 3.32120 3.44619 3.38427
# Velocity P-wave (km/s) = 5.08363 5.33989 5.21334
#
# Compressibility (1/GPa) = 0.04537569
#
# Stress axis : x y z
#
# Youngs Moduli (GPa) = 32.37158 63.07211 53.75922
#
# Poissons Ratio (x) = -0.10814 0.39617
# Poissons Ratio (y) = -0.05550 0.23283
# Poissons Ratio (z) = 0.23856 0.27317
#
# Static dielectric constant tensor:
#      x y z
#    x 3.650080 0.000000 0.000000 
#    y 0.000000 3.566370 0.000000 
#    z 0.000000 0.000000 3.534500 
# 
# 
# High freq. dielectric constant tensor:
#      x y z
#    x 1.769890 0.000000 0.000000 
#    y 0.000000 1.755070 0.000000 
#    z 0.000000 0.000000 1.762050 
# 
# From -- ./inp_files/10040.got.cif
#   From: 2010.06.25/outbox.cif.g09.slc.cpg/sg58_6_cif.got.tgz:10040.got - 2010.06.26 21:38:00.
