data_PCOD8236069
_publ_section_title
;
Structure prediction by ZEFSAII (Michael W. Deem and Ramdas Pophale) SiO2 
 PCOD8236069
Probable space group: P N N M
;
_chemical_formula_sum "Si O2"
_cell_formula_units_Z 64
_cell_length_a 5.200529
_cell_length_b 35.775600
_cell_length_c 17.305672
_cell_angle_alpha 90.000000
_cell_angle_beta 90.000000
_cell_angle_gamma 90.000000
_cell_volume 3219.755671
_symmetry_space_group_name_H-M "P N N M"
_symmetry_group_IT_number 58
_symmetry_cell_setting 'orthorhombic'
loop_
_space_group_symop_operation_xyz
x,y,z
-x,-y,z
1/2+x,1/2-y,1/2-z
1/2-x,1/2+y,1/2-z
-x,-y,-z
x,y,-z
1/2-x,1/2+y,1/2+z
1/2+x,1/2-y,1/2+z
loop_
_atom_site_type_symbol
_atom_site_label
_atom_site_fract_x
_atom_site_fract_y
_atom_site_fract_z
Si Si1 0.092711 0.284784 0.589187
Si Si2 0.120394 0.100621 0.197203
Si Si3 0.190721 0.034890 0.416928
Si Si4 0.761465 0.477446 0.750282
Si Si5 0.102449 0.261733 0.089100
Si Si6 0.591477 0.384226 0.123466
Si Si7 0.116912 0.360326 0.679522
Si Si8 0.403769 0.844199 0.359644
O O1 0.061420 0.296305 0.500000
O O2 0.330260 0.257479 0.602222
O O3 0.155785 0.321281 0.637829
O O4 0.833167 0.264746 0.619705
O O5 0.193045 0.056895 0.194637
O O6 0.098492 0.113181 0.284870
O O7 0.347796 0.121911 0.151856
O O8 0.850069 0.111340 0.156665
O O9 0.343565 0.032697 0.500000
O O10 0.359836 0.034018 0.337805
O O11 0.050901 0.075186 0.415354
O O12 0.000000 0.000000 0.414868
O O13 0.500000 0.500000 0.758197
O O14 0.000000 0.500000 0.712661
O O15 0.093355 0.299618 0.137254
O O16 0.152953 0.271478 0.000000
O O17 0.349205 0.359496 0.097003
O O18 0.851520 0.362920 0.097229
O O19 0.104675 0.355443 0.770769
#
# Coordination Sequence:
#
# PCOD8236069 Si02
#       8
#     8   8   8   8   8   8   8   8
#     4  10  21  36  53  75 102 130 158 196 248 297
#     4   9  18  32  49  73 100 127 161 202 246 284
#     4   9  19  33  48  68  95 131 174 214 253 297
#     4  10  19  32  50  71 100 133 164 205 250 290
#     4  10  21  35  50  71 101 132 165 204 242 290
#     4   9  19  33  48  68  95 125 163 212 256 291
#     4  10  19  33  53  74 101 129 160 206 245 290
#     4  10  20  34  52  73  95 128 169 206 250 294
#
# _framework density 19.877286000000002
#
# number of rings (size 3 to 8) (size 9 to 14) (size 15 to 20)
#    0.000    2.375    0.000    2.250    0.000    8.250 
#    0.000    2.500    0.000    0.000    0.000    0.000 
#    0.000   10.000    0.000    0.000    0.000    0.000 
#
# Total GULP energy -793124.189401 kJ/mol
# GULP energy per Si atom -12392.565459 kJ/mol
# Density = 1.983204 g / cm^3
# Si number density = 19.877286 Si / 1000 Ang^3
#
#
#
# Elastic Constant Matrix: (Units=GPa)
#
#
# Indices 1 2 3 4 5 6 
#
# 1 132.5483 41.6106 20.0150 0.0000 0.0000 0.0000
# 2 41.6106 117.3350 21.4035 0.0000 0.0000 0.0000
# 3 20.0150 21.4035 13.5971 0.0000 0.0000 0.0000
# 4 0.0000 0.0000 0.0000 86.9432 0.0000 0.0000
# 5 0.0000 0.0000 0.0000 0.0000 9.1091 0.0000
# 6 0.0000 0.0000 0.0000 0.0000 0.0000 38.8775
#
#
#
# Elastic Compliance Matrix: (Units=1/GPa)
#
#
# Indices 1 2 3 4 5 6 
#
# 1 0.009817 -0.001186 -0.012584 0.000000 0.000000 0.000000
# 2 -0.001186 0.012099 -0.017299 0.000000 0.000000 0.000000
# 3 -0.012584 -0.017299 0.119299 0.000000 0.000000 0.000000
# 4 0.000000 0.000000 0.000000 0.011502 0.000000 0.000000
# 5 0.000000 0.000000 0.000000 0.000000 0.109781 0.000000
# 6 0.000000 0.000000 0.000000 0.000000 0.000000 0.025722
#
#
# Mechanical properties :
#
#
# Convention : Reuss Voigt Hill
#
# Bulk Modulus (GPa) = 12.64586 47.72650 30.18618
# Shear Modulus (GPa) = 13.27261 39.01606 26.14433
#
# Velocity S-wave (km/s) = 2.58685 4.43521 3.63062
# Velocity P-wave (km/s) = 3.91128 7.09160 5.72665
#
# Compressibility (1/GPa) = 0.07907724
#
# Stress axis : x y z
#
# Youngs Moduli (GPa) = 101.86556 82.65288 8.38228
#
# Poissons Ratio (x) = 0.09802 0.10548
# Poissons Ratio (y) = 0.12081 0.14501
# Poissons Ratio (z) = 1.28184 1.42983
#
# Static dielectric constant tensor:
#      x y z
#    x 3.915030 0.000000 0.000000 
#    y 0.000000 3.706930 0.000000 
#    z 0.000000 0.000000 3.264480 
# 
# 
# High freq. dielectric constant tensor:
#      x y z
#    x 1.783910 0.000000 0.000000 
#    y 0.000000 1.786300 0.000000 
#    z 0.000000 0.000000 1.721450 
# 
# From -- ./inp_files/24502.got.cif
#   From: 2010.06.25/outbox.cif.g09.slc.cpg/sg58_13_cif.got.tgz:24502.got - 2010.06.26 21:38:00.
