data_PCOD8236843
_publ_section_title
;
Structure prediction by ZEFSAII (Michael W. Deem and Ramdas Pophale) SiO2 
 PCOD8236843
Probable space group: P N N M
;
_chemical_formula_sum "Si O2"
_cell_formula_units_Z 44
_cell_length_a 25.589887
_cell_length_b 6.133499
_cell_length_c 13.816665
_cell_angle_alpha 90.000000
_cell_angle_beta 90.000000
_cell_angle_gamma 90.000000
_cell_volume 2168.602203
_symmetry_space_group_name_H-M "P N N M"
_symmetry_group_IT_number 58
_symmetry_cell_setting 'orthorhombic'
loop_
_space_group_symop_operation_xyz
x,y,z
-x,-y,z
1/2+x,1/2-y,1/2-z
1/2-x,1/2+y,1/2-z
-x,-y,-z
x,y,-z
1/2-x,1/2+y,1/2+z
1/2+x,1/2-y,1/2+z
loop_
_atom_site_type_symbol
_atom_site_label
_atom_site_fract_x
_atom_site_fract_y
_atom_site_fract_z
Si Si1 0.254865 0.225875 0.388570
Si Si2 0.178703 0.037187 0.238111
Si Si3 0.500000 0.500000 0.206966
Si Si4 0.909627 0.295194 0.756263
Si Si5 0.352258 0.919714 0.608215
Si Si6 0.446238 0.875205 0.894463
O O1 0.242009 0.290590 0.500000
O O2 0.202940 0.146843 0.333642
O O3 0.276948 0.435949 0.331738
O O4 0.295421 0.027711 0.386238
O O5 0.145932 0.210291 0.176302
O O6 0.137573 0.860452 0.276047
O O7 0.534768 0.670502 0.269343
O O8 0.542173 0.369100 0.142885
O O9 0.896285 0.406436 0.858880
O O10 0.909587 0.487179 0.676599
O O11 0.366160 0.846081 0.500000
O O12 0.500000 0.000000 0.904857
O O13 0.419140 0.856938 0.000000
#
# Coordination Sequence:
#
# PCOD8236843 Si02
#       6
#     8   8   4   8   8   8
#     4  10  21  36  59  87 118 158 201 244 296 355
#     4  11  20  38  60  87 122 156 198 248 294 357
#     4  10  19  38  61  84 118 158 199 250 303 348
#     4  10  22  36  59  87 119 153 198 249 296 358
#     4  10  21  39  60  84 116 160 200 240 300 360
#     4   9  18  34  57  85 117 155 193 234 292 356
#
# _framework density 20.289567000000002
#
# number of rings (size 3 to 8) (size 9 to 14) (size 15 to 20)
#    0.000    2.000    1.818    1.909    0.000    2.182 
#    0.000    3.182    0.000   10.364    0.000    0.000 
#    0.000    0.000    0.000    0.000    0.000    0.000 
#
# Total GULP energy -545562.594558 kJ/mol
# GULP energy per Si atom -12399.149876 kJ/mol
# Density = 2.024339 g / cm^3
# Si number density = 20.289567 Si / 1000 Ang^3
#
#
#
# Elastic Constant Matrix: (Units=GPa)
#
#
# Indices 1 2 3 4 5 6 
#
# 1 73.7850 39.1077 54.9083 0.0000 0.0000 0.0000
# 2 39.1077 103.2424 44.9344 0.0000 0.0000 0.0000
# 3 54.9083 44.9344 130.4391 0.0000 0.0000 0.0000
# 4 0.0000 0.0000 0.0000 19.9101 0.0000 0.0000
# 5 0.0000 0.0000 0.0000 0.0000 16.6051 0.0000
# 6 0.0000 0.0000 0.0000 0.0000 0.0000 41.8872
#
#
#
# Elastic Compliance Matrix: (Units=1/GPa)
#
#
# Indices 1 2 3 4 5 6 
#
# 1 0.021727 -0.004999 -0.007424 0.000000 0.000000 0.000000
# 2 -0.004999 0.012544 -0.002217 0.000000 0.000000 0.000000
# 3 -0.007424 -0.002217 0.011555 0.000000 0.000000 0.000000
# 4 0.000000 0.000000 0.000000 0.050226 0.000000 0.000000
# 5 0.000000 0.000000 0.000000 0.000000 0.060222 0.000000
# 6 0.000000 0.000000 0.000000 0.000000 0.000000 0.023874
#
#
# Mechanical properties :
#
#
# Convention : Reuss Voigt Hill
#
# Bulk Modulus (GPa) = 60.43441 65.04079 62.73760
# Shear Modulus (GPa) = 23.26185 26.91489 25.08837
#
# Velocity S-wave (km/s) = 3.38966 3.64612 3.52023
# Velocity P-wave (km/s) = 6.72089 7.06056 6.89282
#
# Compressibility (1/GPa) = 0.01654686
#
# Stress axis : x y z
#
# Youngs Moduli (GPa) = 46.02543 79.71640 86.54058
#
# Poissons Ratio (x) = 0.39850 0.64247
# Poissons Ratio (y) = 0.23008 0.19187
# Poissons Ratio (z) = 0.34169 0.17674
#
# Static dielectric constant tensor:
#      x y z
#    x 3.448300 0.000000 0.000000 
#    y 0.000000 3.871940 0.000000 
#    z 0.000000 0.000000 3.806920 
# 
# 
# High freq. dielectric constant tensor:
#      x y z
#    x 1.774810 0.000000 0.000000 
#    y 0.000000 1.806560 0.000000 
#    z 0.000000 0.000000 1.781530 
# 
# From -- ./inp_files/23618.got.cif
#   From: 2010.06.25/outbox.cif.g09.slc.cpg/sg58_12_cif.got.tgz:23618.got - 2010.06.26 21:38:00.
