data_PCOD8236469
_publ_section_title
;
Structure prediction by ZEFSAII (Michael W. Deem and Ramdas Pophale) SiO2 
 PCOD8236469
Probable space group: P N N M
;
_chemical_formula_sum "Si O2"
_cell_formula_units_Z 64
_cell_length_a 23.996943
_cell_length_b 15.423221
_cell_length_c 8.545556
_cell_angle_alpha 90.000000
_cell_angle_beta 90.000000
_cell_angle_gamma 90.000000
_cell_volume 3162.797058
_symmetry_space_group_name_H-M "P N N M"
_symmetry_group_IT_number 58
_symmetry_cell_setting 'orthorhombic'
loop_
_space_group_symop_operation_xyz
x,y,z
-x,-y,z
1/2+x,1/2-y,1/2-z
1/2-x,1/2+y,1/2-z
-x,-y,-z
x,y,-z
1/2-x,1/2+y,1/2+z
1/2+x,1/2-y,1/2+z
loop_
_atom_site_type_symbol
_atom_site_label
_atom_site_fract_x
_atom_site_fract_y
_atom_site_fract_z
Si Si1 0.055143 0.252037 0.684697
Si Si2 0.632075 0.097764 0.816929
Si Si3 0.143056 0.594823 0.683365
Si Si4 0.569422 0.746404 0.186295
Si Si5 0.363573 0.420447 0.183553
Si Si6 0.753030 0.146757 0.817506
Si Si7 0.870936 0.896840 0.818684
Si Si8 0.245232 0.152639 0.680357
O O1 0.050226 0.261344 0.500000
O O2 0.086768 0.336325 0.756779
O O3 0.088664 0.165550 0.722590
O O4 0.992978 0.247904 0.756284
O O5 0.693309 0.117835 0.749001
O O6 0.614705 0.998539 0.782698
O O7 0.635317 0.117426 0.000000
O O8 0.155041 0.607560 0.500000
O O9 0.101882 0.668676 0.748669
O O10 0.201711 0.595721 0.772460
O O11 0.600556 0.660567 0.247579
O O12 0.568851 0.747259 0.000000
O O13 0.298770 0.405499 0.220124
O O14 0.385826 0.505258 0.271210
O O15 0.371578 0.433933 0.000000
O O16 0.760823 0.248243 0.786220
O O17 0.759825 0.123230 0.000000
O O18 0.806824 0.876280 0.783253
O O19 0.882755 0.882821 0.000000
O O20 0.229506 0.137224 0.500000
#
# Coordination Sequence:
#
# PCOD8236469 Si02
#       8
#     8   8   8   8   8   8   8   8
#     4  10  20  40  61  82 114 156 199 242 291 350
#     4   9  18  33  58  85 115 149 187 236 285 335
#     4  10  19  35  58  90 122 152 191 238 288 344
#     4   9  20  36  59  87 117 152 197 241 287 346
#     4  11  22  38  59  87 118 155 192 235 293 355
#     4  10  19  34  56  87 119 153 191 234 288 345
#     4  12  25  40  59  86 115 151 196 250 299 347
#     4  11  21  36  60  88 118 156 193 234 290 353
#
# _framework density 20.235254000000001
#
# number of rings (size 3 to 8) (size 9 to 14) (size 15 to 20)
#    0.000    1.750    2.500    2.625    0.000    2.500 
#    0.000    7.500    0.000    0.000    0.000    1.750 
#    0.000    0.000    0.000    0.000    0.000    0.000 
#
# Total GULP energy -793785.265869 kJ/mol
# GULP energy per Si atom -12402.894779 kJ/mol
# Density = 2.018920 g / cm^3
# Si number density = 20.235254 Si / 1000 Ang^3
#
#
#
# Elastic Constant Matrix: (Units=GPa)
#
#
# Indices 1 2 3 4 5 6 
#
# 1 143.8353 55.0705 1.8826 0.0000 0.0000 0.0000
# 2 55.0705 120.8212 12.1613 0.0000 0.0000 0.0000
# 3 1.8826 12.1613 22.9809 0.0000 0.0000 0.0000
# 4 0.0000 0.0000 0.0000 19.8945 0.0000 0.0000
# 5 0.0000 0.0000 0.0000 0.0000 23.0249 0.0000
# 6 0.0000 0.0000 0.0000 0.0000 0.0000 13.9537
#
#
#
# Elastic Compliance Matrix: (Units=1/GPa)
#
#
# Indices 1 2 3 4 5 6 
#
# 1 0.008466 -0.004002 0.001424 0.000000 0.000000 0.000000
# 2 -0.004002 0.010634 -0.005300 0.000000 0.000000 0.000000
# 3 0.001424 -0.005300 0.046202 0.000000 0.000000 0.000000
# 4 0.000000 0.000000 0.000000 0.050265 0.000000 0.000000
# 5 0.000000 0.000000 0.000000 0.000000 0.043431 0.000000
# 6 0.000000 0.000000 0.000000 0.000000 0.000000 0.071665
#
#
# Mechanical properties :
#
#
# Convention : Reuss Voigt Hill
#
# Bulk Modulus (GPa) = 20.18259 47.31844 33.75052
# Shear Modulus (GPa) = 19.01606 25.94282 22.47944
#
# Velocity S-wave (km/s) = 3.06886 3.58447 3.33664
# Velocity P-wave (km/s) = 4.74898 6.36916 5.61778
#
# Compressibility (1/GPa) = 0.04954765
#
# Stress axis : x y z
#
# Youngs Moduli (GPa) = 118.11819 94.03476 21.64392
#
# Poissons Ratio (x) = 0.37635 -0.03083
# Poissons Ratio (y) = 0.47274 0.11471
# Poissons Ratio (z) = -0.16825 0.49836
#
# Static dielectric constant tensor:
#      x y z
#    x 3.788200 0.000000 0.000000 
#    y 0.000000 3.862840 0.000000 
#    z 0.000000 0.000000 3.295350 
# 
# 
# High freq. dielectric constant tensor:
#      x y z
#    x 1.787680 0.000000 0.000000 
#    y 0.000000 1.807600 0.000000 
#    z 0.000000 0.000000 1.755520 
# 
# From -- ./inp_files/6909.got.cif
#   From: 2010.06.25/outbox.cif.g09.slc.cpg/sg58_4_cif.got.tgz:6909.got - 2010.06.26 21:38:00.
