data_PCOD8236799
_publ_section_title
;
Structure prediction by ZEFSAII (Michael W. Deem and Ramdas Pophale) SiO2 
 PCOD8236799
Probable space group: P N N M
;
_chemical_formula_sum "Si O2"
_cell_formula_units_Z 56
_cell_length_a 19.307625
_cell_length_b 10.876510
_cell_length_c 13.591393
_cell_angle_alpha 90.000000
_cell_angle_beta 90.000000
_cell_angle_gamma 90.000000
_cell_volume 2854.186773
_symmetry_space_group_name_H-M "P N N M"
_symmetry_group_IT_number 58
_symmetry_cell_setting 'orthorhombic'
loop_
_space_group_symop_operation_xyz
x,y,z
-x,-y,z
1/2+x,1/2-y,1/2-z
1/2-x,1/2+y,1/2-z
-x,-y,-z
x,y,-z
1/2-x,1/2+y,1/2+z
1/2+x,1/2-y,1/2+z
loop_
_atom_site_type_symbol
_atom_site_label
_atom_site_fract_x
_atom_site_fract_y
_atom_site_fract_z
Si Si1 0.566410 0.577522 0.887515
Si Si2 0.839912 0.487019 0.218987
Si Si3 0.693953 0.154199 0.888056
Si Si4 0.815059 0.919453 0.301164
Si Si5 0.843340 0.052240 0.889730
Si Si6 0.567891 0.746936 0.713709
Si Si7 0.547188 0.119850 0.609316
O O1 0.500000 0.500000 0.854536
O O2 0.636157 0.501113 0.869970
O O3 0.565567 0.702502 0.825741
O O4 0.561798 0.617867 0.000000
O O5 0.840440 0.539271 0.330732
O O6 0.762575 0.466944 0.179058
O O7 0.879782 0.359768 0.212463
O O8 0.876888 0.587827 0.150072
O O9 0.675228 0.278327 0.830231
O O10 0.776338 0.139345 0.887490
O O11 0.665279 0.157772 0.000000
O O12 0.835089 0.937991 0.185822
O O13 0.906997 0.137907 0.857779
O O14 0.855827 0.000245 0.000000
O O15 0.490685 0.781323 0.678966
O O16 0.555370 0.174821 0.500000
O O17 0.500000 0.000000 0.606599
#
# Coordination Sequence:
#
# PCOD8236799 Si02
#       7
#     8   8   8   8   8   8   8
#     4  10  23  40  59  83 113 158 204 241 285 341
#     4  10  21  36  58  89 117 145 190 240 294 345
#     4  10  20  34  57  83 112 150 190 235 287 343
#     4  10  20  37  60  81 115 148 193 242 284 345
#     4   9  18  34  58  82 108 150 192 230 286 346
#     4  10  19  37  60  82 118 154 186 242 293 346
#     4   9  19  34  55  83 113 145 183 231 288 346
#
# _framework density 19.620301000000001
#
# number of rings (size 3 to 8) (size 9 to 14) (size 15 to 20)
#    0.000    2.286    1.429    0.857    2.000    2.286 
#    0.000    0.714    0.000    4.714    0.000    0.000 
#    0.000    0.000    0.000    0.000    0.000    0.000 
#
# Total GULP energy -694386.328951 kJ/mol
# GULP energy per Si atom -12399.755874 kJ/mol
# Density = 1.957564 g / cm^3
# Si number density = 19.620301 Si / 1000 Ang^3
#
#
#
# Elastic Constant Matrix: (Units=GPa)
#
#
# Indices 1 2 3 4 5 6 
#
# 1 90.0507 9.3507 25.1020 0.0000 0.0000 0.0000
# 2 9.3507 39.5601 27.8388 0.0000 0.0000 0.0000
# 3 25.1020 27.8388 106.8461 0.0000 0.0000 0.0000
# 4 0.0000 0.0000 0.0000 26.7973 0.0000 0.0000
# 5 0.0000 0.0000 0.0000 0.0000 23.8680 0.0000
# 6 0.0000 0.0000 0.0000 0.0000 0.0000 11.7770
#
#
#
# Elastic Compliance Matrix: (Units=1/GPa)
#
#
# Indices 1 2 3 4 5 6 
#
# 1 0.011918 -0.001037 -0.002530 0.000000 0.000000 0.000000
# 2 -0.001037 0.031044 -0.007845 0.000000 0.000000 0.000000
# 3 -0.002530 -0.007845 0.011998 0.000000 0.000000 0.000000
# 4 0.000000 0.000000 0.000000 0.037317 0.000000 0.000000
# 5 0.000000 0.000000 0.000000 0.000000 0.041897 0.000000
# 6 0.000000 0.000000 0.000000 0.000000 0.000000 0.084911
#
#
# Mechanical properties :
#
#
# Convention : Reuss Voigt Hill
#
# Bulk Modulus (GPa) = 31.11762 40.11554 35.61658
# Shear Modulus (GPa) = 19.79264 24.09948 21.94606
#
# Velocity S-wave (km/s) = 3.17958 3.50850 3.34808
# Velocity P-wave (km/s) = 5.41978 6.07479 5.75661
#
# Compressibility (1/GPa) = 0.03213613
#
# Stress axis : x y z
#
# Youngs Moduli (GPa) = 83.90886 32.21278 83.35016
#
# Poissons Ratio (x) = 0.03340 0.21086
# Poissons Ratio (y) = 0.08699 0.65387
# Poissons Ratio (z) = 0.21227 0.25270
#
# Static dielectric constant tensor:
#      x y z
#    x 3.642780 0.000000 0.000000 
#    y 0.000000 3.401860 0.000000 
#    z 0.000000 0.000000 3.696120 
# 
# 
# High freq. dielectric constant tensor:
#      x y z
#    x 1.765620 0.000000 0.000000 
#    y 0.000000 1.751960 0.000000 
#    z 0.000000 0.000000 1.767870 
# 
# From -- ./inp_files/17033.got.cif
#   From: 2010.06.25/outbox.cif.g09.slc.cpg/sg58_9_cif.got.tgz:17033.got - 2010.06.26 21:38:00.
