data_PCOD8236938
_publ_section_title
;
Structure prediction by ZEFSAII (Michael W. Deem and Ramdas Pophale) SiO2 
 PCOD8236938
Probable space group: P N N M
;
_chemical_formula_sum "Si O2"
_cell_formula_units_Z 64
_cell_length_a 25.848422
_cell_length_b 14.288209
_cell_length_c 9.132508
_cell_angle_alpha 90.000000
_cell_angle_beta 90.000000
_cell_angle_gamma 90.000000
_cell_volume 3372.887772
_symmetry_space_group_name_H-M "P N N M"
_symmetry_group_IT_number 58
_symmetry_cell_setting 'orthorhombic'
loop_
_space_group_symop_operation_xyz
x,y,z
-x,-y,z
1/2+x,1/2-y,1/2-z
1/2-x,1/2+y,1/2-z
-x,-y,-z
x,y,-z
1/2-x,1/2+y,1/2+z
1/2+x,1/2-y,1/2+z
loop_
_atom_site_type_symbol
_atom_site_label
_atom_site_fract_x
_atom_site_fract_y
_atom_site_fract_z
Si Si1 0.852437 0.957037 0.330506
Si Si2 0.644590 0.085666 0.324557
Si Si3 0.329215 0.206503 0.339080
Si Si4 0.074521 0.570069 0.840909
Si Si5 0.398472 0.720333 0.327011
Si Si6 0.514613 0.761545 0.324769
Si Si7 0.895131 0.157779 0.330391
Si Si8 0.263271 0.039066 0.325904
O O1 0.849102 0.928991 0.500000
O O2 0.878216 0.873166 0.244435
O O3 0.794768 0.976497 0.267854
O O4 0.887646 0.047623 0.306491
O O5 0.642080 0.077328 0.500000
O O6 0.637201 0.192607 0.274196
O O7 0.596331 0.022919 0.259479
O O8 0.699204 0.044180 0.265490
O O9 0.314638 0.247494 0.500000
O O10 0.377949 0.140082 0.358186
O O11 0.343535 0.290390 0.229183
O O12 0.282680 0.142275 0.274291
O O13 0.029075 0.632635 0.765606
O O14 0.053816 0.538820 0.000000
O O15 0.396129 0.708722 0.500000
O O16 0.456955 0.738187 0.274214
O O17 0.521340 0.757656 0.500000
O O18 0.552945 0.685360 0.254912
O O19 0.901265 0.183728 0.500000
O O20 0.265612 0.035459 0.500000
#
# Coordination Sequence:
#
# PCOD8236938 Si02
#       8
#     8   8   8   8   8   8   8   8
#     4  10  22  37  50  68  98 136 174 206 243 298
#     4   8  14  27  50  79 104 124 155 201 248 294
#     4   8  14  28  52  77  98 123 157 199 247 295
#     4   7  11  23  46  74  99 121 149 189 236 290
#     4  10  21  34  51  77 103 128 164 212 256 291
#     4   9  18  33  52  75 102 131 164 204 254 303
#     4  10  20  33  51  74  98 130 172 212 249 291
#     4   8  15  31  54  76 100 131 162 196 246 305
#
# _framework density 18.974837999999998
#
# number of rings (size 3 to 8) (size 9 to 14) (size 15 to 20)
#    0.000    3.250    0.000    2.625    0.000    3.500 
#    0.000    6.875    0.000    7.500    0.000    8.750 
#    0.000    0.000    0.000    0.000    0.000    0.000 
#
# Total GULP energy -792858.340786 kJ/mol
# GULP energy per Si atom -12388.411575 kJ/mol
# Density = 1.893165 g / cm^3
# Si number density = 18.974838 Si / 1000 Ang^3
#
#
#
# Elastic Constant Matrix: (Units=GPa)
#
#
# Indices 1 2 3 4 5 6 
#
# 1 57.1149 -3.8063 14.2224 0.0000 0.0000 0.0000
# 2 -3.8063 62.1965 22.8945 0.0000 0.0000 0.0000
# 3 14.2224 22.8945 33.2856 0.0000 0.0000 0.0000
# 4 0.0000 0.0000 0.0000 14.5439 0.0000 0.0000
# 5 0.0000 0.0000 0.0000 0.0000 17.8289 0.0000
# 6 0.0000 0.0000 0.0000 0.0000 0.0000 27.9535
#
#
#
# Elastic Compliance Matrix: (Units=1/GPa)
#
#
# Indices 1 2 3 4 5 6 
#
# 1 0.021248 0.006216 -0.013355 0.000000 0.000000 0.000000
# 2 0.006216 0.023347 -0.018715 0.000000 0.000000 0.000000
# 3 -0.013355 -0.018715 0.048622 0.000000 0.000000 0.000000
# 4 0.000000 0.000000 0.000000 0.068757 0.000000 0.000000
# 5 0.000000 0.000000 0.000000 0.000000 0.056089 0.000000
# 6 0.000000 0.000000 0.000000 0.000000 0.000000 0.035774
#
#
# Mechanical properties :
#
#
# Convention : Reuss Voigt Hill
#
# Bulk Modulus (GPa) = 24.09017 24.35758 24.22387
# Shear Modulus (GPa) = 15.65528 20.01770 17.83649
#
# Velocity S-wave (km/s) = 2.87549 3.25154 3.06928
# Velocity P-wave (km/s) = 4.87319 5.19243 5.03534
#
# Compressibility (1/GPa) = 0.04151072
#
# Stress axis : x y z
#
# Youngs Moduli (GPa) = 47.06249 42.83123 20.56689
#
# Poissons Ratio (x) = -0.26625 0.27466
# Poissons Ratio (y) = -0.29255 0.38491
# Poissons Ratio (z) = 0.62851 0.80158
#
# Static dielectric constant tensor:
#      x y z
#    x 3.697990 0.000000 0.000000 
#    y 0.000000 3.591860 0.000000 
#    z 0.000000 0.000000 3.067100 
# 
# 
# High freq. dielectric constant tensor:
#      x y z
#    x 1.738030 0.000000 0.000000 
#    y 0.000000 1.739850 0.000000 
#    z 0.000000 0.000000 1.682270 
# 
# From -- ./inp_files/17853.got.cif
#   From: 2010.06.25/outbox.cif.g09.slc.cpg/sg58_9_cif.got.tgz:17853.got - 2010.06.26 21:38:00.
