data_PCOD8236277
_publ_section_title
;
Structure prediction by ZEFSAII (Michael W. Deem and Ramdas Pophale) SiO2 
 PCOD8236277
Probable space group: P N N M
;
_chemical_formula_sum "Si O2"
_cell_formula_units_Z 64
_cell_length_a 8.810092
_cell_length_b 22.666077
_cell_length_c 16.797966
_cell_angle_alpha 90.000000
_cell_angle_beta 90.000000
_cell_angle_gamma 90.000000
_cell_volume 3354.389587
_symmetry_space_group_name_H-M "P N N M"
_symmetry_group_IT_number 58
_symmetry_cell_setting 'orthorhombic'
loop_
_space_group_symop_operation_xyz
x,y,z
-x,-y,z
1/2+x,1/2-y,1/2-z
1/2-x,1/2+y,1/2-z
-x,-y,-z
x,y,-z
1/2-x,1/2+y,1/2+z
1/2+x,1/2-y,1/2+z
loop_
_atom_site_type_symbol
_atom_site_label
_atom_site_fract_x
_atom_site_fract_y
_atom_site_fract_z
Si Si1 0.512105 0.282373 0.095439
Si Si2 0.727838 0.861215 0.325873
Si Si3 0.514559 0.065533 0.407963
Si Si4 0.479055 0.831275 0.202864
Si Si5 0.525287 0.430372 0.745867
Si Si6 0.267982 0.358703 0.825948
Si Si7 0.572921 0.062271 0.091128
Si Si8 0.073252 0.936775 0.084108
O O1 0.654229 0.318748 0.130026
O O2 0.519685 0.219168 0.136964
O O3 0.348364 0.310049 0.117871
O O4 0.526192 0.276409 0.000000
O O5 0.634288 0.895497 0.393000
O O6 0.618326 0.825272 0.265401
O O7 0.810236 0.912560 0.276182
O O8 0.543005 0.057865 0.500000
O O9 0.656830 0.100051 0.374458
O O10 0.500000 0.000000 0.369190
O O11 0.320926 0.828295 0.252359
O O12 0.495125 0.891927 0.154286
O O13 0.500000 0.500000 0.744648
O O14 0.399059 0.402172 0.800019
O O15 0.508882 0.403297 0.656436
O O16 0.751122 0.056050 0.105212
O O17 0.500000 0.000000 0.112038
O O18 0.535334 0.081109 0.000000
O O19 0.053095 0.901742 0.000000
O O20 0.000000 0.000000 0.073245
#
# Coordination Sequence:
#
# PCOD8236277 Si02
#       8
#     8   8   8   8   8   8   8   8
#     4  11  23  42  62  80 108 149 194 239 288 340
#     4  10  23  37  58  84 115 146 189 237 286 332
#     4  10  20  36  59  88 119 150 185 230 286 345
#     4  11  22  38  60  85 113 150 192 239 282 340
#     4  10  19  33  54  83 115 152 185 223 273 340
#     4  10  21  37  58  85 113 147 188 238 284 332
#     4  10  21  35  55  86 121 155 190 232 284 339
#     4   9  18  32  50  75 113 155 186 221 271 331
#
# _framework density 19.079478000000002
#
# number of rings (size 3 to 8) (size 9 to 14) (size 15 to 20)
#    0.000    1.875    1.250    2.625    3.500    2.000 
#    0.000    0.625    0.000    6.000    0.000    0.000 
#    0.000    0.000    0.000    0.000    0.000    0.000 
#
# Total GULP energy -793245.045648 kJ/mol
# GULP energy per Si atom -12394.453838 kJ/mol
# Density = 1.903605 g / cm^3
# Si number density = 19.079478 Si / 1000 Ang^3
#
#
#
# Elastic Constant Matrix: (Units=GPa)
#
#
# Indices 1 2 3 4 5 6 
#
# 1 82.0217 33.2655 32.5886 0.0000 0.0000 0.0000
# 2 33.2655 96.2035 47.5481 0.0000 0.0000 0.0000
# 3 32.5886 47.5481 113.4292 0.0000 0.0000 0.0000
# 4 0.0000 0.0000 0.0000 33.9064 0.0000 0.0000
# 5 0.0000 0.0000 0.0000 0.0000 25.1496 0.0000
# 6 0.0000 0.0000 0.0000 0.0000 0.0000 21.1189
#
#
#
# Elastic Compliance Matrix: (Units=1/GPa)
#
#
# Indices 1 2 3 4 5 6 
#
# 1 0.014789 -0.003801 -0.002655 0.000000 0.000000 0.000000
# 2 -0.003801 0.014088 -0.004813 0.000000 0.000000 0.000000
# 3 -0.002655 -0.004813 0.011597 0.000000 0.000000 0.000000
# 4 0.000000 0.000000 0.000000 0.029493 0.000000 0.000000
# 5 0.000000 0.000000 0.000000 0.000000 0.039762 0.000000
# 6 0.000000 0.000000 0.000000 0.000000 0.000000 0.047351
#
#
# Mechanical properties :
#
#
# Convention : Reuss Voigt Hill
#
# Bulk Modulus (GPa) = 55.76232 57.60653 56.68443
# Shear Modulus (GPa) = 26.94008 27.91848 27.42928
#
# Velocity S-wave (km/s) = 3.76173 3.82942 3.79573
# Velocity P-wave (km/s) = 6.93954 7.05770 6.99887
#
# Compressibility (1/GPa) = 0.01793326
#
# Stress axis : x y z
#
# Youngs Moduli (GPa) = 67.61977 70.98219 86.23149
#
# Poissons Ratio (x) = 0.26982 0.22898
# Poissons Ratio (y) = 0.25704 0.41507
# Poissons Ratio (z) = 0.17956 0.34167
#
# Static dielectric constant tensor:
#      x y z
#    x 3.724330 0.000000 0.000000 
#    y 0.000000 3.428430 0.000000 
#    z 0.000000 0.000000 3.896160 
# 
# 
# High freq. dielectric constant tensor:
#      x y z
#    x 1.752660 0.000000 0.000000 
#    y 0.000000 1.724920 0.000000 
#    z 0.000000 0.000000 1.757850 
# 
# From -- ./inp_files/20280.got.cif
#   From: 2010.06.25/outbox.cif.g09.slc.cpg/sg58_11_cif.got.tgz:20280.got - 2010.06.26 21:38:00.
