data_PCOD8236699
_publ_section_title
;
Structure prediction by ZEFSAII (Michael W. Deem and Ramdas Pophale) SiO2 
 PCOD8236699
Probable space group: P N N M
;
_chemical_formula_sum "Si O2"
_cell_formula_units_Z 64
_cell_length_a 14.834849
_cell_length_b 11.975268
_cell_length_c 19.232306
_cell_angle_alpha 90.000000
_cell_angle_beta 90.000000
_cell_angle_gamma 90.000000
_cell_volume 3416.644019
_symmetry_space_group_name_H-M "P N N M"
_symmetry_group_IT_number 58
_symmetry_cell_setting 'orthorhombic'
loop_
_space_group_symop_operation_xyz
x,y,z
-x,-y,z
1/2+x,1/2-y,1/2-z
1/2-x,1/2+y,1/2-z
-x,-y,-z
x,y,-z
1/2-x,1/2+y,1/2+z
1/2+x,1/2-y,1/2+z
loop_
_atom_site_type_symbol
_atom_site_label
_atom_site_fract_x
_atom_site_fract_y
_atom_site_fract_z
Si Si1 0.898582 0.985401 0.185337
Si Si2 0.882392 0.432480 0.386700
Si Si3 0.317175 0.833875 0.309974
Si Si4 0.572154 0.168807 0.922742
Si Si5 0.401855 0.049163 0.277785
Si Si6 0.699284 0.331250 0.578863
Si Si7 0.936629 0.800774 0.288888
Si Si8 0.366597 0.286069 0.260563
O O1 0.848041 0.926243 0.123407
O O2 0.894846 0.916905 0.259258
O O3 0.852343 0.105948 0.191383
O O4 0.000000 0.000000 0.160429
O O5 0.864652 0.560552 0.410130
O O6 0.889276 0.431606 0.303897
O O7 0.805294 0.353697 0.417085
O O8 0.971884 0.378539 0.417256
O O9 0.327856 0.788997 0.388555
O O10 0.401222 0.797038 0.261591
O O11 0.223901 0.778455 0.284662
O O12 0.323493 0.968451 0.308486
O O13 0.592692 0.268941 0.867653
O O14 0.589414 0.217513 0.000000
O O15 0.382464 0.174199 0.307542
O O16 0.500000 0.000000 0.297328
O O17 0.664677 0.332607 0.500000
O O18 0.045257 0.805678 0.287544
#
# Coordination Sequence:
#
# PCOD8236699 Si02
#       8
#     8   8   8   8   8   8   8   8
#     4   9  22  37  57  79 105 146 190 235 287 324
#     4  11  17  32  48  84 119 147 181 223 277 338
#     4  11  21  33  58  84 109 149 189 228 288 331
#     4  11  19  29  52  82 120 155 179 218 277 338
#     4  12  19  35  61  86 116 146 190 239 280 336
#     4  11  22  36  54  79 112 144 188 236 283 339
#     4  10  19  36  52  83 115 145 185 231 274 338
#     4  11  20  36  57  84 117 141 185 241 277 335
#
# _framework density 18.731831
#
# number of rings (size 3 to 8) (size 9 to 14) (size 15 to 20)
#    0.000    1.250    6.250    2.250    1.750    0.250 
#    0.000    0.000    0.000    5.250    0.000    0.000 
#    0.000    0.000    0.000    0.000    0.000    0.000 
#
# Total GULP energy -793176.142127 kJ/mol
# GULP energy per Si atom -12393.377221 kJ/mol
# Density = 1.868920 g / cm^3
# Si number density = 18.731831 Si / 1000 Ang^3
#
#
#
# Elastic Constant Matrix: (Units=GPa)
#
#
# Indices 1 2 3 4 5 6 
#
# 1 49.3285 21.1766 19.2914 0.0000 0.0000 0.0000
# 2 21.1766 137.8327 39.9730 0.0000 0.0000 0.0000
# 3 19.2914 39.9730 97.4495 0.0000 0.0000 0.0000
# 4 0.0000 0.0000 0.0000 19.7405 0.0000 0.0000
# 5 0.0000 0.0000 0.0000 0.0000 9.4542 0.0000
# 6 0.0000 0.0000 0.0000 0.0000 0.0000 25.4803
#
#
#
# Elastic Compliance Matrix: (Units=1/GPa)
#
#
# Indices 1 2 3 4 5 6 
#
# 1 0.022696 -0.002479 -0.003476 0.000000 0.000000 0.000000
# 2 -0.002479 0.008506 -0.002998 0.000000 0.000000 0.000000
# 3 -0.003476 -0.002998 0.012180 0.000000 0.000000 0.000000
# 4 0.000000 0.000000 0.000000 0.050657 0.000000 0.000000
# 5 0.000000 0.000000 0.000000 0.000000 0.105773 0.000000
# 6 0.000000 0.000000 0.000000 0.000000 0.000000 0.039246
#
#
# Mechanical properties :
#
#
# Convention : Reuss Voigt Hill
#
# Bulk Modulus (GPa) = 39.25455 49.49919 44.37687
# Shear Modulus (GPa) = 18.83555 24.54631 21.69093
#
# Velocity S-wave (km/s) = 3.17446 3.62388 3.40659
# Velocity P-wave (km/s) = 5.86838 6.63269 6.26220
#
# Compressibility (1/GPa) = 0.02547475
#
# Stress axis : x y z
#
# Youngs Moduli (GPa) = 44.06088 117.57059 82.10390
#
# Poissons Ratio (x) = 0.29144 0.28540
# Poissons Ratio (y) = 0.10922 0.24616
# Poissons Ratio (z) = 0.15316 0.35250
#
# Static dielectric constant tensor:
#      x y z
#    x 3.527190 0.000000 0.000000 
#    y 0.000000 3.818180 0.000000 
#    z 0.000000 0.000000 3.178770 
# 
# 
# High freq. dielectric constant tensor:
#      x y z
#    x 1.729650 0.000000 0.000000 
#    y 0.000000 1.730880 0.000000 
#    z 0.000000 0.000000 1.682870 
# 
# From -- ./inp_files/26987.got.cif
#   From: 2010.06.25/outbox.cif.g09.slc.cpg/sg58_14_cif.got.tgz:26987.got - 2010.06.26 21:38:00.
