data_PCOD8236498
_publ_section_title
;
Structure prediction by ZEFSAII (Michael W. Deem and Ramdas Pophale) SiO2 
 PCOD8236498
Probable space group: P N N M
;
_chemical_formula_sum "Si O2"
_cell_formula_units_Z 64
_cell_length_a 24.479359
_cell_length_b 14.511388
_cell_length_c 8.904356
_cell_angle_alpha 90.000000
_cell_angle_beta 90.000000
_cell_angle_gamma 90.000000
_cell_volume 3163.089720
_symmetry_space_group_name_H-M "P N N M"
_symmetry_group_IT_number 58
_symmetry_cell_setting 'orthorhombic'
loop_
_space_group_symop_operation_xyz
x,y,z
-x,-y,z
1/2+x,1/2-y,1/2-z
1/2-x,1/2+y,1/2-z
-x,-y,-z
x,y,-z
1/2-x,1/2+y,1/2+z
1/2+x,1/2-y,1/2+z
loop_
_atom_site_type_symbol
_atom_site_label
_atom_site_fract_x
_atom_site_fract_y
_atom_site_fract_z
Si Si1 0.255891 0.134302 0.179104
Si Si2 0.168847 0.015919 0.321815
Si Si3 0.903157 0.254312 0.833980
Si Si4 0.140622 0.549357 0.171757
Si Si5 0.949098 0.562511 0.323455
Si Si6 0.472755 0.750115 0.329603
Si Si7 0.304960 0.319372 0.825782
Si Si8 0.443633 0.546737 0.675756
O O1 0.197659 0.102858 0.243565
O O2 0.303354 0.067478 0.239676
O O3 0.265748 0.239253 0.242341
O O4 0.255238 0.129947 0.000000
O O5 0.168278 0.028911 0.500000
O O6 0.107122 0.003179 0.264490
O O7 0.204237 0.924715 0.273057
O O8 0.899896 0.364129 0.815912
O O9 0.867537 0.204661 0.709004
O O10 0.964437 0.221975 0.810490
O O11 0.881854 0.225802 0.000000
O O12 0.107560 0.465452 0.244738
O O13 0.155572 0.525150 0.000000
O O14 0.942120 0.550440 0.500000
O O15 0.957578 0.669567 0.285267
O O16 0.000000 0.500000 0.265916
O O17 0.461078 0.783687 0.500000
O O18 0.440882 0.656322 0.291999
O O19 0.295975 0.313891 0.000000
O O20 0.500000 0.500000 0.733200
O O21 0.436452 0.525519 0.500000
#
# Coordination Sequence:
#
# PCOD8236498 Si02
#       8
#     8   8   8   8   8   8   8   8
#     4  10  21  40  63  87 116 150 196 249 298 352
#     4  11  23  41  63  90 122 157 199 247 303 364
#     4   9  17  30  54  84 112 146 194 241 282 339
#     4  10  19  34  57  83 114 153 198 247 296 349
#     4  11  22  34  52  82 121 163 203 246 296 355
#     4  10  20  35  55  83 117 157 198 240 295 354
#     4   9  20  37  59  85 113 148 190 238 294 349
#     4  10  22  41  65  91 121 157 199 249 305 365
#
# _framework density 20.233381000000001
#
# number of rings (size 3 to 8) (size 9 to 14) (size 15 to 20)
#    0.000    2.000    1.250    2.250    0.000    4.750 
#    2.250    0.000    0.000    0.000    0.000    0.000 
#    0.000    0.000    0.000    0.000    0.000    0.000 
#
# Total GULP energy -793423.871122 kJ/mol
# GULP energy per Si atom -12397.247986 kJ/mol
# Density = 2.018733 g / cm^3
# Si number density = 20.233381 Si / 1000 Ang^3
#
#
#
# Elastic Constant Matrix: (Units=GPa)
#
#
# Indices 1 2 3 4 5 6 
#
# 1 90.1904 39.2189 36.7104 0.0000 0.0000 0.0000
# 2 39.2189 102.0136 38.9815 0.0000 0.0000 0.0000
# 3 36.7104 38.9815 59.7665 0.0000 0.0000 0.0000
# 4 0.0000 0.0000 0.0000 25.0319 0.0000 0.0000
# 5 0.0000 0.0000 0.0000 0.0000 31.8583 0.0000
# 6 0.0000 0.0000 0.0000 0.0000 0.0000 29.4618
#
#
#
# Elastic Compliance Matrix: (Units=1/GPa)
#
#
# Indices 1 2 3 4 5 6 
#
# 1 0.015481 -0.003088 -0.007495 0.000000 0.000000 0.000000
# 2 -0.003088 0.013673 -0.007021 0.000000 0.000000 0.000000
# 3 -0.007495 -0.007021 0.025915 0.000000 0.000000 0.000000
# 4 0.000000 0.000000 0.000000 0.039949 0.000000 0.000000
# 5 0.000000 0.000000 0.000000 0.000000 0.031389 0.000000
# 6 0.000000 0.000000 0.000000 0.000000 0.000000 0.033942
#
#
# Mechanical properties :
#
#
# Convention : Reuss Voigt Hill
#
# Bulk Modulus (GPa) = 50.35047 53.53246 51.94147
# Shear Modulus (GPa) = 24.73084 26.40772 25.56928
#
# Velocity S-wave (km/s) = 3.49990 3.61661 3.55874
# Velocity P-wave (km/s) = 6.42428 6.62984 6.52787
#
# Compressibility (1/GPa) = 0.01986079
#
# Stress axis : x y z
#
# Youngs Moduli (GPa) = 64.59512 73.13915 38.58785
#
# Poissons Ratio (x) = 0.22583 0.28922
# Poissons Ratio (y) = 0.19945 0.27093
# Poissons Ratio (z) = 0.48415 0.51352
#
# Static dielectric constant tensor:
#      x y z
#    x 3.488460 0.000000 0.000000 
#    y 0.000000 3.860330 0.000000 
#    z 0.000000 0.000000 3.570440 
# 
# 
# High freq. dielectric constant tensor:
#      x y z
#    x 1.776070 0.000000 0.000000 
#    y 0.000000 1.795330 0.000000 
#    z 0.000000 0.000000 1.782760 
# 
# From -- ./inp_files/10030.got.cif
#   From: 2010.06.25/outbox.cif.g09.slc.cpg/sg58_6_cif.got.tgz:10030.got - 2010.06.26 21:38:00.
