data_PCOD8236127
_publ_section_title
;
Structure prediction by ZEFSAII (Michael W. Deem and Ramdas Pophale) SiO2 
 PCOD8236127
Probable space group: P N N M
;
_chemical_formula_sum "Si O2"
_cell_formula_units_Z 64
_cell_length_a 14.435628
_cell_length_b 25.401209
_cell_length_c 9.417884
_cell_angle_alpha 90.000000
_cell_angle_beta 90.000000
_cell_angle_gamma 90.000000
_cell_volume 3453.372345
_symmetry_space_group_name_H-M "P N N M"
_symmetry_group_IT_number 58
_symmetry_cell_setting 'orthorhombic'
loop_
_space_group_symop_operation_xyz
x,y,z
-x,-y,z
1/2+x,1/2-y,1/2-z
1/2-x,1/2+y,1/2-z
-x,-y,-z
x,y,-z
1/2-x,1/2+y,1/2+z
1/2+x,1/2-y,1/2+z
loop_
_atom_site_type_symbol
_atom_site_label
_atom_site_fract_x
_atom_site_fract_y
_atom_site_fract_z
Si Si1 0.900716 0.863810 0.667061
Si Si2 0.847053 0.277948 0.337818
Si Si3 0.056271 0.250590 0.662874
Si Si4 0.193453 0.618853 0.832967
Si Si5 0.198653 0.308783 0.832292
Si Si6 0.454558 0.446704 0.830317
Si Si7 0.750251 0.574828 0.831144
Si Si8 0.603543 0.989594 0.669058
O O1 0.915731 0.860491 0.500000
O O2 0.907889 0.804800 0.727750
O O3 0.801553 0.889063 0.704932
O O4 0.982524 0.899458 0.731690
O O5 0.826124 0.293887 0.500000
O O6 0.845757 0.329956 0.243610
O O7 0.774091 0.234424 0.283993
O O8 0.946448 0.251258 0.322590
O O9 0.087509 0.258045 0.500000
O O10 0.101558 0.296582 0.756294
O O11 0.138567 0.567476 0.778188
O O12 0.179428 0.627256 0.000000
O O13 0.229482 0.366180 0.778817
O O14 0.183444 0.308503 0.000000
O O15 0.500000 0.500000 0.772584
O O16 0.350257 0.441847 0.771379
O O17 0.454347 0.445905 0.000000
O O18 0.827987 0.534817 0.771091
O O19 0.749424 0.572296 0.000000
O O20 0.604123 0.991076 0.500000
O O21 0.500000 0.000000 0.727831
#
# Coordination Sequence:
#
# PCOD8236127 Si02
#       8
#     8   8   8   8   8   8   8   8
#     4   9  16  28  46  70  97 127 162 203 251 301
#     4  10  21  35  51  75 107 140 172 212 261 307
#     4  10  20  34  51  72 103 139 171 209 257 306
#     4  10  19  32  53  76 100 133 173 212 254 307
#     4  10  20  34  53  77 105 136 172 212 257 306
#     4   9  15  24  43  70 100 129 159 200 254 310
#     4   9  17  29  45  70 103 134 165 209 260 305
#     4   9  18  30  45  70 103 134 167 213 262 300
#
# _framework density 18.532609999999998
#
# number of rings (size 3 to 8) (size 9 to 14) (size 15 to 20)
#    0.000    2.500    1.250    1.500    1.750    6.500 
#    0.000    0.000    0.000    1.125    0.000    0.000 
#    0.000    3.500    0.000    0.000    0.000    0.000 
#
# Total GULP energy -793560.456103 kJ/mol
# GULP energy per Si atom -12399.382127 kJ/mol
# Density = 1.849043 g / cm^3
# Si number density = 18.532610 Si / 1000 Ang^3
#
#
#
# Elastic Constant Matrix: (Units=GPa)
#
#
# Indices 1 2 3 4 5 6 
#
# 1 118.9425 62.6593 18.8666 0.0000 0.0000 0.0000
# 2 62.6593 150.1773 24.2108 0.0000 0.0000 0.0000
# 3 18.8666 24.2108 18.8300 0.0000 0.0000 0.0000
# 4 0.0000 0.0000 0.0000 20.2057 0.0000 0.0000
# 5 0.0000 0.0000 0.0000 0.0000 17.1873 0.0000
# 6 0.0000 0.0000 0.0000 0.0000 0.0000 40.5246
#
#
#
# Elastic Compliance Matrix: (Units=1/GPa)
#
#
# Indices 1 2 3 4 5 6 
#
# 1 0.011409 -0.003680 -0.006699 0.000000 0.000000 0.000000
# 2 -0.003680 0.009587 -0.008639 0.000000 0.000000 0.000000
# 3 -0.006699 -0.008639 0.070927 0.000000 0.000000 0.000000
# 4 0.000000 0.000000 0.000000 0.049491 0.000000 0.000000
# 5 0.000000 0.000000 0.000000 0.000000 0.058182 0.000000
# 6 0.000000 0.000000 0.000000 0.000000 0.000000 0.024676
#
#
# Mechanical properties :
#
#
# Convention : Reuss Voigt Hill
#
# Bulk Modulus (GPa) = 18.55788 55.49149 37.02468
# Shear Modulus (GPa) = 17.83983 27.73105 22.78544
#
# Velocity S-wave (km/s) = 3.10597 3.87245 3.51020
# Velocity P-wave (km/s) = 4.78520 7.07122 6.03739
#
# Compressibility (1/GPa) = 0.05388547
#
# Stress axis : x y z
#
# Youngs Moduli (GPa) = 87.65210 104.30723 14.09901
#
# Poissons Ratio (x) = 0.38386 0.09445
# Poissons Ratio (y) = 0.32257 0.12181
# Poissons Ratio (z) = 0.58720 0.90115
#
# Static dielectric constant tensor:
#      x y z
#    x 3.589910 0.000000 0.000000 
#    y 0.000000 3.588690 0.000000 
#    z 0.000000 0.000000 2.818100 
# 
# 
# High freq. dielectric constant tensor:
#      x y z
#    x 1.735310 0.000000 0.000000 
#    y 0.000000 1.732830 0.000000 
#    z 0.000000 0.000000 1.648540 
# 
# From -- ./inp_files/14844.got.cif
#   From: 2010.06.25/outbox.cif.g09.slc.cpg/sg58_8_cif.got.tgz:14844.got - 2010.06.26 21:38:00.
