data_PCOD8236682
_publ_section_title
;
Structure prediction by ZEFSAII (Michael W. Deem and Ramdas Pophale) SiO2 
 PCOD8236682
Probable space group: P N N M
;
_chemical_formula_sum "Si O2"
_cell_formula_units_Z 64
_cell_length_a 14.487707
_cell_length_b 24.796214
_cell_length_c 9.061267
_cell_angle_alpha 90.000000
_cell_angle_beta 90.000000
_cell_angle_gamma 90.000000
_cell_volume 3255.172123
_symmetry_space_group_name_H-M "P N N M"
_symmetry_group_IT_number 58
_symmetry_cell_setting 'orthorhombic'
loop_
_space_group_symop_operation_xyz
x,y,z
-x,-y,z
1/2+x,1/2-y,1/2-z
1/2-x,1/2+y,1/2-z
-x,-y,-z
x,y,-z
1/2-x,1/2+y,1/2+z
1/2+x,1/2-y,1/2+z
loop_
_atom_site_type_symbol
_atom_site_label
_atom_site_fract_x
_atom_site_fract_y
_atom_site_fract_z
Si Si1 0.719897 0.198517 0.324095
Si Si2 0.774674 0.514728 0.326598
Si Si3 0.943364 0.552327 0.169905
Si Si4 0.661176 0.596577 0.830182
Si Si5 0.969851 0.942606 0.670198
Si Si6 0.270999 0.589338 0.174665
Si Si7 0.483511 0.829085 0.328735
Si Si8 0.818080 0.298233 0.824605
O O1 0.721243 0.203273 0.500000
O O2 0.784650 0.148966 0.272004
O O3 0.614903 0.190735 0.261954
O O4 0.762515 0.251361 0.253796
O O5 0.770683 0.508033 0.500000
O O6 0.855789 0.554882 0.276449
O O7 0.683005 0.543328 0.265461
O O8 0.790591 0.456651 0.251604
O O9 0.000000 0.500000 0.215857
O O10 0.000036 0.607092 0.198292
O O11 0.910493 0.549352 0.000000
O O12 0.550409 0.602550 0.811242
O O13 0.687765 0.585198 0.000000
O O14 0.948545 0.954196 0.500000
O O15 0.875699 0.917745 0.736958
O O16 0.000000 0.000000 0.743045
O O17 0.232438 0.646954 0.223812
O O18 0.261968 0.582398 0.000000
O O19 0.477986 0.816671 0.500000
O O20 0.574985 0.799094 0.266400
O O21 0.814541 0.290303 0.000000
#
# Coordination Sequence:
#
# PCOD8236682 Si02
#       8
#     8   8   8   8   8   8   8   8
#     4  10  21  38  61  83 113 153 193 235 286 342
#     4  12  23  33  52  85 122 151 181 235 296 344
#     4  10  19  35  61  86 110 150 198 233 277 349
#     4  10  19  36  59  81 108 151 200 239 278 342
#     4   9  16  29  56  85 108 142 194 247 284 326
#     4  10  20  37  58  81 112 154 197 240 288 349
#     4   9  18  36  59  85 113 148 190 234 283 341
#     4  10  22  39  61  87 115 146 193 245 285 335
#
# _framework density 19.661021000000002
#
# number of rings (size 3 to 8) (size 9 to 14) (size 15 to 20)
#    0.000    2.000    2.500    1.875    0.000    4.250 
#    0.000    3.750    0.000    0.000    0.000    0.000 
#    0.000    0.000    0.000    0.000    0.000    0.000 
#
# Total GULP energy -793287.750695 kJ/mol
# GULP energy per Si atom -12395.121105 kJ/mol
# Density = 1.961627 g / cm^3
# Si number density = 19.661021 Si / 1000 Ang^3
#
#
#
# Elastic Constant Matrix: (Units=GPa)
#
#
# Indices 1 2 3 4 5 6 
#
# 1 126.7499 51.3217 13.5392 0.0000 0.0000 0.0000
# 2 51.3217 117.5055 26.7899 0.0000 0.0000 0.0000
# 3 13.5392 26.7899 39.6174 0.0000 0.0000 0.0000
# 4 0.0000 0.0000 0.0000 27.1739 0.0000 0.0000
# 5 0.0000 0.0000 0.0000 0.0000 10.4160 0.0000
# 6 0.0000 0.0000 0.0000 0.0000 0.0000 35.1527
#
#
#
# Elastic Compliance Matrix: (Units=1/GPa)
#
#
# Indices 1 2 3 4 5 6 
#
# 1 0.009594 -0.004070 -0.000526 0.000000 0.000000 0.000000
# 2 -0.004070 0.011788 -0.006580 0.000000 0.000000 0.000000
# 3 -0.000526 -0.006580 0.029871 0.000000 0.000000 0.000000
# 4 0.000000 0.000000 0.000000 0.036800 0.000000 0.000000
# 5 0.000000 0.000000 0.000000 0.000000 0.096006 0.000000
# 6 0.000000 0.000000 0.000000 0.000000 0.000000 0.028447
#
#
# Mechanical properties :
#
#
# Convention : Reuss Voigt Hill
#
# Bulk Modulus (GPa) = 34.60299 51.90826 43.25563
# Shear Modulus (GPa) = 20.45047 27.36332 23.90689
#
# Velocity S-wave (km/s) = 3.22864 3.73467 3.49084
# Velocity P-wave (km/s) = 5.61576 6.71237 6.18841
#
# Compressibility (1/GPa) = 0.02889924
#
# Stress axis : x y z
#
# Youngs Moduli (GPa) = 104.23376 84.83063 33.47722
#
# Poissons Ratio (x) = 0.34528 0.01762
# Poissons Ratio (y) = 0.42425 0.22029
# Poissons Ratio (z) = 0.05486 0.55822
#
# Static dielectric constant tensor:
#      x y z
#    x 3.985800 0.000000 0.000000 
#    y 0.000000 3.534660 0.000000 
#    z 0.000000 0.000000 3.097710 
# 
# 
# High freq. dielectric constant tensor:
#      x y z
#    x 1.784940 0.000000 0.000000 
#    y 0.000000 1.759740 0.000000 
#    z 0.000000 0.000000 1.715980 
# 
# From -- ./inp_files/6965.got.cif
#   From: 2010.06.25/outbox.cif.g09.slc.cpg/sg58_4_cif.got.tgz:6965.got - 2010.06.26 21:38:00.
