data_PCOD8236020
_publ_section_title
;
Structure prediction by ZEFSAII (Michael W. Deem and Ramdas Pophale) SiO2 
 PCOD8236020
Probable space group: P N N M
;
_chemical_formula_sum "Si O2"
_cell_formula_units_Z 64
_cell_length_a 12.141441
_cell_length_b 28.961401
_cell_length_c 8.695008
_cell_angle_alpha 90.000000
_cell_angle_beta 90.000000
_cell_angle_gamma 90.000000
_cell_volume 3057.452979
_symmetry_space_group_name_H-M "P N N M"
_symmetry_group_IT_number 58
_symmetry_cell_setting 'orthorhombic'
loop_
_space_group_symop_operation_xyz
x,y,z
-x,-y,z
1/2+x,1/2-y,1/2-z
1/2-x,1/2+y,1/2-z
-x,-y,-z
x,y,-z
1/2-x,1/2+y,1/2+z
1/2+x,1/2-y,1/2+z
loop_
_atom_site_type_symbol
_atom_site_label
_atom_site_fract_x
_atom_site_fract_y
_atom_site_fract_z
Si Si1 0.006904 0.565424 0.672269
Si Si2 0.887963 0.334925 0.671950
Si Si3 0.431019 0.777273 0.679584
Si Si4 0.779868 0.571522 0.175711
Si Si5 0.216347 0.528909 0.178394
Si Si6 0.314560 0.623946 0.177236
Si Si7 0.733094 0.665452 0.321154
Si Si8 0.493141 0.312495 0.822313
O O1 0.967934 0.552047 0.500000
O O2 0.051083 0.616841 0.674426
O O3 0.103444 0.530623 0.723739
O O4 0.908604 0.564093 0.793333
O O5 0.886677 0.313850 0.500000
O O6 0.763354 0.341795 0.727223
O O7 0.951379 0.300355 0.784459
O O8 0.420602 0.767737 0.500000
O O9 0.331376 0.810069 0.730679
O O10 0.426787 0.728972 0.770299
O O11 0.725119 0.520896 0.207693
O O12 0.728056 0.610906 0.282591
O O13 0.761886 0.587011 0.000000
O O14 0.299151 0.570323 0.227992
O O15 0.184075 0.533936 0.000000
O O16 0.440420 0.639597 0.205304
O O17 0.281590 0.629995 0.000000
O O18 0.756502 0.671867 0.500000
O O19 0.617072 0.688168 0.278356
O O20 0.460665 0.306977 0.000000
#
# Coordination Sequence:
#
# PCOD8236020 Si02
#       8
#     8   8   8   8   8   8   8   8
#     4  10  19  31  51  83 124 164 202 252 309 366
#     4  10  20  35  58  89 125 162 201 249 304 365
#     4  12  25  42  66  93 124 162 204 253 315 378
#     4  11  21  35  58  87 122 165 210 259 316 375
#     4   9  19  35  57  87 122 163 211 258 311 378
#     4   9  20  40  64  89 123 164 209 258 310 370
#     4  12  26  45  66  92 127 164 210 262 317 375
#     4  11  25  45  68  92 122 162 210 260 313 374
#
# _framework density 20.932456999999999
#
# number of rings (size 3 to 8) (size 9 to 14) (size 15 to 20)
#    0.000    1.500    1.250    4.125    1.750    4.500 
#    0.000    0.625    0.000    3.750    0.000    0.000 
#    0.000    0.000    0.000    0.000    0.000    0.000 
#
# Total GULP energy -793666.992042 kJ/mol
# GULP energy per Si atom -12401.046751 kJ/mol
# Density = 2.088481 g / cm^3
# Si number density = 20.932457 Si / 1000 Ang^3
#
#
#
# Elastic Constant Matrix: (Units=GPa)
#
#
# Indices 1 2 3 4 5 6 
#
# 1 55.5510 40.7357 22.2486 0.0000 0.0000 0.0000
# 2 40.7357 83.4019 15.4276 0.0000 0.0000 0.0000
# 3 22.2486 15.4276 75.3777 0.0000 0.0000 0.0000
# 4 0.0000 0.0000 0.0000 30.7242 0.0000 0.0000
# 5 0.0000 0.0000 0.0000 0.0000 25.9519 0.0000
# 6 0.0000 0.0000 0.0000 0.0000 0.0000 18.2305
#
#
#
# Elastic Compliance Matrix: (Units=1/GPa)
#
#
# Indices 1 2 3 4 5 6 
#
# 1 0.030609 -0.013802 -0.006210 0.000000 0.000000 0.000000
# 2 -0.013802 0.018685 0.000249 0.000000 0.000000 0.000000
# 3 -0.006210 0.000249 0.015048 0.000000 0.000000 0.000000
# 4 0.000000 0.000000 0.000000 0.032548 0.000000 0.000000
# 5 0.000000 0.000000 0.000000 0.000000 0.038533 0.000000
# 6 0.000000 0.000000 0.000000 0.000000 0.000000 0.054853
#
#
# Mechanical properties :
#
#
# Convention : Reuss Voigt Hill
#
# Bulk Modulus (GPa) = 40.29246 41.23937 40.76591
# Shear Modulus (GPa) = 21.00188 24.04257 22.52223
#
# Velocity S-wave (km/s) = 3.17095 3.39275 3.28372
# Velocity P-wave (km/s) = 5.71814 5.92381 5.82189
#
# Compressibility (1/GPa) = 0.02481854
#
# Stress axis : x y z
#
# Youngs Moduli (GPa) = 32.66962 53.51840 66.45229
#
# Poissons Ratio (x) = 0.73865 0.41266
# Poissons Ratio (y) = 0.45090 -0.01658
# Poissons Ratio (z) = 0.20288 -0.01335
#
# Static dielectric constant tensor:
#      x y z
#    x 3.521410 0.000000 0.000000 
#    y 0.000000 4.127360 0.000000 
#    z 0.000000 0.000000 3.888940 
# 
# 
# High freq. dielectric constant tensor:
#      x y z
#    x 1.790750 0.000000 0.000000 
#    y 0.000000 1.835230 0.000000 
#    z 0.000000 0.000000 1.823330 
# 
# From -- ./inp_files/4662.got.cif
#   From: 2010.06.25/outbox.cif.g09.slc.cpg/sg58_3_cif.got.tgz:4662.got - 2010.06.26 21:38:00.
