data_PCOD8236576
_publ_section_title
;
Structure prediction by ZEFSAII (Michael W. Deem and Ramdas Pophale) SiO2 
 PCOD8236576
Probable space group: P N N M
;
_chemical_formula_sum "Si O2"
_cell_formula_units_Z 64
_cell_length_a 19.575838
_cell_length_b 20.621068
_cell_length_c 8.468826
_cell_angle_alpha 90.000000
_cell_angle_beta 90.000000
_cell_angle_gamma 90.000000
_cell_volume 3418.650681
_symmetry_space_group_name_H-M "P N N M"
_symmetry_group_IT_number 58
_symmetry_cell_setting 'orthorhombic'
loop_
_space_group_symop_operation_xyz
x,y,z
-x,-y,z
1/2+x,1/2-y,1/2-z
1/2-x,1/2+y,1/2-z
-x,-y,-z
x,y,-z
1/2-x,1/2+y,1/2+z
1/2+x,1/2-y,1/2+z
loop_
_atom_site_type_symbol
_atom_site_label
_atom_site_fract_x
_atom_site_fract_y
_atom_site_fract_z
Si Si1 0.288764 0.562367 0.685169
Si Si2 0.703418 0.571959 0.182755
Si Si3 0.574172 0.769959 0.184601
Si Si4 0.573734 0.629523 0.683301
Si Si5 0.076006 0.124986 0.184400
Si Si6 0.709812 0.187647 0.185319
Si Si7 0.211827 0.682588 0.815452
Si Si8 0.571173 0.228726 0.312176
O O1 0.290533 0.548391 0.500000
O O2 0.263912 0.497265 0.772433
O O3 0.364005 0.580692 0.756251
O O4 0.237070 0.620381 0.719789
O O5 0.632415 0.578195 0.278787
O O6 0.755644 0.628228 0.225810
O O7 0.686308 0.575533 0.000000
O O8 0.585068 0.693719 0.214352
O O9 0.632492 0.809053 0.276074
O O10 0.502122 0.796035 0.251321
O O11 0.579357 0.784299 0.000000
O O12 0.576059 0.650406 0.500000
O O13 0.499790 0.597371 0.722504
O O14 0.081181 0.197961 0.250774
O O15 0.089691 0.128566 0.000000
O O16 0.745493 0.254390 0.240943
O O17 0.630494 0.186158 0.233473
O O18 0.719146 0.177309 0.000000
O O19 0.222234 0.670365 0.000000
O O20 0.574433 0.223142 0.500000
#
# Coordination Sequence:
#
# PCOD8236576 Si02
#       8
#     8   8   8   8   8   8   8   8
#     4  11  22  39  59  82 114 154 196 240 291 348
#     4  12  25  39  55  81 116 156 197 241 292 346
#     4  11  21  34  56  87 118 151 191 237 288 341
#     4  10  19  35  55  80 112 152 196 239 286 340
#     4   8  17  32  54  80 110 149 190 229 278 338
#     4  11  22  37  60  87 115 150 193 242 290 341
#     4  11  22  37  59  87 117 150 192 242 291 340
#     4  10  19  35  58  86 118 150 187 236 290 343
#
# _framework density 18.720835999999998
#
# number of rings (size 3 to 8) (size 9 to 14) (size 15 to 20)
#    0.000    1.500    2.500    4.875    0.000    1.500 
#    0.000    4.375    0.000    0.750    0.000    5.250 
#    0.000    0.000    0.000    0.000    0.000    0.000 
#
# Total GULP energy -793743.143270 kJ/mol
# GULP energy per Si atom -12402.236614 kJ/mol
# Density = 1.867823 g / cm^3
# Si number density = 18.720836 Si / 1000 Ang^3
#
#
#
# Elastic Constant Matrix: (Units=GPa)
#
#
# Indices 1 2 3 4 5 6 
#
# 1 119.1242 43.7262 19.7960 0.0000 0.0000 0.0000
# 2 43.7262 86.8568 16.5115 0.0000 0.0000 0.0000
# 3 19.7960 16.5115 55.0702 0.0000 0.0000 0.0000
# 4 0.0000 0.0000 0.0000 25.7229 0.0000 0.0000
# 5 0.0000 0.0000 0.0000 0.0000 29.9216 0.0000
# 6 0.0000 0.0000 0.0000 0.0000 0.0000 20.0729
#
#
#
# Elastic Compliance Matrix: (Units=1/GPa)
#
#
# Indices 1 2 3 4 5 6 
#
# 1 0.010574 -0.004879 -0.002338 0.000000 0.000000 0.000000
# 2 -0.004879 0.014460 -0.002582 0.000000 0.000000 0.000000
# 3 -0.002338 -0.002582 0.019773 0.000000 0.000000 0.000000
# 4 0.000000 0.000000 0.000000 0.038876 0.000000 0.000000
# 5 0.000000 0.000000 0.000000 0.000000 0.033421 0.000000
# 6 0.000000 0.000000 0.000000 0.000000 0.000000 0.049818
#
#
# Mechanical properties :
#
#
# Convention : Reuss Voigt Hill
#
# Bulk Modulus (GPa) = 39.66707 46.79097 43.22902
# Shear Modulus (GPa) = 25.65115 27.21130 26.43122
#
# Velocity S-wave (km/s) = 3.70563 3.81666 3.76155
# Velocity P-wave (km/s) = 6.28837 6.66864 6.48130
#
# Compressibility (1/GPa) = 0.02520983
#
# Stress axis : x y z
#
# Youngs Moduli (GPa) = 94.57174 69.15577 50.57333
#
# Poissons Ratio (x) = 0.33739 0.11825
# Poissons Ratio (y) = 0.46139 0.13057
# Poissons Ratio (z) = 0.22113 0.17854
#
# Static dielectric constant tensor:
#      x y z
#    x 3.612550 0.000000 0.000000 
#    y 0.000000 3.197380 0.000000 
#    z 0.000000 0.000000 3.345450 
# 
# 
# High freq. dielectric constant tensor:
#      x y z
#    x 1.734420 0.000000 0.000000 
#    y 0.000000 1.696840 0.000000 
#    z 0.000000 0.000000 1.729600 
# 
# From -- ./inp_files/9319.got.cif
#   From: 2010.06.25/outbox.cif.g09.slc.cpg/sg58_5_cif.got.tgz:9319.got - 2010.06.26 21:38:00.
