data_PCOD8236431
_publ_section_title
;
Structure prediction by ZEFSAII (Michael W. Deem and Ramdas Pophale) SiO2 
 PCOD8236431
Probable space group: P N N M
;
_chemical_formula_sum "Si O2"
_cell_formula_units_Z 40
_cell_length_a 9.757259
_cell_length_b 14.345927
_cell_length_c 14.175338
_cell_angle_alpha 90.000000
_cell_angle_beta 90.000000
_cell_angle_gamma 90.000000
_cell_volume 1984.220229
_symmetry_space_group_name_H-M "P N N M"
_symmetry_group_IT_number 58
_symmetry_cell_setting 'orthorhombic'
loop_
_space_group_symop_operation_xyz
x,y,z
-x,-y,z
1/2+x,1/2-y,1/2-z
1/2-x,1/2+y,1/2-z
-x,-y,-z
x,y,-z
1/2-x,1/2+y,1/2+z
1/2+x,1/2-y,1/2+z
loop_
_atom_site_type_symbol
_atom_site_label
_atom_site_fract_x
_atom_site_fract_y
_atom_site_fract_z
Si Si1 0.052647 0.146916 0.755434
Si Si2 0.735575 0.917744 0.392730
Si Si3 0.490347 0.142588 0.254097
Si Si4 0.276148 0.390097 0.182765
Si Si5 0.778966 0.321461 0.390205
O O1 0.145815 0.139868 0.661369
O O2 0.146007 0.125454 0.846795
O O3 0.995385 0.248846 0.772292
O O4 0.913259 0.086472 0.744355
O O5 0.729222 0.881390 0.500000
O O6 0.589864 0.901760 0.342529
O O7 0.768675 0.028091 0.394350
O O8 0.643555 0.100442 0.248805
O O9 0.411097 0.127406 0.155347
O O10 0.279512 0.289513 0.132218
O O11 0.781327 0.339376 0.500000
#
# Coordination Sequence:
#
# PCOD8236431 Si02
#       5
#     8   8   8   8   8
#     4   9  20  36  52  76 113 149 179 214 265 327
#     4  11  22  35  57  87 112 135 172 226 284 329
#     4   9  20  36  52  76 113 149 179 214 265 327
#     4  10  19  34  55  84 116 138 169 228 287 320
#     4   9  18  35  57  79 108 149 188 218 258 317
#
# _framework density 20.159051999999999
#
# number of rings (size 3 to 8) (size 9 to 14) (size 15 to 20)
#    0.000    2.400    0.000    3.000    0.000    9.600 
#    0.000    1.000    0.000   19.200    0.000    2.800 
#    0.000    0.000    0.000    0.000    0.000    0.000 
#
# Total GULP energy -495616.475507 kJ/mol
# GULP energy per Si atom -12390.411888 kJ/mol
# Density = 2.011317 g / cm^3
# Si number density = 20.159052 Si / 1000 Ang^3
#
#
#
# Elastic Constant Matrix: (Units=GPa)
#
#
# Indices 1 2 3 4 5 6 
#
# 1 161.2097 5.0640 70.3273 0.0000 0.0000 0.0000
# 2 5.0640 36.7624 19.2164 0.0000 0.0000 0.0000
# 3 70.3273 19.2164 169.5155 0.0000 0.0000 0.0000
# 4 0.0000 0.0000 0.0000 23.1677 0.0000 0.0000
# 5 0.0000 0.0000 0.0000 0.0000 8.4599 0.0000
# 6 0.0000 0.0000 0.0000 0.0000 0.0000 28.7891
#
#
#
# Elastic Compliance Matrix: (Units=1/GPa)
#
#
# Indices 1 2 3 4 5 6 
#
# 1 0.007588 0.000638 -0.003220 0.000000 0.000000 0.000000
# 2 0.000638 0.028969 -0.003549 0.000000 0.000000 0.000000
# 3 -0.003220 -0.003549 0.007637 0.000000 0.000000 0.000000
# 4 0.000000 0.000000 0.000000 0.043163 0.000000 0.000000
# 5 0.000000 0.000000 0.000000 0.000000 0.118205 0.000000
# 6 0.000000 0.000000 0.000000 0.000000 0.000000 0.034735
#
#
# Mechanical properties :
#
#
# Convention : Reuss Voigt Hill
#
# Bulk Modulus (GPa) = 31.31616 61.85589 46.58602
# Shear Modulus (GPa) = 18.99669 30.27534 24.63601
#
# Velocity S-wave (km/s) = 3.07309 3.87954 3.49962
# Velocity P-wave (km/s) = 5.30661 7.12870 6.28404
#
# Compressibility (1/GPa) = 0.03193240
#
# Stress axis : x y z
#
# Youngs Moduli (GPa) = 131.78821 34.51989 130.93313
#
# Poissons Ratio (x) = -0.02203 0.42165
# Poissons Ratio (y) = -0.08410 0.46464
# Poissons Ratio (z) = 0.42441 0.12250
#
# Static dielectric constant tensor:
#      x y z
#    x 4.366270 0.000000 0.000000 
#    y 0.000000 3.681780 0.000000 
#    z 0.000000 0.000000 3.341100 
# 
# 
# High freq. dielectric constant tensor:
#      x y z
#    x 1.811780 0.000000 0.000000 
#    y 0.000000 1.780040 0.000000 
#    z 0.000000 0.000000 1.748530 
# 
# From -- ./inp_files/19460.got.cif
#   From: 2010.06.25/outbox.cif.g09.slc.cpg/sg58_10_cif.got.tgz:19460.got - 2010.06.26 21:38:00.
