data_PCOD8236324
_publ_section_title
;
Structure prediction by ZEFSAII (Michael W. Deem and Ramdas Pophale) SiO2 
 PCOD8236324
Probable space group: P N N M
;
_chemical_formula_sum "Si O2"
_cell_formula_units_Z 56
_cell_length_a 11.422434
_cell_length_b 17.408910
_cell_length_c 16.153594
_cell_angle_alpha 90.000000
_cell_angle_beta 90.000000
_cell_angle_gamma 90.000000
_cell_volume 3212.176501
_symmetry_space_group_name_H-M "P N N M"
_symmetry_group_IT_number 58
_symmetry_cell_setting 'orthorhombic'
loop_
_space_group_symop_operation_xyz
x,y,z
-x,-y,z
1/2+x,1/2-y,1/2-z
1/2-x,1/2+y,1/2-z
-x,-y,-z
x,y,-z
1/2-x,1/2+y,1/2+z
1/2+x,1/2-y,1/2+z
loop_
_atom_site_type_symbol
_atom_site_label
_atom_site_fract_x
_atom_site_fract_y
_atom_site_fract_z
Si Si1 0.183761 0.417843 0.232518
Si Si2 0.251358 0.058163 0.815521
Si Si3 0.313764 0.047542 0.594386
Si Si4 0.581558 0.429595 0.164364
Si Si5 0.581224 0.669927 0.740544
Si Si6 0.433952 0.150680 0.278071
Si Si7 0.460664 0.586593 0.590590
O O1 0.189169 0.473487 0.314007
O O2 0.179500 0.468915 0.148046
O O3 0.290930 0.358743 0.232857
O O4 0.067816 0.367670 0.241342
O O5 0.149262 0.047236 0.747389
O O6 0.349607 0.120316 0.794466
O O7 0.181437 0.086065 0.896279
O O8 0.352795 0.031364 0.500000
O O9 0.180942 0.082158 0.594280
O O10 0.398832 0.111613 0.634499
O O11 0.500000 0.500000 0.137059
O O12 0.505957 0.352812 0.183411
O O13 0.584209 0.759182 0.722061
O O14 0.536416 0.633616 0.655489
O O15 0.500000 0.500000 0.594769
O O16 0.483006 0.622627 0.500000
#
# Coordination Sequence:
#
# PCOD8236324 Si02
#       7
#     8   8   8   8   8   8   8
#     4  10  19  35  55  79 103 145 182 221 260 317
#     4   9  16  34  53  77 101 134 181 224 248 316
#     4  10  21  37  56  81 112 143 183 225 269 327
#     4   9  15  32  53  77 101 138 184 221 260 305
#     4  11  19  34  54  82 109 135 184 228 262 326
#     4  10  23  31  57  80 107 145 175 220 277 311
#     4  10  19  33  56  80 103 135 173 227 273 305
#
# _framework density 17.433662000000002
#
# number of rings (size 3 to 8) (size 9 to 14) (size 15 to 20)
#    0.000    2.429    4.286    2.571    6.000    2.000 
#    0.000    0.000    0.000    3.429    0.000    0.000 
#    0.000    0.000    0.000    0.000    0.000    0.000 
#
# Total GULP energy -693780.594047 kJ/mol
# GULP energy per Si atom -12388.939179 kJ/mol
# Density = 1.739398 g / cm^3
# Si number density = 17.433662 Si / 1000 Ang^3
#
#
#
# Elastic Constant Matrix: (Units=GPa)
#
#
# Indices 1 2 3 4 5 6 
#
# 1 114.5862 46.0298 32.6908 0.0000 0.0000 0.0000
# 2 46.0298 105.8511 38.2696 0.0000 0.0000 0.0000
# 3 32.6908 38.2696 51.9363 0.0000 0.0000 0.0000
# 4 0.0000 0.0000 0.0000 11.1884 0.0000 0.0000
# 5 0.0000 0.0000 0.0000 0.0000 4.4592 0.0000
# 6 0.0000 0.0000 0.0000 0.0000 0.0000 23.7175
#
#
#
# Elastic Compliance Matrix: (Units=1/GPa)
#
#
# Indices 1 2 3 4 5 6 
#
# 1 0.011388 -0.003218 -0.004797 0.000000 0.000000 0.000000
# 2 -0.003218 0.013787 -0.008134 0.000000 0.000000 0.000000
# 3 -0.004797 -0.008134 0.028267 0.000000 0.000000 0.000000
# 4 0.000000 0.000000 0.000000 0.089379 0.000000 0.000000
# 5 0.000000 0.000000 0.000000 0.000000 0.224253 0.000000
# 6 0.000000 0.000000 0.000000 0.000000 0.000000 0.042163
#
#
# Mechanical properties :
#
#
# Convention : Reuss Voigt Hill
#
# Bulk Modulus (GPa) = 47.29187 56.26153 51.77670
# Shear Modulus (GPa) = 11.14619 18.23193 14.68906
#
# Velocity S-wave (km/s) = 2.53128 3.23737 2.90585
# Velocity P-wave (km/s) = 5.97736 6.80558 6.40487
#
# Compressibility (1/GPa) = 0.02114528
#
# Stress axis : x y z
#
# Youngs Moduli (GPa) = 87.80952 72.53097 35.37658
#
# Poissons Ratio (x) = 0.23340 0.16971
# Poissons Ratio (y) = 0.28256 0.28774
# Poissons Ratio (z) = 0.42123 0.58995
#
# Static dielectric constant tensor:
#      x y z
#    x 3.500070 0.000000 0.000000 
#    y 0.000000 3.113720 0.000000 
#    z 0.000000 0.000000 3.266220 
# 
# 
# High freq. dielectric constant tensor:
#      x y z
#    x 1.693530 0.000000 0.000000 
#    y 0.000000 1.660200 0.000000 
#    z 0.000000 0.000000 1.634830 
# 
# From -- ./inp_files/26417.got.cif
#   From: 2010.06.25/outbox.cif.g09.slc.cpg/sg58_14_cif.got.tgz:26417.got - 2010.06.26 21:38:00.
