data_PCOD8236471
_publ_section_title
;
Structure prediction by ZEFSAII (Michael W. Deem and Ramdas Pophale) SiO2 
 PCOD8236471
Probable space group: P N N M
;
_chemical_formula_sum "Si O2"
_cell_formula_units_Z 64
_cell_length_a 19.535740
_cell_length_b 20.840974
_cell_length_c 8.658814
_cell_angle_alpha 90.000000
_cell_angle_beta 90.000000
_cell_angle_gamma 90.000000
_cell_volume 3525.382863
_symmetry_space_group_name_H-M "P N N M"
_symmetry_group_IT_number 58
_symmetry_cell_setting 'orthorhombic'
loop_
_space_group_symop_operation_xyz
x,y,z
-x,-y,z
1/2+x,1/2-y,1/2-z
1/2-x,1/2+y,1/2-z
-x,-y,-z
x,y,-z
1/2-x,1/2+y,1/2+z
1/2+x,1/2-y,1/2+z
loop_
_atom_site_type_symbol
_atom_site_label
_atom_site_fract_x
_atom_site_fract_y
_atom_site_fract_z
Si Si1 0.789323 0.811815 0.681589
Si Si2 0.573113 0.742189 0.319988
Si Si3 0.286119 0.313062 0.318881
Si Si4 0.432247 0.121550 0.818961
Si Si5 0.421741 0.731628 0.677879
Si Si6 0.076243 0.380623 0.180289
Si Si7 0.201689 0.568978 0.182652
Si Si8 0.791848 0.563527 0.682032
O O1 0.781541 0.810850 0.500000
O O2 0.752396 0.748833 0.753879
O O3 0.869344 0.811835 0.725707
O O4 0.752978 0.875890 0.744901
O O5 0.573924 0.763129 0.500000
O O6 0.632719 0.691022 0.282622
O O7 0.587510 0.805559 0.221741
O O8 0.499550 0.711077 0.278823
O O9 0.271938 0.312958 0.500000
O O10 0.255642 0.378899 0.250619
O O11 0.500333 0.098983 0.730424
O O12 0.371421 0.075478 0.765142
O O13 0.444452 0.114648 0.000000
O O14 0.406356 0.718791 0.500000
O O15 0.411986 0.806064 0.720322
O O16 0.129453 0.422030 0.278191
O O17 0.086253 0.394787 0.000000
O O18 0.233106 0.500741 0.232342
O O19 0.191724 0.572893 0.000000
O O20 0.783071 0.554594 0.500000
#
# Coordination Sequence:
#
# PCOD8236471 Si02
#       8
#     8   8   8   8   8   8   8   8
#     4  10  19  34  57  78 103 142 180 217 263 317
#     4   9  17  34  55  79 109 143 177 212 268 326
#     4   9  17  33  57  80 105 139 177 219 265 317
#     4  11  21  33  52  80 109 140 180 226 263 303
#     4   9  18  30  52  82 110 135 171 223 263 307
#     4  10  20  35  53  76 109 149 181 211 259 324
#     4  11  23  39  55  74 106 148 183 214 264 328
#     4  11  22  36  55  81 109 138 177 228 272 310
#
# _framework density 18.154056000000001
#
# number of rings (size 3 to 8) (size 9 to 14) (size 15 to 20)
#    0.000    2.000    2.500    3.000    0.000    3.500 
#    0.000    3.750    0.000    0.750    0.000    5.250 
#    0.000    0.000    0.000    0.000    0.000    0.000 
#
# Total GULP energy -793660.630484 kJ/mol
# GULP energy per Si atom -12400.947351 kJ/mol
# Density = 1.811274 g / cm^3
# Si number density = 18.154056 Si / 1000 Ang^3
#
#
#
# Elastic Constant Matrix: (Units=GPa)
#
#
# Indices 1 2 3 4 5 6 
#
# 1 113.4351 61.0393 15.1702 0.0000 0.0000 0.0000
# 2 61.0393 111.8392 17.9092 0.0000 0.0000 0.0000
# 3 15.1702 17.9092 42.6786 0.0000 0.0000 0.0000
# 4 0.0000 0.0000 0.0000 22.5291 0.0000 0.0000
# 5 0.0000 0.0000 0.0000 0.0000 26.5627 0.0000
# 6 0.0000 0.0000 0.0000 0.0000 0.0000 25.3303
#
#
#
# Elastic Compliance Matrix: (Units=1/GPa)
#
#
# Indices 1 2 3 4 5 6 
#
# 1 0.012596 -0.006601 -0.001707 0.000000 0.000000 0.000000
# 2 -0.006601 0.013045 -0.003128 0.000000 0.000000 0.000000
# 3 -0.001707 -0.003128 0.025350 0.000000 0.000000 0.000000
# 4 0.000000 0.000000 0.000000 0.044387 0.000000 0.000000
# 5 0.000000 0.000000 0.000000 0.000000 0.037647 0.000000
# 6 0.000000 0.000000 0.000000 0.000000 0.000000 0.039478
#
#
# Mechanical properties :
#
#
# Convention : Reuss Voigt Hill
#
# Bulk Modulus (GPa) = 35.56299 50.68780 43.12540
# Shear Modulus (GPa) = 24.42014 26.47336 25.44675
#
# Velocity S-wave (km/s) = 3.67162 3.82286 3.74801
# Velocity P-wave (km/s) = 6.13241 6.88965 6.52203
#
# Compressibility (1/GPa) = 0.02811912
#
# Stress axis : x y z
#
# Youngs Moduli (GPa) = 79.38995 76.65731 39.44732
#
# Poissons Ratio (x) = 0.50603 0.06734
# Poissons Ratio (y) = 0.52407 0.12338
# Poissons Ratio (z) = 0.13554 0.23976
#
# Static dielectric constant tensor:
#      x y z
#    x 3.455720 0.000000 0.000000 
#    y 0.000000 3.315870 0.000000 
#    z 0.000000 0.000000 3.170490 
# 
# 
# High freq. dielectric constant tensor:
#      x y z
#    x 1.705930 0.000000 0.000000 
#    y 0.000000 1.679500 0.000000 
#    z 0.000000 0.000000 1.692420 
# 
# From -- ./inp_files/8249.got.cif
#   From: 2010.06.25/outbox.cif.g09.slc.cpg/sg58_5_cif.got.tgz:8249.got - 2010.06.26 21:38:00.
