data_PCOD8236685
_publ_section_title
;
Structure prediction by ZEFSAII (Michael W. Deem and Ramdas Pophale) SiO2 
 PCOD8236685
Probable space group: P N N M
;
_chemical_formula_sum "Si O2"
_cell_formula_units_Z 48
_cell_length_a 9.926257
_cell_length_b 27.500705
_cell_length_c 8.992068
_cell_angle_alpha 90.000000
_cell_angle_beta 90.000000
_cell_angle_gamma 90.000000
_cell_volume 2454.646320
_symmetry_space_group_name_H-M "P N N M"
_symmetry_group_IT_number 58
_symmetry_cell_setting 'orthorhombic'
loop_
_space_group_symop_operation_xyz
x,y,z
-x,-y,z
1/2+x,1/2-y,1/2-z
1/2-x,1/2+y,1/2-z
-x,-y,-z
x,y,-z
1/2-x,1/2+y,1/2+z
1/2+x,1/2-y,1/2+z
loop_
_atom_site_type_symbol
_atom_site_label
_atom_site_fract_x
_atom_site_fract_y
_atom_site_fract_z
Si Si1 0.284701 0.607930 0.324546
Si Si2 0.650748 0.705310 0.175584
Si Si3 0.956970 0.054858 0.166909
Si Si4 0.018678 0.555678 0.323049
Si Si5 0.138051 0.213625 0.175263
Si Si6 0.729368 0.101853 0.325600
O O1 0.285018 0.600651 0.500000
O O2 0.422740 0.585989 0.260367
O O3 0.159083 0.577376 0.261153
O O4 0.282334 0.664466 0.279024
O O5 0.764653 0.743220 0.229436
O O6 0.507715 0.717524 0.249040
O O7 0.705185 0.652754 0.225820
O O8 0.629826 0.708329 0.000000
O O9 0.829404 0.059217 0.274319
O O10 0.919918 0.073139 0.000000
O O11 0.000000 0.000000 0.159494
O O12 0.008358 0.557665 0.500000
O O13 0.000000 0.500000 0.267136
O O14 0.910375 0.592567 0.256201
O O15 0.112301 0.215637 0.000000
O O16 0.704210 0.100028 0.500000
#
# Coordination Sequence:
#
# PCOD8236685 Si02
#       6
#     8   8   8   8   8   8
#     4   9  18  34  57  84 110 142 188 239 284 328
#     4  10  23  40  58  86 119 149 188 239 288 342
#     4  10  19  35  61  87 110 143 191 240 281 329
#     4  10  21  38  60  86 115 150 197 244 282 328
#     4  10  21  39  61  84 112 148 195 241 284 340
#     4  11  23  38  55  83 123 155 184 228 289 354
#
# _framework density 19.554751
#
# number of rings (size 3 to 8) (size 9 to 14) (size 15 to 20)
#    0.000    2.000    1.667    1.500    2.333    4.667 
#    0.000    1.667    0.000    0.000    0.000    0.000 
#    0.000    0.000    0.000    0.000    0.000    0.000 
#
# Total GULP energy -595181.860381 kJ/mol
# GULP energy per Si atom -12399.622091 kJ/mol
# Density = 1.951024 g / cm^3
# Si number density = 19.554751 Si / 1000 Ang^3
#
#
#
# Elastic Constant Matrix: (Units=GPa)
#
#
# Indices 1 2 3 4 5 6 
#
# 1 123.3268 40.8365 29.4778 0.0000 0.0000 0.0000
# 2 40.8365 91.3098 27.7339 0.0000 0.0000 0.0000
# 3 29.4778 27.7339 30.7789 0.0000 0.0000 0.0000
# 4 0.0000 0.0000 0.0000 -12.3569 0.0000 0.0000
# 5 0.0000 0.0000 0.0000 0.0000 17.7922 0.0000
# 6 0.0000 0.0000 0.0000 0.0000 0.0000 42.9602
#
#
#
# Elastic Compliance Matrix: (Units=1/GPa)
#
#
# Indices 1 2 3 4 5 6 
#
# 1 0.010867 -0.002339 -0.008300 0.000000 0.000000 0.000000
# 2 -0.002339 0.015582 -0.011800 0.000000 0.000000 0.000000
# 3 -0.008300 -0.011800 0.051072 0.000000 0.000000 0.000000
# 4 0.000000 0.000000 0.000000 -0.080926 0.000000 0.000000
# 5 0.000000 0.000000 0.000000 0.000000 0.056205 0.000000
# 6 0.000000 0.000000 0.000000 0.000000 0.000000 0.023277
#
#
# Mechanical properties :
#
#
# Convention : Reuss Voigt Hill
#
# Bulk Modulus (GPa) = 30.63525 49.05686 39.84605
# Shear Modulus (GPa) = 37.92621 19.50358 28.71489
#
# Velocity S-wave (km/s) = 4.40874 3.16156 3.83617
# Velocity P-wave (km/s) = 6.45108 6.20231 6.32792
#
# Compressibility (1/GPa) = 0.03264213
#
# Stress axis : x y z
#
# Youngs Moduli (GPa) = 92.02242 64.17685 19.58037
#
# Poissons Ratio (x) = 0.15011 0.16252
# Poissons Ratio (y) = 0.21525 0.23105
# Poissons Ratio (z) = 0.76378 0.75730
#
# Static dielectric constant tensor:
#      x y z
#    x 3.953270 0.000000 0.000000 
#    y 0.000000 3.778600 0.000000 
#    z 0.000000 0.000000 3.281620 
# 
# 
# High freq. dielectric constant tensor:
#      x y z
#    x 1.775450 0.000000 0.000000 
#    y 0.000000 1.773310 0.000000 
#    z 0.000000 0.000000 1.730470 
# 
# From -- ./inp_files/2933.got.cif
#   From: 2010.06.25/outbox.cif.g09.slc.cpg/sg58_2_cif.got.tgz:2933.got - 2010.06.26 21:38:00.
