data_PCOD8236045
_publ_section_title
;
Structure prediction by ZEFSAII (Michael W. Deem and Ramdas Pophale) SiO2 
 PCOD8236045
Probable space group: P N N M
;
_chemical_formula_sum "Si O2"
_cell_formula_units_Z 64
_cell_length_a 29.470322
_cell_length_b 11.973466
_cell_length_c 9.398569
_cell_angle_alpha 90.000000
_cell_angle_beta 90.000000
_cell_angle_gamma 90.000000
_cell_volume 3316.396900
_symmetry_space_group_name_H-M "P N N M"
_symmetry_group_IT_number 58
_symmetry_cell_setting 'orthorhombic'
loop_
_space_group_symop_operation_xyz
x,y,z
-x,-y,z
1/2+x,1/2-y,1/2-z
1/2-x,1/2+y,1/2-z
-x,-y,-z
x,y,-z
1/2-x,1/2+y,1/2+z
1/2+x,1/2-y,1/2+z
loop_
_atom_site_type_symbol
_atom_site_label
_atom_site_fract_x
_atom_site_fract_y
_atom_site_fract_z
Si Si1 0.923773 0.039469 0.338642
Si Si2 0.336013 0.746073 0.169216
Si Si3 0.031194 0.727382 0.335615
Si Si4 0.183070 0.461638 0.163068
Si Si5 0.782299 0.974299 0.336887
Si Si6 0.563253 0.293505 0.165430
Si Si7 0.343469 0.379071 0.332675
Si Si8 0.613146 0.852819 0.333990
O O1 0.904073 0.039539 0.500000
O O2 0.956959 0.142675 0.315029
O O3 0.882654 0.041522 0.227957
O O4 0.949435 0.923401 0.308431
O O5 0.313225 0.854091 0.237912
O O6 0.306515 0.638964 0.216858
O O7 0.387591 0.736749 0.230818
O O8 0.334979 0.758640 0.000000
O O9 0.034872 0.691397 0.500000
O O10 0.065080 0.648556 0.247737
O O11 0.979116 0.718389 0.276744
O O12 0.228141 0.537010 0.181086
O O13 0.139983 0.536019 0.209777
O O14 0.177754 0.422996 0.000000
O O15 0.795626 0.997630 0.500000
O O16 0.797367 0.081189 0.243118
O O17 0.566321 0.268689 0.000000
O O18 0.338509 0.395339 0.500000
O O19 0.355216 0.251794 0.290991
O O20 0.601923 0.848383 0.500000
#
# Coordination Sequence:
#
# PCOD8236045 Si02
#       8
#     8   8   8   8   8   8   8   8
#     4   9  15  28  49  75 111 148 177 216 271 326
#     4  10  21  38  60  83 111 144 181 224 276 329
#     4   9  17  29  53  83 108 140 187 230 267 320
#     4  10  23  41  59  78 107 146 187 228 271 324
#     4  10  21  38  59  81 108 143 179 221 278 334
#     4   9  16  30  52  80 111 144 180 224 276 326
#     4  10  19  31  53  82 110 141 178 221 268 322
#     4   9  20  38  55  75 110 150 182 221 275 325
#
# _framework density 19.298052999999999
#
# number of rings (size 3 to 8) (size 9 to 14) (size 15 to 20)
#    0.000    2.500    1.250    0.750    1.750    3.500 
#    0.000    1.875    0.000    6.750    0.000    0.000 
#    0.000    0.000    0.000    0.000    0.000    0.000 
#
# Total GULP energy -793304.396581 kJ/mol
# GULP energy per Si atom -12395.381197 kJ/mol
# Density = 1.925413 g / cm^3
# Si number density = 19.298053 Si / 1000 Ang^3
#
#
#
# Elastic Constant Matrix: (Units=GPa)
#
#
# Indices 1 2 3 4 5 6 
#
# 1 101.8161 30.9793 24.9720 0.0000 0.0000 0.0000
# 2 30.9793 67.8569 25.5993 0.0000 0.0000 0.0000
# 3 24.9720 25.5993 43.5541 0.0000 0.0000 0.0000
# 4 0.0000 0.0000 0.0000 25.5000 0.0000 0.0000
# 5 0.0000 0.0000 0.0000 0.0000 24.2629 0.0000
# 6 0.0000 0.0000 0.0000 0.0000 0.0000 20.8424
#
#
#
# Elastic Compliance Matrix: (Units=1/GPa)
#
#
# Indices 1 2 3 4 5 6 
#
# 1 0.012126 -0.003743 -0.004753 0.000000 0.000000 0.000000
# 2 -0.003743 0.020091 -0.009662 0.000000 0.000000 0.000000
# 3 -0.004753 -0.009662 0.031364 0.000000 0.000000 0.000000
# 4 0.000000 0.000000 0.000000 0.039216 0.000000 0.000000
# 5 0.000000 0.000000 0.000000 0.000000 0.041215 0.000000
# 6 0.000000 0.000000 0.000000 0.000000 0.000000 0.047979
#
#
# Mechanical properties :
#
#
# Convention : Reuss Voigt Hill
#
# Bulk Modulus (GPa) = 36.67725 41.81425 39.24575
# Shear Modulus (GPa) = 21.06186 22.89949 21.98068
#
# Velocity S-wave (km/s) = 3.30722 3.44848 3.37858
# Velocity P-wave (km/s) = 5.79918 6.12949 5.96662
#
# Compressibility (1/GPa) = 0.02726486
#
# Stress axis : x y z
#
# Youngs Moduli (GPa) = 82.46618 49.77357 31.88362
#
# Poissons Ratio (x) = 0.18631 0.15153
# Poissons Ratio (y) = 0.30868 0.30808
# Poissons Ratio (z) = 0.39192 0.48094
#
# Static dielectric constant tensor:
#      x y z
#    x 3.778460 0.000000 0.000000 
#    y 0.000000 3.327470 0.000000 
#    z 0.000000 0.000000 3.312730 
# 
# 
# High freq. dielectric constant tensor:
#      x y z
#    x 1.759690 0.000000 0.000000 
#    y 0.000000 1.733490 0.000000 
#    z 0.000000 0.000000 1.724870 
# 
# From -- ./inp_files/11071.got.cif
#   From: 2010.06.25/outbox.cif.g09.slc.cpg/sg58_6_cif.got.tgz:11071.got - 2010.06.26 21:38:00.
