data_PCOD8236858
_publ_section_title
;
Structure prediction by ZEFSAII (Michael W. Deem and Ramdas Pophale) SiO2 
 PCOD8236858
Probable space group: P N N M
;
_chemical_formula_sum "Si O2"
_cell_formula_units_Z 64
_cell_length_a 8.491329
_cell_length_b 27.902953
_cell_length_c 13.451330
_cell_angle_alpha 90.000000
_cell_angle_beta 90.000000
_cell_angle_gamma 90.000000
_cell_volume 3187.066042
_symmetry_space_group_name_H-M "P N N M"
_symmetry_group_IT_number 58
_symmetry_cell_setting 'orthorhombic'
loop_
_space_group_symop_operation_xyz
x,y,z
-x,-y,z
1/2+x,1/2-y,1/2-z
1/2-x,1/2+y,1/2-z
-x,-y,-z
x,y,-z
1/2-x,1/2+y,1/2+z
1/2+x,1/2-y,1/2+z
loop_
_atom_site_type_symbol
_atom_site_label
_atom_site_fract_x
_atom_site_fract_y
_atom_site_fract_z
Si Si1 0.064063 0.660815 0.613606
Si Si2 0.318028 0.988944 0.110079
Si Si3 0.747503 0.217558 0.889045
Si Si4 0.728187 0.316585 0.210320
Si Si5 0.080077 0.858153 0.768620
Si Si6 0.619971 0.092270 0.250103
Si Si7 0.102972 0.046653 0.234472
Si Si8 0.659279 0.909761 0.616199
O O1 0.111589 0.649083 0.500000
O O2 0.934374 0.702487 0.618214
O O3 0.993028 0.613746 0.665010
O O4 0.218750 0.676623 0.674869
O O5 0.284572 0.950034 0.195662
O O6 0.500000 0.000000 0.108424
O O7 0.219219 0.035685 0.142239
O O8 0.262322 0.972210 0.000000
O O9 0.772598 0.262960 0.818587
O O10 0.865799 0.174363 0.861435
O O11 0.789961 0.233353 0.000000
O O12 0.540750 0.327297 0.201208
O O13 0.821147 0.353125 0.138412
O O14 0.996095 0.907410 0.802384
O O15 0.243234 0.871413 0.710171
O O16 0.512692 0.074505 0.341786
O O17 0.202079 0.059758 0.333000
O O18 0.000000 0.000000 0.260468
O O19 0.664014 0.920399 0.500000
#
# Coordination Sequence:
#
# PCOD8236858 Si02
#       8
#     8   8   8   8   8   8   8   8
#     4   9  19  34  55  80 110 151 193 237 298 365
#     4  11  22  37  61  87 119 167 210 244 305 372
#     4  10  20  36  58  84 117 157 199 243 302 371
#     4  10  20  37  60  85 120 154 194 257 308 360
#     4  10  22  37  60  88 121 158 198 252 309 360
#     4  10  19  39  58  81 120 154 199 254 298 356
#     4  11  22  40  61  89 133 162 201 258 304 358
#     4  10  22  40  63  88 116 163 211 252 302 365
#
# _framework density 20.081164999999999
#
# number of rings (size 3 to 8) (size 9 to 14) (size 15 to 20)
#    0.000    1.875    2.500    1.500    0.000    2.000 
#    0.000    4.375    0.000    6.000    0.000    0.000 
#    0.000    0.000    0.000    0.000    0.000    0.000 
#
# Total GULP energy -793297.087264 kJ/mol
# GULP energy per Si atom -12395.266989 kJ/mol
# Density = 2.003546 g / cm^3
# Si number density = 20.081165 Si / 1000 Ang^3
#
#
#
# Elastic Constant Matrix: (Units=GPa)
#
#
# Indices 1 2 3 4 5 6 
#
# 1 108.7892 45.3593 54.9362 0.0000 0.0000 0.0000
# 2 45.3593 107.1326 41.4083 0.0000 0.0000 0.0000
# 3 54.9362 41.4083 125.0990 0.0000 0.0000 0.0000
# 4 0.0000 0.0000 0.0000 24.2961 0.0000 0.0000
# 5 0.0000 0.0000 0.0000 0.0000 15.3733 0.0000
# 6 0.0000 0.0000 0.0000 0.0000 0.0000 27.3985
#
#
#
# Elastic Compliance Matrix: (Units=1/GPa)
#
#
# Indices 1 2 3 4 5 6 
#
# 1 0.013028 -0.003789 -0.004467 0.000000 0.000000 0.000000
# 2 -0.003789 0.011806 -0.002244 0.000000 0.000000 0.000000
# 3 -0.004467 -0.002244 0.010698 0.000000 0.000000 0.000000
# 4 0.000000 0.000000 0.000000 0.041159 0.000000 0.000000
# 5 0.000000 0.000000 0.000000 0.000000 0.065048 0.000000
# 6 0.000000 0.000000 0.000000 0.000000 0.000000 0.036498
#
#
# Mechanical properties :
#
#
# Convention : Reuss Voigt Hill
#
# Bulk Modulus (GPa) = 68.81462 69.38094 69.09778
# Shear Modulus (GPa) = 24.50022 26.70138 25.60080
#
# Velocity S-wave (km/s) = 3.49672 3.65042 3.57440
# Velocity P-wave (km/s) = 7.11656 7.23828 7.17768
#
# Compressibility (1/GPa) = 0.01453180
#
# Stress axis : x y z
#
# Youngs Moduli (GPa) = 76.75980 84.70367 93.47673
#
# Poissons Ratio (x) = 0.32098 0.41753
# Poissons Ratio (y) = 0.29087 0.20973
# Poissons Ratio (z) = 0.34286 0.19005
#
# Static dielectric constant tensor:
#      x y z
#    x 3.877000 0.000000 0.000000 
#    y 0.000000 3.691970 0.000000 
#    z 0.000000 0.000000 3.401140 
# 
# 
# High freq. dielectric constant tensor:
#      x y z
#    x 1.796170 0.000000 0.000000 
#    y 0.000000 1.787390 0.000000 
#    z 0.000000 0.000000 1.750310 
# 
# From -- ./inp_files/13403.got.cif
#   From: 2010.06.25/outbox.cif.g09.slc.cpg/sg58_7_cif.got.tgz:13403.got - 2010.06.26 21:38:00.
