data_PCOD8236177
_publ_section_title
;
Structure prediction by ZEFSAII (Michael W. Deem and Ramdas Pophale) SiO2 
 PCOD8236177
Probable space group: P N N M
;
_chemical_formula_sum "Si O2"
_cell_formula_units_Z 64
_cell_length_a 20.609211
_cell_length_b 19.424197
_cell_length_c 8.704950
_cell_angle_alpha 90.000000
_cell_angle_beta 90.000000
_cell_angle_gamma 90.000000
_cell_volume 3484.742729
_symmetry_space_group_name_H-M "P N N M"
_symmetry_group_IT_number 58
_symmetry_cell_setting 'orthorhombic'
loop_
_space_group_symop_operation_xyz
x,y,z
-x,-y,z
1/2+x,1/2-y,1/2-z
1/2-x,1/2+y,1/2-z
-x,-y,-z
x,y,-z
1/2-x,1/2+y,1/2+z
1/2+x,1/2-y,1/2+z
loop_
_atom_site_type_symbol
_atom_site_label
_atom_site_fract_x
_atom_site_fract_y
_atom_site_fract_z
Si Si1 0.379169 0.581214 0.679292
Si Si2 0.058608 0.218243 0.182007
Si Si3 0.824376 0.701411 0.679450
Si Si4 0.244077 0.580356 0.174814
Si Si5 0.373315 0.429503 0.681914
Si Si6 0.073038 0.799090 0.320418
Si Si7 0.191328 0.723734 0.823638
Si Si8 0.733304 0.073340 0.678902
O O1 0.388009 0.585818 0.500000
O O2 0.423012 0.642185 0.749097
O O3 0.304439 0.595186 0.716425
O O4 0.399561 0.504653 0.735944
O O5 0.114198 0.271653 0.227058
O O6 0.991221 0.240091 0.261778
O O7 0.049693 0.219471 0.000000
O O8 0.839078 0.707702 0.500000
O O9 0.760625 0.744931 0.725706
O O10 0.814979 0.621805 0.725952
O O11 0.191921 0.641017 0.199468
O O12 0.212638 0.505924 0.212001
O O13 0.270170 0.580913 0.000000
O O14 0.361708 0.427648 0.500000
O O15 0.424826 0.372342 0.732367
O O16 0.306170 0.412360 0.765466
O O17 0.069626 0.812498 0.500000
O O18 0.135454 0.752962 0.283880
O O19 0.176189 0.743783 0.000000
O O20 0.728704 0.091803 0.500000
#
# Coordination Sequence:
#
# PCOD8236177 Si02
#       8
#     8   8   8   8   8   8   8   8
#     4   9  19  33  53  79 108 144 184 224 268 323
#     4  11  23  39  57  79 111 148 187 231 279 330
#     4  11  21  35  58  84 113 147 184 226 275 326
#     4   9  18  33  55  82 111 142 178 225 274 323
#     4  10  19  34  53  77 110 147 185 224 270 321
#     4  12  25  38  54  79 111 148 190 231 275 329
#     4  10  20  36  58  82 111 146 183 226 277 326
#     4  10  19  32  54  84 113 142 181 225 272 322
#
# _framework density 18.365776
#
# number of rings (size 3 to 8) (size 9 to 14) (size 15 to 20)
#    0.000    1.750    2.500    2.625    0.000    3.000 
#    0.000    2.500    0.000    0.750    0.000    5.250 
#    0.000    0.000    0.000    0.000    0.000    0.000 
#
# Total GULP energy -793619.033507 kJ/mol
# GULP energy per Si atom -12400.297399 kJ/mol
# Density = 1.832397 g / cm^3
# Si number density = 18.365776 Si / 1000 Ang^3
#
#
#
# Elastic Constant Matrix: (Units=GPa)
#
#
# Indices 1 2 3 4 5 6 
#
# 1 69.0312 31.4501 20.7353 0.0000 0.0000 0.0000
# 2 31.4501 93.5797 25.3924 0.0000 0.0000 0.0000
# 3 20.7353 25.3924 44.0109 0.0000 0.0000 0.0000
# 4 0.0000 0.0000 0.0000 24.8882 0.0000 0.0000
# 5 0.0000 0.0000 0.0000 0.0000 28.4338 0.0000
# 6 0.0000 0.0000 0.0000 0.0000 0.0000 19.1931
#
#
#
# Elastic Compliance Matrix: (Units=1/GPa)
#
#
# Indices 1 2 3 4 5 6 
#
# 1 0.018365 -0.004534 -0.006037 0.000000 0.000000 0.000000
# 2 -0.004534 0.013789 -0.005819 0.000000 0.000000 0.000000
# 3 -0.006037 -0.005819 0.028923 0.000000 0.000000 0.000000
# 4 0.000000 0.000000 0.000000 0.040180 0.000000 0.000000
# 5 0.000000 0.000000 0.000000 0.000000 0.035169 0.000000
# 6 0.000000 0.000000 0.000000 0.000000 0.000000 0.052102
#
#
# Mechanical properties :
#
#
# Convention : Reuss Voigt Hill
#
# Bulk Modulus (GPa) = 35.33928 40.19751 37.76839
# Shear Modulus (GPa) = 21.66930 23.10596 22.38763
#
# Velocity S-wave (km/s) = 3.43866 3.55082 3.49519
# Velocity P-wave (km/s) = 5.92026 6.22461 6.07434
#
# Compressibility (1/GPa) = 0.02829713
#
# Stress axis : x y z
#
# Youngs Moduli (GPa) = 54.45087 72.52166 34.57423
#
# Poissons Ratio (x) = 0.32882 0.20871
# Poissons Ratio (y) = 0.24689 0.20120
# Poissons Ratio (z) = 0.32870 0.42204
#
# Static dielectric constant tensor:
#      x y z
#    x 3.110970 0.000000 0.000000 
#    y 0.000000 3.723600 0.000000 
#    z 0.000000 0.000000 3.363620 
# 
# 
# High freq. dielectric constant tensor:
#      x y z
#    x 1.680990 0.000000 0.000000 
#    y 0.000000 1.719060 0.000000 
#    z 0.000000 0.000000 1.716300 
# 
# From -- ./inp_files/8426.got.cif
#   From: 2010.06.25/outbox.cif.g09.slc.cpg/sg58_5_cif.got.tgz:8426.got - 2010.06.26 21:38:00.
