data_PCOD8236909
_publ_section_title
;
Structure prediction by ZEFSAII (Michael W. Deem and Ramdas Pophale) SiO2 
 PCOD8236909
Probable space group: P N N M
;
_chemical_formula_sum "Si O2"
_cell_formula_units_Z 48
_cell_length_a 29.090722
_cell_length_b 10.135790
_cell_length_c 9.217951
_cell_angle_alpha 90.000000
_cell_angle_beta 90.000000
_cell_angle_gamma 90.000000
_cell_volume 2717.981518
_symmetry_space_group_name_H-M "P N N M"
_symmetry_group_IT_number 58
_symmetry_cell_setting 'orthorhombic'
loop_
_space_group_symop_operation_xyz
x,y,z
-x,-y,z
1/2+x,1/2-y,1/2-z
1/2-x,1/2+y,1/2-z
-x,-y,-z
x,y,-z
1/2-x,1/2+y,1/2+z
1/2+x,1/2-y,1/2+z
loop_
_atom_site_type_symbol
_atom_site_label
_atom_site_fract_x
_atom_site_fract_y
_atom_site_fract_z
Si Si1 0.223778 0.375512 0.331908
Si Si2 0.941667 0.866831 0.171654
Si Si3 0.215393 0.634918 0.831160
Si Si4 0.390115 0.107581 0.670448
Si Si5 0.382264 0.843355 0.830557
Si Si6 0.545277 0.661331 0.329078
O O1 0.232205 0.403696 0.500000
O O2 0.236266 0.508439 0.248206
O O3 0.257857 0.262889 0.273220
O O4 0.171831 0.331033 0.300893
O O5 0.904509 0.785109 0.260150
O O6 0.992358 0.813750 0.213427
O O7 0.937389 0.018406 0.225306
O O8 0.932681 0.852998 0.000000
O O9 0.161701 0.653130 0.796215
O O10 0.224560 0.614125 0.000000
O O11 0.397968 0.082387 0.500000
O O12 0.423245 0.221559 0.734207
O O13 0.402463 0.973815 0.754477
O O14 0.393914 0.849916 0.000000
O O15 0.550164 0.659814 0.500000
#
# Coordination Sequence:
#
# PCOD8236909 Si02
#       6
#     8   8   8   8   8   8
#     4   9  19  34  49  69  99 128 154 192 238 278
#     4   9  17  32  52  72  94 122 158 197 238 282
#     4   9  18  32  50  71  93 121 159 195 228 277
#     4   9  17  32  52  71  92 121 158 196 233 276
#     4  10  20  33  47  68 100 131 157 189 232 280
#     4   8  16  31  51  73  95 119 153 201 245 277
#
# _framework density 17.660164999999999
#
# number of rings (size 3 to 8) (size 9 to 14) (size 15 to 20)
#    0.000    3.000    0.000    1.500    0.000    3.333 
#    0.000    8.333    0.000    0.000    0.000    0.000 
#    0.000    0.000    0.000    0.000    0.000    0.000 
#
# Total GULP energy -595186.392872 kJ/mol
# GULP energy per Si atom -12399.716518 kJ/mol
# Density = 1.761997 g / cm^3
# Si number density = 17.660165 Si / 1000 Ang^3
#
#
#
# Elastic Constant Matrix: (Units=GPa)
#
#
# Indices 1 2 3 4 5 6 
#
# 1 36.7709 22.5133 17.5070 0.0000 0.0000 0.0000
# 2 22.5133 69.4313 26.0822 0.0000 0.0000 0.0000
# 3 17.5070 26.0822 42.0297 0.0000 0.0000 0.0000
# 4 0.0000 0.0000 0.0000 23.7252 0.0000 0.0000
# 5 0.0000 0.0000 0.0000 0.0000 19.1778 0.0000
# 6 0.0000 0.0000 0.0000 0.0000 0.0000 41.1044
#
#
#
# Elastic Compliance Matrix: (Units=1/GPa)
#
#
# Indices 1 2 3 4 5 6 
#
# 1 0.037133 -0.008124 -0.010426 0.000000 0.000000 0.000000
# 2 -0.008124 0.020558 -0.009374 0.000000 0.000000 0.000000
# 3 -0.010426 -0.009374 0.033953 0.000000 0.000000 0.000000
# 4 0.000000 0.000000 0.000000 0.042149 0.000000 0.000000
# 5 0.000000 0.000000 0.000000 0.000000 0.052144 0.000000
# 6 0.000000 0.000000 0.000000 0.000000 0.000000 0.024328
#
#
# Mechanical properties :
#
#
# Convention : Reuss Voigt Hill
#
# Bulk Modulus (GPa) = 27.93563 31.15966 29.54765
# Shear Modulus (GPa) = 17.98269 22.27677 20.12973
#
# Velocity S-wave (km/s) = 3.19448 3.55549 3.37981
# Velocity P-wave (km/s) = 5.42762 5.87688 5.65671
#
# Compressibility (1/GPa) = 0.03579657
#
# Stress axis : x y z
#
# Youngs Moduli (GPa) = 26.92996 48.64224 29.45286
#
# Poissons Ratio (x) = 0.39517 0.30708
# Poissons Ratio (y) = 0.21878 0.27608
# Poissons Ratio (z) = 0.28077 0.45596
#
# Static dielectric constant tensor:
#      x y z
#    x 3.375160 0.000000 0.000000 
#    y 0.000000 3.529400 0.000000 
#    z 0.000000 0.000000 3.060360 
# 
# 
# High freq. dielectric constant tensor:
#      x y z
#    x 1.680550 0.000000 0.000000 
#    y 0.000000 1.690900 0.000000 
#    z 0.000000 0.000000 1.660780 
# 
# From -- ./inp_files/2952.got.cif
#   From: 2010.06.25/outbox.cif.g09.slc.cpg/sg58_2_cif.got.tgz:2952.got - 2010.06.26 21:38:00.
