data_PCOD8236796
_publ_section_title
;
Structure prediction by ZEFSAII (Michael W. Deem and Ramdas Pophale) SiO2 
 PCOD8236796
Probable space group: P N N M
;
_chemical_formula_sum "Si O2"
_cell_formula_units_Z 40
_cell_length_a 16.419531
_cell_length_b 7.326346
_cell_length_c 16.957315
_cell_angle_alpha 90.000000
_cell_angle_beta 90.000000
_cell_angle_gamma 90.000000
_cell_volume 2039.883010
_symmetry_space_group_name_H-M "P N N M"
_symmetry_group_IT_number 58
_symmetry_cell_setting 'orthorhombic'
loop_
_space_group_symop_operation_xyz
x,y,z
-x,-y,z
1/2+x,1/2-y,1/2-z
1/2-x,1/2+y,1/2-z
-x,-y,-z
x,y,-z
1/2-x,1/2+y,1/2+z
1/2+x,1/2-y,1/2+z
loop_
_atom_site_type_symbol
_atom_site_label
_atom_site_fract_x
_atom_site_fract_y
_atom_site_fract_z
Si Si1 0.023859 0.298311 0.822467
Si Si2 0.326566 0.710693 0.588366
Si Si3 0.412446 0.552922 0.815827
Si Si4 0.240265 0.077222 0.408943
Si Si5 0.353487 0.352407 0.322807
O O1 0.086348 0.305731 0.895050
O O2 0.070757 0.208836 0.748750
O O3 0.000000 0.500000 0.795521
O O4 0.945907 0.182796 0.852740
O O5 0.325170 0.638038 0.500000
O O6 0.312278 0.533352 0.641599
O O7 0.256843 0.861974 0.601600
O O8 0.500000 0.500000 0.853158
O O9 0.353625 0.619086 0.886142
O O10 0.365161 0.384268 0.771564
O O11 0.255560 0.138087 0.500000
O O12 0.297220 0.183066 0.346478
#
# Coordination Sequence:
#
# PCOD8236796 Si02
#       5
#     8   8   8   8   8
#     4  10  19  37  59  86 116 154 196 235 291 354
#     4  10  21  35  54  86 122 152 186 235 295 353
#     4   9  22  40  59  86 115 155 199 242 289 338
#     4  11  23  38  60  88 118 156 196 242 295 344
#     4  10  21  36  60  85 118 152 196 243 287 348
#
# _framework density 19.608968000000001
#
# number of rings (size 3 to 8) (size 9 to 14) (size 15 to 20)
#    0.000    2.000    2.000    2.400    5.600    3.200 
#    3.600    0.000    0.000    0.600    0.000    0.000 
#    0.000    0.000    0.000    0.000    0.000    0.000 
#
# Total GULP energy -495722.039250 kJ/mol
# GULP energy per Si atom -12393.050981 kJ/mol
# Density = 1.956434 g / cm^3
# Si number density = 19.608968 Si / 1000 Ang^3
#
#
#
# Elastic Constant Matrix: (Units=GPa)
#
#
# Indices 1 2 3 4 5 6 
#
# 1 99.1314 14.1420 37.3312 0.0000 0.0000 0.0000
# 2 14.1420 70.2199 15.8916 0.0000 0.0000 0.0000
# 3 37.3312 15.8916 45.0444 0.0000 0.0000 0.0000
# 4 0.0000 0.0000 0.0000 14.3542 0.0000 0.0000
# 5 0.0000 0.0000 0.0000 0.0000 25.4398 0.0000
# 6 0.0000 0.0000 0.0000 0.0000 0.0000 22.7792
#
#
#
# Elastic Compliance Matrix: (Units=1/GPa)
#
#
# Indices 1 2 3 4 5 6 
#
# 1 0.014667 -0.000221 -0.012078 0.000000 0.000000 0.000000
# 2 -0.000221 0.015480 -0.005279 0.000000 0.000000 0.000000
# 3 -0.012078 -0.005279 0.034072 0.000000 0.000000 0.000000
# 4 0.000000 0.000000 0.000000 0.069666 0.000000 0.000000
# 5 0.000000 0.000000 0.000000 0.000000 0.039308 0.000000
# 6 0.000000 0.000000 0.000000 0.000000 0.000000 0.043900
#
#
# Mechanical properties :
#
#
# Convention : Reuss Voigt Hill
#
# Bulk Modulus (GPa) = 34.40493 38.79169 36.59831
# Shear Modulus (GPa) = 19.08859 22.31672 20.70265
#
# Velocity S-wave (km/s) = 3.12342 3.37721 3.25279
# Velocity P-wave (km/s) = 5.53094 5.91887 5.72819
#
# Compressibility (1/GPa) = 0.02906560
#
# Stress axis : x y z
#
# Youngs Moduli (GPa) = 68.17810 64.59951 29.34929
#
# Poissons Ratio (x) = 0.01425 0.35448
# Poissons Ratio (y) = 0.01504 0.15492
# Poissons Ratio (z) = 0.82346 0.34099
#
# Static dielectric constant tensor:
#      x y z
#    x 3.605200 0.000000 0.000000 
#    y 0.000000 3.571740 0.000000 
#    z 0.000000 0.000000 3.346640 
# 
# 
# High freq. dielectric constant tensor:
#      x y z
#    x 1.763360 0.000000 0.000000 
#    y 0.000000 1.761930 0.000000 
#    z 0.000000 0.000000 1.736470 
# 
# From -- ./inp_files/25116.got.cif
#   From: 2010.06.25/outbox.cif.g09.slc.cpg/sg58_13_cif.got.tgz:25116.got - 2010.06.26 21:38:00.
