data_PCOD8236495
_publ_section_title
;
Structure prediction by ZEFSAII (Michael W. Deem and Ramdas Pophale) SiO2 
 PCOD8236495
Probable space group: P N N M
;
_chemical_formula_sum "Si O2"
_cell_formula_units_Z 48
_cell_length_a 14.107093
_cell_length_b 20.306896
_cell_length_c 8.882670
_cell_angle_alpha 90.000000
_cell_angle_beta 90.000000
_cell_angle_gamma 90.000000
_cell_volume 2544.629760
_symmetry_space_group_name_H-M "P N N M"
_symmetry_group_IT_number 58
_symmetry_cell_setting 'orthorhombic'
loop_
_space_group_symop_operation_xyz
x,y,z
-x,-y,z
1/2+x,1/2-y,1/2-z
1/2-x,1/2+y,1/2-z
-x,-y,-z
x,y,-z
1/2-x,1/2+y,1/2+z
1/2+x,1/2-y,1/2+z
loop_
_atom_site_type_symbol
_atom_site_label
_atom_site_fract_x
_atom_site_fract_y
_atom_site_fract_z
Si Si1 0.538959 0.927596 0.173817
Si Si2 0.955614 0.194932 0.178482
Si Si3 0.448023 0.564300 0.678749
Si Si4 0.420674 0.816193 0.677361
Si Si5 0.245853 0.758618 0.178444
Si Si6 0.252040 0.115910 0.823567
O O1 0.476486 0.881436 0.278564
O O2 0.650011 0.921020 0.219617
O O3 0.500000 0.000000 0.205130
O O4 0.525293 0.907691 0.000000
O O5 0.851334 0.210062 0.238954
O O6 0.995429 0.126866 0.245646
O O7 0.021317 0.253605 0.235788
O O8 0.956350 0.192106 0.000000
O O9 0.500000 0.500000 0.747550
O O10 0.456671 0.562923 0.500000
O O11 0.336647 0.569247 0.724800
O O12 0.403817 0.815776 0.500000
O O13 0.321427 0.811430 0.762695
O O14 0.258897 0.685548 0.242114
O O15 0.248963 0.753770 0.000000
O O16 0.246731 0.130941 0.000000
#
# Coordination Sequence:
#
# PCOD8236495 Si02
#       6
#     8   8   8   8   8   8
#     4  10  22  38  57  86 121 153 191 243 296 347
#     4   9  18  32  52  80 110 140 184 234 278 331
#     4   9  17  31  54  82 109 142 183 230 281 336
#     4  11  21  37  58  83 114 149 193 239 284 344
#     4  11  21  34  56  85 114 149 189 238 289 338
#     4  10  19  34  57  83 112 149 191 236 287 345
#
# _framework density 18.863254000000001
#
# number of rings (size 3 to 8) (size 9 to 14) (size 15 to 20)
#    0.000    2.000    3.333    1.000    0.000    1.667 
#    0.000    5.000    0.000    0.500    0.000    0.000 
#    0.000    0.000    0.000    0.000    0.000    0.000 
#
# Total GULP energy -595121.490665 kJ/mol
# GULP energy per Si atom -12398.364389 kJ/mol
# Density = 1.882032 g / cm^3
# Si number density = 18.863254 Si / 1000 Ang^3
#
#
#
# Elastic Constant Matrix: (Units=GPa)
#
#
# Indices 1 2 3 4 5 6 
#
# 1 138.3168 49.4580 27.1060 0.0000 0.0000 0.0000
# 2 49.4580 108.4917 20.3803 0.0000 0.0000 0.0000
# 3 27.1060 20.3803 37.2638 0.0000 0.0000 0.0000
# 4 0.0000 0.0000 0.0000 25.1481 0.0000 0.0000
# 5 0.0000 0.0000 0.0000 0.0000 21.1799 0.0000
# 6 0.0000 0.0000 0.0000 0.0000 0.0000 37.2339
#
#
#
# Elastic Compliance Matrix: (Units=1/GPa)
#
#
# Indices 1 2 3 4 5 6 
#
# 1 0.009409 -0.003348 -0.005014 0.000000 0.000000 0.000000
# 2 -0.003348 0.011464 -0.003835 0.000000 0.000000 0.000000
# 3 -0.005014 -0.003835 0.032580 0.000000 0.000000 0.000000
# 4 0.000000 0.000000 0.000000 0.039765 0.000000 0.000000
# 5 0.000000 0.000000 0.000000 0.000000 0.047215 0.000000
# 6 0.000000 0.000000 0.000000 0.000000 0.000000 0.026857
#
#
# Mechanical properties :
#
#
# Convention : Reuss Voigt Hill
#
# Bulk Modulus (GPa) = 34.41005 53.10676 43.75841
# Shear Modulus (GPa) = 24.83019 29.18757 27.00888
#
# Velocity S-wave (km/s) = 3.63206 3.93787 3.78805
# Velocity P-wave (km/s) = 5.98920 6.99217 6.51003
#
# Compressibility (1/GPa) = 0.02906127
#
# Stress axis : x y z
#
# Youngs Moduli (GPa) = 106.27797 87.23189 30.69384
#
# Poissons Ratio (x) = 0.29202 0.15388
# Poissons Ratio (y) = 0.35578 0.11770
# Poissons Ratio (z) = 0.53283 0.33450
#
# Static dielectric constant tensor:
#      x y z
#    x 3.840540 0.000000 0.000000 
#    y 0.000000 3.549420 0.000000 
#    z 0.000000 0.000000 3.134160 
# 
# 
# High freq. dielectric constant tensor:
#      x y z
#    x 1.753920 0.000000 0.000000 
#    y 0.000000 1.729640 0.000000 
#    z 0.000000 0.000000 1.699350 
# 
# From -- ./inp_files/5850.got.cif
#   From: 2010.06.25/outbox.cif.g09.slc.cpg/sg58_3_cif.got.tgz:5850.got - 2010.06.26 21:38:00.
