data_PCOD8236509
_publ_section_title
;
Structure prediction by ZEFSAII (Michael W. Deem and Ramdas Pophale) SiO2 
 PCOD8236509
Probable space group: P N N M
;
_chemical_formula_sum "Si O2"
_cell_formula_units_Z 40
_cell_length_a 9.051757
_cell_length_b 28.911484
_cell_length_c 7.637230
_cell_angle_alpha 90.000000
_cell_angle_beta 90.000000
_cell_angle_gamma 90.000000
_cell_volume 1998.661011
_symmetry_space_group_name_H-M "P N N M"
_symmetry_group_IT_number 58
_symmetry_cell_setting 'orthorhombic'
loop_
_space_group_symop_operation_xyz
x,y,z
-x,-y,z
1/2+x,1/2-y,1/2-z
1/2-x,1/2+y,1/2-z
-x,-y,-z
x,y,-z
1/2-x,1/2+y,1/2+z
1/2+x,1/2-y,1/2+z
loop_
_atom_site_type_symbol
_atom_site_label
_atom_site_fract_x
_atom_site_fract_y
_atom_site_fract_z
Si Si1 0.932345 0.296801 0.304477
Si Si2 0.074119 0.950374 0.000000
Si Si3 0.611342 0.290033 0.204464
Si Si4 0.922073 0.893348 0.702233
Si Si5 0.078845 0.603436 0.195218
Si Si6 0.574995 0.049416 0.000000
O O1 0.990883 0.306173 0.500000
O O2 0.759684 0.286322 0.314249
O O3 0.966137 0.342416 0.191489
O O4 0.008788 0.251224 0.224548
O O5 0.025133 0.924051 0.824644
O O6 0.249608 0.955726 0.000000
O O7 0.000000 0.000000 0.000000
O O8 0.534858 0.339813 0.236933
O O9 0.649580 0.285188 0.000000
O O10 0.951165 0.906918 0.500000
O O11 0.750135 0.901609 0.751274
O O12 0.974768 0.576000 0.326288
O O13 0.053913 0.583704 0.000000
O O14 0.500000 0.000000 0.000000
#
# Coordination Sequence:
#
# PCOD8236509 Si02
#       6
#     8   4   8   8   8   4
#     4  10  19  34  57  86 123 163 206 253 300 360
#     4  12  26  42  66  94 120 160 204 260 313 372
#     4   9  20  35  53  85 122 161 207 248 301 361
#     4   9  20  41  64  88 123 163 204 254 311 369
#     4  10  21  41  66  90 125 166 205 258 315 369
#     4  12  26  44  66  94 126 158 210 260 313 386
#
# _framework density 20.013397999999999
#
# number of rings (size 3 to 8) (size 9 to 14) (size 15 to 20)
#    0.000    2.000    1.000    3.600    4.200    4.800 
#    0.000    2.000    0.000    0.000    0.000    0.000 
#    0.000    0.000    0.000    0.000    0.000    0.000 
#
# Total GULP energy -495974.689914 kJ/mol
# GULP energy per Si atom -12399.367248 kJ/mol
# Density = 1.996785 g / cm^3
# Si number density = 20.013398 Si / 1000 Ang^3
#
#
#
# Elastic Constant Matrix: (Units=GPa)
#
#
# Indices 1 2 3 4 5 6 
#
# 1 114.0632 77.8766 53.6250 0.0000 0.0000 0.0000
# 2 77.8766 141.2846 52.4750 0.0000 0.0000 0.0000
# 3 53.6250 52.4750 95.6546 0.0000 0.0000 0.0000
# 4 0.0000 0.0000 0.0000 22.2295 0.0000 0.0000
# 5 0.0000 0.0000 0.0000 0.0000 30.3989 0.0000
# 6 0.0000 0.0000 0.0000 0.0000 0.0000 40.5776
#
#
#
# Elastic Compliance Matrix: (Units=1/GPa)
#
#
# Indices 1 2 3 4 5 6 
#
# 1 0.015841 -0.006824 -0.005137 0.000000 0.000000 0.000000
# 2 -0.006824 0.011828 -0.002664 0.000000 0.000000 0.000000
# 3 -0.005137 -0.002664 0.014796 0.000000 0.000000 0.000000
# 4 0.000000 0.000000 0.000000 0.044985 0.000000 0.000000
# 5 0.000000 0.000000 0.000000 0.000000 0.032896 0.000000
# 6 0.000000 0.000000 0.000000 0.000000 0.000000 0.024644
#
#
# Mechanical properties :
#
#
# Convention : Reuss Voigt Hill
#
# Bulk Modulus (GPa) = 75.66559 79.88397 77.77478
# Shear Modulus (GPa) = 27.98852 29.77626 28.88239
#
# Velocity S-wave (km/s) = 3.74369 3.86141 3.80301
# Velocity P-wave (km/s) = 7.52174 7.73838 7.63083
#
# Compressibility (1/GPa) = 0.01321605
#
# Stress axis : x y z
#
# Youngs Moduli (GPa) = 63.12688 84.54246 67.58807
#
# Poissons Ratio (x) = 0.57688 0.34722
# Poissons Ratio (y) = 0.43075 0.18002
# Poissons Ratio (z) = 0.32430 0.22518
#
# Static dielectric constant tensor:
#      x y z
#    x 3.454320 0.000000 0.000000 
#    y 0.000000 3.790340 0.000000 
#    z 0.000000 0.000000 3.574090 
# 
# 
# High freq. dielectric constant tensor:
#      x y z
#    x 1.761490 0.000000 0.000000 
#    y 0.000000 1.784710 0.000000 
#    z 0.000000 0.000000 1.789840 
# 
# From -- ./inp_files/2661.got.cif
#   From: 2010.06.25/outbox.cif.g09.slc.cpg/sg58_2_cif.got.tgz:2661.got - 2010.06.26 21:38:00.
