data_PCOD8236131
_publ_section_title
;
Structure prediction by ZEFSAII (Michael W. Deem and Ramdas Pophale) SiO2 
 PCOD8236131
Probable space group: P N N M
;
_chemical_formula_sum "Si O2"
_cell_formula_units_Z 56
_cell_length_a 14.368495
_cell_length_b 22.521029
_cell_length_c 9.156287
_cell_angle_alpha 90.000000
_cell_angle_beta 90.000000
_cell_angle_gamma 90.000000
_cell_volume 2962.913058
_symmetry_space_group_name_H-M "P N N M"
_symmetry_group_IT_number 58
_symmetry_cell_setting 'orthorhombic'
loop_
_space_group_symop_operation_xyz
x,y,z
-x,-y,z
1/2+x,1/2-y,1/2-z
1/2-x,1/2+y,1/2-z
-x,-y,-z
x,y,-z
1/2-x,1/2+y,1/2+z
1/2+x,1/2-y,1/2+z
loop_
_atom_site_type_symbol
_atom_site_label
_atom_site_fract_x
_atom_site_fract_y
_atom_site_fract_z
Si Si1 0.389884 0.216632 0.333939
Si Si2 0.296292 0.115115 0.829642
Si Si3 0.778448 0.606638 0.173578
Si Si4 0.103488 0.855143 0.830427
Si Si5 0.897352 0.714576 0.169096
Si Si6 0.605905 0.992608 0.327382
Si Si7 0.399904 0.655396 0.328611
O O1 0.359683 0.202388 0.500000
O O2 0.327126 0.180442 0.220888
O O3 0.377322 0.285943 0.300076
O O4 0.495772 0.196030 0.309139
O O5 0.350848 0.065924 0.741466
O O6 0.185040 0.110548 0.796955
O O7 0.316963 0.107635 0.000000
O O8 0.674945 0.604688 0.239441
O O9 0.832262 0.663937 0.240290
O O10 0.834299 0.548673 0.225796
O O11 0.772246 0.608089 0.000000
O O12 0.998714 0.870853 0.773161
O O13 0.115609 0.870958 0.000000
O O14 0.879397 0.779378 0.241698
O O15 0.871263 0.716773 0.000000
O O16 0.608876 0.984562 0.500000
O O17 0.500000 0.000000 0.273056
O O18 0.413855 0.667450 0.500000
#
# Coordination Sequence:
#
# PCOD8236131 Si02
#       7
#     8   8   8   8   8   8   8
#     4   9  17  31  52  77 105 138 171 202 247 310
#     4  11  21  33  53  78 103 133 171 218 260 291
#     4  10  19  32  53  77  99 129 170 215 258 295
#     4   9  18  33  53  76 104 137 170 205 248 305
#     4   8  14  28  51  75 100 132 168 202 242 303
#     4  10  22  40  58  74  98 136 175 207 249 311
#     4   8  16  31  50  74 103 134 166 200 246 303
#
# _framework density 18.900319
#
# number of rings (size 3 to 8) (size 9 to 14) (size 15 to 20)
#    0.000    2.714    0.000    3.857    0.000    4.857 
#    0.000    4.286    0.000    6.857    0.000    0.000 
#    0.000    0.000    0.000    0.000    0.000    0.000 
#
# Total GULP energy -694193.260209 kJ/mol
# GULP energy per Si atom -12396.308218 kJ/mol
# Density = 1.885730 g / cm^3
# Si number density = 18.900319 Si / 1000 Ang^3
#
#
#
# Elastic Constant Matrix: (Units=GPa)
#
#
# Indices 1 2 3 4 5 6 
#
# 1 130.4183 55.7996 28.1206 0.0000 0.0000 0.0000
# 2 55.7996 63.4490 22.5897 0.0000 0.0000 0.0000
# 3 28.1206 22.5897 21.1206 0.0000 0.0000 0.0000
# 4 0.0000 0.0000 0.0000 2.8922 0.0000 0.0000
# 5 0.0000 0.0000 0.0000 0.0000 28.0332 0.0000
# 6 0.0000 0.0000 0.0000 0.0000 0.0000 33.3123
#
#
#
# Elastic Compliance Matrix: (Units=1/GPa)
#
#
# Indices 1 2 3 4 5 6 
#
# 1 0.013134 -0.008599 -0.008290 0.000000 0.000000 0.000000
# 2 -0.008599 0.031083 -0.021796 0.000000 0.000000 0.000000
# 3 -0.008290 -0.021796 0.081697 0.000000 0.000000 0.000000
# 4 0.000000 0.000000 0.000000 0.345753 0.000000 0.000000
# 5 0.000000 0.000000 0.000000 0.000000 0.035672 0.000000
# 6 0.000000 0.000000 0.000000 0.000000 0.000000 0.030019
#
#
# Mechanical properties :
#
#
# Convention : Reuss Voigt Hill
#
# Bulk Modulus (GPa) = 20.59994 47.55642 34.07818
# Shear Modulus (GPa) = 7.92505 20.07941 14.00223
#
# Velocity S-wave (km/s) = 2.04992 3.26296 2.72480
# Velocity P-wave (km/s) = 4.06520 6.27791 5.28857
#
# Compressibility (1/GPa) = 0.04854383
#
# Stress axis : x y z
#
# Youngs Moduli (GPa) = 76.13606 32.17145 12.24039
#
# Poissons Ratio (x) = 0.27666 0.10147
# Poissons Ratio (y) = 0.65473 0.26679
# Poissons Ratio (z) = 0.63116 0.70121
#
# Static dielectric constant tensor:
#      x y z
#    x 3.691160 0.000000 0.000000 
#    y 0.000000 3.335090 0.000000 
#    z 0.000000 0.000000 3.062960 
# 
# 
# High freq. dielectric constant tensor:
#      x y z
#    x 1.750030 0.000000 0.000000 
#    y 0.000000 1.718910 0.000000 
#    z 0.000000 0.000000 1.695880 
# 
# From -- ./inp_files/6310.got.cif
#   From: 2010.06.25/outbox.cif.g09.slc.cpg/sg58_4_cif.got.tgz:6310.got - 2010.06.26 21:38:00.
