data_PCOD8236103
_publ_section_title
;
Structure prediction by ZEFSAII (Michael W. Deem and Ramdas Pophale) SiO2 
 PCOD8236103
Probable space group: P N N M
;
_chemical_formula_sum "Si O2"
_cell_formula_units_Z 48
_cell_length_a 21.942348
_cell_length_b 9.821323
_cell_length_c 13.438703
_cell_angle_alpha 90.000000
_cell_angle_beta 90.000000
_cell_angle_gamma 90.000000
_cell_volume 2896.079295
_symmetry_space_group_name_H-M "P N N M"
_symmetry_group_IT_number 58
_symmetry_cell_setting 'orthorhombic'
loop_
_space_group_symop_operation_xyz
x,y,z
-x,-y,z
1/2+x,1/2-y,1/2-z
1/2-x,1/2+y,1/2-z
-x,-y,-z
x,y,-z
1/2-x,1/2+y,1/2+z
1/2+x,1/2-y,1/2+z
loop_
_atom_site_type_symbol
_atom_site_label
_atom_site_fract_x
_atom_site_fract_y
_atom_site_fract_z
Si Si1 0.721936 0.714189 0.615048
Si Si2 0.212764 0.475241 0.116057
Si Si3 0.335676 0.470308 0.770747
Si Si4 0.966725 0.633743 0.613703
Si Si5 0.154621 0.285713 0.272536
Si Si6 0.451808 0.392046 0.113151
O O1 0.718869 0.679754 0.500000
O O2 0.697724 0.866519 0.637635
O O3 0.678332 0.607029 0.668711
O O4 0.791575 0.692687 0.648463
O O5 0.281555 0.448257 0.150700
O O6 0.166221 0.377720 0.175009
O O7 0.207196 0.440051 0.000000
O O8 0.348497 0.627057 0.743531
O O9 0.393141 0.397049 0.818483
O O10 0.944240 0.615795 0.500000
O O11 0.908840 0.669057 0.680261
O O12 0.000000 0.500000 0.654758
O O13 0.018991 0.745180 0.620878
O O14 0.500000 0.500000 0.154512
O O15 0.433292 0.429782 0.000000
#
# Coordination Sequence:
#
# PCOD8236103 Si02
#       6
#     8   8   8   8   8   8
#     4   9  19  34  53  75 101 134 168 207 251 295
#     4   9  19  34  52  74 102 135 168 205 250 299
#     4  10  19  32  53  78 102 131 168 208 250 297
#     4  10  21  34  50  76 106 135 166 204 251 302
#     4  10  19  33  53  76 104 134 165 205 252 299
#     4  10  19  32  52  76 102 132 165 203 249 300
#
# _framework density 16.574131999999999
#
# number of rings (size 3 to 8) (size 9 to 14) (size 15 to 20)
#    0.000    2.333    1.667    1.000    2.333    2.000 
#    0.000    0.000    0.000    2.000    0.000    0.000 
#    0.000    0.000    0.000    0.000    0.000    0.000 
#
# Total GULP energy -595234.511722 kJ/mol
# GULP energy per Si atom -12400.718994 kJ/mol
# Density = 1.653641 g / cm^3
# Si number density = 16.574132 Si / 1000 Ang^3
#
#
#
# Elastic Constant Matrix: (Units=GPa)
#
#
# Indices 1 2 3 4 5 6 
#
# 1 94.3011 50.8723 57.8314 0.0000 0.0000 0.0000
# 2 50.8723 103.7840 58.2882 0.0000 0.0000 0.0000
# 3 57.8314 58.2882 112.8379 0.0000 0.0000 0.0000
# 4 0.0000 0.0000 0.0000 38.5781 0.0000 0.0000
# 5 0.0000 0.0000 0.0000 0.0000 29.8704 0.0000
# 6 0.0000 0.0000 0.0000 0.0000 0.0000 25.7880
#
#
#
# Elastic Compliance Matrix: (Units=1/GPa)
#
#
# Indices 1 2 3 4 5 6 
#
# 1 0.017043 -0.004857 -0.006225 0.000000 0.000000 0.000000
# 2 -0.004857 0.014958 -0.005237 0.000000 0.000000 0.000000
# 3 -0.006225 -0.005237 0.014758 0.000000 0.000000 0.000000
# 4 0.000000 0.000000 0.000000 0.025921 0.000000 0.000000
# 5 0.000000 0.000000 0.000000 0.000000 0.033478 0.000000
# 6 0.000000 0.000000 0.000000 0.000000 0.000000 0.038778
#
#
# Mechanical properties :
#
#
# Convention : Reuss Voigt Hill
#
# Bulk Modulus (GPa) = 70.82891 71.65633 71.24262
# Shear Modulus (GPa) = 27.43004 28.44270 27.93637
#
# Velocity S-wave (km/s) = 4.07257 4.14707 4.10999
# Velocity P-wave (km/s) = 8.05865 8.13994 8.09940
#
# Compressibility (1/GPa) = 0.01411853
#
# Stress axis : x y z
#
# Youngs Moduli (GPa) = 58.67651 66.85511 67.75879
#
# Poissons Ratio (x) = 0.32475 0.42183
# Poissons Ratio (y) = 0.28502 0.35486
# Poissons Ratio (z) = 0.36529 0.35013
#
# Static dielectric constant tensor:
#      x y z
#    x 2.891590 0.000000 0.000000 
#    y 0.000000 3.290110 0.000000 
#    z 0.000000 0.000000 3.019080 
# 
# 
# High freq. dielectric constant tensor:
#      x y z
#    x 1.630340 0.000000 0.000000 
#    y 0.000000 1.653260 0.000000 
#    z 0.000000 0.000000 1.624300 
# 
# From -- ./inp_files/19990.got.cif
#   From: 2010.06.25/outbox.cif.g09.slc.cpg/sg58_10_cif.got.tgz:19990.got - 2010.06.26 21:38:00.
