data_PCOD8236225
_publ_section_title
;
Structure prediction by ZEFSAII (Michael W. Deem and Ramdas Pophale) SiO2 
 PCOD8236225
Probable space group: P N N M
;
_chemical_formula_sum "Si O2"
_cell_formula_units_Z 64
_cell_length_a 24.143566
_cell_length_b 15.716297
_cell_length_c 8.951657
_cell_angle_alpha 90.000000
_cell_angle_beta 90.000000
_cell_angle_gamma 90.000000
_cell_volume 3396.683457
_symmetry_space_group_name_H-M "P N N M"
_symmetry_group_IT_number 58
_symmetry_cell_setting 'orthorhombic'
loop_
_space_group_symop_operation_xyz
x,y,z
-x,-y,z
1/2+x,1/2-y,1/2-z
1/2-x,1/2+y,1/2-z
-x,-y,-z
x,y,-z
1/2-x,1/2+y,1/2+z
1/2+x,1/2-y,1/2+z
loop_
_atom_site_type_symbol
_atom_site_label
_atom_site_fract_x
_atom_site_fract_y
_atom_site_fract_z
Si Si1 0.087868 0.001447 0.177539
Si Si2 0.288126 0.493793 0.322313
Si Si3 0.271786 0.836638 0.675582
Si Si4 0.611885 0.093781 0.323860
Si Si5 0.500794 0.177586 0.321931
Si Si6 0.220430 0.657897 0.676501
Si Si7 0.113869 0.597245 0.177080
Si Si8 0.999135 0.132897 0.822167
O O1 0.149728 0.002486 0.242576
O O2 0.054563 0.084719 0.233754
O O3 0.055540 0.917176 0.233679
O O4 0.090005 0.002019 0.000000
O O5 0.287795 0.489342 0.500000
O O6 0.263228 0.407233 0.260265
O O7 0.254369 0.575967 0.265170
O O8 0.263374 0.850606 0.500000
O O9 0.336425 0.846421 0.719635
O O10 0.252338 0.743262 0.726845
O O11 0.604403 0.087618 0.500000
O O12 0.555436 0.132095 0.254971
O O13 0.622236 0.998695 0.262423
O O14 0.503929 0.180179 0.500000
O O15 0.446509 0.127362 0.268942
O O16 0.498355 0.272628 0.254870
O O17 0.213594 0.655296 0.500000
O O18 0.159943 0.657916 0.750385
O O19 0.119892 0.603989 0.000000
O O20 0.999061 0.135815 0.000000
#
# Coordination Sequence:
#
# PCOD8236225 Si02
#       8
#     8   8   8   8   8   8   8   8
#     4   8  15  26  42  66 101 130 153 195 255 303
#     4  10  20  34  54  78 104 134 173 217 255 299
#     4  10  21  36  53  75 105 142 175 206 256 314
#     4   9  17  31  49  70  99 131 165 209 256 303
#     4   9  17  26  46  75  99 124 164 213 257 297
#     4  10  22  36  51  75 107 141 174 208 253 309
#     4  10  19  33  53  76 101 130 168 213 257 302
#     4   8  14  25  40  67 101 128 153 197 255 305
#
# _framework density 18.841909999999999
#
# number of rings (size 3 to 8) (size 9 to 14) (size 15 to 20)
#    0.000    2.750    1.250    1.125    3.500    2.000 
#    0.000    0.000    0.000    2.250    0.000    2.625 
#    0.000    0.000    0.000    0.000    0.000    0.000 
#
# Total GULP energy -793447.930995 kJ/mol
# GULP energy per Si atom -12397.623922 kJ/mol
# Density = 1.879902 g / cm^3
# Si number density = 18.841910 Si / 1000 Ang^3
#
#
#
# Elastic Constant Matrix: (Units=GPa)
#
#
# Indices 1 2 3 4 5 6 
#
# 1 173.8389 75.6642 20.1270 0.0000 0.0000 0.0000
# 2 75.6642 149.2476 18.1038 0.0000 0.0000 0.0000
# 3 20.1270 18.1038 9.4464 0.0000 0.0000 0.0000
# 4 0.0000 0.0000 0.0000 18.0897 0.0000 0.0000
# 5 0.0000 0.0000 0.0000 0.0000 17.7152 0.0000
# 6 0.0000 0.0000 0.0000 0.0000 0.0000 31.2832
#
#
#
# Elastic Compliance Matrix: (Units=1/GPa)
#
#
# Indices 1 2 3 4 5 6 
#
# 1 0.008407 -0.002722 -0.012696 0.000000 0.000000 0.000000
# 2 -0.002722 0.009611 -0.012619 0.000000 0.000000 0.000000
# 3 -0.012696 -0.012619 0.157096 0.000000 0.000000 0.000000
# 4 0.000000 0.000000 0.000000 0.055280 0.000000 0.000000
# 5 0.000000 0.000000 0.000000 0.000000 0.056449 0.000000
# 6 0.000000 0.000000 0.000000 0.000000 0.000000 0.031966
#
#
# Mechanical properties :
#
#
# Convention : Reuss Voigt Hill
#
# Bulk Modulus (GPa) = 8.40056 62.25810 35.32933
# Shear Modulus (GPa) = 12.06086 27.99348 20.02717
#
# Velocity S-wave (km/s) = 2.53278 3.85866 3.26376
# Velocity P-wave (km/s) = 3.60852 7.27781 5.74404
#
# Compressibility (1/GPa) = 0.11903967
#
# Stress axis : x y z
#
# Youngs Moduli (GPa) = 118.94535 104.04644 6.36552
#
# Poissons Ratio (x) = 0.28324 0.08082
# Poissons Ratio (y) = 0.32379 0.08033
# Poissons Ratio (z) = 1.51011 1.31300
#
# Static dielectric constant tensor:
#      x y z
#    x 3.749420 0.000000 0.000000 
#    y 0.000000 3.705300 0.000000 
#    z 0.000000 0.000000 2.813070 
# 
# 
# High freq. dielectric constant tensor:
#      x y z
#    x 1.748980 0.000000 0.000000 
#    y 0.000000 1.743610 0.000000 
#    z 0.000000 0.000000 1.663480 
# 
# From -- ./inp_files/9995.got.cif
#   From: 2010.06.25/outbox.cif.g09.slc.cpg/sg58_5_cif.got.tgz:9995.got - 2010.06.26 21:38:00.
