data_PCOD8236700
_publ_section_title
;
Structure prediction by ZEFSAII (Michael W. Deem and Ramdas Pophale) SiO2 
 PCOD8236700
Probable space group: P N N M
;
_chemical_formula_sum "Si O2"
_cell_formula_units_Z 64
_cell_length_a 12.611891
_cell_length_b 9.079244
_cell_length_c 28.027211
_cell_angle_alpha 90.000000
_cell_angle_beta 90.000000
_cell_angle_gamma 90.000000
_cell_volume 3209.296034
_symmetry_space_group_name_H-M "P N N M"
_symmetry_group_IT_number 58
_symmetry_cell_setting 'orthorhombic'
loop_
_space_group_symop_operation_xyz
x,y,z
-x,-y,z
1/2+x,1/2-y,1/2-z
1/2-x,1/2+y,1/2-z
-x,-y,-z
x,y,-z
1/2-x,1/2+y,1/2+z
1/2+x,1/2-y,1/2+z
loop_
_atom_site_type_symbol
_atom_site_label
_atom_site_fract_x
_atom_site_fract_y
_atom_site_fract_z
Si Si1 0.357931 0.860682 0.448077
Si Si2 0.229994 0.367158 0.398288
Si Si3 0.484711 0.826727 0.054417
Si Si4 0.581926 0.824455 0.581057
Si Si5 0.809625 0.298523 0.389967
Si Si6 0.199174 0.192310 0.204362
Si Si7 0.207769 0.851953 0.209108
Si Si8 0.983551 0.339353 0.186370
O O1 0.315082 0.815064 0.500000
O O2 0.468147 0.773689 0.439015
O O3 0.269978 0.822273 0.409760
O O4 0.376161 0.035240 0.447452
O O5 0.128077 0.287314 0.421670
O O6 0.335368 0.308972 0.424578
O O7 0.225911 0.540757 0.407994
O O8 0.235847 0.330235 0.342061
O O9 0.573745 0.759182 0.089931
O O10 0.500000 0.000000 0.052614
O O11 0.491929 0.763236 0.000000
O O12 0.569164 0.873139 0.635655
O O13 0.798967 0.291076 0.332295
O O14 0.212927 0.291248 0.251078
O O15 0.092054 0.249264 0.179340
O O16 0.183853 0.022752 0.218922
O O17 0.098773 0.760927 0.215718
O O18 0.000000 0.500000 0.211432
#
# Coordination Sequence:
#
# PCOD8236700 Si02
#       8
#     8   8   8   8   8   8   8   8
#     4  11  21  35  55  84 117 150 191 238 293 361
#     4   9  21  37  59  83 115 148 199 245 292 349
#     4   9  18  35  58  82 112 151 192 237 292 347
#     4  10  19  36  55  82 112 152 186 233 295 352
#     4  10  20  37  58  84 113 153 194 246 292 354
#     4  11  21  38  57  85 120 149 199 243 304 361
#     4  10  23  36  58  89 115 154 194 250 297 362
#     4  11  19  36  60  81 112 153 192 236 300 356
#
# _framework density 19.942069
#
# number of rings (size 3 to 8) (size 9 to 14) (size 15 to 20)
#    0.000    1.875    2.500    2.250    0.000    4.000 
#    0.000    3.750    0.000    1.500    0.000    0.000 
#    0.000    0.000    0.000    0.000    0.000    0.000 
#
# Total GULP energy -793485.592403 kJ/mol
# GULP energy per Si atom -12398.212381 kJ/mol
# Density = 1.989668 g / cm^3
# Si number density = 19.942069 Si / 1000 Ang^3
#
#
#
# Elastic Constant Matrix: (Units=GPa)
#
#
# Indices 1 2 3 4 5 6 
#
# 1 82.0274 26.2156 22.5734 0.0000 0.0000 0.0000
# 2 26.2156 75.2256 22.2103 0.0000 0.0000 0.0000
# 3 22.5734 22.2103 79.9764 0.0000 0.0000 0.0000
# 4 0.0000 0.0000 0.0000 21.0067 0.0000 0.0000
# 5 0.0000 0.0000 0.0000 0.0000 26.7836 0.0000
# 6 0.0000 0.0000 0.0000 0.0000 0.0000 32.5877
#
#
#
# Elastic Compliance Matrix: (Units=1/GPa)
#
#
# Indices 1 2 3 4 5 6 
#
# 1 0.014307 -0.004133 -0.002891 0.000000 0.000000 0.000000
# 2 -0.004133 0.015674 -0.003187 0.000000 0.000000 0.000000
# 3 -0.002891 -0.003187 0.014205 0.000000 0.000000 0.000000
# 4 0.000000 0.000000 0.000000 0.047604 0.000000 0.000000
# 5 0.000000 0.000000 0.000000 0.000000 0.037336 0.000000
# 6 0.000000 0.000000 0.000000 0.000000 0.000000 0.030686
#
#
# Mechanical properties :
#
#
# Convention : Reuss Voigt Hill
#
# Bulk Modulus (GPa) = 42.07551 42.13645 42.10598
# Shear Modulus (GPa) = 26.57394 27.15760 26.86577
#
# Velocity S-wave (km/s) = 3.65438 3.69429 3.67439
# Velocity P-wave (km/s) = 6.24105 6.27474 6.25792
#
# Compressibility (1/GPa) = 0.02376679
#
# Stress axis : x y z
#
# Youngs Moduli (GPa) = 69.89454 63.79858 70.40022
#
# Poissons Ratio (x) = 0.26365 0.20350
# Poissons Ratio (y) = 0.28884 0.22433
# Poissons Ratio (z) = 0.20204 0.20330
#
# Static dielectric constant tensor:
#      x y z
#    x 3.743800 0.000000 0.000000 
#    y 0.000000 3.446290 0.000000 
#    z 0.000000 0.000000 3.571230 
# 
# 
# High freq. dielectric constant tensor:
#      x y z
#    x 1.776300 0.000000 0.000000 
#    y 0.000000 1.761530 0.000000 
#    z 0.000000 0.000000 1.774810 
# 
# From -- ./inp_files/34943.got.cif
#   From: 2010.06.25/outbox.cif.g09.slc.cpg/sg58_18_cif.got.tgz:34943.got - 2010.06.26 21:38:00.
