data_PCOD8236381
_publ_section_title
;
Structure prediction by ZEFSAII (Michael W. Deem and Ramdas Pophale) SiO2 
 PCOD8236381
Probable space group: P N N M
;
_chemical_formula_sum "Si O2"
_cell_formula_units_Z 56
_cell_length_a 8.300828
_cell_length_b 19.138535
_cell_length_c 18.434104
_cell_angle_alpha 90.000000
_cell_angle_beta 90.000000
_cell_angle_gamma 90.000000
_cell_volume 2928.546600
_symmetry_space_group_name_H-M "P N N M"
_symmetry_group_IT_number 58
_symmetry_cell_setting 'orthorhombic'
loop_
_space_group_symop_operation_xyz
x,y,z
-x,-y,z
1/2+x,1/2-y,1/2-z
1/2-x,1/2+y,1/2-z
-x,-y,-z
x,y,-z
1/2-x,1/2+y,1/2+z
1/2+x,1/2-y,1/2+z
loop_
_atom_site_type_symbol
_atom_site_label
_atom_site_fract_x
_atom_site_fract_y
_atom_site_fract_z
Si Si1 0.090081 0.427877 0.575920
Si Si2 0.280746 0.824486 0.417844
Si Si3 0.861075 0.835210 0.766074
Si Si4 0.360935 0.942763 0.227603
Si Si5 0.080345 0.932183 0.328753
Si Si6 0.485383 0.189649 0.707528
Si Si7 0.213340 0.666566 0.581653
O O1 0.184339 0.411711 0.500000
O O2 0.207299 0.435952 0.644943
O O3 0.000000 0.500000 0.565431
O O4 0.961654 0.366599 0.590682
O O5 0.324226 0.844233 0.500000
O O6 0.151584 0.880370 0.388568
O O7 0.450747 0.823465 0.374644
O O8 0.193340 0.749924 0.411136
O O9 0.704816 0.820147 0.716498
O O10 0.821417 0.858821 0.849562
O O11 0.958388 0.895755 0.726619
O O12 0.971562 0.766825 0.765849
O O13 0.222038 0.966016 0.280985
O O14 0.423901 0.865718 0.243102
O O15 0.500000 0.000000 0.233432
O O16 0.000000 0.000000 0.367079
O O17 0.284184 0.648502 0.500000
#
# Coordination Sequence:
#
# PCOD8236381 Si02
#       7
#     8   8   8   8   8   8   8
#     4   9  17  28  50  80 108 146 187 222 271 329
#     4   9  20  39  59  82 109 143 188 241 298 345
#     4  11  20  36  56  85 116 145 189 231 275 340
#     4  10  19  34  55  79 110 145 185 236 279 330
#     4  11  24  36  55  83 112 151 194 236 288 341
#     4  10  19  33  59  82 107 144 180 229 282 338
#     4   9  17  32  57  83 111 150 183 225 282 333
#
# _framework density 19.122114
#
# number of rings (size 3 to 8) (size 9 to 14) (size 15 to 20)
#    0.000    2.143    1.429    3.429    2.000    0.286 
#    0.000    1.429    0.000   18.857    0.000    0.000 
#    0.000    0.000    0.000    0.000    0.000    0.000 
#
# Total GULP energy -693760.229824 kJ/mol
# GULP energy per Si atom -12388.575533 kJ/mol
# Density = 1.907859 g / cm^3
# Si number density = 19.122114 Si / 1000 Ang^3
#
#
#
# Elastic Constant Matrix: (Units=GPa)
#
#
# Indices 1 2 3 4 5 6 
#
# 1 69.1391 21.7816 30.6048 0.0000 0.0000 0.0000
# 2 21.7816 72.9770 32.6596 0.0000 0.0000 0.0000
# 3 30.6048 32.6596 127.6402 0.0000 0.0000 0.0000
# 4 0.0000 0.0000 0.0000 17.9355 0.0000 0.0000
# 5 0.0000 0.0000 0.0000 0.0000 22.8822 0.0000
# 6 0.0000 0.0000 0.0000 0.0000 0.0000 27.6595
#
#
#
# Elastic Compliance Matrix: (Units=1/GPa)
#
#
# Indices 1 2 3 4 5 6 
#
# 1 0.017010 -0.003672 -0.003139 0.000000 0.000000 0.000000
# 2 -0.003672 0.016268 -0.003282 0.000000 0.000000 0.000000
# 3 -0.003139 -0.003282 0.009427 0.000000 0.000000 0.000000
# 4 0.000000 0.000000 0.000000 0.055755 0.000000 0.000000
# 5 0.000000 0.000000 0.000000 0.000000 0.043702 0.000000
# 6 0.000000 0.000000 0.000000 0.000000 0.000000 0.036154
#
#
# Mechanical properties :
#
#
# Convention : Reuss Voigt Hill
#
# Bulk Modulus (GPa) = 44.40808 48.87203 46.64005
# Shear Modulus (GPa) = 24.27088 26.00948 25.14018
#
# Velocity S-wave (km/s) = 3.56653 3.69206 3.62984
# Velocity P-wave (km/s) = 6.34303 6.61728 6.48161
#
# Compressibility (1/GPa) = 0.02251843
#
# Stress axis : x y z
#
# Youngs Moduli (GPa) = 58.78913 61.47116 106.07916
#
# Poissons Ratio (x) = 0.22574 0.33298
# Poissons Ratio (y) = 0.21589 0.34815
# Poissons Ratio (z) = 0.18454 0.20175
#
# Static dielectric constant tensor:
#      x y z
#    x -7.377220 0.000000 0.000000 
#    y 0.000000 3.614370 0.000000 
#    z 0.000000 0.000000 4.028830 
# 
# 
# High freq. dielectric constant tensor:
#      x y z
#    x 1.706640 0.000000 0.000000 
#    y 0.000000 1.757740 0.000000 
#    z 0.000000 0.000000 1.753180 
# 
# From -- ./inp_files/29070.got.cif
#   From: 2010.06.25/outbox.cif.g09.slc.cpg/sg58_15_cif.got.tgz:29070.got - 2010.06.26 21:38:00.
