data_PCOD8236538
_publ_section_title
;
Structure prediction by ZEFSAII (Michael W. Deem and Ramdas Pophale) SiO2 
 PCOD8236538
Probable space group: P N N M
;
_chemical_formula_sum "Si O2"
_cell_formula_units_Z 64
_cell_length_a 24.496782
_cell_length_b 14.421032
_cell_length_c 9.146461
_cell_angle_alpha 90.000000
_cell_angle_beta 90.000000
_cell_angle_gamma 90.000000
_cell_volume 3231.160007
_symmetry_space_group_name_H-M "P N N M"
_symmetry_group_IT_number 58
_symmetry_cell_setting 'orthorhombic'
loop_
_space_group_symop_operation_xyz
x,y,z
-x,-y,z
1/2+x,1/2-y,1/2-z
1/2-x,1/2+y,1/2-z
-x,-y,-z
x,y,-z
1/2-x,1/2+y,1/2+z
1/2+x,1/2-y,1/2+z
loop_
_atom_site_type_symbol
_atom_site_label
_atom_site_fract_x
_atom_site_fract_y
_atom_site_fract_z
Si Si1 0.553298 0.060149 0.336484
Si Si2 0.796550 0.314338 0.172924
Si Si3 0.393026 0.663453 0.163432
Si Si4 0.171542 0.486406 0.830763
Si Si5 0.507700 0.216467 0.163240
Si Si6 0.591027 0.713025 0.671335
Si Si7 0.195391 0.280576 0.174382
Si Si8 0.060199 0.973033 0.670798
O O1 0.557884 0.102767 0.500000
O O2 0.550788 0.140282 0.217325
O O3 0.500000 0.000000 0.319545
O O4 0.606876 0.999590 0.303318
O O5 0.799635 0.421047 0.233077
O O6 0.851624 0.259576 0.210777
O O7 0.748955 0.263958 0.258781
O O8 0.785065 0.312498 0.000000
O O9 0.457389 0.689408 0.166913
O O10 0.356965 0.720370 0.277963
O O11 0.395273 0.554244 0.199757
O O12 0.369328 0.680809 0.000000
O O13 0.191015 0.387021 0.765537
O O14 0.185429 0.484355 0.000000
O O15 0.456178 0.219244 0.269995
O O16 0.487249 0.193571 0.000000
O O17 0.583218 0.701261 0.500000
O O18 0.585694 0.613865 0.746355
O O19 0.197926 0.278493 0.000000
O O20 0.056019 0.947652 0.500000
O O21 0.000000 0.000000 0.730910
#
# Coordination Sequence:
#
# PCOD8236538 Si02
#       8
#     8   8   8   8   8   8   8   8
#     4  10  19  34  58  87 119 157 200 245 300 362
#     4  10  23  44  64  85 119 161 202 243 301 367
#     4  10  21  38  60  85 118 161 199 240 299 363
#     4   9  19  38  62  86 115 154 197 240 291 357
#     4  11  21  35  57  86 122 159 199 243 298 365
#     4  11  23  38  60  90 123 160 204 257 309 359
#     4  11  23  40  64  91 117 150 203 259 297 346
#     4  10  20  38  60  85 122 166 207 245 298 370
#
# _framework density 19.807127000000001
#
# number of rings (size 3 to 8) (size 9 to 14) (size 15 to 20)
#    0.000    1.750    2.500    1.875    0.000    5.500 
#    0.000    5.625    0.000    0.000    0.000    0.000 
#    0.000    0.000    0.000    0.000    0.000    0.000 
#
# Total GULP energy -793403.138614 kJ/mol
# GULP energy per Si atom -12396.924041 kJ/mol
# Density = 1.976204 g / cm^3
# Si number density = 19.807127 Si / 1000 Ang^3
#
#
#
# Elastic Constant Matrix: (Units=GPa)
#
#
# Indices 1 2 3 4 5 6 
#
# 1 111.1600 57.4441 42.5422 0.0000 0.0000 0.0000
# 2 57.4441 132.4771 50.2094 0.0000 0.0000 0.0000
# 3 42.5422 50.2094 69.1617 0.0000 0.0000 0.0000
# 4 0.0000 0.0000 0.0000 17.5536 0.0000 0.0000
# 5 0.0000 0.0000 0.0000 0.0000 32.7527 0.0000
# 6 0.0000 0.0000 0.0000 0.0000 0.0000 30.6700
#
#
#
# Elastic Compliance Matrix: (Units=1/GPa)
#
#
# Indices 1 2 3 4 5 6 
#
# 1 0.012879 -0.003562 -0.005336 0.000000 0.000000 0.000000
# 2 -0.003562 0.011399 -0.006084 0.000000 0.000000 0.000000
# 3 -0.005336 -0.006084 0.022158 0.000000 0.000000 0.000000
# 4 0.000000 0.000000 0.000000 0.056968 0.000000 0.000000
# 5 0.000000 0.000000 0.000000 0.000000 0.030532 0.000000
# 6 0.000000 0.000000 0.000000 0.000000 0.000000 0.032605
#
#
# Mechanical properties :
#
#
# Convention : Reuss Voigt Hill
#
# Bulk Modulus (GPa) = 60.71159 68.13224 64.42192
# Shear Modulus (GPa) = 24.75287 27.03547 25.89417
#
# Velocity S-wave (km/s) = 3.53894 3.69851 3.61960
# Velocity P-wave (km/s) = 6.88598 7.26025 7.07559
#
# Compressibility (1/GPa) = 0.01647132
#
# Stress axis : x y z
#
# Youngs Moduli (GPa) = 77.64567 87.72667 45.13021
#
# Poissons Ratio (x) = 0.31250 0.24082
# Poissons Ratio (y) = 0.27659 0.27458
# Poissons Ratio (z) = 0.41432 0.53375
#
# Static dielectric constant tensor:
#      x y z
#    x 3.546940 0.000000 0.000000 
#    y 0.000000 3.920330 0.000000 
#    z 0.000000 0.000000 3.453220 
# 
# 
# High freq. dielectric constant tensor:
#      x y z
#    x 1.769100 0.000000 0.000000 
#    y 0.000000 1.786100 0.000000 
#    z 0.000000 0.000000 1.755040 
# 
# From -- ./inp_files/10107.got.cif
#   From: 2010.06.25/outbox.cif.g09.slc.cpg/sg58_6_cif.got.tgz:10107.got - 2010.06.26 21:38:00.
