data_PCOD8236496
_publ_section_title
;
Structure prediction by ZEFSAII (Michael W. Deem and Ramdas Pophale) SiO2 
 PCOD8236496
Probable space group: P N N M
;
_chemical_formula_sum "Si O2"
_cell_formula_units_Z 64
_cell_length_a 24.323362
_cell_length_b 14.727870
_cell_length_c 9.180062
_cell_angle_alpha 90.000000
_cell_angle_beta 90.000000
_cell_angle_gamma 90.000000
_cell_volume 3288.585668
_symmetry_space_group_name_H-M "P N N M"
_symmetry_group_IT_number 58
_symmetry_cell_setting 'orthorhombic'
loop_
_space_group_symop_operation_xyz
x,y,z
-x,-y,z
1/2+x,1/2-y,1/2-z
1/2-x,1/2+y,1/2-z
-x,-y,-z
x,y,-z
1/2-x,1/2+y,1/2+z
1/2+x,1/2-y,1/2+z
loop_
_atom_site_type_symbol
_atom_site_label
_atom_site_fract_x
_atom_site_fract_y
_atom_site_fract_z
Si Si1 0.522172 0.400424 0.170455
Si Si2 0.449090 0.066750 0.167574
Si Si3 0.878090 0.951794 0.835066
Si Si4 0.172056 0.508845 0.327555
Si Si5 0.649581 0.643295 0.668424
Si Si6 0.734940 0.355203 0.334966
Si Si7 0.730083 0.173704 0.173701
Si Si8 0.953206 0.251118 0.830896
O O1 0.500000 0.500000 0.210957
O O2 0.584215 0.390527 0.230648
O O3 0.487053 0.324550 0.248428
O O4 0.521453 0.381049 0.000000
O O5 0.391207 0.023506 0.222087
O O6 0.465631 0.151480 0.265216
O O7 0.500000 0.000000 0.187823
O O8 0.442807 0.096974 0.000000
O O9 0.814613 0.925695 0.830615
O O10 0.880851 0.054137 0.769620
O O11 0.901334 0.945291 0.000000
O O12 0.177792 0.507571 0.500000
O O13 0.211568 0.590905 0.269985
O O14 0.191734 0.409479 0.270197
O O15 0.660098 0.622336 0.500000
O O16 0.708819 0.658863 0.739402
O O17 0.611545 0.731095 0.693100
O O18 0.746940 0.322868 0.500000
O O19 0.713410 0.270288 0.240685
O O20 0.728038 0.182286 0.000000
O O21 0.969446 0.249850 0.000000
#
# Coordination Sequence:
#
# PCOD8236496 Si02
#       8
#     8   8   8   8   8   8   8   8
#     4  11  23  37  55  84 119 150 185 232 285 345
#     4  10  22  40  60  83 114 154 197 243 292 341
#     4  10  19  35  57  79 110 150 190 232 284 346
#     4   9  18  36  60  81 109 152 193 230 284 345
#     4   9  17  32  56  82 108 145 193 237 282 340
#     4  10  20  35  56  84 114 146 187 237 286 336
#     4  10  19  34  57  83 112 152 195 234 282 344
#     4  11  22  37  61  87 112 151 197 241 290 344
#
# _framework density 19.461254
#
# number of rings (size 3 to 8) (size 9 to 14) (size 15 to 20)
#    0.000    2.000    2.500    1.500    0.000    2.250 
#    0.000    3.750    0.000    0.000    0.000    0.000 
#    0.000    0.000    0.000    0.000    0.000    0.000 
#
# Total GULP energy -793395.932444 kJ/mol
# GULP energy per Si atom -12396.811444 kJ/mol
# Density = 1.941696 g / cm^3
# Si number density = 19.461254 Si / 1000 Ang^3
#
#
#
# Elastic Constant Matrix: (Units=GPa)
#
#
# Indices 1 2 3 4 5 6 
#
# 1 106.2514 36.5134 37.9740 0.0000 0.0000 0.0000
# 2 36.5134 117.4974 48.0461 0.0000 0.0000 0.0000
# 3 37.9740 48.0461 68.2849 0.0000 0.0000 0.0000
# 4 0.0000 0.0000 0.0000 29.6194 0.0000 0.0000
# 5 0.0000 0.0000 0.0000 0.0000 17.4962 0.0000
# 6 0.0000 0.0000 0.0000 0.0000 0.0000 27.8021
#
#
#
# Elastic Compliance Matrix: (Units=1/GPa)
#
#
# Indices 1 2 3 4 5 6 
#
# 1 0.011907 -0.001393 -0.005641 0.000000 0.000000 0.000000
# 2 -0.001393 0.012112 -0.007747 0.000000 0.000000 0.000000
# 3 -0.005641 -0.007747 0.023232 0.000000 0.000000 0.000000
# 4 0.000000 0.000000 0.000000 0.033762 0.000000 0.000000
# 5 0.000000 0.000000 0.000000 0.000000 0.057155 0.000000
# 6 0.000000 0.000000 0.000000 0.000000 0.000000 0.035968
#
#
# Mechanical properties :
#
#
# Convention : Reuss Voigt Hill
#
# Bulk Modulus (GPa) = 56.53591 59.67786 58.10688
# Shear Modulus (GPa) = 23.85558 26.28359 25.06959
#
# Velocity S-wave (km/s) = 3.50494 3.67898 3.59302
# Velocity P-wave (km/s) = 6.74485 6.98413 6.86553
#
# Compressibility (1/GPa) = 0.01768787
#
# Stress axis : x y z
#
# Youngs Moduli (GPa) = 83.98743 82.56482 43.04334
#
# Poissons Ratio (x) = 0.11505 0.24280
# Poissons Ratio (y) = 0.11703 0.33346
# Poissons Ratio (z) = 0.47377 0.63963
#
# Static dielectric constant tensor:
#      x y z
#    x 3.663840 0.000000 0.000000 
#    y 0.000000 3.545850 0.000000 
#    z 0.000000 0.000000 3.283430 
# 
# 
# High freq. dielectric constant tensor:
#      x y z
#    x 1.765760 0.000000 0.000000 
#    y 0.000000 1.760510 0.000000 
#    z 0.000000 0.000000 1.726510 
# 
# From -- ./inp_files/6881.got.cif
#   From: 2010.06.25/outbox.cif.g09.slc.cpg/sg58_4_cif.got.tgz:6881.got - 2010.06.26 21:38:00.
