data_PCOD8236284
_publ_section_title
;
Structure prediction by ZEFSAII (Michael W. Deem and Ramdas Pophale) SiO2 
 PCOD8236284
Probable space group: P N N M
;
_chemical_formula_sum "Si O2"
_cell_formula_units_Z 64
_cell_length_a 16.104930
_cell_length_b 10.949915
_cell_length_c 16.661381
_cell_angle_alpha 90.000000
_cell_angle_beta 90.000000
_cell_angle_gamma 90.000000
_cell_volume 2938.194795
_symmetry_space_group_name_H-M "P N N M"
_symmetry_group_IT_number 58
_symmetry_cell_setting 'orthorhombic'
loop_
_space_group_symop_operation_xyz
x,y,z
-x,-y,z
1/2+x,1/2-y,1/2-z
1/2-x,1/2+y,1/2-z
-x,-y,-z
x,y,-z
1/2-x,1/2+y,1/2+z
1/2+x,1/2-y,1/2+z
loop_
_atom_site_type_symbol
_atom_site_label
_atom_site_fract_x
_atom_site_fract_y
_atom_site_fract_z
Si Si1 0.256442 0.580652 0.164364
Si Si2 0.328648 0.650589 0.671355
Si Si3 0.010493 0.857541 0.413808
Si Si4 0.186268 0.327660 0.408915
Si Si5 0.603575 0.786097 0.292876
Si Si6 0.129214 0.916949 0.091356
Si Si7 0.063572 0.302005 0.717523
Si Si8 0.312086 0.316210 0.140600
O O1 0.290590 0.576704 0.254440
O O2 0.301782 0.683936 0.110936
O O3 0.157176 0.606932 0.165758
O O4 0.270793 0.448333 0.126883
O O5 0.385262 0.556394 0.620442
O O6 0.384683 0.761115 0.705135
O O7 0.256035 0.712838 0.616760
O O8 0.974923 0.811680 0.500000
O O9 0.105660 0.810971 0.413010
O O10 0.958367 0.812533 0.338806
O O11 0.000000 0.000000 0.407185
O O12 0.153534 0.343611 0.500000
O O13 0.272479 0.396548 0.397963
O O14 0.119622 0.385545 0.343615
O O15 0.576688 0.683225 0.358221
O O16 0.524482 0.853395 0.250653
O O17 0.662678 0.710514 0.232536
O O18 0.099688 0.903961 0.000000
#
# Coordination Sequence:
#
# PCOD8236284 Si02
#       8
#     8   8   8   8   8   8   8   8
#     4   9  17  32  54  75 106 144 184 234 268 322
#     4  10  20  33  53  77 109 148 191 223 270 329
#     4  10  20  32  51  83 114 140 172 220 290 338
#     4   9  18  33  56  85 110 142 184 222 273 331
#     4   9  19  34  52  79 106 141 191 226 278 325
#     4  10  20  36  57  79 108 146 192 231 264 322
#     4  10  20  32  53  79 113 145 172 233 275 325
#     4  10  19  33  55  78 107 150 185 230 271 328
#
# _framework density 21.782081999999999
#
# number of rings (size 3 to 8) (size 9 to 14) (size 15 to 20)
#    0.000    2.375    1.250    2.625    1.750    2.000 
#    0.000    1.875    2.750    0.000    0.000    6.125 
#    0.000    6.000    0.000    0.000    0.000    0.000 
#
# Total GULP energy -792955.528995 kJ/mol
# GULP energy per Si atom -12389.930141 kJ/mol
# Density = 2.173250 g / cm^3
# Si number density = 21.782082 Si / 1000 Ang^3
#
#
#
# Elastic Constant Matrix: (Units=GPa)
#
#
# Indices 1 2 3 4 5 6 
#
# 1 75.1500 -13.2579 9.6821 0.0000 0.0000 0.0000
# 2 -13.2579 22.0826 -6.6748 0.0000 0.0000 0.0000
# 3 9.6821 -6.6748 73.3734 0.0000 0.0000 0.0000
# 4 0.0000 0.0000 0.0000 -17.2344 0.0000 0.0000
# 5 0.0000 0.0000 0.0000 0.0000 12.8344 0.0000
# 6 0.0000 0.0000 0.0000 0.0000 0.0000 23.2595
#
#
#
# Elastic Compliance Matrix: (Units=1/GPa)
#
#
# Indices 1 2 3 4 5 6 
#
# 1 0.014984 0.008636 -0.001192 0.000000 0.000000 0.000000
# 2 0.008636 0.051542 0.003549 0.000000 0.000000 0.000000
# 3 -0.001192 0.003549 0.014109 0.000000 0.000000 0.000000
# 4 0.000000 0.000000 0.000000 -0.058024 0.000000 0.000000
# 5 0.000000 0.000000 0.000000 0.000000 0.077915 0.000000
# 6 0.000000 0.000000 0.000000 0.000000 0.000000 0.042993
#
#
# Mechanical properties :
#
#
# Convention : Reuss Voigt Hill
#
# Bulk Modulus (GPa) = 9.74456 16.67832 13.21144
# Shear Modulus (GPa) = 32.10475 15.82901 23.96688
#
# Velocity S-wave (km/s) = 3.84331 2.69866 3.32068
# Velocity P-wave (km/s) = 4.91713 4.16940 4.55862
#
# Compressibility (1/GPa) = 0.10262136
#
# Stress axis : x y z
#
# Youngs Moduli (GPa) = 66.73894 19.40169 70.87654
#
# Poissons Ratio (x) = -0.16755 0.08446
# Poissons Ratio (y) = -0.57634 -0.25156
# Poissons Ratio (z) = 0.07953 -0.06886
#
# Static dielectric constant tensor:
#      x y z
#    x 4.123310 0.000000 0.000000 
#    y 0.000000 3.561710 0.000000 
#    z 0.000000 0.000000 3.922510 
# 
# 
# High freq. dielectric constant tensor:
#      x y z
#    x 1.856240 0.000000 0.000000 
#    y 0.000000 1.821290 0.000000 
#    z 0.000000 0.000000 1.840360 
# 
# From -- ./inp_files/22953.got.cif
#   From: 2010.06.25/outbox.cif.g09.slc.cpg/sg58_12_cif.got.tgz:22953.got - 2010.06.26 21:38:00.
