data_PCOD8236514
_publ_section_title
;
Structure prediction by ZEFSAII (Michael W. Deem and Ramdas Pophale) SiO2 
 PCOD8236514
Probable space group: P N N M
;
_chemical_formula_sum "Si O2"
_cell_formula_units_Z 64
_cell_length_a 20.497299
_cell_length_b 18.953195
_cell_length_c 9.030189
_cell_angle_alpha 90.000000
_cell_angle_beta 90.000000
_cell_angle_gamma 90.000000
_cell_volume 3508.131848
_symmetry_space_group_name_H-M "P N N M"
_symmetry_group_IT_number 58
_symmetry_cell_setting 'orthorhombic'
loop_
_space_group_symop_operation_xyz
x,y,z
-x,-y,z
1/2+x,1/2-y,1/2-z
1/2-x,1/2+y,1/2-z
-x,-y,-z
x,y,-z
1/2-x,1/2+y,1/2+z
1/2+x,1/2-y,1/2+z
loop_
_atom_site_type_symbol
_atom_site_label
_atom_site_fract_x
_atom_site_fract_y
_atom_site_fract_z
Si Si1 0.491886 0.815666 0.332849
Si Si2 0.010350 0.176698 0.327378
Si Si3 0.938915 0.954601 0.174204
Si Si4 0.682203 0.962195 0.826655
Si Si5 0.433810 0.963506 0.330078
Si Si6 0.641434 0.824162 0.327047
Si Si7 0.860217 0.178807 0.674842
Si Si8 0.185718 0.957084 0.826934
O O1 0.490270 0.786024 0.500000
O O2 0.468584 0.754668 0.222821
O O3 0.441795 0.879678 0.313382
O O4 0.565365 0.841046 0.296116
O O5 0.020999 0.169832 0.500000
O O6 0.058065 0.121659 0.249058
O O7 0.935251 0.163099 0.281323
O O8 0.873282 0.993062 0.225444
O O9 0.941358 0.943202 0.000000
O O10 0.000000 0.000000 0.231209
O O11 0.682878 0.887742 0.742322
O O12 0.624051 0.012469 0.774868
O O13 0.748495 0.002375 0.787563
O O14 0.675351 0.947255 0.000000
O O15 0.418658 0.985388 0.500000
O O16 0.500000 0.000000 0.276101
O O17 0.657218 0.818521 0.500000
O O18 0.662926 0.751485 0.249593
O O19 0.851036 0.185742 0.500000
O O20 0.815740 0.115793 0.736501
O O21 0.179746 0.938979 0.000000
#
# Coordination Sequence:
#
# PCOD8236514 Si02
#       8
#     8   8   8   8   8   8   8   8
#     4   9  18  33  55  80 108 143 183 226 268 326
#     4  10  20  32  51  83 117 140 172 230 285 328
#     4  10  19  34  58  80 103 143 188 224 265 326
#     4  11  23  37  55  83 117 148 184 232 281 328
#     4  10  19  36  58  82 109 142 187 228 270 330
#     4  10  19  35  58  81 109 146 186 226 273 332
#     4  10  20  34  55  84 113 142 181 229 279 329
#     4  10  22  39  56  80 113 149 188 227 272 333
#
# _framework density 18.243327000000001
#
# number of rings (size 3 to 8) (size 9 to 14) (size 15 to 20)
#    0.000    2.000    2.500    1.500    0.000    4.000 
#    0.000    1.250    0.000    1.500    0.000    0.000 
#    0.000    0.000    0.000    0.000    0.000    0.000 
#
# Total GULP energy -793886.038386 kJ/mol
# GULP energy per Si atom -12404.469350 kJ/mol
# Density = 1.820180 g / cm^3
# Si number density = 18.243327 Si / 1000 Ang^3
#
#
#
# Elastic Constant Matrix: (Units=GPa)
#
#
# Indices 1 2 3 4 5 6 
#
# 1 94.8639 59.1963 43.3459 0.0000 0.0000 0.0000
# 2 59.1963 138.0796 63.2927 0.0000 0.0000 0.0000
# 3 43.3459 63.2927 77.0985 0.0000 0.0000 0.0000
# 4 0.0000 0.0000 0.0000 35.0907 0.0000 0.0000
# 5 0.0000 0.0000 0.0000 0.0000 22.4682 0.0000
# 6 0.0000 0.0000 0.0000 0.0000 0.0000 24.4142
#
#
#
# Elastic Compliance Matrix: (Units=1/GPa)
#
#
# Indices 1 2 3 4 5 6 
#
# 1 0.015620 -0.004283 -0.005266 0.000000 0.000000 0.000000
# 2 -0.004283 0.012786 -0.008089 0.000000 0.000000 0.000000
# 3 -0.005266 -0.008089 0.022571 0.000000 0.000000 0.000000
# 4 0.000000 0.000000 0.000000 0.028498 0.000000 0.000000
# 5 0.000000 0.000000 0.000000 0.000000 0.044507 0.000000
# 6 0.000000 0.000000 0.000000 0.000000 0.000000 0.040960
#
#
# Mechanical properties :
#
#
# Convention : Reuss Voigt Hill
#
# Bulk Modulus (GPa) = 63.68369 71.30134 67.49252
# Shear Modulus (GPa) = 24.33676 26.00842 25.17259
#
# Velocity S-wave (km/s) = 3.65637 3.77986 3.71863
# Velocity P-wave (km/s) = 7.26699 7.63008 7.45075
#
# Compressibility (1/GPa) = 0.01570261
#
# Stress axis : x y z
#
# Youngs Moduli (GPa) = 64.02032 78.21160 44.30421
#
# Poissons Ratio (x) = 0.33495 0.23331
# Poissons Ratio (y) = 0.27418 0.35836
# Poissons Ratio (z) = 0.33713 0.63262
#
# Static dielectric constant tensor:
#      x y z
#    x 3.150570 0.000000 0.000000 
#    y 0.000000 3.396460 0.000000 
#    z 0.000000 0.000000 3.316230 
# 
# 
# High freq. dielectric constant tensor:
#      x y z
#    x 1.677330 0.000000 0.000000 
#    y 0.000000 1.720220 0.000000 
#    z 0.000000 0.000000 1.709900 
# 
# From -- ./inp_files/8345.got.cif
#   From: 2010.06.25/outbox.cif.g09.slc.cpg/sg58_5_cif.got.tgz:8345.got - 2010.06.26 21:38:00.
