data_PCOD8236344
_publ_section_title
;
Structure prediction by ZEFSAII (Michael W. Deem and Ramdas Pophale) SiO2 
 PCOD8236344
Probable space group: P N N M
;
_chemical_formula_sum "Si O2"
_cell_formula_units_Z 64
_cell_length_a 20.434673
_cell_length_b 18.584680
_cell_length_c 8.450046
_cell_angle_alpha 90.000000
_cell_angle_beta 90.000000
_cell_angle_gamma 90.000000
_cell_volume 3209.089675
_symmetry_space_group_name_H-M "P N N M"
_symmetry_group_IT_number 58
_symmetry_cell_setting 'orthorhombic'
loop_
_space_group_symop_operation_xyz
x,y,z
-x,-y,z
1/2+x,1/2-y,1/2-z
1/2-x,1/2+y,1/2-z
-x,-y,-z
x,y,-z
1/2-x,1/2+y,1/2+z
1/2+x,1/2-y,1/2+z
loop_
_atom_site_type_symbol
_atom_site_label
_atom_site_fract_x
_atom_site_fract_y
_atom_site_fract_z
Si Si1 0.058684 0.051810 0.184315
Si Si2 0.328113 0.300138 0.813094
Si Si3 0.682417 0.201097 0.685317
Si Si4 0.443958 0.204426 0.188787
Si Si5 0.685473 0.047205 0.814381
Si Si6 0.061813 0.543124 0.311690
Si Si7 0.569247 0.291905 0.185016
Si Si8 0.173904 0.961891 0.314753
O O1 0.053144 0.125553 0.280231
O O2 0.128636 0.015979 0.217508
O O3 0.052181 0.069192 0.000000
O O4 0.000000 0.000000 0.242408
O O5 0.255495 0.275748 0.760446
O O6 0.381780 0.246954 0.738362
O O7 0.342699 0.381301 0.755889
O O8 0.333774 0.298123 0.000000
O O9 0.681336 0.183834 0.500000
O O10 0.662461 0.128434 0.776621
O O11 0.634653 0.266681 0.725915
O O12 0.441338 0.123845 0.256450
O O13 0.509787 0.242982 0.247944
O O14 0.441163 0.204807 0.000000
O O15 0.750134 0.022910 0.720995
O O16 0.628443 0.994297 0.755103
O O17 0.698494 0.039619 0.000000
O O18 0.058351 0.543974 0.500000
O O19 0.000000 0.500000 0.241911
O O20 0.580287 0.281226 0.000000
O O21 0.160578 0.972532 0.500000
#
# Coordination Sequence:
#
# PCOD8236344 Si02
#       8
#     8   8   8   8   8   8   8   8
#     4  11  24  40  58  82 113 147 185 232 284 337
#     4   8  16  31  52  77 104 140 182 223 267 320
#     4  10  20  35  55  79 111 147 184 229 280 336
#     4   9  17  31  52  77 103 134 178 225 269 321
#     4  10  19  33  56  84 113 146 187 232 279 331
#     4   9  17  29  48  77 110 142 181 229 274 326
#     4  11  22  36  58  84 110 143 183 230 281 336
#     4  10  20  36  57  81 112 147 186 230 278 336
#
# _framework density 19.943351
#
# number of rings (size 3 to 8) (size 9 to 14) (size 15 to 20)
#    0.000    2.250    0.000    4.125    0.000    5.000 
#    0.000    2.500    0.000   10.500    0.000    0.000 
#    0.000    0.000    0.000    0.000    0.000    0.000 
#
# Total GULP energy -793721.260255 kJ/mol
# GULP energy per Si atom -12401.894691 kJ/mol
# Density = 1.989796 g / cm^3
# Si number density = 19.943351 Si / 1000 Ang^3
#
#
#
# Elastic Constant Matrix: (Units=GPa)
#
#
# Indices 1 2 3 4 5 6 
#
# 1 129.9764 78.5101 17.1139 0.0000 0.0000 0.0000
# 2 78.5101 132.3156 9.3104 0.0000 0.0000 0.0000
# 3 17.1139 9.3104 30.1340 0.0000 0.0000 0.0000
# 4 0.0000 0.0000 0.0000 23.6937 0.0000 0.0000
# 5 0.0000 0.0000 0.0000 0.0000 24.6937 0.0000
# 6 0.0000 0.0000 0.0000 0.0000 0.0000 44.6498
#
#
#
# Elastic Compliance Matrix: (Units=1/GPa)
#
#
# Indices 1 2 3 4 5 6 
#
# 1 0.012685 -0.007176 -0.004987 0.000000 0.000000 0.000000
# 2 -0.007176 0.011785 0.000434 0.000000 0.000000 0.000000
# 3 -0.004987 0.000434 0.035883 0.000000 0.000000 0.000000
# 4 0.000000 0.000000 0.000000 0.042205 0.000000 0.000000
# 5 0.000000 0.000000 0.000000 0.000000 0.040496 0.000000
# 6 0.000000 0.000000 0.000000 0.000000 0.000000 0.022397
#
#
# Mechanical properties :
#
#
# Convention : Reuss Voigt Hill
#
# Bulk Modulus (GPa) = 27.10336 55.81055 41.45695
# Shear Modulus (GPa) = 24.85014 31.10686 27.97850
#
# Velocity S-wave (km/s) = 3.53375 3.95367 3.74959
# Velocity P-wave (km/s) = 5.50178 6.99194 6.29114
#
# Compressibility (1/GPa) = 0.03689580
#
# Stress axis : x y z
#
# Youngs Moduli (GPa) = 78.83560 84.85499 27.86818
#
# Poissons Ratio (x) = 0.60888 0.13898
# Poissons Ratio (y) = 0.56569 -0.01210
# Poissons Ratio (z) = 0.39315 -0.03683
#
# Static dielectric constant tensor:
#      x y z
#    x 3.838580 0.000000 0.000000 
#    y 0.000000 3.723700 0.000000 
#    z 0.000000 0.000000 3.244200 
# 
# 
# High freq. dielectric constant tensor:
#      x y z
#    x 1.792320 0.000000 0.000000 
#    y 0.000000 1.779060 0.000000 
#    z 0.000000 0.000000 1.747840 
# 
# From -- ./inp_files/9286.got.cif
#   From: 2010.06.25/outbox.cif.g09.slc.cpg/sg58_5_cif.got.tgz:9286.got - 2010.06.26 21:38:00.
