data_PCOD8236560
_publ_section_title
;
Structure prediction by ZEFSAII (Michael W. Deem and Ramdas Pophale) SiO2 
 PCOD8236560
Probable space group: P N N M
;
_chemical_formula_sum "Si O2"
_cell_formula_units_Z 64
_cell_length_a 12.029192
_cell_length_b 30.951079
_cell_length_c 8.736562
_cell_angle_alpha 90.000000
_cell_angle_beta 90.000000
_cell_angle_gamma 90.000000
_cell_volume 3252.765940
_symmetry_space_group_name_H-M "P N N M"
_symmetry_group_IT_number 58
_symmetry_cell_setting 'orthorhombic'
loop_
_space_group_symop_operation_xyz
x,y,z
-x,-y,z
1/2+x,1/2-y,1/2-z
1/2-x,1/2+y,1/2-z
-x,-y,-z
x,y,-z
1/2-x,1/2+y,1/2+z
1/2+x,1/2-y,1/2+z
loop_
_atom_site_type_symbol
_atom_site_label
_atom_site_fract_x
_atom_site_fract_y
_atom_site_fract_z
Si Si1 0.227538 0.203971 0.319489
Si Si2 0.258621 0.457042 0.819626
Si Si3 0.126792 0.630770 0.319717
Si Si4 0.733331 0.705092 0.179300
Si Si5 0.614513 0.122986 0.680252
Si Si6 0.996837 0.167546 0.681545
Si Si7 0.007142 0.928421 0.318093
Si Si8 0.762236 0.947604 0.679816
O O1 0.236506 0.198205 0.500000
O O2 0.324654 0.175366 0.245983
O O3 0.232326 0.253828 0.276564
O O4 0.109243 0.188324 0.254281
O O5 0.177616 0.419738 0.755229
O O6 0.384355 0.453085 0.752607
O O7 0.211705 0.504965 0.781295
O O8 0.266250 0.450150 0.000000
O O9 0.130651 0.633735 0.500000
O O10 0.196067 0.589121 0.267889
O O11 0.001048 0.626225 0.266335
O O12 0.812676 0.664994 0.219096
O O13 0.608916 0.694805 0.235191
O O14 0.738244 0.715959 0.000000
O O15 0.592154 0.119091 0.500000
O O16 0.999739 0.165307 0.500000
O O17 0.987307 0.119728 0.749200
O O18 0.011510 0.928555 0.500000
O O19 0.890842 0.949429 0.265782
O O20 0.753655 0.936973 0.500000
#
# Coordination Sequence:
#
# PCOD8236560 Si02
#       8
#     8   8   8   8   8   8   8   8
#     4  11  23  40  62  89 118 152 194 238 289 348
#     4   9  17  31  58  93 120 148 189 237 287 347
#     4  12  26  42  58  79 114 158 203 247 295 342
#     4  10  21  38  61  90 122 154 187 233 291 349
#     4  10  21  39  61  85 118 155 196 241 287 343
#     4   9  17  33  59  87 118 150 181 229 289 343
#     4   9  14  28  56  91 121 144 179 232 288 341
#     4  10  19  34  60  91 119 149 191 239 290 348
#
# _framework density 19.675563
#
# number of rings (size 3 to 8) (size 9 to 14) (size 15 to 20)
#    0.000    2.000    2.500    1.875    1.750    2.500 
#    0.000    3.750    0.000    2.250    0.000    0.000 
#    0.000    0.000    0.000    0.000    0.000    0.000 
#
# Total GULP energy -793423.003020 kJ/mol
# GULP energy per Si atom -12397.234422 kJ/mol
# Density = 1.963078 g / cm^3
# Si number density = 19.675563 Si / 1000 Ang^3
#
#
#
# Elastic Constant Matrix: (Units=GPa)
#
#
# Indices 1 2 3 4 5 6 
#
# 1 109.9806 36.0967 34.6282 0.0000 0.0000 0.0000
# 2 36.0967 119.3125 30.5477 0.0000 0.0000 0.0000
# 3 34.6282 30.5477 54.7334 0.0000 0.0000 0.0000
# 4 0.0000 0.0000 0.0000 25.5536 0.0000 0.0000
# 5 0.0000 0.0000 0.0000 0.0000 9.5667 0.0000
# 6 0.0000 0.0000 0.0000 0.0000 0.0000 27.1752
#
#
#
# Elastic Compliance Matrix: (Units=1/GPa)
#
#
# Indices 1 2 3 4 5 6 
#
# 1 0.011720 -0.001922 -0.006342 0.000000 0.000000 0.000000
# 2 -0.001922 0.010094 -0.004418 0.000000 0.000000 0.000000
# 3 -0.006342 -0.004418 0.024749 0.000000 0.000000 0.000000
# 4 0.000000 0.000000 0.000000 0.039133 0.000000 0.000000
# 5 0.000000 0.000000 0.000000 0.000000 0.104529 0.000000
# 6 0.000000 0.000000 0.000000 0.000000 0.000000 0.036798
#
#
# Mechanical properties :
#
#
# Convention : Reuss Voigt Hill
#
# Bulk Modulus (GPa) = 47.17248 54.06350 50.61799
# Shear Modulus (GPa) = 19.27129 24.64271 21.95700
#
# Velocity S-wave (km/s) = 3.13302 3.54284 3.34421
# Velocity P-wave (km/s) = 6.09220 6.65378 6.37917
#
# Compressibility (1/GPa) = 0.02119880
#
# Stress axis : x y z
#
# Youngs Moduli (GPa) = 85.32227 99.07004 40.40644
#
# Poissons Ratio (x) = 0.19041 0.25627
# Poissons Ratio (y) = 0.16399 0.17850
# Poissons Ratio (z) = 0.54114 0.43765
#
# Static dielectric constant tensor:
#      x y z
#    x 3.829650 0.000000 0.000000 
#    y 0.000000 3.750750 0.000000 
#    z 0.000000 0.000000 3.103870 
# 
# 
# High freq. dielectric constant tensor:
#      x y z
#    x 1.777510 0.000000 0.000000 
#    y 0.000000 1.784230 0.000000 
#    z 0.000000 0.000000 1.715840 
# 
# From -- ./inp_files/4668.got.cif
#   From: 2010.06.25/outbox.cif.g09.slc.cpg/sg58_3_cif.got.tgz:4668.got - 2010.06.26 21:38:00.
