data_PCOD8236778
_publ_section_title
;
Structure prediction by ZEFSAII (Michael W. Deem and Ramdas Pophale) SiO2 
 PCOD8236778
Probable space group: P N N M
;
_chemical_formula_sum "Si O2"
_cell_formula_units_Z 56
_cell_length_a 14.381883
_cell_length_b 21.482232
_cell_length_c 9.133041
_cell_angle_alpha 90.000000
_cell_angle_beta 90.000000
_cell_angle_gamma 90.000000
_cell_volume 2821.698200
_symmetry_space_group_name_H-M "P N N M"
_symmetry_group_IT_number 58
_symmetry_cell_setting 'orthorhombic'
loop_
_space_group_symop_operation_xyz
x,y,z
-x,-y,z
1/2+x,1/2-y,1/2-z
1/2-x,1/2+y,1/2-z
-x,-y,-z
x,y,-z
1/2-x,1/2+y,1/2+z
1/2+x,1/2-y,1/2+z
loop_
_atom_site_type_symbol
_atom_site_label
_atom_site_fract_x
_atom_site_fract_y
_atom_site_fract_z
Si Si1 0.383221 0.936231 0.669026
Si Si2 0.896093 0.979835 0.330492
Si Si3 0.795861 0.086144 0.826640
Si Si4 0.910860 0.191319 0.670628
Si Si5 0.907699 0.419983 0.831096
Si Si6 0.799793 0.313992 0.328512
Si Si7 0.118396 0.164341 0.330720
O O1 0.357196 0.925605 0.500000
O O2 0.308545 0.900602 0.769529
O O3 0.484034 0.907152 0.703545
O O4 0.383278 0.009191 0.706408
O O5 0.872769 0.993045 0.500000
O O6 0.883967 0.908172 0.289692
O O7 0.825390 0.018328 0.230804
O O8 0.000000 0.000000 0.292574
O O9 0.865808 0.137339 0.765864
O O10 0.797509 0.087920 0.000000
O O11 0.896691 0.174457 0.500000
O O12 0.865538 0.256624 0.714090
O O13 0.019878 0.195516 0.708830
O O14 0.843411 0.376937 0.733068
O O15 0.885695 0.405701 0.000000
O O16 0.789210 0.321280 0.500000
O O17 0.697948 0.301560 0.262127
O O18 0.142310 0.173795 0.500000
#
# Coordination Sequence:
#
# PCOD8236778 Si02
#       7
#     8   8   8   8   8   8   8
#     4   9  19  37  61  86 116 155 196 235 279 346
#     4  10  19  36  62  86 113 157 198 235 289 355
#     4  12  24  35  55  90 124 151 186 245 304 349
#     4  10  23  44  61  78 111 159 204 237 279 348
#     4   9  19  38  62  86 113 153 201 238 276 340
#     4  11  24  39  60  88 120 153 191 246 302 347
#     4  10  21  40  65  86 112 155 203 241 283 351
#
# _framework density 19.846204
#
# number of rings (size 3 to 8) (size 9 to 14) (size 15 to 20)
#    0.000    1.857    1.429    3.429    0.000    8.286 
#    0.000    4.286    0.000    0.000    0.000    0.000 
#    0.000    0.000    0.000    0.000    0.000    0.000 
#
# Total GULP energy -694645.794769 kJ/mol
# GULP energy per Si atom -12404.389192 kJ/mol
# Density = 1.980103 g / cm^3
# Si number density = 19.846204 Si / 1000 Ang^3
#
#
#
# Elastic Constant Matrix: (Units=GPa)
#
#
# Indices 1 2 3 4 5 6 
#
# 1 143.5353 45.3747 58.9190 0.0000 0.0000 0.0000
# 2 45.3747 63.0575 37.5132 0.0000 0.0000 0.0000
# 3 58.9190 37.5132 82.1137 0.0000 0.0000 0.0000
# 4 0.0000 0.0000 0.0000 16.7222 0.0000 0.0000
# 5 0.0000 0.0000 0.0000 0.0000 26.8222 0.0000
# 6 0.0000 0.0000 0.0000 0.0000 0.0000 27.6693
#
#
#
# Elastic Compliance Matrix: (Units=1/GPa)
#
#
# Indices 1 2 3 4 5 6 
#
# 1 0.010656 -0.004283 -0.005689 0.000000 0.000000 0.000000
# 2 -0.004283 0.023499 -0.007662 0.000000 0.000000 0.000000
# 3 -0.005689 -0.007662 0.019761 0.000000 0.000000 0.000000
# 4 0.000000 0.000000 0.000000 0.059801 0.000000 0.000000
# 5 0.000000 0.000000 0.000000 0.000000 0.037282 0.000000
# 6 0.000000 0.000000 0.000000 0.000000 0.000000 0.036141
#
#
# Mechanical properties :
#
#
# Convention : Reuss Voigt Hill
#
# Bulk Modulus (GPa) = 53.62878 63.59116 58.60997
# Shear Modulus (GPa) = 21.86982 24.03605 22.95294
#
# Velocity S-wave (km/s) = 3.32319 3.48388 3.40448
# Velocity P-wave (km/s) = 6.46573 6.94945 6.71194
#
# Compressibility (1/GPa) = 0.01864670
#
# Stress axis : x y z
#
# Youngs Moduli (GPa) = 93.83985 42.55528 50.60513
#
# Poissons Ratio (x) = 0.18228 0.28792
# Poissons Ratio (y) = 0.40196 0.38773
# Poissons Ratio (z) = 0.53390 0.32605
#
# Static dielectric constant tensor:
#      x y z
#    x 3.874800 0.000000 0.000000 
#    y 0.000000 3.564600 0.000000 
#    z 0.000000 0.000000 3.450760 
# 
# 
# High freq. dielectric constant tensor:
#      x y z
#    x 1.795070 0.000000 0.000000 
#    y 0.000000 1.762590 0.000000 
#    z 0.000000 0.000000 1.760310 
# 
# From -- ./inp_files/6459.got.cif
#   From: 2010.06.25/outbox.cif.g09.slc.cpg/sg58_4_cif.got.tgz:6459.got - 2010.06.26 21:38:00.
