data_PCOD8236322
_publ_section_title
;
Structure prediction by ZEFSAII (Michael W. Deem and Ramdas Pophale) SiO2 
 PCOD8236322
Probable space group: P N N M
;
_chemical_formula_sum "Si O2"
_cell_formula_units_Z 40
_cell_length_a 10.861491
_cell_length_b 15.941267
_cell_length_c 12.634579
_cell_angle_alpha 90.000000
_cell_angle_beta 90.000000
_cell_angle_gamma 90.000000
_cell_volume 2187.625906
_symmetry_space_group_name_H-M "P N N M"
_symmetry_group_IT_number 58
_symmetry_cell_setting 'orthorhombic'
loop_
_space_group_symop_operation_xyz
x,y,z
-x,-y,z
1/2+x,1/2-y,1/2-z
1/2-x,1/2+y,1/2-z
-x,-y,-z
x,y,-z
1/2-x,1/2+y,1/2+z
1/2+x,1/2-y,1/2+z
loop_
_atom_site_type_symbol
_atom_site_label
_atom_site_fract_x
_atom_site_fract_y
_atom_site_fract_z
Si Si1 0.503319 0.192320 0.122328
Si Si2 0.125735 0.456511 0.731897
Si Si3 0.751988 0.390945 0.623792
Si Si4 0.166126 0.963801 0.379937
Si Si5 0.062804 0.124446 0.301914
O O1 0.600751 0.132501 0.179212
O O2 0.361592 0.173785 0.156546
O O3 0.545426 0.285778 0.145856
O O4 0.514276 0.171466 0.000000
O O5 0.204547 0.514853 0.652282
O O6 0.198129 0.440236 0.841104
O O7 0.000000 0.500000 0.765017
O O8 0.720469 0.385764 0.500000
O O9 0.626842 0.367200 0.686720
O O10 0.146370 0.931977 0.500000
O O11 0.071345 0.919157 0.298729
O O12 0.148754 0.064838 0.375078
#
# Coordination Sequence:
#
# PCOD8236322 Si02
#       5
#     8   8   8   8   8
#     4  10  19  33  56  79 104 140 179 221 267 314
#     4   9  19  35  55  82 108 138 180 221 260 318
#     4   9  19  36  56  76 107 142 174 221 274 318
#     4  10  20  36  56  77 108 147 179 215 268 318
#     4  10  20  34  54  80 107 137 184 221 259 322
#
# _framework density 18.284662999999998
#
# number of rings (size 3 to 8) (size 9 to 14) (size 15 to 20)
#    0.000    2.400    0.000    3.000    2.800    2.800 
#    0.000    9.000    0.000    1.200    0.000    0.000 
#    0.000    0.000    0.000    0.000    0.000    0.000 
#
# Total GULP energy -495838.312273 kJ/mol
# GULP energy per Si atom -12395.957807 kJ/mol
# Density = 1.824305 g / cm^3
# Si number density = 18.284663 Si / 1000 Ang^3
#
#
#
# Elastic Constant Matrix: (Units=GPa)
#
#
# Indices 1 2 3 4 5 6 
#
# 1 101.5615 42.0209 62.6279 0.0000 0.0000 0.0000
# 2 42.0209 107.9342 26.2392 0.0000 0.0000 0.0000
# 3 62.6279 26.2392 97.2462 0.0000 0.0000 0.0000
# 4 0.0000 0.0000 0.0000 20.8763 0.0000 0.0000
# 5 0.0000 0.0000 0.0000 0.0000 31.3679 0.0000
# 6 0.0000 0.0000 0.0000 0.0000 0.0000 14.8718
#
#
#
# Elastic Compliance Matrix: (Units=1/GPa)
#
#
# Indices 1 2 3 4 5 6 
#
# 1 0.018192 -0.004531 -0.010493 0.000000 0.000000 0.000000
# 2 -0.004531 0.011044 -0.000062 0.000000 0.000000 0.000000
# 3 -0.010493 -0.000062 0.017057 0.000000 0.000000 0.000000
# 4 0.000000 0.000000 0.000000 0.047901 0.000000 0.000000
# 5 0.000000 0.000000 0.000000 0.000000 0.031880 0.000000
# 6 0.000000 0.000000 0.000000 0.000000 0.000000 0.067241
#
#
# Mechanical properties :
#
#
# Convention : Reuss Voigt Hill
#
# Bulk Modulus (GPa) = 62.03080 63.16864 62.59972
# Shear Modulus (GPa) = 21.84732 25.14681 23.49707
#
# Velocity S-wave (km/s) = 3.46040 3.71252 3.58868
# Velocity P-wave (km/s) = 7.06856 7.28007 7.17509
#
# Compressibility (1/GPa) = 0.01612102
#
# Stress axis : x y z
#
# Youngs Moduli (GPa) = 54.97038 90.54633 58.62559
#
# Poissons Ratio (x) = 0.41031 0.61516
# Poissons Ratio (y) = 0.24910 0.00361
# Poissons Ratio (z) = 0.57680 0.00558
#
# Static dielectric constant tensor:
#      x y z
#    x 3.510540 0.000000 0.000000 
#    y 0.000000 3.411810 0.000000 
#    z 0.000000 0.000000 3.236210 
# 
# 
# High freq. dielectric constant tensor:
#      x y z
#    x 1.707330 0.000000 0.000000 
#    y 0.000000 1.710520 0.000000 
#    z 0.000000 0.000000 1.693520 
# 
# From -- ./inp_files/14091.got.cif
#   From: 2010.06.25/outbox.cif.g09.slc.cpg/sg58_8_cif.got.tgz:14091.got - 2010.06.26 21:38:00.
