data_PCOD8236179
_publ_section_title
;
Structure prediction by ZEFSAII (Michael W. Deem and Ramdas Pophale) SiO2 
 PCOD8236179
Probable space group: P N N M
;
_chemical_formula_sum "Si O2"
_cell_formula_units_Z 56
_cell_length_a 21.497945
_cell_length_b 14.400625
_cell_length_c 9.270625
_cell_angle_alpha 90.000000
_cell_angle_beta 90.000000
_cell_angle_gamma 90.000000
_cell_volume 2870.035726
_symmetry_space_group_name_H-M "P N N M"
_symmetry_group_IT_number 58
_symmetry_cell_setting 'orthorhombic'
loop_
_space_group_symop_operation_xyz
x,y,z
-x,-y,z
1/2+x,1/2-y,1/2-z
1/2-x,1/2+y,1/2-z
-x,-y,-z
x,y,-z
1/2-x,1/2+y,1/2+z
1/2+x,1/2-y,1/2+z
loop_
_atom_site_type_symbol
_atom_site_label
_atom_site_fract_x
_atom_site_fract_y
_atom_site_fract_z
Si Si1 0.216182 0.323775 0.331041
Si Si2 0.634081 0.311549 0.335333
Si Si3 0.526592 0.164079 0.663826
Si Si4 0.160082 0.854273 0.333793
Si Si5 0.572994 0.506416 0.669963
Si Si6 0.892902 0.535980 0.664412
Si Si7 0.908602 0.329297 0.661648
O O1 0.228557 0.307262 0.500000
O O2 0.190698 0.226861 0.263195
O O3 0.276872 0.365004 0.255078
O O4 0.167900 0.405512 0.299523
O O5 0.657952 0.311614 0.500000
O O6 0.575009 0.246323 0.316079
O O7 0.611096 0.413386 0.288269
O O8 0.514699 0.138132 0.500000
O O9 0.549146 0.070516 0.741483
O O10 0.462935 0.200213 0.731054
O O11 0.168576 0.886338 0.500000
O O12 0.104170 0.911691 0.261373
O O13 0.145669 0.745263 0.325057
O O14 0.500000 0.500000 0.712611
O O15 0.578948 0.527573 0.500000
O O16 0.912893 0.549946 0.500000
O O17 0.879268 0.428987 0.702479
O O18 0.936209 0.331238 0.500000
#
# Coordination Sequence:
#
# PCOD8236179 Si02
#       7
#     8   8   8   8   8   8   8
#     4  10  21  38  59  82 108 143 189 233 276 332
#     4   9  19  36  58  82 112 149 184 225 279 335
#     4  10  19  32  54  85 114 138 172 220 268 317
#     4  11  24  39  56  81 113 147 187 237 285 330
#     4  10  21  39  62  86 114 152 195 237 288 347
#     4   9  19  36  56  77 106 145 182 215 261 326
#     4  10  21  36  53  75 107 146 179 212 265 327
#
# _framework density 19.511952000000001
#
# number of rings (size 3 to 8) (size 9 to 14) (size 15 to 20)
#    0.000    2.143    0.000    2.571    0.000    7.714 
#    0.000    2.857    0.000    0.000    0.000    0.000 
#    0.000    0.000    0.000    0.000    0.000    0.000 
#
# Total GULP energy -694444.446545 kJ/mol
# GULP energy per Si atom -12400.793688 kJ/mol
# Density = 1.946754 g / cm^3
# Si number density = 19.511952 Si / 1000 Ang^3
#
#
#
# Elastic Constant Matrix: (Units=GPa)
#
#
# Indices 1 2 3 4 5 6 
#
# 1 86.5981 16.9932 52.5618 0.0000 0.0000 0.0000
# 2 16.9932 92.0476 35.0212 0.0000 0.0000 0.0000
# 3 52.5618 35.0212 96.5665 0.0000 0.0000 0.0000
# 4 0.0000 0.0000 0.0000 24.0524 0.0000 0.0000
# 5 0.0000 0.0000 0.0000 0.0000 36.6448 0.0000
# 6 0.0000 0.0000 0.0000 0.0000 0.0000 24.4966
#
#
#
# Elastic Compliance Matrix: (Units=1/GPa)
#
#
# Indices 1 2 3 4 5 6 
#
# 1 0.017261 0.000450 -0.009558 0.000000 0.000000 0.000000
# 2 0.000450 0.012615 -0.004820 0.000000 0.000000 0.000000
# 3 -0.009558 -0.004820 0.017306 0.000000 0.000000 0.000000
# 4 0.000000 0.000000 0.000000 0.041576 0.000000 0.000000
# 5 0.000000 0.000000 0.000000 0.000000 0.027289 0.000000
# 6 0.000000 0.000000 0.000000 0.000000 0.000000 0.040822
#
#
# Mechanical properties :
#
#
# Convention : Reuss Voigt Hill
#
# Bulk Modulus (GPa) = 51.74542 53.81827 52.78184
# Shear Modulus (GPa) = 26.15515 28.41449 27.28482
#
# Velocity S-wave (km/s) = 3.66521 3.82024 3.74353
# Velocity P-wave (km/s) = 6.67002 6.86302 6.76721
#
# Compressibility (1/GPa) = 0.01932538
#
# Stress axis : x y z
#
# Youngs Moduli (GPa) = 57.93438 79.27286 57.78243
#
# Poissons Ratio (x) = -0.03568 0.55231
# Poissons Ratio (y) = -0.02608 0.27850
# Poissons Ratio (z) = 0.55376 0.38209
#
# Static dielectric constant tensor:
#      x y z
#    x 3.452650 0.000000 0.000000 
#    y 0.000000 3.659000 0.000000 
#    z 0.000000 0.000000 3.665650 
# 
# 
# High freq. dielectric constant tensor:
#      x y z
#    x 1.754680 0.000000 0.000000 
#    y 0.000000 1.764530 0.000000 
#    z 0.000000 0.000000 1.762850 
# 
# From -- ./inp_files/9046.got.cif
#   From: 2010.06.25/outbox.cif.g09.slc.cpg/sg58_5_cif.got.tgz:9046.got - 2010.06.26 21:38:00.
