data_PCOD8236860
_publ_section_title
;
Structure prediction by ZEFSAII (Michael W. Deem and Ramdas Pophale) SiO2 
 PCOD8236860
Probable space group: P N N M
;
_chemical_formula_sum "Si O2"
_cell_formula_units_Z 48
_cell_length_a 13.178778
_cell_length_b 9.994488
_cell_length_c 15.595273
_cell_angle_alpha 90.000000
_cell_angle_beta 90.000000
_cell_angle_gamma 90.000000
_cell_volume 2054.133544
_symmetry_space_group_name_H-M "P N N M"
_symmetry_group_IT_number 58
_symmetry_cell_setting 'orthorhombic'
loop_
_space_group_symop_operation_xyz
x,y,z
-x,-y,z
1/2+x,1/2-y,1/2-z
1/2-x,1/2+y,1/2-z
-x,-y,-z
x,y,-z
1/2-x,1/2+y,1/2+z
1/2+x,1/2-y,1/2+z
loop_
_atom_site_type_symbol
_atom_site_label
_atom_site_fract_x
_atom_site_fract_y
_atom_site_fract_z
Si Si1 0.406042 0.100631 0.161958
Si Si2 0.090032 0.894577 0.601722
Si Si3 0.135530 0.778787 0.900891
Si Si4 0.709295 0.447956 0.405120
Si Si5 0.290943 0.026997 0.331157
Si Si6 0.417398 0.795986 0.601973
O O1 0.331603 0.062072 0.083814
O O2 0.320246 0.079491 0.236543
O O3 0.500000 0.000000 0.169764
O O4 0.442856 0.253353 0.146058
O O5 0.116157 0.876166 0.500000
O O6 0.186578 0.947326 0.655393
O O7 0.000000 0.000000 0.613406
O O8 0.175405 0.915438 0.856431
O O9 0.216892 0.660583 0.888855
O O10 0.028258 0.736125 0.858724
O O11 0.118727 0.805896 0.000000
O O12 0.662484 0.453478 0.500000
O O13 0.659316 0.316990 0.361672
O O14 0.385489 0.937993 0.360939
O O15 0.417915 0.807840 0.500000
#
# Coordination Sequence:
#
# PCOD8236860 Si02
#       6
#     8   8   8   8   8   8
#     4  12  28  46  70 105 146 191 239 301 370 426
#     4  11  27  52  80 106 141 196 253 299 352 431
#     4  10  21  36  63 100 134 179 234 289 353 430
#     4  10  22  40  64  96 137 185 239 296 352 421
#     4  12  25  44  67 102 141 182 233 297 366 429
#     4  10  19  39  66  95 135 185 237 291 352 425
#
# _framework density 23.367515000000001
#
# number of rings (size 3 to 8) (size 9 to 14) (size 15 to 20)
#    0.000    1.167    1.667    4.000    4.667    4.667 
#    3.000    0.000    0.000    0.000    0.000    0.000 
#    0.000    0.000    0.000    0.000    0.000    0.000 
#
# Total GULP energy -594824.354231 kJ/mol
# GULP energy per Si atom -12392.174046 kJ/mol
# Density = 2.331433 g / cm^3
# Si number density = 23.367515 Si / 1000 Ang^3
#
#
#
# Elastic Constant Matrix: (Units=GPa)
#
#
# Indices 1 2 3 4 5 6 
#
# 1 97.3992 43.7071 24.1262 0.0000 0.0000 0.0000
# 2 43.7071 179.3939 40.8246 0.0000 0.0000 0.0000
# 3 24.1262 40.8246 63.0396 0.0000 0.0000 0.0000
# 4 0.0000 0.0000 0.0000 840.1285 0.0000 0.0000
# 5 0.0000 0.0000 0.0000 0.0000 17.2343 0.0000
# 6 0.0000 0.0000 0.0000 0.0000 0.0000 47.8013
#
#
#
# Elastic Compliance Matrix: (Units=1/GPa)
#
#
# Indices 1 2 3 4 5 6 
#
# 1 0.012047 -0.002212 -0.003178 0.000000 0.000000 0.000000
# 2 -0.002212 0.006944 -0.003650 0.000000 0.000000 0.000000
# 3 -0.003178 -0.003650 0.019443 0.000000 0.000000 0.000000
# 4 0.000000 0.000000 0.000000 0.001190 0.000000 0.000000
# 5 0.000000 0.000000 0.000000 0.000000 0.058024 0.000000
# 6 0.000000 0.000000 0.000000 0.000000 0.000000 0.020920
#
#
# Mechanical properties :
#
#
# Convention : Reuss Voigt Hill
#
# Bulk Modulus (GPa) = 49.13182 61.90541 55.51861
# Shear Modulus (GPa) = 34.85944 196.44448 115.65196
#
# Velocity S-wave (km/s) = 3.86656 9.17877 7.04273
# Velocity P-wave (km/s) = 6.40352 11.78485 9.48388
#
# Compressibility (1/GPa) = 0.02035341
#
# Stress axis : x y z
#
# Youngs Moduli (GPa) = 83.00964 144.01071 51.43141
#
# Poissons Ratio (x) = 0.31852 0.16346
# Poissons Ratio (y) = 0.18360 0.18775
# Poissons Ratio (z) = 0.26381 0.52570
#
# Static dielectric constant tensor:
#      x y z
#    x 4.214370 0.000000 0.000000 
#    y 0.000000 4.582670 0.000000 
#    z 0.000000 0.000000 4.073090 
# 
# 
# High freq. dielectric constant tensor:
#      x y z
#    x 1.921160 0.000000 0.000000 
#    y 0.000000 1.948560 0.000000 
#    z 0.000000 0.000000 1.909710 
# 
# From -- ./inp_files/26816.got.cif
#   From: 2010.06.25/outbox.cif.g09.slc.cpg/sg58_14_cif.got.tgz:26816.got - 2010.06.26 21:38:00.
