data_PCOD8236513
_publ_section_title
;
Structure prediction by ZEFSAII (Michael W. Deem and Ramdas Pophale) SiO2 
 PCOD8236513
Probable space group: P N N M
;
_chemical_formula_sum "Si O2"
_cell_formula_units_Z 56
_cell_length_a 19.683080
_cell_length_b 8.688082
_cell_length_c 15.713353
_cell_angle_alpha 90.000000
_cell_angle_beta 90.000000
_cell_angle_gamma 90.000000
_cell_volume 2687.112418
_symmetry_space_group_name_H-M "P N N M"
_symmetry_group_IT_number 58
_symmetry_cell_setting 'orthorhombic'
loop_
_space_group_symop_operation_xyz
x,y,z
-x,-y,z
1/2+x,1/2-y,1/2-z
1/2-x,1/2+y,1/2-z
-x,-y,-z
x,y,-z
1/2-x,1/2+y,1/2+z
1/2+x,1/2-y,1/2+z
loop_
_atom_site_type_symbol
_atom_site_label
_atom_site_fract_x
_atom_site_fract_y
_atom_site_fract_z
Si Si1 0.691960 0.910501 0.248695
Si Si2 0.436812 0.883157 0.746578
Si Si3 0.994557 0.681151 0.591678
Si Si4 0.758181 0.038953 0.404982
Si Si5 0.288129 0.618145 0.403720
Si Si6 0.386195 0.362316 0.819639
Si Si7 0.068357 0.069494 0.168615
O O1 0.737410 0.955510 0.166219
O O2 0.661166 0.740840 0.241698
O O3 0.634251 0.035682 0.262147
O O4 0.735368 0.913539 0.335332
O O5 0.436178 0.795083 0.838253
O O6 0.444928 0.751723 0.676400
O O7 0.500000 0.000000 0.738375
O O8 0.977537 0.758764 0.500000
O O9 0.063402 0.751334 0.629597
O O10 0.000000 0.500000 0.577716
O O11 0.746638 0.973316 0.500000
O O12 0.715888 0.197334 0.393334
O O13 0.838716 0.061703 0.391108
O O14 0.266043 0.571769 0.500000
O O15 0.364121 0.552332 0.388275
O O16 0.423577 0.486781 0.760639
O O17 0.000000 0.000000 0.124505
#
# Coordination Sequence:
#
# PCOD8236513 Si02
#       7
#     8   8   8   8   8   8   8
#     4  11  20  39  67  86 124 162 207 260 312 371
#     4  11  21  39  60  92 120 166 209 251 307 380
#     4  10  19  34  57  89 123 158 204 249 305 382
#     4  10  21  38  64  92 122 164 211 259 313 376
#     4  10  23  40  63  93 122 164 217 258 309 375
#     4  11  21  37  60  92 125 161 201 256 318 376
#     4  12  22  38  65  89 124 166 208 254 321 366
#
# _framework density 20.840214
#
# number of rings (size 3 to 8) (size 9 to 14) (size 15 to 20)
#    0.000    1.286    7.143    0.429    0.000    1.429 
#    0.000    2.857    0.000    3.429    0.000    0.000 
#    0.000    0.000    0.000    0.000    0.000    0.000 
#
# Total GULP energy -693944.738439 kJ/mol
# GULP energy per Si atom -12391.870329 kJ/mol
# Density = 2.079278 g / cm^3
# Si number density = 20.840214 Si / 1000 Ang^3
#
#
#
# Elastic Constant Matrix: (Units=GPa)
#
#
# Indices 1 2 3 4 5 6 
#
# 1 77.1082 27.1593 18.7444 0.0000 0.0000 0.0000
# 2 27.1593 61.5003 25.5865 0.0000 0.0000 0.0000
# 3 18.7444 25.5865 111.0585 0.0000 0.0000 0.0000
# 4 0.0000 0.0000 0.0000 -33.1606 0.0000 0.0000
# 5 0.0000 0.0000 0.0000 0.0000 86.6995 0.0000
# 6 0.0000 0.0000 0.0000 0.0000 0.0000 26.1672
#
#
#
# Elastic Compliance Matrix: (Units=1/GPa)
#
#
# Indices 1 2 3 4 5 6 
#
# 1 0.015489 -0.006362 -0.001148 0.000000 0.000000 0.000000
# 2 -0.006362 0.020597 -0.003672 0.000000 0.000000 0.000000
# 3 -0.001148 -0.003672 0.010044 0.000000 0.000000 0.000000
# 4 0.000000 0.000000 0.000000 -0.030156 0.000000 0.000000
# 5 0.000000 0.000000 0.000000 0.000000 0.011534 0.000000
# 6 0.000000 0.000000 0.000000 0.000000 0.000000 0.038216
#
#
# Mechanical properties :
#
#
# Convention : Reuss Voigt Hill
#
# Bulk Modulus (GPa) = 42.07756 43.62748 42.85252
# Shear Modulus (GPa) = 52.07789 27.81969 39.94879
#
# Velocity S-wave (km/s) = 5.00434 3.65760 4.38300
# Velocity P-wave (km/s) = 7.32295 6.23034 6.79863
#
# Compressibility (1/GPa) = 0.02376564
#
# Stress axis : x y z
#
# Youngs Moduli (GPa) = 64.56235 48.55018 99.56228
#
# Poissons Ratio (x) = 0.30889 0.11434
# Poissons Ratio (y) = 0.41077 0.36555
# Poissons Ratio (z) = 0.07414 0.17825
#
# Static dielectric constant tensor:
#      x y z
#    x 3.827090 0.000000 0.000000 
#    y 0.000000 3.628790 0.000000 
#    z 0.000000 0.000000 3.876920 
# 
# 
# High freq. dielectric constant tensor:
#      x y z
#    x 1.820920 0.000000 0.000000 
#    y 0.000000 1.800610 0.000000 
#    z 0.000000 0.000000 1.802890 
# 
# From -- ./inp_files/23253.got.cif
#   From: 2010.06.25/outbox.cif.g09.slc.cpg/sg58_12_cif.got.tgz:23253.got - 2010.06.26 21:38:00.
