data_PCOD8236903
_publ_section_title
;
Structure prediction by ZEFSAII (Michael W. Deem and Ramdas Pophale) SiO2 
 PCOD8236903
Probable space group: P N N M
;
_chemical_formula_sum "Si O2"
_cell_formula_units_Z 52
_cell_length_a 8.223096
_cell_length_b 23.176498
_cell_length_c 15.000299
_cell_angle_alpha 90.000000
_cell_angle_beta 90.000000
_cell_angle_gamma 90.000000
_cell_volume 2858.795504
_symmetry_space_group_name_H-M "P N N M"
_symmetry_group_IT_number 58
_symmetry_cell_setting 'orthorhombic'
loop_
_space_group_symop_operation_xyz
x,y,z
-x,-y,z
1/2+x,1/2-y,1/2-z
1/2-x,1/2+y,1/2-z
-x,-y,-z
x,y,-z
1/2-x,1/2+y,1/2+z
1/2+x,1/2-y,1/2+z
loop_
_atom_site_type_symbol
_atom_site_label
_atom_site_fract_x
_atom_site_fract_y
_atom_site_fract_z
Si Si1 0.336889 0.474686 0.602189
Si Si2 0.377242 0.692462 0.328099
Si Si3 0.661336 0.133755 0.838533
Si Si4 0.827995 0.407903 0.395857
Si Si5 0.142526 0.279679 0.500000
Si Si6 0.662552 0.697132 0.807913
Si Si7 0.011127 0.758276 0.000000
Si Si8 0.331571 0.299689 0.000000
O O1 0.500000 0.500000 0.645904
O O2 0.368184 0.457756 0.500000
O O3 0.295909 0.415722 0.651430
O O4 0.200069 0.523795 0.609828
O O5 0.311005 0.628257 0.345352
O O6 0.487459 0.696003 0.239556
O O7 0.225308 0.736950 0.322118
O O8 0.495723 0.704110 0.410777
O O9 0.489397 0.102537 0.839646
O O10 0.696577 0.162911 0.743439
O O11 0.665247 0.181902 0.913369
O O12 0.844911 0.388434 0.500000
O O13 0.299760 0.235107 0.500000
O O14 0.962876 0.252769 0.500000
O O15 0.637616 0.667586 0.906219
O O16 0.862242 0.713623 0.000000
#
# Coordination Sequence:
#
# PCOD8236903 Si02
#       8
#     8   8   8   8   4   8   4   4
#     4  10  21  34  52  82 118 154 187 222 278 356
#     4  11  20  35  51  82 106 153 187 234 284 346
#     4  12  21  35  54  83 112 156 192 229 281 350
#     4  11  21  34  57  82 122 153 180 230 286 357
#     4  12  20  34  57  81 113 158 187 230 289 345
#     4  11  23  35  55  75 113 147 202 237 288 331
#     4  10  20  32  55  75 114 143 189 224 292 331
#     4  10  24  42  50  79 112 157 193 260 282 331
#
# _framework density 18.18948
#
# number of rings (size 3 to 8) (size 9 to 14) (size 15 to 20)
#    0.000    1.077    3.846    5.077    0.000    1.231 
#    0.000    0.000    0.000    0.000    0.000    7.000 
#    0.000    0.000    0.000    0.000    0.000    0.000 
#
# Total GULP energy -644363.750511 kJ/mol
# GULP energy per Si atom -12391.610587 kJ/mol
# Density = 1.814808 g / cm^3
# Si number density = 18.189480 Si / 1000 Ang^3
#
#
#
# Elastic Constant Matrix: (Units=GPa)
#
#
# Indices 1 2 3 4 5 6 
#
# 1 83.7012 4.9579 21.5968 0.0000 0.0000 0.0000
# 2 4.9579 47.7741 23.4931 0.0000 0.0000 0.0000
# 3 21.5968 23.4931 134.0956 0.0000 0.0000 0.0000
# 4 0.0000 0.0000 0.0000 17.2972 0.0000 0.0000
# 5 0.0000 0.0000 0.0000 0.0000 51.7214 0.0000
# 6 0.0000 0.0000 0.0000 0.0000 0.0000 26.5949
#
#
#
# Elastic Compliance Matrix: (Units=1/GPa)
#
#
# Indices 1 2 3 4 5 6 
#
# 1 0.012470 -0.000335 -0.001950 0.000000 0.000000 0.000000
# 2 -0.000335 0.022914 -0.003960 0.000000 0.000000 0.000000
# 3 -0.001950 -0.003960 0.008465 0.000000 0.000000 0.000000
# 4 0.000000 0.000000 0.000000 0.057813 0.000000 0.000000
# 5 0.000000 0.000000 0.000000 0.000000 0.019334 0.000000
# 6 0.000000 0.000000 0.000000 0.000000 0.000000 0.037601
#
#
# Mechanical properties :
#
#
# Convention : Reuss Voigt Hill
#
# Bulk Modulus (GPa) = 31.88913 40.62961 36.25937
# Shear Modulus (GPa) = 27.54186 33.49091 30.51638
#
# Velocity S-wave (km/s) = 3.89545 4.29560 4.10041
# Velocity P-wave (km/s) = 6.14836 6.85480 6.51117
#
# Compressibility (1/GPa) = 0.03135865
#
# Stress axis : x y z
#
# Youngs Moduli (GPa) = 80.19131 43.64095 118.13026
#
# Poissons Ratio (x) = 0.01464 0.23031
# Poissons Ratio (y) = 0.02690 0.46785
# Poissons Ratio (z) = 0.15634 0.17284
#
# Static dielectric constant tensor:
#      x y z
#    x 3.672200 0.000000 0.000000 
#    y 0.000000 3.122530 0.000000 
#    z 0.000000 0.000000 3.437900 
# 
# 
# High freq. dielectric constant tensor:
#      x y z
#    x 1.731510 0.000000 0.000000 
#    y 0.000000 1.667160 0.000000 
#    z 0.000000 0.000000 1.685160 
# 
# From -- ./inp_files/20083.got.cif
#   From: 2010.06.25/outbox.cif.g09.slc.cpg/sg58_11_cif.got.tgz:20083.got - 2010.06.26 21:38:00.
