data_PCOD8236786
_publ_section_title
;
Structure prediction by ZEFSAII (Michael W. Deem and Ramdas Pophale) SiO2 
 PCOD8236786
Probable space group: P N N M
;
_chemical_formula_sum "Si O2"
_cell_formula_units_Z 64
_cell_length_a 24.506516
_cell_length_b 14.347094
_cell_length_c 8.751241
_cell_angle_alpha 90.000000
_cell_angle_beta 90.000000
_cell_angle_gamma 90.000000
_cell_volume 3076.912608
_symmetry_space_group_name_H-M "P N N M"
_symmetry_group_IT_number 58
_symmetry_cell_setting 'orthorhombic'
loop_
_space_group_symop_operation_xyz
x,y,z
-x,-y,z
1/2+x,1/2-y,1/2-z
1/2-x,1/2+y,1/2-z
-x,-y,-z
x,y,-z
1/2-x,1/2+y,1/2+z
1/2+x,1/2-y,1/2+z
loop_
_atom_site_type_symbol
_atom_site_label
_atom_site_fract_x
_atom_site_fract_y
_atom_site_fract_z
Si Si1 0.060406 0.032288 0.318775
Si Si2 0.408362 0.726679 0.678370
Si Si3 0.107401 0.845667 0.673504
Si Si4 0.664699 0.995908 0.821236
Si Si5 0.199831 0.303763 0.322342
Si Si6 0.513271 0.786585 0.172587
Si Si7 0.942525 0.454674 0.822817
Si Si8 0.197455 0.708395 0.318981
O O1 0.063507 0.053091 0.500000
O O2 0.078335 0.121497 0.224025
O O3 0.103943 0.951929 0.266858
O O4 0.000000 0.000000 0.272034
O O5 0.394769 0.734658 0.500000
O O6 0.358754 0.764373 0.777237
O O7 0.461331 0.789570 0.715781
O O8 0.127042 0.847868 0.500000
O O9 0.151497 0.777706 0.756085
O O10 0.044680 0.811233 0.683525
O O11 0.607917 0.016976 0.733585
O O12 0.690555 0.898588 0.759346
O O13 0.703440 0.084887 0.786122
O O14 0.651837 0.990163 0.000000
O O15 0.209957 0.284895 0.500000
O O16 0.244075 0.247328 0.227003
O O17 0.559087 0.859730 0.226062
O O18 0.493664 0.806213 0.000000
O O19 0.000000 0.500000 0.781729
O O20 0.936623 0.432711 0.000000
O O21 0.192888 0.705421 0.500000
#
# Coordination Sequence:
#
# PCOD8236786 Si02
#       8
#     8   8   8   8   8   8   8   8
#     4  10  19  36  62  91 125 168 213 253 301 373
#     4  12  25  40  59  90 129 168 208 260 320 372
#     4   9  18  35  62  91 120 158 203 249 305 364
#     4  10  22  42  67  91 121 162 210 256 307 372
#     4  11  25  44  65  92 122 163 214 261 310 372
#     4  11  20  37  62  88 121 163 207 252 306 373
#     4  11  23  36  55  90 130 164 203 253 312 373
#     4  10  21  42  67  92 123 160 204 260 317 368
#
# _framework density 20.800072
#
# number of rings (size 3 to 8) (size 9 to 14) (size 15 to 20)
#    0.000    1.500    2.500    3.000    0.000    5.750 
#    0.000    3.125    0.000    0.000    0.000    0.000 
#    0.000    0.000    0.000    0.000    0.000    0.000 
#
# Total GULP energy -793434.056746 kJ/mol
# GULP energy per Si atom -12397.407137 kJ/mol
# Density = 2.075273 g / cm^3
# Si number density = 20.800072 Si / 1000 Ang^3
#
#
#
# Elastic Constant Matrix: (Units=GPa)
#
#
# Indices 1 2 3 4 5 6 
#
# 1 81.7561 30.8107 3.7102 0.0000 0.0000 0.0000
# 2 30.8107 94.5432 19.3968 0.0000 0.0000 0.0000
# 3 3.7102 19.3968 38.8205 0.0000 0.0000 0.0000
# 4 0.0000 0.0000 0.0000 24.8154 0.0000 0.0000
# 5 0.0000 0.0000 0.0000 0.0000 30.9016 0.0000
# 6 0.0000 0.0000 0.0000 0.0000 0.0000 30.1484
#
#
#
# Elastic Compliance Matrix: (Units=1/GPa)
#
#
# Indices 1 2 3 4 5 6 
#
# 1 0.013982 -0.004772 0.001048 0.000000 0.000000 0.000000
# 2 -0.004772 0.013414 -0.006246 0.000000 0.000000 0.000000
# 3 0.001048 -0.006246 0.028780 0.000000 0.000000 0.000000
# 4 0.000000 0.000000 0.000000 0.040298 0.000000 0.000000
# 5 0.000000 0.000000 0.000000 0.000000 0.032361 0.000000
# 6 0.000000 0.000000 0.000000 0.000000 0.000000 0.033169
#
#
# Mechanical properties :
#
#
# Convention : Reuss Voigt Hill
#
# Bulk Modulus (GPa) = 27.59658 35.88390 31.74024
# Shear Modulus (GPa) = 25.77020 27.91988 26.84504
#
# Velocity S-wave (km/s) = 3.52369 3.66771 3.59642
# Velocity P-wave (km/s) = 5.46365 5.93510 5.70425
#
# Compressibility (1/GPa) = 0.03623637
#
# Stress axis : x y z
#
# Youngs Moduli (GPa) = 71.51950 74.55066 34.74590
#
# Poissons Ratio (x) = 0.35573 -0.03641
# Poissons Ratio (y) = 0.34127 0.21703
# Poissons Ratio (z) = -0.07494 0.46565
#
# Static dielectric constant tensor:
#      x y z
#    x 3.650150 0.000000 0.000000 
#    y 0.000000 4.137440 0.000000 
#    z 0.000000 0.000000 3.471110 
# 
# 
# High freq. dielectric constant tensor:
#      x y z
#    x 1.805490 0.000000 0.000000 
#    y 0.000000 1.833600 0.000000 
#    z 0.000000 0.000000 1.790770 
# 
# From -- ./inp_files/9955.got.cif
#   From: 2010.06.25/outbox.cif.g09.slc.cpg/sg58_5_cif.got.tgz:9955.got - 2010.06.26 21:38:00.
