data_PCOD8236601
_publ_section_title
;
Structure prediction by ZEFSAII (Michael W. Deem and Ramdas Pophale) SiO2 
 PCOD8236601
Probable space group: P N N M
;
_chemical_formula_sum "Si O2"
_cell_formula_units_Z 64
_cell_length_a 24.431550
_cell_length_b 14.602924
_cell_length_c 8.937027
_cell_angle_alpha 90.000000
_cell_angle_beta 90.000000
_cell_angle_gamma 90.000000
_cell_volume 3188.481603
_symmetry_space_group_name_H-M "P N N M"
_symmetry_group_IT_number 58
_symmetry_cell_setting 'orthorhombic'
loop_
_space_group_symop_operation_xyz
x,y,z
-x,-y,z
1/2+x,1/2-y,1/2-z
1/2-x,1/2+y,1/2-z
-x,-y,-z
x,y,-z
1/2-x,1/2+y,1/2+z
1/2+x,1/2-y,1/2+z
loop_
_atom_site_type_symbol
_atom_site_label
_atom_site_fract_x
_atom_site_fract_y
_atom_site_fract_z
Si Si1 0.449920 0.435541 0.677288
Si Si2 0.242044 0.135306 0.177808
Si Si3 0.028773 0.744224 0.671785
Si Si4 0.551194 0.939001 0.326348
Si Si5 0.361351 0.549809 0.171383
Si Si6 0.904037 0.754736 0.334997
Si Si7 0.173525 0.517481 0.825819
Si Si8 0.693744 0.179387 0.674499
O O1 0.500000 0.500000 0.732752
O O2 0.445433 0.438277 0.500000
O O3 0.457677 0.332205 0.730130
O O4 0.392341 0.467585 0.746491
O O5 0.196181 0.069862 0.248824
O O6 0.301333 0.101624 0.232147
O O7 0.234062 0.240806 0.236705
O O8 0.237154 0.130918 0.000000
O O9 0.046246 0.761572 0.500000
O O10 0.058642 0.655184 0.736028
O O11 0.965125 0.721031 0.686061
O O12 0.541789 0.915473 0.500000
O O13 0.608378 0.991974 0.299620
O O14 0.500000 0.000000 0.266911
O O15 0.401806 0.636055 0.183689
O O16 0.349390 0.522302 0.000000
O O17 0.881531 0.727947 0.500000
O O18 0.868444 0.706645 0.208917
O O19 0.202889 0.423836 0.764899
O O20 0.186001 0.534601 0.000000
O O21 0.700564 0.174306 0.500000
#
# Coordination Sequence:
#
# PCOD8236601 Si02
#       8
#     8   8   8   8   8   8   8   8
#     4  11  22  35  55  85 121 161 204 249 297 355
#     4  10  21  38  60  88 117 147 195 250 296 352
#     4  11  22  36  55  84 121 160 198 240 298 362
#     4  10  22  41  64  89 118 156 202 253 308 365
#     4  10  19  35  57  81 115 156 198 244 294 349
#     4   9  18  31  52  82 114 148 191 237 284 341
#     4  10  21  40  63  87 117 155 197 246 304 362
#     4   9  19  36  60  85 109 145 194 241 290 347
#
# _framework density 20.072248999999999
#
# number of rings (size 3 to 8) (size 9 to 14) (size 15 to 20)
#    0.000    2.000    1.250    2.250    0.000    4.750 
#    2.250    0.000    0.000    0.000    0.000    0.000 
#    0.000    0.000    0.000    0.000    0.000    0.000 
#
# Total GULP energy -793446.015011 kJ/mol
# GULP energy per Si atom -12397.593985 kJ/mol
# Density = 2.002656 g / cm^3
# Si number density = 20.072249 Si / 1000 Ang^3
#
#
#
# Elastic Constant Matrix: (Units=GPa)
#
#
# Indices 1 2 3 4 5 6 
#
# 1 78.2045 39.9930 31.1304 0.0000 0.0000 0.0000
# 2 39.9930 120.6707 34.8154 0.0000 0.0000 0.0000
# 3 31.1304 34.8154 55.8180 0.0000 0.0000 0.0000
# 4 0.0000 0.0000 0.0000 27.9005 0.0000 0.0000
# 5 0.0000 0.0000 0.0000 0.0000 31.7371 0.0000
# 6 0.0000 0.0000 0.0000 0.0000 0.0000 28.1831
#
#
#
# Elastic Compliance Matrix: (Units=1/GPa)
#
#
# Indices 1 2 3 4 5 6 
#
# 1 0.017679 -0.003676 -0.007567 0.000000 0.000000 0.000000
# 2 -0.003676 0.010870 -0.004730 0.000000 0.000000 0.000000
# 3 -0.007567 -0.004730 0.025086 0.000000 0.000000 0.000000
# 4 0.000000 0.000000 0.000000 0.035842 0.000000 0.000000
# 5 0.000000 0.000000 0.000000 0.000000 0.031509 0.000000
# 6 0.000000 0.000000 0.000000 0.000000 0.000000 0.035482
#
#
# Mechanical properties :
#
#
# Convention : Reuss Voigt Hill
#
# Bulk Modulus (GPa) = 46.10607 51.84121 48.97364
# Shear Modulus (GPa) = 25.55683 27.48111 26.51897
#
# Velocity S-wave (km/s) = 3.57212 3.70416 3.63874
# Velocity P-wave (km/s) = 6.32719 6.64664 6.48888
#
# Compressibility (1/GPa) = 0.02168912
#
# Stress axis : x y z
#
# Youngs Moduli (GPa) = 56.56430 91.99682 39.86350
#
# Poissons Ratio (x) = 0.33818 0.30164
# Poissons Ratio (y) = 0.20793 0.18854
# Poissons Ratio (z) = 0.42802 0.43512
#
# Static dielectric constant tensor:
#      x y z
#    x 3.484600 0.000000 0.000000 
#    y 0.000000 3.784990 0.000000 
#    z 0.000000 0.000000 3.597150 
# 
# 
# High freq. dielectric constant tensor:
#      x y z
#    x 1.769280 0.000000 0.000000 
#    y 0.000000 1.785670 0.000000 
#    z 0.000000 0.000000 1.780110 
# 
# From -- ./inp_files/10077.got.cif
#   From: 2010.06.25/outbox.cif.g09.slc.cpg/sg58_6_cif.got.tgz:10077.got - 2010.06.26 21:38:00.
