data_PCOD8236739
_publ_section_title
;
Structure prediction by ZEFSAII (Michael W. Deem and Ramdas Pophale) SiO2 
 PCOD8236739
Probable space group: P N N M
;
_chemical_formula_sum "Si O2"
_cell_formula_units_Z 48
_cell_length_a 10.111383
_cell_length_b 28.730674
_cell_length_c 9.238223
_cell_angle_alpha 90.000000
_cell_angle_beta 90.000000
_cell_angle_gamma 90.000000
_cell_volume 2683.767051
_symmetry_space_group_name_H-M "P N N M"
_symmetry_group_IT_number 58
_symmetry_cell_setting 'orthorhombic'
loop_
_space_group_symop_operation_xyz
x,y,z
-x,-y,z
1/2+x,1/2-y,1/2-z
1/2-x,1/2+y,1/2-z
-x,-y,-z
x,y,-z
1/2-x,1/2+y,1/2+z
1/2+x,1/2-y,1/2+z
loop_
_atom_site_type_symbol
_atom_site_label
_atom_site_fract_x
_atom_site_fract_y
_atom_site_fract_z
Si Si1 0.140639 0.476558 0.165527
Si Si2 0.511678 0.377527 0.663365
Si Si3 0.985974 0.214510 0.329259
Si Si4 0.789983 0.610273 0.663973
Si Si5 0.369977 0.526219 0.668268
Si Si6 0.782124 0.715543 0.669559
O O1 0.132237 0.425121 0.233667
O O2 0.243932 0.509553 0.244810
O O3 0.000000 0.500000 0.182861
O O4 0.183856 0.471454 0.000000
O O5 0.527786 0.358094 0.500000
O O6 0.535423 0.335666 0.774347
O O7 0.366018 0.399370 0.680715
O O8 0.615833 0.418432 0.694836
O O9 0.964131 0.212270 0.500000
O O10 0.849441 0.230410 0.255425
O O11 0.097787 0.251467 0.285558
O O12 0.836672 0.601441 0.500000
O O13 0.822931 0.662991 0.711686
O O14 0.500000 0.500000 0.725982
O O15 0.347919 0.514514 0.500000
O O16 0.748272 0.718606 0.500000
#
# Coordination Sequence:
#
# PCOD8236739 Si02
#       6
#     8   8   8   8   8   8
#     4  11  24  38  51  77 116 146 175 222 274 321
#     4   9  18  34  57  83 109 136 176 227 270 315
#     4  10  20  35  57  83 111 142 179 221 270 323
#     4   9  17  35  59  77 102 142 185 221 259 317
#     4  10  19  36  60  82 104 138 183 223 260 315
#     4   9  20  38  57  80 110 142 178 223 267 317
#
# _framework density 17.885307000000001
#
# number of rings (size 3 to 8) (size 9 to 14) (size 15 to 20)
#    0.000    2.333    1.667    2.000    0.000    6.333 
#    3.000    0.000    0.000    0.000    0.000    0.000 
#    0.000    0.000    0.000    0.000    0.000    0.000 
#
# Total GULP energy -595291.950917 kJ/mol
# GULP energy per Si atom -12401.915644 kJ/mol
# Density = 1.784460 g / cm^3
# Si number density = 17.885307 Si / 1000 Ang^3
#
#
#
# Elastic Constant Matrix: (Units=GPa)
#
#
# Indices 1 2 3 4 5 6 
#
# 1 84.7608 62.7180 60.2512 0.0000 0.0000 0.0000
# 2 62.7180 109.1419 58.3390 0.0000 0.0000 0.0000
# 3 60.2512 58.3390 90.5786 0.0000 0.0000 0.0000
# 4 0.0000 0.0000 0.0000 24.5372 0.0000 0.0000
# 5 0.0000 0.0000 0.0000 0.0000 17.0882 0.0000
# 6 0.0000 0.0000 0.0000 0.0000 0.0000 30.7901
#
#
#
# Elastic Compliance Matrix: (Units=1/GPa)
#
#
# Indices 1 2 3 4 5 6 
#
# 1 0.027253 -0.009106 -0.012263 0.000000 0.000000 0.000000
# 2 -0.009106 0.017015 -0.004902 0.000000 0.000000 0.000000
# 3 -0.012263 -0.004902 0.022355 0.000000 0.000000 0.000000
# 4 0.000000 0.000000 0.000000 0.040754 0.000000 0.000000
# 5 0.000000 0.000000 0.000000 0.000000 0.058520 0.000000
# 6 0.000000 0.000000 0.000000 0.000000 0.000000 0.032478
#
#
# Mechanical properties :
#
#
# Convention : Reuss Voigt Hill
#
# Bulk Modulus (GPa) = 71.01980 71.89974 71.45977
# Shear Modulus (GPa) = 19.56096 21.36129 20.46113
#
# Velocity S-wave (km/s) = 3.31068 3.45968 3.38600
# Velocity P-wave (km/s) = 7.37623 7.49980 7.43827
#
# Compressibility (1/GPa) = 0.01408058
#
# Stress axis : x y z
#
# Youngs Moduli (GPa) = 36.69344 58.77103 44.73305
#
# Poissons Ratio (x) = 0.53515 0.54858
# Poissons Ratio (y) = 0.33412 0.21929
# Poissons Ratio (z) = 0.44999 0.28810
#
# Static dielectric constant tensor:
#      x y z
#    x 3.141280 0.000000 0.000000 
#    y 0.000000 3.390710 0.000000 
#    z 0.000000 0.000000 3.300780 
# 
# 
# High freq. dielectric constant tensor:
#      x y z
#    x 1.675290 0.000000 0.000000 
#    y 0.000000 1.701560 0.000000 
#    z 0.000000 0.000000 1.691480 
# 
# From -- ./inp_files/2862.got.cif
#   From: 2010.06.25/outbox.cif.g09.slc.cpg/sg58_2_cif.got.tgz:2862.got - 2010.06.26 21:38:00.
