data_PCOD8236470
_publ_section_title
;
Structure prediction by ZEFSAII (Michael W. Deem and Ramdas Pophale) SiO2 
 PCOD8236470
Probable space group: P N N M
;
_chemical_formula_sum "Si O2"
_cell_formula_units_Z 64
_cell_length_a 19.291590
_cell_length_b 19.924480
_cell_length_c 9.110106
_cell_angle_alpha 90.000000
_cell_angle_beta 90.000000
_cell_angle_gamma 90.000000
_cell_volume 3501.696075
_symmetry_space_group_name_H-M "P N N M"
_symmetry_group_IT_number 58
_symmetry_cell_setting 'orthorhombic'
loop_
_space_group_symop_operation_xyz
x,y,z
-x,-y,z
1/2+x,1/2-y,1/2-z
1/2-x,1/2+y,1/2-z
-x,-y,-z
x,y,-z
1/2-x,1/2+y,1/2+z
1/2+x,1/2-y,1/2+z
loop_
_atom_site_type_symbol
_atom_site_label
_atom_site_fract_x
_atom_site_fract_y
_atom_site_fract_z
Si Si1 0.329148 0.090332 0.670005
Si Si2 0.066291 0.040076 0.325192
Si Si3 0.775095 0.649452 0.173030
Si Si4 0.029473 0.572905 0.328633
Si Si5 0.092623 0.189244 0.670948
Si Si6 0.251596 0.721417 0.833757
Si Si7 0.068911 0.322576 0.173792
Si Si8 0.288242 0.487791 0.825741
O O1 0.348274 0.075625 0.500000
O O2 0.391985 0.073307 0.775495
O O3 0.308694 0.167700 0.692506
O O4 0.265464 0.044725 0.722961
O O5 0.068429 0.036859 0.500000
O O6 0.061896 0.117853 0.276063
O O7 0.135929 0.005385 0.261362
O O8 0.000000 0.000000 0.262444
O O9 0.735548 0.714728 0.232730
O O10 0.855411 0.650828 0.222747
O O11 0.738035 0.583426 0.237969
O O12 0.769517 0.650701 0.000000
O O13 0.025360 0.590017 0.500000
O O14 0.000000 0.500000 0.292784
O O15 0.987591 0.628101 0.239226
O O16 0.077183 0.201901 0.500000
O O17 0.174676 0.187541 0.703282
O O18 0.056068 0.247985 0.763530
O O19 0.251877 0.747253 0.000000
O O20 0.060480 0.320501 0.000000
O O21 0.291975 0.484863 0.000000
#
# Coordination Sequence:
#
# PCOD8236470 Si02
#       8
#     8   8   8   8   8   8   8   8
#     4  10  19  34  57  78 102 142 185 223 263 318
#     4   9  16  28  50  79 108 138 177 223 268 316
#     4   9  18  31  51  78 107 138 177 224 263 304
#     4  11  24  39  54  78 110 139 173 224 280 329
#     4   9  16  31  54  79 107 141 180 222 265 311
#     4   9  17  31  52  75 102 137 175 215 260 314
#     4  10  20  35  55  79 106 145 186 220 264 322
#     4   9  16  30  51  76 104 137 180 222 262 311
#
# _framework density 18.276858000000001
#
# number of rings (size 3 to 8) (size 9 to 14) (size 15 to 20)
#    0.000    2.500    1.250    1.500    0.000    3.000 
#    2.250    0.625    0.000    1.125    0.000    0.000 
#    0.000    0.000    0.000    0.000    0.000    0.000 
#
# Total GULP energy -793620.344813 kJ/mol
# GULP energy per Si atom -12400.317888 kJ/mol
# Density = 1.823526 g / cm^3
# Si number density = 18.276858 Si / 1000 Ang^3
#
#
#
# Elastic Constant Matrix: (Units=GPa)
#
#
# Indices 1 2 3 4 5 6 
#
# 1 108.7667 69.6228 29.2725 0.0000 0.0000 0.0000
# 2 69.6228 144.8237 36.4722 0.0000 0.0000 0.0000
# 3 29.2725 36.4722 35.1717 0.0000 0.0000 0.0000
# 4 0.0000 0.0000 0.0000 23.7554 0.0000 0.0000
# 5 0.0000 0.0000 0.0000 0.0000 19.9894 0.0000
# 6 0.0000 0.0000 0.0000 0.0000 0.0000 30.2407
#
#
#
# Elastic Compliance Matrix: (Units=1/GPa)
#
#
# Indices 1 2 3 4 5 6 
#
# 1 0.014287 -0.005243 -0.006454 0.000000 0.000000 0.000000
# 2 -0.005243 0.011270 -0.007323 0.000000 0.000000 0.000000
# 3 -0.006454 -0.007323 0.041397 0.000000 0.000000 0.000000
# 4 0.000000 0.000000 0.000000 0.042096 0.000000 0.000000
# 5 0.000000 0.000000 0.000000 0.000000 0.050027 0.000000
# 6 0.000000 0.000000 0.000000 0.000000 0.000000 0.033068
#
#
# Mechanical properties :
#
#
# Convention : Reuss Voigt Hill
#
# Bulk Modulus (GPa) = 34.58495 62.16636 48.37566
# Shear Modulus (GPa) = 20.84889 25.02340 22.93615
#
# Velocity S-wave (km/s) = 3.38113 3.70419 3.54634
# Velocity P-wave (km/s) = 5.84864 7.23756 6.57985
#
# Compressibility (1/GPa) = 0.02891431
#
# Stress axis : x y z
#
# Youngs Moduli (GPa) = 69.99345 88.73397 24.15651
#
# Poissons Ratio (x) = 0.46524 0.15590
# Poissons Ratio (y) = 0.36698 0.17689
# Poissons Ratio (z) = 0.45172 0.64977
#
# Static dielectric constant tensor:
#      x y z
#    x 3.382720 0.000000 0.000000 
#    y 0.000000 3.569780 0.000000 
#    z 0.000000 0.000000 3.081960 
# 
# 
# High freq. dielectric constant tensor:
#      x y z
#    x 1.699140 0.000000 0.000000 
#    y 0.000000 1.722400 0.000000 
#    z 0.000000 0.000000 1.677190 
# 
# From -- ./inp_files/8419.got.cif
#   From: 2010.06.25/outbox.cif.g09.slc.cpg/sg58_5_cif.got.tgz:8419.got - 2010.06.26 21:38:00.
