data_PCOD8236291
_publ_section_title
;
Structure prediction by ZEFSAII (Michael W. Deem and Ramdas Pophale) SiO2 
 PCOD8236291
Probable space group: P N N M
;
_chemical_formula_sum "Si O2"
_cell_formula_units_Z 40
_cell_length_a 15.206056
_cell_length_b 15.281755
_cell_length_c 9.389016
_cell_angle_alpha 90.000000
_cell_angle_beta 90.000000
_cell_angle_gamma 90.000000
_cell_volume 2181.774680
_symmetry_space_group_name_H-M "P N N M"
_symmetry_group_IT_number 58
_symmetry_cell_setting 'orthorhombic'
loop_
_space_group_symop_operation_xyz
x,y,z
-x,-y,z
1/2+x,1/2-y,1/2-z
1/2-x,1/2+y,1/2-z
-x,-y,-z
x,y,-z
1/2-x,1/2+y,1/2+z
1/2+x,1/2-y,1/2+z
loop_
_atom_site_type_symbol
_atom_site_label
_atom_site_fract_x
_atom_site_fract_y
_atom_site_fract_z
Si Si1 0.754462 0.031314 0.164727
Si Si2 0.179934 0.282045 0.330783
Si Si3 0.984723 0.247152 0.332221
Si Si4 0.419380 0.435659 0.840454
Si Si5 0.312611 0.156403 0.834160
O O1 0.704948 0.119219 0.213215
O O2 0.844375 0.019424 0.248820
O O3 0.695495 0.946524 0.198988
O O4 0.778816 0.036066 0.000000
O O5 0.186048 0.267751 0.500000
O O6 0.244212 0.212937 0.256841
O O7 0.081002 0.269081 0.270438
O O8 0.995571 0.237612 0.500000
O O9 0.949422 0.155555 0.269043
O O10 0.913044 0.320679 0.291554
O O11 0.500000 0.500000 0.843534
O O12 0.383229 0.419446 0.000000
O O13 0.294959 0.177373 0.000000
#
# Coordination Sequence:
#
# PCOD8236291 Si02
#       5
#     8   8   8   8   8
#     4  10  21  34  53  81 110 139 175 225 277 316
#     4  10  20  36  56  80 108 140 182 227 268 317
#     4   9  18  33  54  77 105 142 180 217 262 321
#     4  10  19  33  55  80 105 140 184 222 263 319
#     4  10  20  36  55  78 109 144 179 220 273 325
#
# _framework density 18.333697999999998
#
# number of rings (size 3 to 8) (size 9 to 14) (size 15 to 20)
#    0.000    2.200    2.000    1.200    0.000    3.600 
#    0.000    6.000    0.000    0.000    0.000    4.200 
#    0.000    0.000    0.000    0.000    0.000    0.000 
#
# Total GULP energy -495971.940284 kJ/mol
# GULP energy per Si atom -12399.298507 kJ/mol
# Density = 1.829197 g / cm^3
# Si number density = 18.333698 Si / 1000 Ang^3
#
#
#
# Elastic Constant Matrix: (Units=GPa)
#
#
# Indices 1 2 3 4 5 6 
#
# 1 101.8013 22.5303 25.8761 0.0000 0.0000 0.0000
# 2 22.5303 103.0777 25.1320 0.0000 0.0000 0.0000
# 3 25.8761 25.1320 31.0014 0.0000 0.0000 0.0000
# 4 0.0000 0.0000 0.0000 22.9050 0.0000 0.0000
# 5 0.0000 0.0000 0.0000 0.0000 10.8801 0.0000
# 6 0.0000 0.0000 0.0000 0.0000 0.0000 31.9187
#
#
#
# Elastic Compliance Matrix: (Units=1/GPa)
#
#
# Indices 1 2 3 4 5 6 
#
# 1 0.012473 -0.000234 -0.010221 0.000000 0.000000 0.000000
# 2 -0.000234 0.012096 -0.009610 0.000000 0.000000 0.000000
# 3 -0.010221 -0.009610 0.048578 0.000000 0.000000 0.000000
# 4 0.000000 0.000000 0.000000 0.043659 0.000000 0.000000
# 5 0.000000 0.000000 0.000000 0.000000 0.091911 0.000000
# 6 0.000000 0.000000 0.000000 0.000000 0.000000 0.031330
#
#
# Mechanical properties :
#
#
# Convention : Reuss Voigt Hill
#
# Bulk Modulus (GPa) = 30.28795 42.55079 36.41937
# Shear Modulus (GPa) = 17.17136 23.96355 20.56746
#
# Velocity S-wave (km/s) = 3.06371 3.61927 3.35302
# Velocity P-wave (km/s) = 5.39179 6.38161 5.90747
#
# Compressibility (1/GPa) = 0.03301643
#
# Stress axis : x y z
#
# Youngs Moduli (GPa) = 80.17409 82.67373 20.58526
#
# Poissons Ratio (x) = 0.01937 0.21040
# Poissons Ratio (y) = 0.01878 0.19783
# Poissons Ratio (z) = 0.81945 0.79451
#
# Static dielectric constant tensor:
#      x y z
#    x 3.482430 0.000000 0.000000 
#    y 0.000000 3.654670 0.000000 
#    z 0.000000 0.000000 3.194100 
# 
# 
# High freq. dielectric constant tensor:
#      x y z
#    x 1.716170 0.000000 0.000000 
#    y 0.000000 1.725540 0.000000 
#    z 0.000000 0.000000 1.681130 
# 
# From -- ./inp_files/5361.got.cif
#   From: 2010.06.25/outbox.cif.g09.slc.cpg/sg58_3_cif.got.tgz:5361.got - 2010.06.26 21:38:00.
