data_PCOD8236095
_publ_section_title
;
Structure prediction by ZEFSAII (Michael W. Deem and Ramdas Pophale) SiO2 
 PCOD8236095
Probable space group: P N N M
;
_chemical_formula_sum "Si O2"
_cell_formula_units_Z 64
_cell_length_a 19.478046
_cell_length_b 19.798601
_cell_length_c 9.322520
_cell_angle_alpha 90.000000
_cell_angle_beta 90.000000
_cell_angle_gamma 90.000000
_cell_volume 3595.118537
_symmetry_space_group_name_H-M "P N N M"
_symmetry_group_IT_number 58
_symmetry_cell_setting 'orthorhombic'
loop_
_space_group_symop_operation_xyz
x,y,z
-x,-y,z
1/2+x,1/2-y,1/2-z
1/2-x,1/2+y,1/2-z
-x,-y,-z
x,y,-z
1/2-x,1/2+y,1/2+z
1/2+x,1/2-y,1/2+z
loop_
_atom_site_type_symbol
_atom_site_label
_atom_site_fract_x
_atom_site_fract_y
_atom_site_fract_z
Si Si1 0.720365 0.861495 0.830457
Si Si2 0.711834 0.496714 0.669829
Si Si3 0.240171 0.782882 0.665661
Si Si4 0.593741 0.677876 0.833091
Si Si5 0.815590 0.588595 0.165490
Si Si6 0.066473 0.668722 0.334059
Si Si7 0.470087 0.928933 0.669112
Si Si8 0.562770 0.547312 0.668779
O O1 0.753906 0.791732 0.768809
O O2 0.640283 0.861153 0.785027
O O3 0.762371 0.924697 0.766028
O O4 0.727143 0.865628 0.000000
O O5 0.720670 0.500283 0.500000
O O6 0.759937 0.552945 0.737308
O O7 0.633215 0.509803 0.714975
O O8 0.221454 0.770034 0.500000
O O9 0.171783 0.818643 0.728075
O O10 0.305818 0.830613 0.686740
O O11 0.559796 0.751137 0.805960
O O12 0.554455 0.619698 0.745625
O O13 0.590936 0.657989 0.000000
O O14 0.891224 0.570775 0.218331
O O15 0.803841 0.568055 0.000000
O O16 0.054195 0.652190 0.500000
O O17 0.008081 0.633006 0.242536
O O18 0.477421 0.919198 0.500000
O O19 0.500000 0.000000 0.721845
O O20 0.500000 0.500000 0.717871
O O21 0.560623 0.560793 0.500000
#
# Coordination Sequence:
#
# PCOD8236095 Si02
#       8
#     8   8   8   8   8   8   8   8
#     4   8  15  29  50  74  96 123 166 213 248 287
#     4  10  19  32  52  76 100 129 167 211 256 299
#     4   8  14  28  50  72  92 119 165 211 242 287
#     4   9  17  33  56  76  95 129 174 215 252 299
#     4  10  19  32  52  74  98 134 172 205 247 302
#     4   9  18  33  54  77 100 131 175 218 254 296
#     4  10  21  34  47  73 111 142 169 205 254 311
#     4  10  21  35  49  74 108 136 165 208 263 317
#
# _framework density 17.801917
#
# number of rings (size 3 to 8) (size 9 to 14) (size 15 to 20)
#    0.000    2.750    1.250    2.250    0.000    1.500 
#    2.250    0.000    0.000    1.500    0.000    0.000 
#    0.000    0.000    0.000    0.000    0.000    0.000 
#
# Total GULP energy -793319.244325 kJ/mol
# GULP energy per Si atom -12395.613193 kJ/mol
# Density = 1.776140 g / cm^3
# Si number density = 17.801917 Si / 1000 Ang^3
#
#
#
# Elastic Constant Matrix: (Units=GPa)
#
#
# Indices 1 2 3 4 5 6 
#
# 1 119.6062 64.6734 34.0151 0.0000 0.0000 0.0000
# 2 64.6734 122.6949 35.5430 0.0000 0.0000 0.0000
# 3 34.0151 35.5430 29.4388 0.0000 0.0000 0.0000
# 4 0.0000 0.0000 0.0000 26.6495 0.0000 0.0000
# 5 0.0000 0.0000 0.0000 0.0000 12.9576 0.0000
# 6 0.0000 0.0000 0.0000 0.0000 0.0000 32.1094
#
#
#
# Elastic Compliance Matrix: (Units=1/GPa)
#
#
# Indices 1 2 3 4 5 6 
#
# 1 0.013639 -0.004035 -0.010887 0.000000 0.000000 0.000000
# 2 -0.004035 0.013728 -0.011912 0.000000 0.000000 0.000000
# 3 -0.010887 -0.011912 0.060930 0.000000 0.000000 0.000000
# 4 0.000000 0.000000 0.000000 0.037524 0.000000 0.000000
# 5 0.000000 0.000000 0.000000 0.000000 0.077175 0.000000
# 6 0.000000 0.000000 0.000000 0.000000 0.000000 0.031144
#
#
# Mechanical properties :
#
#
# Convention : Reuss Voigt Hill
#
# Bulk Modulus (GPa) = 28.87801 60.02256 44.45028
# Shear Modulus (GPa) = 16.70277 23.51051 20.10664
#
# Velocity S-wave (km/s) = 3.06642 3.63805 3.36440
# Velocity P-wave (km/s) = 5.36603 7.17198 6.33370
#
# Compressibility (1/GPa) = 0.03462842
#
# Stress axis : x y z
#
# Youngs Moduli (GPa) = 73.31924 72.84320 16.41224
#
# Poissons Ratio (x) = 0.29395 0.17868
# Poissons Ratio (y) = 0.29587 0.19550
# Poissons Ratio (z) = 0.79823 0.86771
#
# Static dielectric constant tensor:
#      x y z
#    x 3.263360 0.000000 0.000000 
#    y 0.000000 3.538740 0.000000 
#    z 0.000000 0.000000 2.958240 
# 
# 
# High freq. dielectric constant tensor:
#      x y z
#    x 1.678880 0.000000 0.000000 
#    y 0.000000 1.703420 0.000000 
#    z 0.000000 0.000000 1.655560 
# 
# From -- ./inp_files/8322.got.cif
#   From: 2010.06.25/outbox.cif.g09.slc.cpg/sg58_5_cif.got.tgz:8322.got - 2010.06.26 21:38:00.
