data_PCOD8236802
_publ_section_title
;
Structure prediction by ZEFSAII (Michael W. Deem and Ramdas Pophale) SiO2 
 PCOD8236802
Probable space group: P N N M
;
_chemical_formula_sum "Si O2"
_cell_formula_units_Z 40
_cell_length_a 17.257790
_cell_length_b 7.601663
_cell_length_c 15.559545
_cell_angle_alpha 90.000000
_cell_angle_beta 90.000000
_cell_angle_gamma 90.000000
_cell_volume 2041.224091
_symmetry_space_group_name_H-M "P N N M"
_symmetry_group_IT_number 58
_symmetry_cell_setting 'orthorhombic'
loop_
_space_group_symop_operation_xyz
x,y,z
-x,-y,z
1/2+x,1/2-y,1/2-z
1/2-x,1/2+y,1/2-z
-x,-y,-z
x,y,-z
1/2-x,1/2+y,1/2+z
1/2+x,1/2-y,1/2+z
loop_
_atom_site_type_symbol
_atom_site_label
_atom_site_fract_x
_atom_site_fract_y
_atom_site_fract_z
Si Si1 0.057584 0.344892 0.094447
Si Si2 0.673418 0.296562 0.905107
Si Si3 0.765427 0.005069 0.818959
Si Si4 0.576119 0.403645 0.750617
Si Si5 0.274683 0.893597 0.360631
O O1 0.046434 0.207284 0.170153
O O2 0.144977 0.417412 0.090188
O O3 0.000000 0.500000 0.116128
O O4 0.038626 0.263089 0.000000
O O5 0.741711 0.154208 0.887438
O O6 0.607870 0.287558 0.830926
O O7 0.709191 0.492893 0.907969
O O8 0.638131 0.258727 0.000000
O O9 0.711694 0.033182 0.735630
O O10 0.854760 0.027663 0.786414
O O11 0.750374 0.812339 0.858614
O O12 0.500000 0.500000 0.786281
#
# Coordination Sequence:
#
# PCOD8236802 Si02
#       5
#     8   8   8   8   8
#     4  10  21  35  56  86 120 156 195 246 312 370
#     4  11  23  39  63  90 121 164 208 254 306 361
#     4  10  19  37  63  87 119 158 206 247 306 359
#     4  10  23  40  60  89 125 161 200 255 306 367
#     4  10  19  37  60  89 118 154 204 255 298 364
#
# _framework density 19.596084999999999
#
# number of rings (size 3 to 8) (size 9 to 14) (size 15 to 20)
#    0.000    1.800    6.000    0.600    2.800    4.800 
#    0.000    0.000    0.000    0.600    0.000    0.000 
#    0.000    0.000    0.000    0.000    0.000    0.000 
#
# Total GULP energy -495662.266922 kJ/mol
# GULP energy per Si atom -12391.556673 kJ/mol
# Density = 1.955148 g / cm^3
# Si number density = 19.596085 Si / 1000 Ang^3
#
#
#
# Elastic Constant Matrix: (Units=GPa)
#
#
# Indices 1 2 3 4 5 6 
#
# 1 70.1915 50.0016 44.8151 0.0000 0.0000 0.0000
# 2 50.0016 100.8911 41.7765 0.0000 0.0000 0.0000
# 3 44.8151 41.7765 135.5213 0.0000 0.0000 0.0000
# 4 0.0000 0.0000 0.0000 10.7661 0.0000 0.0000
# 5 0.0000 0.0000 0.0000 0.0000 31.2742 0.0000
# 6 0.0000 0.0000 0.0000 0.0000 0.0000 25.5482
#
#
#
# Elastic Compliance Matrix: (Units=1/GPa)
#
#
# Indices 1 2 3 4 5 6 
#
# 1 0.024695 -0.010154 -0.005036 0.000000 0.000000 0.000000
# 2 -0.010154 0.015537 -0.001432 0.000000 0.000000 0.000000
# 3 -0.005036 -0.001432 0.009486 0.000000 0.000000 0.000000
# 4 0.000000 0.000000 0.000000 0.092884 0.000000 0.000000
# 5 0.000000 0.000000 0.000000 0.000000 0.031975 0.000000
# 6 0.000000 0.000000 0.000000 0.000000 0.000000 0.039142
#
#
# Mechanical properties :
#
#
# Convention : Reuss Voigt Hill
#
# Bulk Modulus (GPa) = 60.70080 64.42113 62.56097
# Shear Modulus (GPa) = 19.80564 24.85176 22.32870
#
# Velocity S-wave (km/s) = 3.18259 3.56504 3.37923
# Velocity P-wave (km/s) = 6.67446 7.06342 6.87169
#
# Compressibility (1/GPa) = 0.01647425
#
# Stress axis : x y z
#
# Youngs Moduli (GPa) = 40.49355 64.36415 105.42115
#
# Poissons Ratio (x) = 0.65352 0.53095
# Poissons Ratio (y) = 0.41115 0.15094
# Poissons Ratio (z) = 0.20394 0.09215
#
# Static dielectric constant tensor:
#      x y z
#    x 3.514860 0.000000 0.000000 
#    y 0.000000 3.543210 0.000000 
#    z 0.000000 0.000000 3.711510 
# 
# 
# High freq. dielectric constant tensor:
#      x y z
#    x 1.743250 0.000000 0.000000 
#    y 0.000000 1.749890 0.000000 
#    z 0.000000 0.000000 1.772340 
# 
# From -- ./inp_files/22642.got.cif
#   From: 2010.06.25/outbox.cif.g09.slc.cpg/sg58_12_cif.got.tgz:22642.got - 2010.06.26 21:38:00.
