data_PCOD8236552
_publ_section_title
;
Structure prediction by ZEFSAII (Michael W. Deem and Ramdas Pophale) SiO2 
 PCOD8236552
Probable space group: P N N M
;
_chemical_formula_sum "Si O2"
_cell_formula_units_Z 64
_cell_length_a 8.147922
_cell_length_b 18.518699
_cell_length_c 20.818050
_cell_angle_alpha 90.000000
_cell_angle_beta 90.000000
_cell_angle_gamma 90.000000
_cell_volume 3141.212977
_symmetry_space_group_name_H-M "P N N M"
_symmetry_group_IT_number 58
_symmetry_cell_setting 'orthorhombic'
loop_
_space_group_symop_operation_xyz
x,y,z
-x,-y,z
1/2+x,1/2-y,1/2-z
1/2-x,1/2+y,1/2-z
-x,-y,-z
x,y,-z
1/2-x,1/2+y,1/2+z
1/2+x,1/2-y,1/2+z
loop_
_atom_site_type_symbol
_atom_site_label
_atom_site_fract_x
_atom_site_fract_y
_atom_site_fract_z
Si Si1 0.819957 0.026739 0.925514
Si Si2 0.633133 0.436831 0.211043
Si Si3 0.330395 0.848925 0.142206
Si Si4 0.660200 0.924132 0.831177
Si Si5 0.771774 0.772996 0.160591
Si Si6 0.882215 0.932007 0.430437
Si Si7 0.474273 0.275067 0.928401
Si Si8 0.436804 0.299896 0.262430
O O1 0.787044 0.111188 0.910074
O O2 0.684793 0.984779 0.884482
O O3 0.791502 0.010834 0.000000
O O4 0.000000 0.000000 0.903646
O O5 0.500000 0.500000 0.218407
O O6 0.782149 0.450726 0.260393
O O7 0.712644 0.436660 0.138230
O O8 0.544535 0.360434 0.225942
O O9 0.470236 0.902585 0.168678
O O10 0.402084 0.775238 0.112377
O O11 0.220757 0.832974 0.203816
O O12 0.774474 0.858031 0.853671
O O13 0.715243 0.730668 0.096742
O O14 0.626616 0.758472 0.211980
O O15 0.952230 0.753662 0.186903
O O16 0.782437 0.930544 0.500000
O O17 0.984832 0.858765 0.425653
O O18 0.000000 0.000000 0.433879
O O19 0.478825 0.244279 0.000000
#
# Coordination Sequence:
#
# PCOD8236552 Si02
#       8
#     8   8   8   8   8   8   8   8
#     4  11  23  40  59  83 121 166 207 249 297 354
#     4  10  19  34  59  88 120 151 193 246 296 357
#     4  11  23  37  57  87 117 161 203 251 297 356
#     4  10  21  34  55  82 118 155 198 242 293 347
#     4  10  20  35  55  82 111 156 190 243 296 348
#     4   9  18  34  58  87 117 151 190 235 299 370
#     4  10  20  37  58  87 119 152 199 242 293 367
#     4  11  21  36  57  83 119 152 199 245 301 353
#
# _framework density 20.374296999999999
#
# number of rings (size 3 to 8) (size 9 to 14) (size 15 to 20)
#    0.000    1.750    1.250    4.875    1.750    3.000 
#    0.000    1.250    0.000    0.000    0.000    1.750 
#    0.000   10.000    0.000    0.000    0.000    0.000 
#
# Total GULP energy -792901.004762 kJ/mol
# GULP energy per Si atom -12389.078199 kJ/mol
# Density = 2.032792 g / cm^3
# Si number density = 20.374297 Si / 1000 Ang^3
#
#
#
# Elastic Constant Matrix: (Units=GPa)
#
#
# Indices 1 2 3 4 5 6 
#
# 1 74.8392 23.0120 29.9934 0.0000 0.0000 0.0000
# 2 23.0120 94.6942 29.4711 0.0000 0.0000 0.0000
# 3 29.9934 29.4711 133.8110 0.0000 0.0000 0.0000
# 4 0.0000 0.0000 0.0000 20.3034 0.0000 0.0000
# 5 0.0000 0.0000 0.0000 0.0000 -3.7650 0.0000
# 6 0.0000 0.0000 0.0000 0.0000 0.0000 22.9737
#
#
#
# Elastic Compliance Matrix: (Units=1/GPa)
#
#
# Indices 1 2 3 4 5 6 
#
# 1 0.015369 -0.002859 -0.002815 0.000000 0.000000 0.000000
# 2 -0.002859 0.011869 -0.001973 0.000000 0.000000 0.000000
# 3 -0.002815 -0.001973 0.008539 0.000000 0.000000 0.000000
# 4 0.000000 0.000000 0.000000 0.049253 0.000000 0.000000
# 5 0.000000 0.000000 0.000000 0.000000 -0.265608 0.000000
# 6 0.000000 0.000000 0.000000 0.000000 0.000000 0.043528
#
#
# Mechanical properties :
#
#
# Convention : Reuss Voigt Hill
#
# Bulk Modulus (GPa) = 48.82221 52.03306 50.42764
# Shear Modulus (GPa) = -43.50584 22.62696 -10.43944
#
# Velocity S-wave (km/s) = -4.62598 3.33613 -2.26604
# Velocity P-wave (km/s) = 2.12561 6.35875 4.23766
#
# Compressibility (1/GPa) = 0.02048248
#
# Stress axis : x y z
#
# Youngs Moduli (GPa) = 65.06469 84.25182 117.11105
#
# Poissons Ratio (x) = 0.24085 0.32971
# Poissons Ratio (y) = 0.18600 0.23110
# Poissons Ratio (z) = 0.18318 0.16626
#
# Static dielectric constant tensor:
#      x y z
#    x 3.539620 0.000000 0.000000 
#    y 0.000000 3.833620 0.000000 
#    z 0.000000 0.000000 4.215360 
# 
# 
# High freq. dielectric constant tensor:
#      x y z
#    x 1.763300 0.000000 0.000000 
#    y 0.000000 1.806690 0.000000 
#    z 0.000000 0.000000 1.808360 
# 
# From -- ./inp_files/29129.got.cif
#   From: 2010.06.25/outbox.cif.g09.slc.cpg/sg58_15_cif.got.tgz:29129.got - 2010.06.26 21:38:00.
