data_PCOD8236165
_publ_section_title
;
Structure prediction by ZEFSAII (Michael W. Deem and Ramdas Pophale) SiO2 
 PCOD8236165
Probable space group: P N N M
;
_chemical_formula_sum "Si O2"
_cell_formula_units_Z 48
_cell_length_a 9.902337
_cell_length_b 19.382130
_cell_length_c 9.234801
_cell_angle_alpha 90.000000
_cell_angle_beta 90.000000
_cell_angle_gamma 90.000000
_cell_volume 1772.420424
_symmetry_space_group_name_H-M "P N N M"
_symmetry_group_IT_number 58
_symmetry_cell_setting 'orthorhombic'
loop_
_space_group_symop_operation_xyz
x,y,z
-x,-y,z
1/2+x,1/2-y,1/2-z
1/2-x,1/2+y,1/2-z
-x,-y,-z
x,y,-z
1/2-x,1/2+y,1/2+z
1/2+x,1/2-y,1/2+z
loop_
_atom_site_type_symbol
_atom_site_label
_atom_site_fract_x
_atom_site_fract_y
_atom_site_fract_z
Si Si1 0.115786 0.697248 0.330091
Si Si2 0.537847 0.303553 0.658727
Si Si3 0.772324 0.698243 0.340855
Si Si4 0.473104 0.574622 0.841111
Si Si5 0.228423 0.423326 0.157577
Si Si6 0.862131 0.458567 0.336234
O O1 0.113953 0.706107 0.500000
O O2 0.976140 0.734359 0.266383
O O3 0.257022 0.732697 0.266888
O O4 0.115549 0.618656 0.279475
O O5 0.606151 0.290156 0.500000
O O6 0.382411 0.321884 0.628775
O O7 0.605445 0.371848 0.734841
O O8 0.839473 0.712143 0.500000
O O9 0.844496 0.631730 0.264949
O O10 0.500000 0.500000 0.769488
O O11 0.621980 0.606535 0.867820
O O12 0.400959 0.568038 0.000000
O O13 0.238580 0.500753 0.228147
O O14 0.154710 0.426898 0.000000
O O15 0.805986 0.459498 0.500000
O O16 0.000000 0.500000 0.323236
#
# Coordination Sequence:
#
# PCOD8236165 Si02
#       6
#     8   8   8   8   8   8
#     4   9  16  30  53  75  99 136 180 223 269 325
#     4   8  15  26  45  72 100 134 171 213 265 319
#     4   8  15  28  50  75 100 132 171 214 266 324
#     4   9  17  30  51  78 108 140 176 219 271 334
#     4  10  19  32  54  81 109 142 183 229 276 328
#     4  10  22  38  56  79 110 149 191 232 279 332
#
# _framework density 27.081610999999999
#
# number of rings (size 3 to 8) (size 9 to 14) (size 15 to 20)
#    1.000    2.000    0.000    1.500    0.000    2.667 
#    0.000    0.000    3.667    0.000    0.000    0.000 
#    0.000    0.000    0.000    0.000    0.000    0.000 
#
# Total GULP energy -594805.268838 kJ/mol
# GULP energy per Si atom -12391.776434 kJ/mol
# Density = 2.701997 g / cm^3
# Si number density = 27.081611 Si / 1000 Ang^3
#
#
#
# Elastic Constant Matrix: (Units=GPa)
#
#
# Indices 1 2 3 4 5 6 
#
# 1 61.6993 11.2098 4.5832 0.0000 0.0000 0.0000
# 2 11.2098 248.1037 121.7520 0.0000 0.0000 0.0000
# 3 4.5832 121.7520 209.2227 0.0000 0.0000 0.0000
# 4 0.0000 0.0000 0.0000 49.1493 0.0000 0.0000
# 5 0.0000 0.0000 0.0000 0.0000 17.2668 0.0000
# 6 0.0000 0.0000 0.0000 0.0000 0.0000 27.9133
#
#
#
# Elastic Compliance Matrix: (Units=1/GPa)
#
#
# Indices 1 2 3 4 5 6 
#
# 1 0.016343 -0.000788 0.000100 0.000000 0.000000 0.000000
# 2 -0.000788 0.005680 -0.003288 0.000000 0.000000 0.000000
# 3 0.000100 -0.003288 0.006691 0.000000 0.000000 0.000000
# 4 0.000000 0.000000 0.000000 0.020346 0.000000 0.000000
# 5 0.000000 0.000000 0.000000 0.000000 0.057914 0.000000
# 6 0.000000 0.000000 0.000000 0.000000 0.000000 0.035825
#
#
# Mechanical properties :
#
#
# Convention : Reuss Voigt Hill
#
# Bulk Modulus (GPa) = 48.16205 88.23510 68.19857
# Shear Modulus (GPa) = 31.71163 44.29794 38.00478
#
# Velocity S-wave (km/s) = 3.42565 4.04879 3.75019
# Velocity P-wave (km/s) = 5.78528 7.38301 6.63243
#
# Compressibility (1/GPa) = 0.02076324
#
# Stress axis : x y z
#
# Youngs Moduli (GPa) = 61.18720 176.06835 149.46153
#
# Poissons Ratio (x) = 0.13868 -0.01500
# Poissons Ratio (y) = 0.04820 0.49141
# Poissons Ratio (z) = -0.00614 0.57889
#
# Static dielectric constant tensor:
#      x y z
#    x 5.527260 0.000000 0.000000 
#    y 0.000000 4.978510 0.000000 
#    z 0.000000 0.000000 5.271000 
# 
# 
# High freq. dielectric constant tensor:
#      x y z
#    x 2.118230 0.000000 0.000000 
#    y 0.000000 2.097150 0.000000 
#    z 0.000000 0.000000 2.088860 
# 
# From -- ./inp_files/6055.got.cif
#   From: 2010.06.25/outbox.cif.g09.slc.cpg/sg58_4_cif.got.tgz:6055.got - 2010.06.26 21:38:00.
