data_PCOD8236543
_publ_section_title
;
Structure prediction by ZEFSAII (Michael W. Deem and Ramdas Pophale) SiO2 
 PCOD8236543
Probable space group: P N N M
;
_chemical_formula_sum "Si O2"
_cell_formula_units_Z 56
_cell_length_a 9.411081
_cell_length_b 14.687455
_cell_length_c 20.046888
_cell_angle_alpha 90.000000
_cell_angle_beta 90.000000
_cell_angle_gamma 90.000000
_cell_volume 2770.977660
_symmetry_space_group_name_H-M "P N N M"
_symmetry_group_IT_number 58
_symmetry_cell_setting 'orthorhombic'
loop_
_space_group_symop_operation_xyz
x,y,z
-x,-y,z
1/2+x,1/2-y,1/2-z
1/2-x,1/2+y,1/2-z
-x,-y,-z
x,y,-z
1/2-x,1/2+y,1/2+z
1/2+x,1/2-y,1/2+z
loop_
_atom_site_type_symbol
_atom_site_label
_atom_site_fract_x
_atom_site_fract_y
_atom_site_fract_z
Si Si1 0.341735 0.999716 0.577043
Si Si2 0.416032 0.093565 0.236771
Si Si3 0.160594 0.682817 0.868065
Si Si4 0.046843 0.233506 0.320273
Si Si5 0.072351 0.192468 0.924669
Si Si6 0.174133 0.829183 0.577209
Si Si7 0.912511 0.910011 0.792391
O O1 0.353220 0.975907 0.500000
O O2 0.271377 0.097894 0.590966
O O3 0.500000 0.000000 0.608511
O O4 0.246742 0.919748 0.608458
O O5 0.432312 0.140132 0.308588
O O6 0.483315 0.165556 0.185540
O O7 0.252548 0.071843 0.220860
O O8 0.500000 0.000000 0.232163
O O9 0.287801 0.744444 0.839504
O O10 0.060395 0.739569 0.916891
O O11 0.967572 0.184741 0.380920
O O12 0.031027 0.174153 0.252559
O O13 0.219004 0.245374 0.913145
O O14 0.061997 0.112556 0.870327
O O15 0.066657 0.152285 0.000000
O O16 0.130877 0.841194 0.500000
O O17 0.000000 0.000000 0.773751
#
# Coordination Sequence:
#
# PCOD8236543 Si02
#       7
#     8   8   8   8   8   8   8
#     4  10  19  34  58  93 127 161 205 247 302 379
#     4  11  25  42  66  93 126 167 210 267 326 380
#     4  11  23  37  62  96 125 164 205 265 313 381
#     4  11  25  43  64  94 130 164 210 261 322 381
#     4  11  22  41  66  91 126 173 217 262 314 373
#     4  10  22  39  64  89 130 175 206 256 317 382
#     4  11  26  42  67  98 127 166 219 267 312 376
#
# _framework density 20.209474
#
# number of rings (size 3 to 8) (size 9 to 14) (size 15 to 20)
#    0.000    1.286    4.286    0.857    6.000    1.429 
#    0.000    1.429    0.000    0.857    0.000    0.000 
#    0.000    0.000    0.000    0.000    0.000    0.000 
#
# Total GULP energy -694433.290912 kJ/mol
# GULP energy per Si atom -12400.594481 kJ/mol
# Density = 2.016348 g / cm^3
# Si number density = 20.209474 Si / 1000 Ang^3
#
#
#
# Elastic Constant Matrix: (Units=GPa)
#
#
# Indices 1 2 3 4 5 6 
#
# 1 88.7599 49.0806 38.7084 0.0000 0.0000 0.0000
# 2 49.0806 85.4504 16.6029 0.0000 0.0000 0.0000
# 3 38.7084 16.6029 86.4823 0.0000 0.0000 0.0000
# 4 0.0000 0.0000 0.0000 26.7114 0.0000 0.0000
# 5 0.0000 0.0000 0.0000 0.0000 29.9077 0.0000
# 6 0.0000 0.0000 0.0000 0.0000 0.0000 33.1942
#
#
#
# Elastic Compliance Matrix: (Units=1/GPa)
#
#
# Indices 1 2 3 4 5 6 
#
# 1 0.019862 -0.010056 -0.006959 0.000000 0.000000 0.000000
# 2 -0.010056 0.017247 0.001190 0.000000 0.000000 0.000000
# 3 -0.006959 0.001190 0.014450 0.000000 0.000000 0.000000
# 4 0.000000 0.000000 0.000000 0.037437 0.000000 0.000000
# 5 0.000000 0.000000 0.000000 0.000000 0.033436 0.000000
# 6 0.000000 0.000000 0.000000 0.000000 0.000000 0.030126
#
#
# Mechanical properties :
#
#
# Convention : Reuss Voigt Hill
#
# Bulk Modulus (GPa) = 50.23179 52.16403 51.19791
# Shear Modulus (GPa) = 26.19925 28.38273 27.29099
#
# Velocity S-wave (km/s) = 3.60444 3.75163 3.67877
# Velocity P-wave (km/s) = 6.49863 6.68087 6.59038
#
# Compressibility (1/GPa) = 0.01990771
#
# Stress axis : x y z
#
# Youngs Moduli (GPa) = 50.34760 57.97957 69.20616
#
# Poissons Ratio (x) = 0.58304 0.48163
# Poissons Ratio (y) = 0.50630 -0.08234
# Poissons Ratio (z) = 0.35039 -0.06898
#
# Static dielectric constant tensor:
#      x y z
#    x 3.598640 0.000000 0.000000 
#    y 0.000000 3.602570 0.000000 
#    z 0.000000 0.000000 3.644940 
# 
# 
# High freq. dielectric constant tensor:
#      x y z
#    x 1.789380 0.000000 0.000000 
#    y 0.000000 1.779140 0.000000 
#    z 0.000000 0.000000 1.788920 
# 
# From -- ./inp_files/28960.got.cif
#   From: 2010.06.25/outbox.cif.g09.slc.cpg/sg58_15_cif.got.tgz:28960.got - 2010.06.26 21:38:00.
