data_PCOD8236705
_publ_section_title
;
Structure prediction by ZEFSAII (Michael W. Deem and Ramdas Pophale) SiO2 
 PCOD8236705
Probable space group: P N N M
;
_chemical_formula_sum "Si O2"
_cell_formula_units_Z 48
_cell_length_a 12.340951
_cell_length_b 21.870716
_cell_length_c 9.128703
_cell_angle_alpha 90.000000
_cell_angle_beta 90.000000
_cell_angle_gamma 90.000000
_cell_volume 2463.886550
_symmetry_space_group_name_H-M "P N N M"
_symmetry_group_IT_number 58
_symmetry_cell_setting 'orthorhombic'
loop_
_space_group_symop_operation_xyz
x,y,z
-x,-y,z
1/2+x,1/2-y,1/2-z
1/2-x,1/2+y,1/2-z
-x,-y,-z
x,y,-z
1/2-x,1/2+y,1/2+z
1/2+x,1/2-y,1/2+z
loop_
_atom_site_type_symbol
_atom_site_label
_atom_site_fract_x
_atom_site_fract_y
_atom_site_fract_z
Si Si1 0.359427 0.172992 0.326932
Si Si2 0.376126 0.517932 0.336519
Si Si3 0.874845 0.861928 0.328477
Si Si4 0.237975 0.399991 0.329520
Si Si5 0.980075 0.569281 0.174206
Si Si6 0.419040 0.305534 0.673367
O O1 0.368070 0.171832 0.500000
O O2 0.233820 0.173452 0.280350
O O3 0.423161 0.113270 0.267290
O O4 0.410780 0.236102 0.267919
O O5 0.500000 0.500000 0.332918
O O6 0.345770 0.541469 0.500000
O O7 0.353565 0.568195 0.214349
O O8 0.305320 0.460166 0.291982
O O9 0.897590 0.857224 0.500000
O O10 0.975858 0.835005 0.243636
O O11 0.207477 0.396008 0.500000
O O12 0.129232 0.401385 0.235998
O O13 0.310370 0.341913 0.281100
O O14 0.000000 0.500000 0.232620
O O15 0.972312 0.569008 0.000000
O O16 0.434161 0.309685 0.500000
#
# Coordination Sequence:
#
# PCOD8236705 Si02
#       6
#     8   8   8   8   8   8
#     4   9  21  39  59  82 115 158 193 230 289 350
#     4  10  19  36  57  81 115 154 189 225 284 346
#     4  11  22  37  60  89 115 144 192 243 285 334
#     4  10  21  36  59  85 114 152 194 238 284 341
#     4  10  21  39  61  85 117 154 192 237 293 349
#     4  10  21  40  59  80 116 159 192 231 291 347
#
# _framework density 19.481415999999999
#
# number of rings (size 3 to 8) (size 9 to 14) (size 15 to 20)
#    0.000    2.000    1.667    1.500    2.333    3.333 
#    0.000    3.333    0.000    0.000    0.000    0.000 
#    0.000    0.000    0.000    0.000    0.000    0.000 
#
# Total GULP energy -595188.550303 kJ/mol
# GULP energy per Si atom -12399.761465 kJ/mol
# Density = 1.943708 g / cm^3
# Si number density = 19.481416 Si / 1000 Ang^3
#
#
#
# Elastic Constant Matrix: (Units=GPa)
#
#
# Indices 1 2 3 4 5 6 
#
# 1 113.4829 53.4187 36.1828 0.0000 0.0000 0.0000
# 2 53.4187 138.2052 30.4649 0.0000 0.0000 0.0000
# 3 36.1828 30.4649 34.3905 0.0000 0.0000 0.0000
# 4 0.0000 0.0000 0.0000 22.6420 0.0000 0.0000
# 5 0.0000 0.0000 0.0000 0.0000 33.6865 0.0000
# 6 0.0000 0.0000 0.0000 0.0000 0.0000 19.3233
#
#
#
# Elastic Compliance Matrix: (Units=1/GPa)
#
#
# Indices 1 2 3 4 5 6 
#
# 1 0.014023 -0.002694 -0.012368 0.000000 0.000000 0.000000
# 2 -0.002694 0.009509 -0.005589 0.000000 0.000000 0.000000
# 3 -0.012368 -0.005589 0.047041 0.000000 0.000000 0.000000
# 4 0.000000 0.000000 0.000000 0.044166 0.000000 0.000000
# 5 0.000000 0.000000 0.000000 0.000000 0.029685 0.000000
# 6 0.000000 0.000000 0.000000 0.000000 0.000000 0.051751
#
#
# Mechanical properties :
#
#
# Convention : Reuss Voigt Hill
#
# Bulk Modulus (GPa) = 34.16257 58.46794 46.31525
# Shear Modulus (GPa) = 20.22373 26.19784 23.21079
#
# Velocity S-wave (km/s) = 3.22546 3.67108 3.45546
# Velocity P-wave (km/s) = 5.60763 6.93155 6.30444
#
# Compressibility (1/GPa) = 0.02927180
#
# Stress axis : x y z
#
# Youngs Moduli (GPa) = 71.30977 105.16446 21.25803
#
# Poissons Ratio (x) = 0.28332 0.26291
# Poissons Ratio (y) = 0.19211 0.11881
# Poissons Ratio (z) = 0.88193 0.58777
#
# Static dielectric constant tensor:
#      x y z
#    x 3.669790 0.000000 0.000000 
#    y 0.000000 3.864010 0.000000 
#    z 0.000000 0.000000 3.356030 
# 
# 
# High freq. dielectric constant tensor:
#      x y z
#    x 1.770000 0.000000 0.000000 
#    y 0.000000 1.770010 0.000000 
#    z 0.000000 0.000000 1.733350 
# 
# From -- ./inp_files/4201.got.cif
#   From: 2010.06.25/outbox.cif.g09.slc.cpg/sg58_3_cif.got.tgz:4201.got - 2010.06.26 21:38:00.
