data_PCOD8236152
_publ_section_title
;
Structure prediction by ZEFSAII (Michael W. Deem and Ramdas Pophale) SiO2 
 PCOD8236152
Probable space group: P N N M
;
_chemical_formula_sum "Si O2"
_cell_formula_units_Z 56
_cell_length_a 14.720868
_cell_length_b 21.889130
_cell_length_c 9.021940
_cell_angle_alpha 90.000000
_cell_angle_beta 90.000000
_cell_angle_gamma 90.000000
_cell_volume 2907.112601
_symmetry_space_group_name_H-M "P N N M"
_symmetry_group_IT_number 58
_symmetry_cell_setting 'orthorhombic'
loop_
_space_group_symop_operation_xyz
x,y,z
-x,-y,z
1/2+x,1/2-y,1/2-z
1/2-x,1/2+y,1/2-z
-x,-y,-z
x,y,-z
1/2-x,1/2+y,1/2+z
1/2+x,1/2-y,1/2+z
loop_
_atom_site_type_symbol
_atom_site_label
_atom_site_fract_x
_atom_site_fract_y
_atom_site_fract_z
Si Si1 0.272421 0.487239 0.176354
Si Si2 0.406846 0.383164 0.176172
Si Si3 0.614997 0.753949 0.823578
Si Si4 0.937229 0.677471 0.675741
Si Si5 0.798153 0.778386 0.674444
Si Si6 0.394243 0.597498 0.825077
Si Si7 0.086772 0.460044 0.675218
O O1 0.324887 0.426260 0.229695
O O2 0.329366 0.544740 0.239308
O O3 0.173793 0.490017 0.248707
O O4 0.261805 0.489300 0.000000
O O5 0.390795 0.315145 0.237962
O O6 0.503054 0.409088 0.237020
O O7 0.411507 0.381315 0.000000
O O8 0.529492 0.792357 0.762223
O O9 0.704346 0.785315 0.760128
O O10 0.618195 0.754871 0.000000
O O11 0.942691 0.677515 0.500000
O O12 0.851044 0.717541 0.727726
O O13 0.927068 0.608744 0.736601
O O14 0.779120 0.777109 0.500000
O O15 0.858430 0.836149 0.720567
O O16 0.396061 0.589811 0.000000
O O17 0.101779 0.460258 0.500000
O O18 0.000000 0.500000 0.721070
#
# Coordination Sequence:
#
# PCOD8236152 Si02
#       7
#     8   8   8   8   8   8   8
#     4  10  20  33  54  81 105 130 166 215 261 296
#     4   9  16  31  54  80 105 133 167 205 253 312
#     4  10  19  32  54  78 101 131 170 211 251 297
#     4   9  18  35  55  73  99 138 174 205 247 305
#     4  10  19  33  53  76 103 135 170 208 254 305
#     4   9  17  31  52  78 105 133 167 205 252 312
#     4  10  22  38  54  72 100 141 182 210 246 305
#
# _framework density 19.263100000000001
#
# number of rings (size 3 to 8) (size 9 to 14) (size 15 to 20)
#    0.000    2.429    1.429    1.286    2.000    2.000 
#    0.000    1.429    0.000    3.429    0.000    0.000 
#    0.000    0.000    0.000    0.000    0.000    0.000 
#
# Total GULP energy -694388.547982 kJ/mol
# GULP energy per Si atom -12399.795500 kJ/mol
# Density = 1.921926 g / cm^3
# Si number density = 19.263100 Si / 1000 Ang^3
#
#
#
# Elastic Constant Matrix: (Units=GPa)
#
#
# Indices 1 2 3 4 5 6 
#
# 1 137.1247 29.9404 22.9025 0.0000 0.0000 0.0000
# 2 29.9404 93.4461 14.0990 0.0000 0.0000 0.0000
# 3 22.9025 14.0990 14.0731 0.0000 0.0000 0.0000
# 4 0.0000 0.0000 0.0000 12.6663 0.0000 0.0000
# 5 0.0000 0.0000 0.0000 0.0000 27.2435 0.0000
# 6 0.0000 0.0000 0.0000 0.0000 0.0000 29.2624
#
#
#
# Elastic Compliance Matrix: (Units=1/GPa)
#
#
# Indices 1 2 3 4 5 6 
#
# 1 0.010077 -0.000889 -0.015509 0.000000 0.000000 0.000000
# 2 -0.000889 0.012685 -0.011262 0.000000 0.000000 0.000000
# 3 -0.015509 -0.011262 0.107579 0.000000 0.000000 0.000000
# 4 0.000000 0.000000 0.000000 0.078950 0.000000 0.000000
# 5 0.000000 0.000000 0.000000 0.000000 0.036706 0.000000
# 6 0.000000 0.000000 0.000000 0.000000 0.000000 0.034174
#
#
# Mechanical properties :
#
#
# Convention : Reuss Voigt Hill
#
# Bulk Modulus (GPa) = 13.32942 42.05862 27.69402
# Shear Modulus (GPa) = 13.86970 25.68124 19.77547
#
# Velocity S-wave (km/s) = 2.68622 3.65524 3.20753
# Velocity P-wave (km/s) = 4.06887 6.30044 5.30336
#
# Compressibility (1/GPa) = 0.07502199
#
# Stress axis : x y z
#
# Youngs Moduli (GPa) = 99.23633 78.83108 9.29546
#
# Poissons Ratio (x) = 0.07006 0.14416
# Poissons Ratio (y) = 0.08820 0.10469
# Poissons Ratio (z) = 1.53903 0.88782
#
# Static dielectric constant tensor:
#      x y z
#    x 3.619760 0.000000 0.000000 
#    y 0.000000 3.814720 0.000000 
#    z 0.000000 0.000000 2.926690 
# 
# 
# High freq. dielectric constant tensor:
#      x y z
#    x 1.766170 0.000000 0.000000 
#    y 0.000000 1.763870 0.000000 
#    z 0.000000 0.000000 1.688820 
# 
# From -- ./inp_files/6442.got.cif
#   From: 2010.06.25/outbox.cif.g09.slc.cpg/sg58_4_cif.got.tgz:6442.got - 2010.06.26 21:38:00.
