data_PCOD8236649
_publ_section_title
;
Structure prediction by ZEFSAII (Michael W. Deem and Ramdas Pophale) SiO2 
 PCOD8236649
Probable space group: P N N M
;
_chemical_formula_sum "Si O2"
_cell_formula_units_Z 64
_cell_length_a 10.694334
_cell_length_b 22.228643
_cell_length_c 13.547644
_cell_angle_alpha 90.000000
_cell_angle_beta 90.000000
_cell_angle_gamma 90.000000
_cell_volume 3220.553147
_symmetry_space_group_name_H-M "P N N M"
_symmetry_group_IT_number 58
_symmetry_cell_setting 'orthorhombic'
loop_
_space_group_symop_operation_xyz
x,y,z
-x,-y,z
1/2+x,1/2-y,1/2-z
1/2-x,1/2+y,1/2-z
-x,-y,-z
x,y,-z
1/2-x,1/2+y,1/2+z
1/2+x,1/2-y,1/2+z
loop_
_atom_site_type_symbol
_atom_site_label
_atom_site_fract_x
_atom_site_fract_y
_atom_site_fract_z
Si Si1 0.661768 0.699313 0.206144
Si Si2 0.579454 0.904898 0.612539
Si Si3 0.218470 0.019686 0.713145
Si Si4 0.383204 0.457043 0.390773
Si Si5 0.584272 0.765678 0.389683
Si Si6 0.292467 0.906205 0.388034
Si Si7 0.819213 0.792887 0.110216
Si Si8 0.044003 0.121059 0.241343
O O1 0.667348 0.724189 0.318081
O O2 0.763983 0.647745 0.187252
O O3 0.692819 0.756021 0.135853
O O4 0.523316 0.669915 0.185958
O O5 0.623018 0.918758 0.500000
O O6 0.656567 0.943220 0.691565
O O7 0.601331 0.835257 0.637340
O O8 0.436224 0.924460 0.625151
O O9 0.097389 0.063429 0.699649
O O10 0.220638 0.991699 0.824199
O O11 0.206987 0.964173 0.636942
O O12 0.500000 0.500000 0.404546
O O13 0.328584 0.441144 0.500000
O O14 0.433326 0.397167 0.335561
O O15 0.631721 0.752320 0.500000
O O16 0.437239 0.751628 0.379600
O O17 0.264357 0.885078 0.500000
O O18 0.839549 0.849357 0.183007
O O19 0.805528 0.818518 0.000000
#
# Coordination Sequence:
#
# PCOD8236649 Si02
#       8
#     8   8   8   8   8   8   8   8
#     4  11  20  35  58  90 117 150 188 240 291 350
#     4  10  20  38  62  86 113 154 204 244 279 339
#     4  11  21  36  56  88 120 155 194 239 293 343
#     4   9  18  34  56  82 112 146 193 241 284 339
#     4   9  19  35  58  86 112 145 192 241 290 340
#     4  11  22  38  59  86 117 156 204 242 282 341
#     4  10  19  35  59  85 113 147 193 239 282 339
#     4  10  21  36  58  86 119 148 191 237 302 351
#
# _framework density 19.872364000000001
#
# number of rings (size 3 to 8) (size 9 to 14) (size 15 to 20)
#    0.000    1.875    2.500    2.250    0.000    2.000 
#    0.000    3.125    0.000    8.250    0.000    0.000 
#    0.000    0.000    0.000    0.000    0.000    0.000 
#
# Total GULP energy -793185.156380 kJ/mol
# GULP energy per Si atom -12393.518068 kJ/mol
# Density = 1.982713 g / cm^3
# Si number density = 19.872364 Si / 1000 Ang^3
#
#
#
# Elastic Constant Matrix: (Units=GPa)
#
#
# Indices 1 2 3 4 5 6 
#
# 1 62.8167 37.3033 56.6172 0.0000 0.0000 0.0000
# 2 37.3033 103.4740 47.7633 0.0000 0.0000 0.0000
# 3 56.6172 47.7633 98.0702 0.0000 0.0000 0.0000
# 4 0.0000 0.0000 0.0000 25.4856 0.0000 0.0000
# 5 0.0000 0.0000 0.0000 0.0000 29.5339 0.0000
# 6 0.0000 0.0000 0.0000 0.0000 0.0000 39.6262
#
#
#
# Elastic Compliance Matrix: (Units=1/GPa)
#
#
# Indices 1 2 3 4 5 6 
#
# 1 0.034541 -0.004190 -0.017901 0.000000 0.000000 0.000000
# 2 -0.004190 0.012975 -0.003901 0.000000 0.000000 0.000000
# 3 -0.017901 -0.003901 0.022431 0.000000 0.000000 0.000000
# 4 0.000000 0.000000 0.000000 0.039238 0.000000 0.000000
# 5 0.000000 0.000000 0.000000 0.000000 0.033859 0.000000
# 6 0.000000 0.000000 0.000000 0.000000 0.000000 0.025236
#
#
# Mechanical properties :
#
#
# Convention : Reuss Voigt Hill
#
# Bulk Modulus (GPa) = 55.66217 60.85874 58.26045
# Shear Modulus (GPa) = 22.09938 27.10761 24.60349
#
# Velocity S-wave (km/s) = 3.33838 3.69736 3.52245
# Velocity P-wave (km/s) = 6.55213 6.99418 6.77676
#
# Compressibility (1/GPa) = 0.01796552
#
# Stress axis : x y z
#
# Youngs Moduli (GPa) = 28.95079 77.07038 44.58151
#
# Poissons Ratio (x) = 0.32289 0.79804
# Poissons Ratio (y) = 0.12129 0.17390
# Poissons Ratio (z) = 0.51824 0.30062
#
# Static dielectric constant tensor:
#      x y z
#    x 3.405760 0.000000 0.000000 
#    y 0.000000 3.870380 0.000000 
#    z 0.000000 0.000000 3.762140 
# 
# 
# High freq. dielectric constant tensor:
#      x y z
#    x 1.737370 0.000000 0.000000 
#    y 0.000000 1.796410 0.000000 
#    z 0.000000 0.000000 1.758600 
# 
# From -- ./inp_files/14860.got.cif
#   From: 2010.06.25/outbox.cif.g09.slc.cpg/sg58_8_cif.got.tgz:14860.got - 2010.06.26 21:38:00.
