data_PCOD8236024
_publ_section_title
;
Structure prediction by ZEFSAII (Michael W. Deem and Ramdas Pophale) SiO2 
 PCOD8236024
Probable space group: P N N M
;
_chemical_formula_sum "Si O2"
_cell_formula_units_Z 64
_cell_length_a 22.383751
_cell_length_b 16.775096
_cell_length_c 9.256444
_cell_angle_alpha 90.000000
_cell_angle_beta 90.000000
_cell_angle_gamma 90.000000
_cell_volume 3475.698195
_symmetry_space_group_name_H-M "P N N M"
_symmetry_group_IT_number 58
_symmetry_cell_setting 'orthorhombic'
loop_
_space_group_symop_operation_xyz
x,y,z
-x,-y,z
1/2+x,1/2-y,1/2-z
1/2-x,1/2+y,1/2-z
-x,-y,-z
x,y,-z
1/2-x,1/2+y,1/2+z
1/2+x,1/2-y,1/2+z
loop_
_atom_site_type_symbol
_atom_site_label
_atom_site_fract_x
_atom_site_fract_y
_atom_site_fract_z
Si Si1 0.398839 0.763606 0.830615
Si Si2 0.335976 0.634272 0.332599
Si Si3 0.874651 0.191379 0.831668
Si Si4 0.826028 0.584913 0.673078
Si Si5 0.465801 0.207659 0.829228
Si Si6 0.709699 0.798044 0.159841
Si Si7 0.695880 0.538802 0.330815
Si Si8 0.615874 0.929870 0.838685
O O1 0.388805 0.679079 0.752191
O O2 0.352115 0.830413 0.774587
O O3 0.464946 0.793724 0.790553
O O4 0.392277 0.749144 0.000000
O O5 0.353980 0.627737 0.500000
O O6 0.278746 0.689652 0.307266
O O7 0.324020 0.546519 0.265440
O O8 0.933865 0.216200 0.744333
O O9 0.817221 0.242026 0.782611
O O10 0.858375 0.099529 0.799360
O O11 0.885662 0.206652 0.000000
O O12 0.826125 0.580643 0.500000
O O13 0.758790 0.571586 0.734663
O O14 0.870395 0.515326 0.735627
O O15 0.435278 0.126154 0.765844
O O16 0.453422 0.214277 0.000000
O O17 0.678997 0.884428 0.162578
O O18 0.700205 0.760002 0.000000
O O19 0.706682 0.527494 0.500000
O O20 0.593163 0.947066 0.000000
#
# Coordination Sequence:
#
# PCOD8236024 Si02
#       8
#     8   8   8   8   8   8   8   8
#     4  10  21  34  50  75 104 133 168 215 256 290
#     4  10  19  33  53  73 100 136 168 201 250 309
#     4  10  19  31  52  77 100 129 168 213 255 292
#     4   9  15  27  50  78 105 126 156 206 257 298
#     4   9  19  35  51  71 102 137 175 208 244 300
#     4   9  16  29  50  75 102 131 162 196 247 309
#     4   9  17  30  49  77 104 126 160 209 256 299
#     4   8  13  25  48  74  98 127 160 198 242 293
#
# _framework density 18.413567
#
# number of rings (size 3 to 8) (size 9 to 14) (size 15 to 20)
#    0.000    2.750    1.250    1.875    0.000    2.500 
#    0.000    4.375    0.000    7.500    0.000    4.375 
#    0.000    0.000    0.000    0.000    0.000    0.000 
#
# Total GULP energy -793164.634513 kJ/mol
# GULP energy per Si atom -12393.197414 kJ/mol
# Density = 1.837166 g / cm^3
# Si number density = 18.413567 Si / 1000 Ang^3
#
#
#
# Elastic Constant Matrix: (Units=GPa)
#
#
# Indices 1 2 3 4 5 6 
#
# 1 71.2521 47.2651 22.7137 0.0000 0.0000 0.0000
# 2 47.2651 116.9850 29.2187 0.0000 0.0000 0.0000
# 3 22.7137 29.2187 33.6754 0.0000 0.0000 0.0000
# 4 0.0000 0.0000 0.0000 22.2258 0.0000 0.0000
# 5 0.0000 0.0000 0.0000 0.0000 22.9831 0.0000
# 6 0.0000 0.0000 0.0000 0.0000 0.0000 24.1667
#
#
#
# Elastic Compliance Matrix: (Units=1/GPa)
#
#
# Indices 1 2 3 4 5 6 
#
# 1 0.020989 -0.006312 -0.008680 0.000000 0.000000 0.000000
# 2 -0.006312 0.012811 -0.006858 0.000000 0.000000 0.000000
# 3 -0.008680 -0.006858 0.041501 0.000000 0.000000 0.000000
# 4 0.000000 0.000000 0.000000 0.044993 0.000000 0.000000
# 5 0.000000 0.000000 0.000000 0.000000 0.043510 0.000000
# 6 0.000000 0.000000 0.000000 0.000000 0.000000 0.041379
#
#
# Mechanical properties :
#
#
# Convention : Reuss Voigt Hill
#
# Bulk Modulus (GPa) = 31.64583 46.70086 39.17334
# Shear Modulus (GPa) = 19.27395 22.05610 20.66502
#
# Velocity S-wave (km/s) = 3.23882 3.46471 3.35367
# Velocity P-wave (km/s) = 5.58660 6.43606 6.02631
#
# Compressibility (1/GPa) = 0.03159974
#
# Stress axis : x y z
#
# Youngs Moduli (GPa) = 47.64444 78.05575 24.09600
#
# Poissons Ratio (x) = 0.49269 0.20915
# Poissons Ratio (y) = 0.30074 0.16526
# Poissons Ratio (z) = 0.41355 0.53534
#
# Static dielectric constant tensor:
#      x y z
#    x 3.312190 0.000000 0.000000 
#    y 0.000000 3.525210 0.000000 
#    z 0.000000 0.000000 2.963580 
# 
# 
# High freq. dielectric constant tensor:
#      x y z
#    x 1.706680 0.000000 0.000000 
#    y 0.000000 1.717750 0.000000 
#    z 0.000000 0.000000 1.664640 
# 
# From -- ./inp_files/10143.got.cif
#   From: 2010.06.25/outbox.cif.g09.slc.cpg/sg58_6_cif.got.tgz:10143.got - 2010.06.26 21:38:00.
