data_PCOD8236840
_publ_section_title
;
Structure prediction by ZEFSAII (Michael W. Deem and Ramdas Pophale) SiO2 
 PCOD8236840
Probable space group: P N N M
;
_chemical_formula_sum "Si O2"
_cell_formula_units_Z 64
_cell_length_a 17.619504
_cell_length_b 11.295556
_cell_length_c 16.910399
_cell_angle_alpha 90.000000
_cell_angle_beta 90.000000
_cell_angle_gamma 90.000000
_cell_volume 3365.543021
_symmetry_space_group_name_H-M "P N N M"
_symmetry_group_IT_number 58
_symmetry_cell_setting 'orthorhombic'
loop_
_space_group_symop_operation_xyz
x,y,z
-x,-y,z
1/2+x,1/2-y,1/2-z
1/2-x,1/2+y,1/2-z
-x,-y,-z
x,y,-z
1/2-x,1/2+y,1/2+z
1/2+x,1/2-y,1/2+z
loop_
_atom_site_type_symbol
_atom_site_label
_atom_site_fract_x
_atom_site_fract_y
_atom_site_fract_z
Si Si1 0.740275 0.128029 0.587404
Si Si2 0.555873 0.343191 0.906876
Si Si3 0.081856 0.963954 0.092343
Si Si4 0.661629 0.708757 0.299776
Si Si5 0.685974 0.966925 0.727524
Si Si6 0.843141 0.693190 0.305577
Si Si7 0.396728 0.403352 0.859845
Si Si8 0.684473 0.353428 0.673484
O O1 0.702814 0.118680 0.500000
O O2 0.830265 0.111092 0.576337
O O3 0.731790 0.258281 0.623808
O O4 0.705478 0.026373 0.643318
O O5 0.608869 0.231434 0.882655
O O6 0.467839 0.320191 0.884187
O O7 0.580848 0.458945 0.858497
O O8 0.564145 0.364792 0.000000
O O9 0.136975 0.071949 0.111508
O O10 0.113048 0.841041 0.127545
O O11 0.076871 0.942796 0.000000
O O12 0.000000 0.000000 0.127408
O O13 0.639019 0.846443 0.287173
O O14 0.751907 0.703559 0.317163
O O15 0.638415 0.630532 0.224749
O O16 0.761721 0.941292 0.777559
O O17 0.636390 0.058699 0.780391
O O18 0.868601 0.782000 0.235167
#
# Coordination Sequence:
#
# PCOD8236840 Si02
#       8
#     8   8   8   8   8   8   8   8
#     4  11  20  34  62  88 117 156 197 249 298 356
#     4  11  24  37  59  94 126 154 193 254 310 357
#     4  11  24  38  58  89 119 149 193 251 310 352
#     4  11  21  37  62  85 115 160 201 246 291 353
#     4  10  19  38  59  84 116 150 207 240 286 357
#     4  10  20  37  62  85 117 156 204 241 287 356
#     4  11  20  37  59  90 122 156 197 239 302 360
#     4  10  19  38  58  85 112 153 198 244 294 355
#
# _framework density 19.016248000000001
#
# number of rings (size 3 to 8) (size 9 to 14) (size 15 to 20)
#    0.000    1.375    5.000    4.125    3.500    1.000 
#    0.000    0.625    0.000    0.750    0.000    4.375 
#    0.000    0.000    0.000    0.000    0.000    0.000 
#
# Total GULP energy -793340.431424 kJ/mol
# GULP energy per Si atom -12395.944241 kJ/mol
# Density = 1.897297 g / cm^3
# Si number density = 19.016248 Si / 1000 Ang^3
#
#
#
# Elastic Constant Matrix: (Units=GPa)
#
#
# Indices 1 2 3 4 5 6 
#
# 1 78.3533 37.7107 30.9884 0.0000 0.0000 0.0000
# 2 37.7107 122.6253 37.1458 0.0000 0.0000 0.0000
# 3 30.9884 37.1458 92.5098 0.0000 0.0000 0.0000
# 4 0.0000 0.0000 0.0000 24.9375 0.0000 0.0000
# 5 0.0000 0.0000 0.0000 0.0000 24.0487 0.0000
# 6 0.0000 0.0000 0.0000 0.0000 0.0000 25.8836
#
#
#
# Elastic Compliance Matrix: (Units=1/GPa)
#
#
# Indices 1 2 3 4 5 6 
#
# 1 0.016117 -0.003781 -0.003881 0.000000 0.000000 0.000000
# 2 -0.003781 0.010171 -0.002818 0.000000 0.000000 0.000000
# 3 -0.003881 -0.002818 0.013241 0.000000 0.000000 0.000000
# 4 0.000000 0.000000 0.000000 0.040100 0.000000 0.000000
# 5 0.000000 0.000000 0.000000 0.000000 0.041582 0.000000
# 6 0.000000 0.000000 0.000000 0.000000 0.000000 0.038635
#
#
# Mechanical properties :
#
#
# Convention : Reuss Voigt Hill
#
# Bulk Modulus (GPa) = 53.84750 56.13093 54.98921
# Shear Modulus (GPa) = 26.73867 27.48352 27.11109
#
# Velocity S-wave (km/s) = 3.75386 3.80579 3.77991
# Velocity P-wave (km/s) = 6.86780 6.99239 6.93037
#
# Compressibility (1/GPa) = 0.01857097
#
# Stress axis : x y z
#
# Youngs Moduli (GPa) = 62.04538 98.31707 75.52341
#
# Poissons Ratio (x) = 0.37173 0.29308
# Poissons Ratio (y) = 0.23459 0.21279
# Poissons Ratio (z) = 0.24078 0.27701
#
# Static dielectric constant tensor:
#      x y z
#    x 3.445250 0.000000 0.000000 
#    y 0.000000 3.651440 0.000000 
#    z 0.000000 0.000000 3.421040 
# 
# 
# High freq. dielectric constant tensor:
#      x y z
#    x 1.717710 0.000000 0.000000 
#    y 0.000000 1.743250 0.000000 
#    z 0.000000 0.000000 1.738130 
# 
# From -- ./inp_files/22949.got.cif
#   From: 2010.06.25/outbox.cif.g09.slc.cpg/sg58_12_cif.got.tgz:22949.got - 2010.06.26 21:38:00.
