data_PCOD8236006
_publ_section_title
;
Structure prediction by ZEFSAII (Michael W. Deem and Ramdas Pophale) SiO2 
 PCOD8236006
Probable space group: P N N M
;
_chemical_formula_sum "Si O2"
_cell_formula_units_Z 56
_cell_length_a 19.976455
_cell_length_b 11.142906
_cell_length_c 13.339310
_cell_angle_alpha 90.000000
_cell_angle_beta 90.000000
_cell_angle_gamma 90.000000
_cell_volume 2969.273851
_symmetry_space_group_name_H-M "P N N M"
_symmetry_group_IT_number 58
_symmetry_cell_setting 'orthorhombic'
loop_
_space_group_symop_operation_xyz
x,y,z
-x,-y,z
1/2+x,1/2-y,1/2-z
1/2-x,1/2+y,1/2-z
-x,-y,-z
x,y,-z
1/2-x,1/2+y,1/2+z
1/2+x,1/2-y,1/2+z
loop_
_atom_site_type_symbol
_atom_site_label
_atom_site_fract_x
_atom_site_fract_y
_atom_site_fract_z
Si Si1 0.621992 0.193952 0.193964
Si Si2 0.569744 0.978053 0.296152
Si Si3 0.853858 0.179033 0.615726
Si Si4 0.977853 0.330476 0.611568
Si Si5 0.309579 0.563823 0.213038
Si Si6 0.743249 0.583114 0.610573
Si Si7 0.682094 0.804646 0.313809
O O1 0.554896 0.204962 0.128635
O O2 0.638398 0.327841 0.232195
O O3 0.683834 0.137546 0.133738
O O4 0.608989 0.104340 0.287843
O O5 0.549494 0.934085 0.184321
O O6 0.615234 0.876088 0.346487
O O7 0.500000 0.000000 0.357052
O O8 0.828791 0.197919 0.500000
O O9 0.932742 0.210123 0.624319
O O10 0.815105 0.266653 0.694754
O O11 0.843604 0.040906 0.648017
O O12 0.969086 0.382425 0.500000
O O13 0.279391 0.523705 0.318693
O O14 0.244852 0.613387 0.154781
O O15 0.744234 0.529232 0.500000
O O16 0.686219 0.685558 0.619564
#
# Coordination Sequence:
#
# PCOD8236006 Si02
#       7
#     8   8   8   8   8   8   8
#     4  10  19  31  51  76 107 138 167 202 255 307
#     4   9  17  31  52  75  98 134 163 203 256 307
#     4   9  19  34  51  75 106 139 166 204 258 312
#     4   9  18  31  49  79 111 134 164 200 250 326
#     4  10  20  33  50  72 106 140 176 211 246 304
#     4  10  20  33  52  74 101 139 176 214 255 291
#     4   9  18  34  50  72 103 132 170 215 250 303
#
# _framework density 18.859829000000001
#
# number of rings (size 3 to 8) (size 9 to 14) (size 15 to 20)
#    0.000    2.571    1.429    0.429    0.000    7.143 
#    0.000    1.429    0.000    0.429    0.000   31.000 
#    0.000    0.000    0.000    0.000    0.000    0.000 
#
# Total GULP energy -693789.627850 kJ/mol
# GULP energy per Si atom -12389.100497 kJ/mol
# Density = 1.881690 g / cm^3
# Si number density = 18.859829 Si / 1000 Ang^3
#
#
#
# Elastic Constant Matrix: (Units=GPa)
#
#
# Indices 1 2 3 4 5 6 
#
# 1 93.6885 39.7931 6.3161 0.0000 0.0000 0.0000
# 2 39.7931 95.4556 4.7195 0.0000 0.0000 0.0000
# 3 6.3161 4.7195 41.7577 0.0000 0.0000 0.0000
# 4 0.0000 0.0000 0.0000 9.6779 0.0000 0.0000
# 5 0.0000 0.0000 0.0000 0.0000 17.5766 0.0000
# 6 0.0000 0.0000 0.0000 0.0000 0.0000 40.7916
#
#
#
# Elastic Compliance Matrix: (Units=1/GPa)
#
#
# Indices 1 2 3 4 5 6 
#
# 1 0.013047 -0.005372 -0.001366 0.000000 0.000000 0.000000
# 2 -0.005372 0.012746 -0.000628 0.000000 0.000000 0.000000
# 3 -0.001366 -0.000628 0.024225 0.000000 0.000000 0.000000
# 4 0.000000 0.000000 0.000000 0.103329 0.000000 0.000000
# 5 0.000000 0.000000 0.000000 0.000000 0.056894 0.000000
# 6 0.000000 0.000000 0.000000 0.000000 0.000000 0.024515
#
#
# Mechanical properties :
#
#
# Convention : Reuss Voigt Hill
#
# Bulk Modulus (GPa) = 28.33912 36.95103 32.64508
# Shear Modulus (GPa) = 19.13870 25.61407 22.37638
#
# Velocity S-wave (km/s) = 3.18903 3.68928 3.44824
# Velocity P-wave (km/s) = 5.34964 6.14676 5.76200
#
# Compressibility (1/GPa) = 0.03528691
#
# Stress axis : x y z
#
# Youngs Moduli (GPa) = 76.64430 78.45354 41.27904
#
# Poissons Ratio (x) = 0.42142 0.05640
# Poissons Ratio (y) = 0.41170 0.02593
# Poissons Ratio (z) = 0.10473 0.04928
#
# Static dielectric constant tensor:
#      x y z
#    x 3.744970 0.000000 0.000000 
#    y 0.000000 3.576440 0.000000 
#    z 0.000000 0.000000 3.098650 
# 
# 
# High freq. dielectric constant tensor:
#      x y z
#    x 1.738330 0.000000 0.000000 
#    y 0.000000 1.741620 0.000000 
#    z 0.000000 0.000000 1.688040 
# 
# From -- ./inp_files/17042.got.cif
#   From: 2010.06.25/outbox.cif.g09.slc.cpg/sg58_9_cif.got.tgz:17042.got - 2010.06.26 21:38:00.
