data_PCOD8236105
_publ_section_title
;
Structure prediction by ZEFSAII (Michael W. Deem and Ramdas Pophale) SiO2 
 PCOD8236105
Probable space group: P N N M
;
_chemical_formula_sum "Si O2"
_cell_formula_units_Z 40
_cell_length_a 13.494583
_cell_length_b 11.251249
_cell_length_c 13.714793
_cell_angle_alpha 90.000000
_cell_angle_beta 90.000000
_cell_angle_gamma 90.000000
_cell_volume 2082.329549
_symmetry_space_group_name_H-M "P N N M"
_symmetry_group_IT_number 58
_symmetry_cell_setting 'orthorhombic'
loop_
_space_group_symop_operation_xyz
x,y,z
-x,-y,z
1/2+x,1/2-y,1/2-z
1/2-x,1/2+y,1/2-z
-x,-y,-z
x,y,-z
1/2-x,1/2+y,1/2+z
1/2+x,1/2-y,1/2+z
loop_
_atom_site_type_symbol
_atom_site_label
_atom_site_fract_x
_atom_site_fract_y
_atom_site_fract_z
Si Si1 0.686706 0.717970 0.389473
Si Si2 0.093640 0.723770 0.612637
Si Si3 0.602871 0.938427 0.287514
Si Si4 0.303823 0.431048 0.209001
Si Si5 0.389744 0.651592 0.110991
O O1 0.662864 0.680483 0.500000
O O2 0.614860 0.825794 0.358916
O O3 0.670311 0.604147 0.320339
O O4 0.800238 0.757069 0.376181
O O5 0.099545 0.687365 0.500000
O O6 0.107129 0.603974 0.674936
O O7 0.179591 0.817792 0.638685
O O8 0.988669 0.780856 0.641942
O O9 0.500000 0.000000 0.313805
O O10 0.689998 0.032593 0.305242
O O11 0.376921 0.538023 0.180306
O O12 0.396251 0.604766 0.000000
#
# Coordination Sequence:
#
# PCOD8236105 Si02
#       5
#     8   8   8   8   8
#     4   9  19  34  51  74 104 138 173 204 241 295
#     4  10  20  34  55  81 102 124 164 215 262 303
#     4  10  21  35  53  76 104 136 169 205 248 299
#     4  10  19  32  52  76 103 134 166 206 255 300
#     4   9  17  32  55  78 100 128 165 213 261 299
#
# _framework density 19.209256
#
# number of rings (size 3 to 8) (size 9 to 14) (size 15 to 20)
#    0.000    2.400    0.000    2.400    0.000    4.000 
#    0.000    0.000    0.000    9.600    0.000    0.000 
#    0.000    0.000    0.000    0.000    0.000    0.000 
#
# Total GULP energy -496126.421335 kJ/mol
# GULP energy per Si atom -12403.160533 kJ/mol
# Density = 1.916553 g / cm^3
# Si number density = 19.209256 Si / 1000 Ang^3
#
#
#
# Elastic Constant Matrix: (Units=GPa)
#
#
# Indices 1 2 3 4 5 6 
#
# 1 103.5100 35.0066 25.1344 0.0000 0.0000 0.0000
# 2 35.0066 58.3094 24.1995 0.0000 0.0000 0.0000
# 3 25.1344 24.1995 100.3172 0.0000 0.0000 0.0000
# 4 0.0000 0.0000 0.0000 26.1309 0.0000 0.0000
# 5 0.0000 0.0000 0.0000 0.0000 23.2668 0.0000
# 6 0.0000 0.0000 0.0000 0.0000 0.0000 14.3205
#
#
#
# Elastic Compliance Matrix: (Units=1/GPa)
#
#
# Indices 1 2 3 4 5 6 
#
# 1 0.012308 -0.006789 -0.001446 0.000000 0.000000 0.000000
# 2 -0.006789 0.022803 -0.003800 0.000000 0.000000 0.000000
# 3 -0.001446 -0.003800 0.011247 0.000000 0.000000 0.000000
# 4 0.000000 0.000000 0.000000 0.038269 0.000000 0.000000
# 5 0.000000 0.000000 0.000000 0.000000 0.042980 0.000000
# 6 0.000000 0.000000 0.000000 0.000000 0.000000 0.069830
#
#
# Mechanical properties :
#
#
# Convention : Reuss Voigt Hill
#
# Bulk Modulus (GPa) = 44.86642 47.86862 46.36752
# Shear Modulus (GPa) = 21.84018 24.59672 23.21845
#
# Velocity S-wave (km/s) = 3.37554 3.58224 3.48042
# Velocity P-wave (km/s) = 6.21287 6.48718 6.35151
#
# Compressibility (1/GPa) = 0.02228838
#
# Stress axis : x y z
#
# Youngs Moduli (GPa) = 81.24744 43.85440 88.91038
#
# Poissons Ratio (x) = 0.29773 0.12857
# Poissons Ratio (y) = 0.55160 0.33783
# Poissons Ratio (z) = 0.11749 0.16663
#
# Static dielectric constant tensor:
#      x y z
#    x 3.527010 0.000000 0.000000 
#    y 0.000000 3.402520 0.000000 
#    z 0.000000 0.000000 3.563060 
# 
# 
# High freq. dielectric constant tensor:
#      x y z
#    x 1.744910 0.000000 0.000000 
#    y 0.000000 1.740840 0.000000 
#    z 0.000000 0.000000 1.744210 
# 
# From -- ./inp_files/14104.got.cif
#   From: 2010.06.25/outbox.cif.g09.slc.cpg/sg58_8_cif.got.tgz:14104.got - 2010.06.26 21:38:00.
