data_PCOD8236487
_publ_section_title
;
Structure prediction by ZEFSAII (Michael W. Deem and Ramdas Pophale) SiO2 
 PCOD8236487
Probable space group: P N N M
;
_chemical_formula_sum "Si O2"
_cell_formula_units_Z 64
_cell_length_a 24.189883
_cell_length_b 13.753889
_cell_length_c 9.553686
_cell_angle_alpha 90.000000
_cell_angle_beta 90.000000
_cell_angle_gamma 90.000000
_cell_volume 3178.558773
_symmetry_space_group_name_H-M "P N N M"
_symmetry_group_IT_number 58
_symmetry_cell_setting 'orthorhombic'
loop_
_space_group_symop_operation_xyz
x,y,z
-x,-y,z
1/2+x,1/2-y,1/2-z
1/2-x,1/2+y,1/2-z
-x,-y,-z
x,y,-z
1/2-x,1/2+y,1/2+z
1/2+x,1/2-y,1/2+z
loop_
_atom_site_type_symbol
_atom_site_label
_atom_site_fract_x
_atom_site_fract_y
_atom_site_fract_z
Si Si1 0.160486 0.090890 0.662600
Si Si2 0.240713 0.978005 0.842303
Si Si3 0.852365 0.235398 0.654438
Si Si4 0.853916 0.451150 0.650830
Si Si5 0.968029 0.899648 0.662640
Si Si6 0.446761 0.049306 0.656967
Si Si7 0.245850 0.257996 0.340800
Si Si8 0.450337 0.280534 0.339756
O O1 0.165349 0.067532 0.500000
O O2 0.096399 0.095547 0.707030
O O3 0.192814 0.191511 0.700853
O O4 0.188690 0.998944 0.741571
O O5 0.268368 0.871781 0.829555
O O6 0.290514 0.049098 0.795699
O O7 0.220382 0.998935 0.000000
O O8 0.846281 0.184225 0.500000
O O9 0.876038 0.342424 0.628610
O O10 0.794938 0.254001 0.731592
O O11 0.896313 0.179458 0.754256
O O12 0.856660 0.506186 0.500000
O O13 0.894553 0.498016 0.763495
O O14 0.973770 0.868990 0.500000
O O15 0.995065 0.818615 0.761891
O O16 0.000000 0.000000 0.690799
O O17 0.440083 0.011126 0.500000
O O18 0.451617 0.164822 0.660913
O O19 0.500000 0.000000 0.727546
O O20 0.265006 0.232114 0.500000
O O21 0.447517 0.319246 0.500000
#
# Coordination Sequence:
#
# PCOD8236487 Si02
#       8
#     8   8   8   8   8   8   8   8
#     4  10  22  40  60  85 120 159 197 243 300 356
#     4  10  21  37  56  83 116 150 190 241 291 350
#     4  10  19  34  57  82 111 145 187 238 290 346
#     4   9  18  33  53  79 110 145 184 230 283 337
#     4  10  23  42  61  85 118 158 204 253 298 347
#     4   9  19  35  55  81 114 150 188 234 285 342
#     4  10  21  36  57  85 116 151 192 240 296 352
#     4  10  21  37  58  84 113 150 194 241 293 349
#
# _framework density 20.134910999999999
#
# number of rings (size 3 to 8) (size 9 to 14) (size 15 to 20)
#    0.000    2.250    1.250    0.750    1.750    4.000 
#    0.000    1.250    0.000    0.000    0.000    0.000 
#    0.000    0.000    0.000    0.000    0.000    0.000 
#
# Total GULP energy -793066.470488 kJ/mol
# GULP energy per Si atom -12391.663601 kJ/mol
# Density = 2.008908 g / cm^3
# Si number density = 20.134911 Si / 1000 Ang^3
#
#
#
# Elastic Constant Matrix: (Units=GPa)
#
#
# Indices 1 2 3 4 5 6 
#
# 1 165.2829 28.6273 81.8679 0.0000 0.0000 0.0000
# 2 28.6273 38.7179 20.5450 0.0000 0.0000 0.0000
# 3 81.8679 20.5450 114.9113 0.0000 0.0000 0.0000
# 4 0.0000 0.0000 0.0000 18.3714 0.0000 0.0000
# 5 0.0000 0.0000 0.0000 0.0000 39.1073 0.0000
# 6 0.0000 0.0000 0.0000 0.0000 0.0000 30.2315
#
#
#
# Elastic Compliance Matrix: (Units=1/GPa)
#
#
# Indices 1 2 3 4 5 6 
#
# 1 0.009865 -0.003938 -0.006324 0.000000 0.000000 0.000000
# 2 -0.003938 0.030107 -0.002577 0.000000 0.000000 0.000000
# 3 -0.006324 -0.002577 0.013669 0.000000 0.000000 0.000000
# 4 0.000000 0.000000 0.000000 0.054432 0.000000 0.000000
# 5 0.000000 0.000000 0.000000 0.000000 0.025571 0.000000
# 6 0.000000 0.000000 0.000000 0.000000 0.000000 0.033078
#
#
# Mechanical properties :
#
#
# Convention : Reuss Voigt Hill
#
# Bulk Modulus (GPa) = 35.76284 64.55473 50.15879
# Shear Modulus (GPa) = 24.78673 30.06682 27.42678
#
# Velocity S-wave (km/s) = 3.51241 3.86848 3.69474
# Velocity P-wave (km/s) = 5.85231 7.21694 6.57015
#
# Compressibility (1/GPa) = 0.02796199
#
# Stress axis : x y z
#
# Youngs Moduli (GPa) = 101.37164 33.21468 73.16036
#
# Poissons Ratio (x) = 0.13080 0.46266
# Poissons Ratio (y) = 0.39921 0.18855
# Poissons Ratio (z) = 0.64107 0.08560
#
# Static dielectric constant tensor:
#      x y z
#    x 3.688530 0.000000 0.000000 
#    y 0.000000 3.523710 0.000000 
#    z 0.000000 0.000000 3.932580 
# 
# 
# High freq. dielectric constant tensor:
#      x y z
#    x 1.784920 0.000000 0.000000 
#    y 0.000000 1.767960 0.000000 
#    z 0.000000 0.000000 1.791100 
# 
# From -- ./inp_files/9993.got.cif
#   From: 2010.06.25/outbox.cif.g09.slc.cpg/sg58_5_cif.got.tgz:9993.got - 2010.06.26 21:38:00.
