data_PCOD8236781
_publ_section_title
;
Structure prediction by ZEFSAII (Michael W. Deem and Ramdas Pophale) SiO2 
 PCOD8236781
Probable space group: P N N M
;
_chemical_formula_sum "Si O2"
_cell_formula_units_Z 48
_cell_length_a 28.897297
_cell_length_b 9.288070
_cell_length_c 9.337287
_cell_angle_alpha 90.000000
_cell_angle_beta 90.000000
_cell_angle_gamma 90.000000
_cell_volume 2506.128927
_symmetry_space_group_name_H-M "P N N M"
_symmetry_group_IT_number 58
_symmetry_cell_setting 'orthorhombic'
loop_
_space_group_symop_operation_xyz
x,y,z
-x,-y,z
1/2+x,1/2-y,1/2-z
1/2-x,1/2+y,1/2-z
-x,-y,-z
x,y,-z
1/2-x,1/2+y,1/2+z
1/2+x,1/2-y,1/2+z
loop_
_atom_site_type_symbol
_atom_site_label
_atom_site_fract_x
_atom_site_fract_y
_atom_site_fract_z
Si Si1 0.977679 0.154003 0.840587
Si Si2 0.205753 0.979316 0.334652
Si Si3 0.885490 0.188768 0.665593
Si Si4 0.282126 0.809706 0.830059
Si Si5 0.631442 0.008491 0.830522
Si Si6 0.964874 0.630426 0.660657
O O1 0.930084 0.146255 0.754958
O O2 0.015913 0.249469 0.764024
O O3 0.967780 0.214403 0.000000
O O4 0.000000 0.000000 0.850174
O O5 0.220112 0.960516 0.500000
O O6 0.152483 0.935053 0.311652
O O7 0.236210 0.872259 0.240433
O O8 0.211768 0.143731 0.283832
O O9 0.900644 0.201031 0.500000
O O10 0.865101 0.342274 0.718815
O O11 0.325398 0.901386 0.768860
O O12 0.277892 0.824376 0.000000
O O13 0.583761 0.077037 0.773504
O O14 0.631923 0.018089 0.000000
O O15 0.958336 0.693305 0.500000
O O16 0.000000 0.500000 0.655453
#
# Coordination Sequence:
#
# PCOD8236781 Si02
#       6
#     8   8   8   8   8   8
#     4  11  25  40  54  81 122 158 191 233 286 343
#     4  10  22  38  60  89 116 147 192 236 282 341
#     4  10  20  38  61  84 112 149 195 242 284 333
#     4  10  21  38  60  87 119 151 186 234 288 343
#     4   9  18  34  58  87 114 144 188 240 285 331
#     4  10  19  36  62  88 112 147 196 239 279 334
#
# _framework density 19.153047000000001
#
# number of rings (size 3 to 8) (size 9 to 14) (size 15 to 20)
#    0.000    2.000    1.667    1.500    2.333    4.333 
#    0.000    1.667    0.000    0.000    0.000    0.000 
#    0.000    0.000    0.000    0.000    0.000    0.000 
#
# Total GULP energy -595277.441386 kJ/mol
# GULP energy per Si atom -12401.613362 kJ/mol
# Density = 1.910945 g / cm^3
# Si number density = 19.153047 Si / 1000 Ang^3
#
#
#
# Elastic Constant Matrix: (Units=GPa)
#
#
# Indices 1 2 3 4 5 6 
#
# 1 81.6526 33.7963 31.7561 0.0000 0.0000 0.0000
# 2 33.7963 113.3202 40.5745 0.0000 0.0000 0.0000
# 3 31.7561 40.5745 65.6214 0.0000 0.0000 0.0000
# 4 0.0000 0.0000 0.0000 25.5975 0.0000 0.0000
# 5 0.0000 0.0000 0.0000 0.0000 29.1634 0.0000
# 6 0.0000 0.0000 0.0000 0.0000 0.0000 39.1294
#
#
#
# Elastic Compliance Matrix: (Units=1/GPa)
#
#
# Indices 1 2 3 4 5 6 
#
# 1 0.015622 -0.002507 -0.006010 0.000000 0.000000 0.000000
# 2 -0.002507 0.011736 -0.006043 0.000000 0.000000 0.000000
# 3 -0.006010 -0.006043 0.021884 0.000000 0.000000 0.000000
# 4 0.000000 0.000000 0.000000 0.039066 0.000000 0.000000
# 5 0.000000 0.000000 0.000000 0.000000 0.034290 0.000000
# 6 0.000000 0.000000 0.000000 0.000000 0.000000 0.025556
#
#
# Mechanical properties :
#
#
# Convention : Reuss Voigt Hill
#
# Bulk Modulus (GPa) = 49.69792 52.53866 51.11829
# Shear Modulus (GPa) = 27.17663 29.07588 28.12626
#
# Velocity S-wave (km/s) = 3.77094 3.90048 3.83626
# Velocity P-wave (km/s) = 6.70553 6.91199 6.80954
#
# Compressibility (1/GPa) = 0.02012157
#
# Stress axis : x y z
#
# Youngs Moduli (GPa) = 64.01209 85.20717 45.69596
#
# Poissons Ratio (x) = 0.21364 0.27462
# Poissons Ratio (y) = 0.16050 0.27615
# Poissons Ratio (z) = 0.38469 0.51492
#
# Static dielectric constant tensor:
#      x y z
#    x 3.575860 0.000000 0.000000 
#    y 0.000000 3.593790 0.000000 
#    z 0.000000 0.000000 3.447760 
# 
# 
# High freq. dielectric constant tensor:
#      x y z
#    x 1.755800 0.000000 0.000000 
#    y 0.000000 1.754560 0.000000 
#    z 0.000000 0.000000 1.720800 
# 
# From -- ./inp_files/2910.got.cif
#   From: 2010.06.25/outbox.cif.g09.slc.cpg/sg58_2_cif.got.tgz:2910.got - 2010.06.26 21:38:00.
