data_PCOD8236974
_publ_section_title
;
Structure prediction by ZEFSAII (Michael W. Deem and Ramdas Pophale) SiO2 
 PCOD8236974
Probable space group: P N N M
;
_chemical_formula_sum "Si O2"
_cell_formula_units_Z 64
_cell_length_a 19.236277
_cell_length_b 19.184703
_cell_length_c 8.918037
_cell_angle_alpha 90.000000
_cell_angle_beta 90.000000
_cell_angle_gamma 90.000000
_cell_volume 3291.132539
_symmetry_space_group_name_H-M "P N N M"
_symmetry_group_IT_number 58
_symmetry_cell_setting 'orthorhombic'
loop_
_space_group_symop_operation_xyz
x,y,z
-x,-y,z
1/2+x,1/2-y,1/2-z
1/2-x,1/2+y,1/2-z
-x,-y,-z
x,y,-z
1/2-x,1/2+y,1/2+z
1/2+x,1/2-y,1/2+z
loop_
_atom_site_type_symbol
_atom_site_label
_atom_site_fract_x
_atom_site_fract_y
_atom_site_fract_z
Si Si1 0.035447 0.629254 0.675757
Si Si2 0.964743 0.102524 0.322044
Si Si3 0.396984 0.535712 0.821275
Si Si4 0.761906 0.892622 0.321904
Si Si5 0.623515 0.124246 0.175939
Si Si6 0.115645 0.765738 0.322125
Si Si7 0.128298 0.523863 0.177664
Si Si8 0.760783 0.735189 0.677680
O O1 0.044663 0.616949 0.500000
O O2 0.085174 0.691815 0.733083
O O3 0.057312 0.557977 0.759384
O O4 0.955392 0.647287 0.714278
O O5 0.965087 0.100127 0.500000
O O6 0.939721 0.177253 0.264693
O O7 0.042434 0.087652 0.263102
O O8 0.912399 0.042326 0.263511
O O9 0.324197 0.561263 0.753276
O O10 0.394227 0.537745 0.000000
O O11 0.763071 0.894038 0.500000
O O12 0.690292 0.926061 0.264158
O O13 0.773419 0.813894 0.264433
O O14 0.676345 0.184893 0.231287
O O15 0.641594 0.053101 0.260444
O O16 0.632402 0.111069 0.000000
O O17 0.124321 0.766838 0.500000
O O18 0.188190 0.788052 0.249049
O O19 0.124068 0.519659 0.000000
O O20 0.753781 0.732717 0.500000
#
# Coordination Sequence:
#
# PCOD8236974 Si02
#       8
#     8   8   8   8   8   8   8   8
#     4  10  21  38  57  80 110 147 187 230 277 327
#     4   8  15  26  45  76 107 132 166 213 266 312
#     4   8  14  26  45  73 106 135 166 213 263 311
#     4   9  18  31  50  74 106 142 174 213 265 323
#     4  10  23  39  58  81 109 146 188 230 274 324
#     4  10  20  33  54  81 110 141 176 223 272 320
#     4  11  22  37  58  84 111 144 184 231 282 330
#     4  10  21  38  55  77 109 145 181 218 265 325
#
# _framework density 19.446193000000001
#
# number of rings (size 3 to 8) (size 9 to 14) (size 15 to 20)
#    0.000    2.500    1.250    1.500    3.500    2.500 
#    0.000    0.000    0.000    0.000    0.000    3.500 
#    0.000    0.000    0.000    0.000    0.000    0.000 
#
# Total GULP energy -793380.227162 kJ/mol
# GULP energy per Si atom -12396.566049 kJ/mol
# Density = 1.940193 g / cm^3
# Si number density = 19.446193 Si / 1000 Ang^3
#
#
#
# Elastic Constant Matrix: (Units=GPa)
#
#
# Indices 1 2 3 4 5 6 
#
# 1 124.0378 60.2644 29.1014 0.0000 0.0000 0.0000
# 2 60.2644 116.8106 28.9993 0.0000 0.0000 0.0000
# 3 29.1014 28.9993 25.1137 0.0000 0.0000 0.0000
# 4 0.0000 0.0000 0.0000 19.5880 0.0000 0.0000
# 5 0.0000 0.0000 0.0000 0.0000 23.2110 0.0000
# 6 0.0000 0.0000 0.0000 0.0000 0.0000 41.0554
#
#
#
# Elastic Compliance Matrix: (Units=1/GPa)
#
#
# Indices 1 2 3 4 5 6 
#
# 1 0.012227 -0.003912 -0.009651 0.000000 0.000000 0.000000
# 2 -0.003912 0.013253 -0.010770 0.000000 0.000000 0.000000
# 3 -0.009651 -0.010770 0.063439 0.000000 0.000000 0.000000
# 4 0.000000 0.000000 0.000000 0.051052 0.000000 0.000000
# 5 0.000000 0.000000 0.000000 0.000000 0.043083 0.000000
# 6 0.000000 0.000000 0.000000 0.000000 0.000000 0.024357
#
#
# Mechanical properties :
#
#
# Convention : Reuss Voigt Hill
#
# Bulk Modulus (GPa) = 24.84337 55.85471 40.34904
# Shear Modulus (GPa) = 18.55319 26.61068 22.58193
#
# Velocity S-wave (km/s) = 3.09217 3.70324 3.41141
# Velocity P-wave (km/s) = 5.05488 6.86078 6.02587
#
# Compressibility (1/GPa) = 0.04025218
#
# Stress axis : x y z
#
# Youngs Moduli (GPa) = 81.78536 75.45456 15.76318
#
# Poissons Ratio (x) = 0.29519 0.15213
# Poissons Ratio (y) = 0.31996 0.16977
# Poissons Ratio (z) = 0.78932 0.81266
#
# Static dielectric constant tensor:
#      x y z
#    x 3.821390 0.000000 0.000000 
#    y 0.000000 3.806230 0.000000 
#    z 0.000000 0.000000 3.028400 
# 
# 
# High freq. dielectric constant tensor:
#      x y z
#    x 1.769540 0.000000 0.000000 
#    y 0.000000 1.768070 0.000000 
#    z 0.000000 0.000000 1.705610 
# 
# From -- ./inp_files/9240.got.cif
#   From: 2010.06.25/outbox.cif.g09.slc.cpg/sg58_5_cif.got.tgz:9240.got - 2010.06.26 21:38:00.
