data_PCOD8236586
_publ_section_title
;
Structure prediction by ZEFSAII (Michael W. Deem and Ramdas Pophale) SiO2 
 PCOD8236586
Probable space group: P N N M
;
_chemical_formula_sum "Si O2"
_cell_formula_units_Z 48
_cell_length_a 14.580057
_cell_length_b 19.983627
_cell_length_c 9.217326
_cell_angle_alpha 90.000000
_cell_angle_beta 90.000000
_cell_angle_gamma 90.000000
_cell_volume 2685.582416
_symmetry_space_group_name_H-M "P N N M"
_symmetry_group_IT_number 58
_symmetry_cell_setting 'orthorhombic'
loop_
_space_group_symop_operation_xyz
x,y,z
-x,-y,z
1/2+x,1/2-y,1/2-z
1/2-x,1/2+y,1/2-z
-x,-y,-z
x,y,-z
1/2-x,1/2+y,1/2+z
1/2+x,1/2-y,1/2+z
loop_
_atom_site_type_symbol
_atom_site_label
_atom_site_fract_x
_atom_site_fract_y
_atom_site_fract_z
Si Si1 0.490189 0.310148 0.171166
Si Si2 0.687712 0.665991 0.334583
Si Si3 0.894077 0.681418 0.669556
Si Si4 0.561523 0.438358 0.668054
Si Si5 0.761472 0.016818 0.164287
Si Si6 0.414565 0.953339 0.330653
O O1 0.387618 0.300402 0.231442
O O2 0.548073 0.245416 0.217226
O O3 0.540430 0.373796 0.237951
O O4 0.485825 0.319096 0.000000
O O5 0.663361 0.684149 0.500000
O O6 0.787490 0.694506 0.291488
O O7 0.684611 0.586225 0.310208
O O8 0.903804 0.665308 0.500000
O O9 0.931978 0.617638 0.755113
O O10 0.500000 0.500000 0.722701
O O11 0.539540 0.422881 0.500000
O O12 0.668301 0.456311 0.691868
O O13 0.676114 0.009627 0.271769
O O14 0.723488 0.015592 0.000000
O O15 0.401759 0.940929 0.500000
O O16 0.500000 0.000000 0.294841
#
# Coordination Sequence:
#
# PCOD8236586 Si02
#       6
#     8   8   8   8   8   8
#     4  11  22  35  54  83 113 140 178 230 274 315
#     4   9  17  35  58  75 100 144 183 215 265 324
#     4   9  21  40  57  76 108 148 185 219 267 329
#     4  10  19  35  56  80 111 146 182 215 262 329
#     4   9  18  34  57  80 106 143 182 218 261 322
#     4  10  21  37  58  84 110 138 179 229 277 320
#
# _framework density 17.873217
#
# number of rings (size 3 to 8) (size 9 to 14) (size 15 to 20)
#    0.000    2.333    1.667    2.000    0.000    6.333 
#    3.000    0.000    0.000    0.000    0.000    0.000 
#    0.000    0.000    0.000    0.000    0.000    0.000 
#
# Total GULP energy -595303.478656 kJ/mol
# GULP energy per Si atom -12402.155805 kJ/mol
# Density = 1.783254 g / cm^3
# Si number density = 17.873217 Si / 1000 Ang^3
#
#
#
# Elastic Constant Matrix: (Units=GPa)
#
#
# Indices 1 2 3 4 5 6 
#
# 1 124.3303 82.0150 67.1616 0.0000 0.0000 0.0000
# 2 82.0150 109.5686 68.6557 0.0000 0.0000 0.0000
# 3 67.1616 68.6557 85.3942 0.0000 0.0000 0.0000
# 4 0.0000 0.0000 0.0000 11.0311 0.0000 0.0000
# 5 0.0000 0.0000 0.0000 0.0000 23.7423 0.0000
# 6 0.0000 0.0000 0.0000 0.0000 0.0000 30.3011
#
#
#
# Elastic Compliance Matrix: (Units=1/GPa)
#
#
# Indices 1 2 3 4 5 6 
#
# 1 0.017522 -0.009030 -0.006521 0.000000 0.000000 0.000000
# 2 -0.009030 0.023045 -0.011427 0.000000 0.000000 0.000000
# 3 -0.006521 -0.011427 0.026026 0.000000 0.000000 0.000000
# 4 0.000000 0.000000 0.000000 0.090653 0.000000 0.000000
# 5 0.000000 0.000000 0.000000 0.000000 0.042119 0.000000
# 6 0.000000 0.000000 0.000000 0.000000 0.000000 0.033002
#
#
# Mechanical properties :
#
#
# Convention : Reuss Voigt Hill
#
# Bulk Modulus (GPa) = 79.12123 83.88418 81.50271
# Shear Modulus (GPa) = 17.20957 19.77896 18.49427
#
# Velocity S-wave (km/s) = 3.10638 3.33021 3.22024
# Velocity P-wave (km/s) = 7.56507 7.86269 7.71531
#
# Compressibility (1/GPa) = 0.01263883
#
# Stress axis : x y z
#
# Youngs Moduli (GPa) = 57.07031 43.39249 38.42280
#
# Poissons Ratio (x) = 0.39181 0.25057
# Poissons Ratio (y) = 0.51532 0.43904
# Poissons Ratio (z) = 0.37218 0.49583
#
# Static dielectric constant tensor:
#      x y z
#    x 3.418620 0.000000 0.000000 
#    y 0.000000 3.204810 0.000000 
#    z 0.000000 0.000000 3.258670 
# 
# 
# High freq. dielectric constant tensor:
#      x y z
#    x 1.700700 0.000000 0.000000 
#    y 0.000000 1.675830 0.000000 
#    z 0.000000 0.000000 1.690930 
# 
# From -- ./inp_files/5845.got.cif
#   From: 2010.06.25/outbox.cif.g09.slc.cpg/sg58_3_cif.got.tgz:5845.got - 2010.06.26 21:38:00.
