data_PCOD8236986
_publ_section_title
;
Structure prediction by ZEFSAII (Michael W. Deem and Ramdas Pophale) SiO2 
 PCOD8236986
Probable space group: P N N M
;
_chemical_formula_sum "Si O2"
_cell_formula_units_Z 48
_cell_length_a 30.753643
_cell_length_b 10.566810
_cell_length_c 7.947140
_cell_angle_alpha 90.000000
_cell_angle_beta 90.000000
_cell_angle_gamma 90.000000
_cell_volume 2582.565416
_symmetry_space_group_name_H-M "P N N M"
_symmetry_group_IT_number 58
_symmetry_cell_setting 'orthorhombic'
loop_
_space_group_symop_operation_xyz
x,y,z
-x,-y,z
1/2+x,1/2-y,1/2-z
1/2-x,1/2+y,1/2-z
-x,-y,-z
x,y,-z
1/2-x,1/2+y,1/2+z
1/2+x,1/2-y,1/2+z
loop_
_atom_site_type_symbol
_atom_site_label
_atom_site_fract_x
_atom_site_fract_y
_atom_site_fract_z
Si Si1 0.876218 0.336480 0.310159
Si Si2 0.373777 0.453451 0.806368
Si Si3 0.427989 0.530965 0.500000
Si Si4 0.528804 0.877232 0.808054
Si Si5 0.492542 0.298256 0.500000
Si Si6 0.225161 0.916259 0.695251
Si Si7 0.216334 0.634830 0.189513
O O1 0.859648 0.353143 0.500000
O O2 0.920481 0.413745 0.272215
O O3 0.835798 0.383686 0.199945
O O4 0.888304 0.190817 0.276294
O O5 0.399358 0.538143 0.670740
O O6 0.323010 0.465643 0.763653
O O7 0.383859 0.495659 0.000000
O O8 0.456973 0.406542 0.500000
O O9 0.458287 0.653041 0.500000
O O10 0.512416 0.778383 0.672039
O O11 0.500000 0.000000 0.786299
O O12 0.524979 0.822987 0.000000
O O13 0.233426 0.908523 0.500000
O O14 0.258573 0.017446 0.781562
O O15 0.232288 0.772625 0.754003
O O16 0.231233 0.624166 0.000000
#
# Coordination Sequence:
#
# PCOD8236986 Si02
#       7
#     8   8   4   8   4   8   8
#     4   9  18  33  54  80 105 137 183 227 268 323
#     4   9  18  35  56  77 110 146 185 227 263 327
#     4  11  22  34  56  86 108 148 184 222 283 338
#     4  10  21  38  59  80 107 148 190 230 280 331
#     4  11  23  36  54  84 119 135 184 242 276 329
#     4   9  20  36  52  80 111 140 182 228 272 328
#     4  10  20  33  56  82 108 144 181 224 279 328
#
# _framework density 18.586171
#
# number of rings (size 3 to 8) (size 9 to 14) (size 15 to 20)
#    0.000    2.333    1.667    1.750    5.833    2.000 
#    0.000    3.333    0.000    6.000    0.000    0.000 
#    0.000    0.000    0.000    0.000    0.000    0.000 
#
# Total GULP energy -594820.751232 kJ/mol
# GULP energy per Si atom -12392.098984 kJ/mol
# Density = 1.854387 g / cm^3
# Si number density = 18.586171 Si / 1000 Ang^3
#
#
#
# Elastic Constant Matrix: (Units=GPa)
#
#
# Indices 1 2 3 4 5 6 
#
# 1 122.7899 73.3444 48.5977 0.0000 0.0000 0.0000
# 2 73.3444 90.2767 40.8434 0.0000 0.0000 0.0000
# 3 48.5977 40.8434 85.1667 0.0000 0.0000 0.0000
# 4 0.0000 0.0000 0.0000 15.5089 0.0000 0.0000
# 5 0.0000 0.0000 0.0000 0.0000 21.2233 0.0000
# 6 0.0000 0.0000 0.0000 0.0000 0.0000 35.9643
#
#
#
# Elastic Compliance Matrix: (Units=1/GPa)
#
#
# Indices 1 2 3 4 5 6 
#
# 1 0.016768 -0.011869 -0.003876 0.000000 0.000000 0.000000
# 2 -0.011869 0.022548 -0.004041 0.000000 0.000000 0.000000
# 3 -0.003876 -0.004041 0.015891 0.000000 0.000000 0.000000
# 4 0.000000 0.000000 0.000000 0.064479 0.000000 0.000000
# 5 0.000000 0.000000 0.000000 0.000000 0.047118 0.000000
# 6 0.000000 0.000000 0.000000 0.000000 0.000000 0.027805
#
#
# Mechanical properties :
#
#
# Convention : Reuss Voigt Hill
#
# Bulk Modulus (GPa) = 63.95679 69.31160 66.63420
# Shear Modulus (GPa) = 20.88621 23.56915 22.22768
#
# Velocity S-wave (km/s) = 3.35587 3.56490 3.46197
# Velocity P-wave (km/s) = 7.03573 7.37005 7.20483
#
# Compressibility (1/GPa) = 0.01563556
#
# Stress axis : x y z
#
# Youngs Moduli (GPa) = 59.63885 44.34959 62.92852
#
# Poissons Ratio (x) = 0.52639 0.24390
# Poissons Ratio (y) = 0.70786 0.25427
# Poissons Ratio (z) = 0.23115 0.17920
#
# Static dielectric constant tensor:
#      x y z
#    x 3.759180 0.000000 0.000000 
#    y 0.000000 3.585420 0.000000 
#    z 0.000000 0.000000 3.487870 
# 
# 
# High freq. dielectric constant tensor:
#      x y z
#    x 1.728550 0.000000 0.000000 
#    y 0.000000 1.689420 0.000000 
#    z 0.000000 0.000000 1.728950 
# 
# From -- ./inp_files/10790.got.cif
#   From: 2010.06.25/outbox.cif.g09.slc.cpg/sg58_6_cif.got.tgz:10790.got - 2010.06.26 21:38:00.
