data_PCOD8236842
_publ_section_title
;
Structure prediction by ZEFSAII (Michael W. Deem and Ramdas Pophale) SiO2 
 PCOD8236842
Probable space group: P N N M
;
_chemical_formula_sum "Si O2"
_cell_formula_units_Z 64
_cell_length_a 6.189931
_cell_length_b 17.640205
_cell_length_c 29.883208
_cell_angle_alpha 90.000000
_cell_angle_beta 90.000000
_cell_angle_gamma 90.000000
_cell_volume 3262.996842
_symmetry_space_group_name_H-M "P N N M"
_symmetry_group_IT_number 58
_symmetry_cell_setting 'orthorhombic'
loop_
_space_group_symop_operation_xyz
x,y,z
-x,-y,z
1/2+x,1/2-y,1/2-z
1/2-x,1/2+y,1/2-z
-x,-y,-z
x,y,-z
1/2-x,1/2+y,1/2+z
1/2+x,1/2-y,1/2+z
loop_
_atom_site_type_symbol
_atom_site_label
_atom_site_fract_x
_atom_site_fract_y
_atom_site_fract_z
Si Si1 0.884884 0.810757 0.391745
Si Si2 0.893381 0.924327 0.265043
Si Si3 0.295616 0.326617 0.184740
Si Si4 0.035722 0.411337 0.600510
Si Si5 0.226499 0.650908 0.318587
Si Si6 0.900110 0.421228 0.150654
Si Si7 0.423616 0.321435 0.613683
Si Si8 0.309799 0.215952 0.051626
O O1 0.714686 0.881431 0.392991
O O2 0.753599 0.740190 0.370854
O O3 0.069338 0.840736 0.359655
O O4 0.011682 0.781454 0.436164
O O5 0.728104 0.895770 0.227242
O O6 0.770625 0.942670 0.311001
O O7 0.087164 0.864591 0.272882
O O8 0.000000 0.000000 0.246146
O O9 0.295106 0.238040 0.194984
O O10 0.063351 0.362777 0.174571
O O11 0.289377 0.391998 0.592844
O O12 0.000000 0.500000 0.594870
O O13 0.962831 0.381162 0.649574
O O14 0.902783 0.367501 0.562053
O O15 0.453306 0.643029 0.344384
O O16 0.000000 0.500000 0.133046
O O17 0.586605 0.278258 0.579532
O O18 0.252247 0.224803 0.000000
#
# Coordination Sequence:
#
# PCOD8236842 Si02
#       8
#     8   8   8   8   8   8   8   8
#     4  10  19  38  63  87 118 152 204 247 299 366
#     4  11  26  37  53  87 125 161 206 259 308 355
#     4  11  21  40  56  84 118 157 211 253 301 363
#     4  10  23  40  58  87 123 162 205 247 296 357
#     4  11  23  37  57  83 116 165 209 251 299 351
#     4  11  22  39  60  84 124 162 199 257 309 366
#     4  10  19  38  59  84 115 159 202 246 299 361
#     4  10  21  38  62  93 122 153 201 252 305 371
#
# _framework density 19.613872000000001
#
# number of rings (size 3 to 8) (size 9 to 14) (size 15 to 20)
#    0.000    1.500    6.250    0.000    3.500    5.250 
#    0.000    0.625    0.000    0.375    0.000    3.500 
#    0.000    0.000    0.000    0.000    0.000    0.000 
#
# Total GULP energy -793009.200722 kJ/mol
# GULP energy per Si atom -12390.768761 kJ/mol
# Density = 1.956923 g / cm^3
# Si number density = 19.613872 Si / 1000 Ang^3
#
#
#
# Elastic Constant Matrix: (Units=GPa)
#
#
# Indices 1 2 3 4 5 6 
#
# 1 84.0043 25.5673 15.9604 0.0000 0.0000 0.0000
# 2 25.5673 111.2642 24.5753 0.0000 0.0000 0.0000
# 3 15.9604 24.5753 65.7867 0.0000 0.0000 0.0000
# 4 0.0000 0.0000 0.0000 16.8306 0.0000 0.0000
# 5 0.0000 0.0000 0.0000 0.0000 13.8001 0.0000
# 6 0.0000 0.0000 0.0000 0.0000 0.0000 38.9160
#
#
#
# Elastic Compliance Matrix: (Units=1/GPa)
#
#
# Indices 1 2 3 4 5 6 
#
# 1 0.013095 -0.002515 -0.002237 0.000000 0.000000 0.000000
# 2 -0.002515 0.010279 -0.003230 0.000000 0.000000 0.000000
# 3 -0.002237 -0.003230 0.016950 0.000000 0.000000 0.000000
# 4 0.000000 0.000000 0.000000 0.059416 0.000000 0.000000
# 5 0.000000 0.000000 0.000000 0.000000 0.072463 0.000000
# 6 0.000000 0.000000 0.000000 0.000000 0.000000 0.025696
#
#
# Mechanical properties :
#
#
# Convention : Reuss Voigt Hill
#
# Bulk Modulus (GPa) = 41.05158 43.69572 42.37365
# Shear Modulus (GPa) = 22.52433 26.90616 24.71524
#
# Velocity S-wave (km/s) = 3.39246 3.70779 3.55363
# Velocity P-wave (km/s) = 6.02664 6.37625 6.20391
#
# Compressibility (1/GPa) = 0.02435960
#
# Stress axis : x y z
#
# Youngs Moduli (GPa) = 76.36700 97.28720 58.99728
#
# Poissons Ratio (x) = 0.24466 0.13200
# Poissons Ratio (y) = 0.19205 0.19054
# Poissons Ratio (z) = 0.17087 0.31420
#
# Static dielectric constant tensor:
#      x y z
#    x 3.998650 0.000000 0.000000 
#    y 0.000000 3.705980 0.000000 
#    z 0.000000 0.000000 3.152130 
# 
# 
# High freq. dielectric constant tensor:
#      x y z
#    x 1.784510 0.000000 0.000000 
#    y 0.000000 1.765230 0.000000 
#    z 0.000000 0.000000 1.716190 
# 
# From -- ./inp_files/34267.got.cif
#   From: 2010.06.25/outbox.cif.g09.slc.cpg/sg58_18_cif.got.tgz:34267.got - 2010.06.26 21:38:00.
