data_PCOD8236485
_publ_section_title
;
Structure prediction by ZEFSAII (Michael W. Deem and Ramdas Pophale) SiO2 
 PCOD8236485
Probable space group: P N N M
;
_chemical_formula_sum "Si O2"
_cell_formula_units_Z 64
_cell_length_a 11.642735
_cell_length_b 33.545386
_cell_length_c 8.554757
_cell_angle_alpha 90.000000
_cell_angle_beta 90.000000
_cell_angle_gamma 90.000000
_cell_volume 3341.146233
_symmetry_space_group_name_H-M "P N N M"
_symmetry_group_IT_number 58
_symmetry_cell_setting 'orthorhombic'
loop_
_space_group_symop_operation_xyz
x,y,z
-x,-y,z
1/2+x,1/2-y,1/2-z
1/2-x,1/2+y,1/2-z
-x,-y,-z
x,y,-z
1/2-x,1/2+y,1/2+z
1/2+x,1/2-y,1/2+z
loop_
_atom_site_type_symbol
_atom_site_label
_atom_site_fract_x
_atom_site_fract_y
_atom_site_fract_z
Si Si1 0.101367 0.446050 0.317251
Si Si2 0.228171 0.370992 0.816257
Si Si3 0.314212 0.175993 0.819233
Si Si4 0.793521 0.898539 0.316762
Si Si5 0.609122 0.279086 0.181822
Si Si6 0.479568 0.357388 0.184514
Si Si7 0.845478 0.465182 0.317115
Si Si8 0.946347 0.695922 0.817710
O O1 0.109398 0.437250 0.500000
O O2 0.168394 0.412239 0.225827
O O3 0.160588 0.488151 0.275910
O O4 0.968446 0.447275 0.264355
O O5 0.355921 0.368016 0.739761
O O6 0.153906 0.333499 0.757828
O O7 0.240997 0.368770 0.000000
O O8 0.294398 0.129974 0.775096
O O9 0.236183 0.204156 0.711403
O O10 0.445075 0.186555 0.788359
O O11 0.284955 0.183351 0.000000
O O12 0.781859 0.890095 0.500000
O O13 0.923867 0.889306 0.259692
O O14 0.757564 0.943654 0.276004
O O15 0.517168 0.312759 0.233747
O O16 0.591862 0.241041 0.290298
O O17 0.595895 0.267801 0.000000
O O18 0.470701 0.359410 0.000000
O O19 0.827804 0.458449 0.500000
O O20 0.974050 0.689115 0.000000
#
# Coordination Sequence:
#
# PCOD8236485 Si02
#       8
#     8   8   8   8   8   8   8   8
#     4   9  19  35  54  80 112 145 180 224 274 330
#     4  10  21  37  56  78 109 146 181 223 274 333
#     4  11  22  37  56  78 110 146 182 227 279 330
#     4  10  19  34  57  82 107 139 185 232 273 327
#     4  10  21  38  59  81 108 142 185 233 281 332
#     4   8  18  37  56  75 106 146 180 219 274 330
#     4   9  18  34  56  80 111 145 179 223 278 332
#     4  11  23  36  55  84 112 141 184 232 279 336
#
# _framework density 19.155101999999999
#
# number of rings (size 3 to 8) (size 9 to 14) (size 15 to 20)
#    0.000    2.250    0.000    4.500    1.750    4.000 
#    0.000    5.625    0.000    3.750    0.000    0.000 
#    0.000    0.000    0.000    0.000    0.000    0.000 
#
# Total GULP energy -793635.922151 kJ/mol
# GULP energy per Si atom -12400.561284 kJ/mol
# Density = 1.911150 g / cm^3
# Si number density = 19.155102 Si / 1000 Ang^3
#
#
#
# Elastic Constant Matrix: (Units=GPa)
#
#
# Indices 1 2 3 4 5 6 
#
# 1 115.1060 61.9265 15.1696 0.0000 0.0000 0.0000
# 2 61.9265 107.5916 13.5637 0.0000 0.0000 0.0000
# 3 15.1696 13.5637 36.3358 0.0000 0.0000 0.0000
# 4 0.0000 0.0000 0.0000 33.1037 0.0000 0.0000
# 5 0.0000 0.0000 0.0000 0.0000 22.8021 0.0000
# 6 0.0000 0.0000 0.0000 0.0000 0.0000 23.4519
#
#
#
# Elastic Compliance Matrix: (Units=1/GPa)
#
#
# Indices 1 2 3 4 5 6 
#
# 1 0.012837 -0.007045 -0.002730 0.000000 0.000000 0.000000
# 2 -0.007045 0.013619 -0.002143 0.000000 0.000000 0.000000
# 3 -0.002730 -0.002143 0.029461 0.000000 0.000000 0.000000
# 4 0.000000 0.000000 0.000000 0.030208 0.000000 0.000000
# 5 0.000000 0.000000 0.000000 0.000000 0.043856 0.000000
# 6 0.000000 0.000000 0.000000 0.000000 0.000000 0.042641
#
#
# Mechanical properties :
#
#
# Convention : Reuss Voigt Hill
#
# Bulk Modulus (GPa) = 31.16939 48.92809 40.04874
# Shear Modulus (GPa) = 24.13706 27.09643 25.61674
#
# Velocity S-wave (km/s) = 3.55362 3.76517 3.66092
# Velocity P-wave (km/s) = 5.75717 6.67088 6.23080
#
# Compressibility (1/GPa) = 0.03208276
#
# Stress axis : x y z
#
# Youngs Moduli (GPa) = 77.89737 73.42540 33.94364
#
# Poissons Ratio (x) = 0.51726 0.09266
# Poissons Ratio (y) = 0.54876 0.07274
# Poissons Ratio (z) = 0.21264 0.15734
#
# Static dielectric constant tensor:
#      x y z
#    x 3.760090 0.000000 0.000000 
#    y 0.000000 3.575890 0.000000 
#    z 0.000000 0.000000 3.264260 
# 
# 
# High freq. dielectric constant tensor:
#      x y z
#    x 1.744340 0.000000 0.000000 
#    y 0.000000 1.745990 0.000000 
#    z 0.000000 0.000000 1.731920 
# 
# From -- ./inp_files/4677.got.cif
#   From: 2010.06.25/outbox.cif.g09.slc.cpg/sg58_3_cif.got.tgz:4677.got - 2010.06.26 21:38:00.
