data_PCOD8236816
_publ_section_title
;
Structure prediction by ZEFSAII (Michael W. Deem and Ramdas Pophale) SiO2 
 PCOD8236816
Probable space group: P N N M
;
_chemical_formula_sum "Si O2"
_cell_formula_units_Z 56
_cell_length_a 19.395823
_cell_length_b 17.182571
_cell_length_c 8.913544
_cell_angle_alpha 90.000000
_cell_angle_beta 90.000000
_cell_angle_gamma 90.000000
_cell_volume 2970.617752
_symmetry_space_group_name_H-M "P N N M"
_symmetry_group_IT_number 58
_symmetry_cell_setting 'orthorhombic'
loop_
_space_group_symop_operation_xyz
x,y,z
-x,-y,z
1/2+x,1/2-y,1/2-z
1/2-x,1/2+y,1/2-z
-x,-y,-z
x,y,-z
1/2-x,1/2+y,1/2+z
1/2+x,1/2-y,1/2+z
loop_
_atom_site_type_symbol
_atom_site_label
_atom_site_fract_x
_atom_site_fract_y
_atom_site_fract_z
Si Si1 0.119910 0.792224 0.328769
Si Si2 0.462315 0.699658 0.829044
Si Si3 0.690359 0.571826 0.323870
Si Si4 0.574734 0.471167 0.173837
Si Si5 0.096310 0.616185 0.324806
Si Si6 0.832687 0.526141 0.823738
Si Si7 0.453235 0.856174 0.675171
O O1 0.140104 0.810760 0.500000
O O2 0.170046 0.840355 0.220951
O O3 0.128070 0.701152 0.293499
O O4 0.042038 0.819615 0.295981
O O5 0.418564 0.621687 0.801475
O O6 0.434880 0.767785 0.721499
O O7 0.455415 0.729408 0.000000
O O8 0.700121 0.566469 0.500000
O O9 0.632433 0.511034 0.273620
O O10 0.761242 0.551111 0.246078
O O11 0.500000 0.500000 0.227649
O O12 0.586096 0.493813 0.000000
O O13 0.093810 0.597075 0.500000
O O14 0.145694 0.556681 0.241579
O O15 0.018905 0.610845 0.262930
O O16 0.888936 0.590658 0.780985
O O17 0.823759 0.517477 0.000000
O O18 0.470039 0.859513 0.500000
#
# Coordination Sequence:
#
# PCOD8236816 Si02
#       7
#     8   8   8   8   8   8   8
#     4   9  18  37  60  84 115 151 187 229 288 347
#     4   9  18  34  60  89 114 148 192 236 287 345
#     4  12  25  38  57  86 118 155 198 243 292 347
#     4  10  19  37  62  84 114 155 194 237 291 348
#     4  10  21  38  64  92 117 150 193 244 293 347
#     4  11  24  42  60  82 117 160 199 239 296 353
#     4  10  21  37  60  89 119 153 192 242 295 346
#
# _framework density 18.851298
#
# number of rings (size 3 to 8) (size 9 to 14) (size 15 to 20)
#    0.000    1.857    1.429    3.857    0.000    7.714 
#    2.571    0.000    0.000    0.000    0.000    0.000 
#    0.000    0.000    0.000    0.000    0.000    0.000 
#
# Total GULP energy -694619.541115 kJ/mol
# GULP energy per Si atom -12403.920377 kJ/mol
# Density = 1.880839 g / cm^3
# Si number density = 18.851298 Si / 1000 Ang^3
#
#
#
# Elastic Constant Matrix: (Units=GPa)
#
#
# Indices 1 2 3 4 5 6 
#
# 1 106.5194 68.2120 49.5005 0.0000 0.0000 0.0000
# 2 68.2120 115.8844 52.0668 0.0000 0.0000 0.0000
# 3 49.5005 52.0668 73.4746 0.0000 0.0000 0.0000
# 4 0.0000 0.0000 0.0000 34.9794 0.0000 0.0000
# 5 0.0000 0.0000 0.0000 0.0000 27.9587 0.0000
# 6 0.0000 0.0000 0.0000 0.0000 0.0000 19.3210
#
#
#
# Elastic Compliance Matrix: (Units=1/GPa)
#
#
# Indices 1 2 3 4 5 6 
#
# 1 0.016872 -0.007077 -0.006351 0.000000 0.000000 0.000000
# 2 -0.007077 0.015629 -0.006307 0.000000 0.000000 0.000000
# 3 -0.006351 -0.006307 0.022359 0.000000 0.000000 0.000000
# 4 0.000000 0.000000 0.000000 0.028588 0.000000 0.000000
# 5 0.000000 0.000000 0.000000 0.000000 0.035767 0.000000
# 6 0.000000 0.000000 0.000000 0.000000 0.000000 0.051757
#
#
# Mechanical properties :
#
#
# Convention : Reuss Voigt Hill
#
# Bulk Modulus (GPa) = 64.98781 70.60412 67.79597
# Shear Modulus (GPa) = 23.19405 24.85841 24.02623
#
# Velocity S-wave (km/s) = 3.51147 3.63527 3.57391
# Velocity P-wave (km/s) = 7.14068 7.42663 7.28506
#
# Compressibility (1/GPa) = 0.01538750
#
# Stress axis : x y z
#
# Youngs Moduli (GPa) = 59.27123 63.98369 44.72561
#
# Poissons Ratio (x) = 0.45284 0.28406
# Poissons Ratio (y) = 0.41948 0.28209
# Poissons Ratio (z) = 0.37645 0.40356
#
# Static dielectric constant tensor:
#      x y z
#    x 3.320380 0.000000 0.000000 
#    y 0.000000 3.666530 0.000000 
#    z 0.000000 0.000000 3.463610 
# 
# 
# High freq. dielectric constant tensor:
#      x y z
#    x 1.715910 0.000000 0.000000 
#    y 0.000000 1.748040 0.000000 
#    z 0.000000 0.000000 1.734660 
# 
# From -- ./inp_files/9163.got.cif
#   From: 2010.06.25/outbox.cif.g09.slc.cpg/sg58_5_cif.got.tgz:9163.got - 2010.06.26 21:38:00.
