data_PCOD8236175
_publ_section_title
;
Structure prediction by ZEFSAII (Michael W. Deem and Ramdas Pophale) SiO2 
 PCOD8236175
Probable space group: P N N M
;
_chemical_formula_sum "Si O2"
_cell_formula_units_Z 48
_cell_length_a 8.855013
_cell_length_b 13.590305
_cell_length_c 18.486953
_cell_angle_alpha 90.000000
_cell_angle_beta 90.000000
_cell_angle_gamma 90.000000
_cell_volume 2224.762951
_symmetry_space_group_name_H-M "P N N M"
_symmetry_group_IT_number 58
_symmetry_cell_setting 'orthorhombic'
loop_
_space_group_symop_operation_xyz
x,y,z
-x,-y,z
1/2+x,1/2-y,1/2-z
1/2-x,1/2+y,1/2-z
-x,-y,-z
x,y,-z
1/2-x,1/2+y,1/2+z
1/2+x,1/2-y,1/2+z
loop_
_atom_site_type_symbol
_atom_site_label
_atom_site_fract_x
_atom_site_fract_y
_atom_site_fract_z
Si Si1 0.269397 0.127297 0.779951
Si Si2 0.943868 0.748787 0.685005
Si Si3 0.344847 0.357823 0.918491
Si Si4 0.135081 0.172473 0.080883
Si Si5 0.695224 0.742898 0.417067
Si Si6 0.168274 0.535954 0.139458
O O1 0.147110 0.206710 0.752310
O O2 0.436702 0.172825 0.783256
O O3 0.210582 0.097736 0.860477
O O4 0.283038 0.035919 0.724725
O O5 0.826291 0.692693 0.631442
O O6 0.022165 0.835234 0.637966
O O7 0.210740 0.279122 0.909360
O O8 0.281360 0.465964 0.903442
O O9 0.409764 0.355205 0.000000
O O10 0.957771 0.182581 0.095376
O O11 0.164821 0.130769 0.000000
O O12 0.744401 0.739874 0.500000
O O13 0.679607 0.854871 0.391231
O O14 0.000000 0.500000 0.128175
#
# Coordination Sequence:
#
# PCOD8236175 Si02
#       6
#     8   8   8   8   8   8
#     4  10  21  35  52  78 109 148 192 231 274 330
#     4  10  21  34  54  76 114 151 188 233 269 325
#     4  10  20  34  55  83 116 149 179 219 278 340
#     4   9  18  35  57  79 105 142 185 231 279 327
#     4  10  19  32  54  83 111 144 184 226 279 336
#     4  11  21  33  53  82 119 155 181 219 283 343
#
# _framework density 21.575332
#
# number of rings (size 3 to 8) (size 9 to 14) (size 15 to 20)
#    0.000    2.000    1.667    3.000    2.333    4.000 
#    0.000    4.167    0.000    0.500    0.000    2.333 
#    0.000    0.000    0.000    0.000    0.000    0.000 
#
# Total GULP energy -595085.998336 kJ/mol
# GULP energy per Si atom -12397.624965 kJ/mol
# Density = 2.152623 g / cm^3
# Si number density = 21.575332 Si / 1000 Ang^3
#
#
#
# Elastic Constant Matrix: (Units=GPa)
#
#
# Indices 1 2 3 4 5 6 
#
# 1 109.4308 -3.0051 39.8615 0.0000 0.0000 0.0000
# 2 -3.0051 12.3039 0.4593 0.0000 0.0000 0.0000
# 3 39.8615 0.4593 113.8080 0.0000 0.0000 0.0000
# 4 0.0000 0.0000 0.0000 30.4860 0.0000 0.0000
# 5 0.0000 0.0000 0.0000 0.0000 48.3141 0.0000
# 6 0.0000 0.0000 0.0000 0.0000 0.0000 10.0061
#
#
#
# Elastic Compliance Matrix: (Units=1/GPa)
#
#
# Indices 1 2 3 4 5 6 
#
# 1 0.010565 0.002719 -0.003711 0.000000 0.000000 0.000000
# 2 0.002719 0.081987 -0.001283 0.000000 0.000000 0.000000
# 3 -0.003711 -0.001283 0.010092 0.000000 0.000000 0.000000
# 4 0.000000 0.000000 0.000000 0.032802 0.000000 0.000000
# 5 0.000000 0.000000 0.000000 0.000000 0.020698 0.000000
# 6 0.000000 0.000000 0.000000 0.000000 0.000000 0.099939
#
#
# Mechanical properties :
#
#
# Convention : Reuss Voigt Hill
#
# Bulk Modulus (GPa) = 10.19447 34.46376 22.32912
# Shear Modulus (GPa) = 17.04558 30.97637 24.01097
#
# Velocity S-wave (km/s) = 2.81383 3.79321 3.33962
# Velocity P-wave (km/s) = 3.91052 5.93237 5.02420
#
# Compressibility (1/GPa) = 0.09809240
#
# Stress axis : x y z
#
# Youngs Moduli (GPa) = 94.65442 12.19706 99.09036
#
# Poissons Ratio (x) = -0.03316 0.36775
# Poissons Ratio (y) = -0.25736 0.12715
# Poissons Ratio (z) = 0.35129 0.01565
#
# Static dielectric constant tensor:
#      x y z
#    x 4.240260 0.000000 0.000000 
#    y 0.000000 3.245800 0.000000 
#    z 0.000000 0.000000 4.433230 
# 
# 
# High freq. dielectric constant tensor:
#      x y z
#    x 1.866930 0.000000 0.000000 
#    y 0.000000 1.780630 0.000000 
#    z 0.000000 0.000000 1.872470 
# 
# From -- ./inp_files/25258.got.cif
#   From: 2010.06.25/outbox.cif.g09.slc.cpg/sg58_13_cif.got.tgz:25258.got - 2010.06.26 21:38:00.
