data_PCOD8236692
_publ_section_title
;
Structure prediction by ZEFSAII (Michael W. Deem and Ramdas Pophale) SiO2 
 PCOD8236692
Probable space group: P N N M
;
_chemical_formula_sum "Si O2"
_cell_formula_units_Z 64
_cell_length_a 15.239365
_cell_length_b 23.510688
_cell_length_c 8.923212
_cell_angle_alpha 90.000000
_cell_angle_beta 90.000000
_cell_angle_gamma 90.000000
_cell_volume 3197.079387
_symmetry_space_group_name_H-M "P N N M"
_symmetry_group_IT_number 58
_symmetry_cell_setting 'orthorhombic'
loop_
_space_group_symop_operation_xyz
x,y,z
-x,-y,z
1/2+x,1/2-y,1/2-z
1/2-x,1/2+y,1/2-z
-x,-y,-z
x,y,-z
1/2-x,1/2+y,1/2+z
1/2+x,1/2-y,1/2+z
loop_
_atom_site_type_symbol
_atom_site_label
_atom_site_fract_x
_atom_site_fract_y
_atom_site_fract_z
Si Si1 0.254684 0.555016 0.173874
Si Si2 0.589610 0.646456 0.677063
Si Si3 0.414041 0.632247 0.824973
Si Si4 0.604651 0.878989 0.176383
Si Si5 0.655816 0.754567 0.823341
Si Si6 0.258004 0.423699 0.826084
Si Si7 0.593431 0.125036 0.171687
Si Si8 0.336099 0.752964 0.829594
O O1 0.336179 0.591953 0.235128
O O2 0.165174 0.572246 0.255114
O O3 0.275385 0.489639 0.206425
O O4 0.240540 0.567522 0.000000
O O5 0.588582 0.649498 0.500000
O O6 0.502101 0.615392 0.736449
O O7 0.591433 0.709897 0.744125
O O8 0.674959 0.612095 0.727500
O O9 0.390684 0.697218 0.787366
O O10 0.431196 0.622067 0.000000
O O11 0.633204 0.817210 0.238174
O O12 0.504484 0.892299 0.220968
O O13 0.617032 0.879654 0.000000
O O14 0.755551 0.739440 0.782982
O O15 0.641079 0.749424 0.000000
O O16 0.159304 0.408260 0.779365
O O17 0.271829 0.408747 0.000000
O O18 0.600668 0.193102 0.189457
O O19 0.612267 0.107322 0.000000
O O20 0.300047 0.748515 0.000000
#
# Coordination Sequence:
#
# PCOD8236692 Si02
#       8
#     8   8   8   8   8   8   8   8
#     4  10  23  42  64  88 118 158 203 250 302 356
#     4  12  25  40  61  90 122 159 201 248 300 359
#     4  10  21  40  64  89 121 159 195 244 302 361
#     4  10  22  39  62  91 123 158 197 243 296 356
#     4  11  21  36  61  92 124 157 194 241 300 361
#     4  11  24  42  62  87 118 157 205 255 303 354
#     4  10  21  38  60  89 122 159 198 241 297 356
#     4  10  19  35  62  90 122 157 195 241 296 358
#
# _framework density 20.018272
#
# number of rings (size 3 to 8) (size 9 to 14) (size 15 to 20)
#    0.000    1.500    2.500    2.625    0.000    6.000 
#    0.000    6.250    0.000    0.000    0.000    0.000 
#    0.000    0.000    0.000    0.000    0.000    0.000 
#
# Total GULP energy -793975.709940 kJ/mol
# GULP energy per Si atom -12405.870468 kJ/mol
# Density = 1.997271 g / cm^3
# Si number density = 20.018272 Si / 1000 Ang^3
#
#
#
# Elastic Constant Matrix: (Units=GPa)
#
#
# Indices 1 2 3 4 5 6 
#
# 1 107.9342 17.2242 35.6137 0.0000 0.0000 0.0000
# 2 17.2242 59.7582 28.4070 0.0000 0.0000 0.0000
# 3 35.6137 28.4070 75.0016 0.0000 0.0000 0.0000
# 4 0.0000 0.0000 0.0000 25.4102 0.0000 0.0000
# 5 0.0000 0.0000 0.0000 0.0000 37.6744 0.0000
# 6 0.0000 0.0000 0.0000 0.0000 0.0000 13.9322
#
#
#
# Elastic Compliance Matrix: (Units=1/GPa)
#
#
# Indices 1 2 3 4 5 6 
#
# 1 0.011021 -0.000840 -0.004915 0.000000 0.000000 0.000000
# 2 -0.000840 0.020473 -0.007355 0.000000 0.000000 0.000000
# 3 -0.004915 -0.007355 0.018453 0.000000 0.000000 0.000000
# 4 0.000000 0.000000 0.000000 0.039354 0.000000 0.000000
# 5 0.000000 0.000000 0.000000 0.000000 0.026543 0.000000
# 6 0.000000 0.000000 0.000000 0.000000 0.000000 0.071776
#
#
# Mechanical properties :
#
#
# Convention : Reuss Voigt Hill
#
# Bulk Modulus (GPa) = 42.14847 45.02044 43.58446
# Shear Modulus (GPa) = 22.54807 26.16662 24.35735
#
# Velocity S-wave (km/s) = 3.35979 3.61936 3.49199
# Velocity P-wave (km/s) = 6.01262 6.32494 6.17076
#
# Compressibility (1/GPa) = 0.02372565
#
# Stress axis : x y z
#
# Youngs Moduli (GPa) = 90.73865 48.84573 54.19307
#
# Poissons Ratio (x) = 0.04104 0.26635
# Poissons Ratio (y) = 0.07624 0.39859
# Poissons Ratio (z) = 0.44596 0.35926
#
# Static dielectric constant tensor:
#      x y z
#    x 3.686320 0.000000 0.000000 
#    y 0.000000 3.681830 0.000000 
#    z 0.000000 0.000000 3.522540 
# 
# 
# High freq. dielectric constant tensor:
#      x y z
#    x 1.790040 0.000000 0.000000 
#    y 0.000000 1.780690 0.000000 
#    z 0.000000 0.000000 1.772470 
# 
# From -- ./inp_files/6862.got.cif
#   From: 2010.06.25/outbox.cif.g09.slc.cpg/sg58_4_cif.got.tgz:6862.got - 2010.06.26 21:38:00.
