data_PCOD8236984
_publ_section_title
;
Structure prediction by ZEFSAII (Michael W. Deem and Ramdas Pophale) SiO2 
 PCOD8236984
Probable space group: P N N M
;
_chemical_formula_sum "Si O2"
_cell_formula_units_Z 56
_cell_length_a 17.398170
_cell_length_b 19.176884
_cell_length_c 9.079848
_cell_angle_alpha 90.000000
_cell_angle_beta 90.000000
_cell_angle_gamma 90.000000
_cell_volume 3029.424892
_symmetry_space_group_name_H-M "P N N M"
_symmetry_group_IT_number 58
_symmetry_cell_setting 'orthorhombic'
loop_
_space_group_symop_operation_xyz
x,y,z
-x,-y,z
1/2+x,1/2-y,1/2-z
1/2-x,1/2+y,1/2-z
-x,-y,-z
x,y,-z
1/2-x,1/2+y,1/2+z
1/2+x,1/2-y,1/2+z
loop_
_atom_site_type_symbol
_atom_site_label
_atom_site_fract_x
_atom_site_fract_y
_atom_site_fract_z
Si Si1 0.424997 0.691637 0.826696
Si Si2 0.806755 0.039336 0.172792
Si Si3 0.653764 0.054960 0.670188
Si Si4 0.971674 0.668851 0.828367
Si Si5 0.634244 0.896227 0.329832
Si Si6 0.787105 0.879244 0.826939
Si Si7 0.958512 0.070263 0.327457
O O1 0.454524 0.765535 0.772443
O O2 0.345010 0.674286 0.748472
O O3 0.488534 0.634845 0.782729
O O4 0.410677 0.692915 0.000000
O O5 0.729047 0.073178 0.235385
O O6 0.878487 0.079366 0.243061
O O7 0.810932 0.957859 0.216148
O O8 0.808190 0.050964 0.000000
O O9 0.676475 0.061945 0.500000
O O10 0.587094 0.107968 0.714695
O O11 0.622990 0.977771 0.706618
O O12 0.056538 0.643123 0.788312
O O13 0.964638 0.688667 0.000000
O O14 0.656053 0.885832 0.500000
O O15 0.701882 0.863219 0.232085
O O16 0.788655 0.866661 0.000000
O O17 0.941012 0.067195 0.500000
O O18 0.000000 0.000000 0.273394
#
# Coordination Sequence:
#
# PCOD8236984 Si02
#       7
#     8   8   8   8   8   8   8
#     4  11  23  38  57  80 110 150 190 230 281 337
#     4  10  20  33  55  87 115 140 179 231 281 326
#     4   9  18  35  60  85 112 147 186 229 275 331
#     4  10  21  38  58  84 115 148 186 231 282 332
#     4   9  18  35  61  87 111 144 189 231 273 330
#     4  10  20  35  56  83 113 144 181 227 281 332
#     4  10  20  36  58  80 106 144 189 232 275 331
#
# _framework density 18.485355999999999
#
# number of rings (size 3 to 8) (size 9 to 14) (size 15 to 20)
#    0.000    2.143    1.429    1.714    0.000    5.429 
#    2.571    0.000    0.000    4.286    0.000    0.000 
#    0.000    0.000    0.000    0.000    0.000    0.000 
#
# Total GULP energy -694674.431102 kJ/mol
# GULP energy per Si atom -12404.900555 kJ/mol
# Density = 1.844328 g / cm^3
# Si number density = 18.485356 Si / 1000 Ang^3
#
#
#
# Elastic Constant Matrix: (Units=GPa)
#
#
# Indices 1 2 3 4 5 6 
#
# 1 157.1652 67.6490 67.6250 0.0000 0.0000 0.0000
# 2 67.6490 94.7255 45.8814 0.0000 0.0000 0.0000
# 3 67.6250 45.8814 72.2151 0.0000 0.0000 0.0000
# 4 0.0000 0.0000 0.0000 29.8479 0.0000 0.0000
# 5 0.0000 0.0000 0.0000 0.0000 27.6139 0.0000
# 6 0.0000 0.0000 0.0000 0.0000 0.0000 19.6657
#
#
#
# Elastic Compliance Matrix: (Units=1/GPa)
#
#
# Indices 1 2 3 4 5 6 
#
# 1 0.011828 -0.004452 -0.008247 0.000000 0.000000 0.000000
# 2 -0.004452 0.016926 -0.006584 0.000000 0.000000 0.000000
# 3 -0.008247 -0.006584 0.025754 0.000000 0.000000 0.000000
# 4 0.000000 0.000000 0.000000 0.033503 0.000000 0.000000
# 5 0.000000 0.000000 0.000000 0.000000 0.036214 0.000000
# 6 0.000000 0.000000 0.000000 0.000000 0.000000 0.050850
#
#
# Mechanical properties :
#
#
# Convention : Reuss Voigt Hill
#
# Bulk Modulus (GPa) = 62.73688 76.26850 69.50269
# Shear Modulus (GPa) = 22.83578 24.95554 23.89566
#
# Velocity S-wave (km/s) = 3.51856 3.67824 3.59929
# Velocity P-wave (km/s) = 7.10770 7.70634 7.41307
#
# Compressibility (1/GPa) = 0.01593959
#
# Stress axis : x y z
#
# Youngs Moduli (GPa) = 84.54708 59.08211 38.82916
#
# Poissons Ratio (x) = 0.26305 0.32023
# Poissons Ratio (y) = 0.37642 0.25566
# Poissons Ratio (z) = 0.69728 0.38902
#
# Static dielectric constant tensor:
#      x y z
#    x 3.470860 0.000000 0.000000 
#    y 0.000000 3.277640 0.000000 
#    z 0.000000 0.000000 3.329960 
# 
# 
# High freq. dielectric constant tensor:
#      x y z
#    x 1.729660 0.000000 0.000000 
#    y 0.000000 1.700890 0.000000 
#    z 0.000000 0.000000 1.716970 
# 
# From -- ./inp_files/6254.got.cif
#   From: 2010.06.25/outbox.cif.g09.slc.cpg/sg58_4_cif.got.tgz:6254.got - 2010.06.26 21:38:00.
