data_PCOD8236743
_publ_section_title
;
Structure prediction by ZEFSAII (Michael W. Deem and Ramdas Pophale) SiO2 
 PCOD8236743
Probable space group: P N N M
;
_chemical_formula_sum "Si O2"
_cell_formula_units_Z 64
_cell_length_a 16.339774
_cell_length_b 13.798080
_cell_length_c 14.524589
_cell_angle_alpha 90.000000
_cell_angle_beta 90.000000
_cell_angle_gamma 90.000000
_cell_volume 3274.677653
_symmetry_space_group_name_H-M "P N N M"
_symmetry_group_IT_number 58
_symmetry_cell_setting 'orthorhombic'
loop_
_space_group_symop_operation_xyz
x,y,z
-x,-y,z
1/2+x,1/2-y,1/2-z
1/2-x,1/2+y,1/2-z
-x,-y,-z
x,y,-z
1/2-x,1/2+y,1/2+z
1/2+x,1/2-y,1/2+z
loop_
_atom_site_type_symbol
_atom_site_label
_atom_site_fract_x
_atom_site_fract_y
_atom_site_fract_z
Si Si1 0.461209 0.349756 0.896412
Si Si2 0.125901 0.055660 0.602867
Si Si3 0.564792 0.209097 0.397637
Si Si4 0.174594 0.778112 0.273523
Si Si5 0.615054 0.827734 0.397320
Si Si6 0.735967 0.506696 0.739739
Si Si7 0.588437 0.016854 0.297347
Si Si8 0.204424 0.152736 0.106216
O O1 0.556729 0.364907 0.868244
O O2 0.415658 0.451621 0.896653
O O3 0.415336 0.281601 0.822057
O O4 0.456670 0.305413 0.000000
O O5 0.158843 0.079012 0.500000
O O6 0.202937 0.055275 0.672152
O O7 0.584647 0.171279 0.500000
O O8 0.469097 0.232668 0.387475
O O9 0.597125 0.126357 0.330205
O O10 0.612723 0.308329 0.378338
O O11 0.174715 0.713969 0.180898
O O12 0.234391 0.727789 0.345518
O O13 0.205749 0.883823 0.244824
O O14 0.652470 0.814652 0.500000
O O15 0.593734 0.941022 0.382118
O O16 0.834406 0.498624 0.731328
O O17 0.703959 0.455346 0.647655
O O18 0.500000 0.000000 0.247160
O O19 0.229572 0.146104 0.000000
#
# Coordination Sequence:
#
# PCOD8236743 Si02
#       8
#     8   8   8   8   8   8   8   8
#     4   8  15  30  50  76 106 141 179 224 271 324
#     4   8  16  30  51  78 110 138 173 223 280 336
#     4   9  19  36  59  84 113 149 190 241 292 348
#     4  11  21  36  58  83 113 156 195 239 283 348
#     4  10  21  36  56  87 118 148 190 241 299 347
#     4  11  22  36  56  88 115 149 192 236 296 342
#     4  10  19  36  60  84 109 142 188 247 296 339
#     4  11  23  39  57  84 117 156 201 244 289 348
#
# _framework density 19.543907999999998
#
# number of rings (size 3 to 8) (size 9 to 14) (size 15 to 20)
#    0.000    2.250    2.500    1.500    1.750    3.500 
#    0.000    0.000    0.000    2.625    0.000    0.000 
#    0.000    0.000    0.000    0.000    0.000    0.000 
#
# Total GULP energy -793238.504864 kJ/mol
# GULP energy per Si atom -12394.351638 kJ/mol
# Density = 1.949942 g / cm^3
# Si number density = 19.543908 Si / 1000 Ang^3
#
#
#
# Elastic Constant Matrix: (Units=GPa)
#
#
# Indices 1 2 3 4 5 6 
#
# 1 78.4408 16.4411 23.3177 0.0000 0.0000 0.0000
# 2 16.4411 65.7806 36.1780 0.0000 0.0000 0.0000
# 3 23.3177 36.1780 98.2957 0.0000 0.0000 0.0000
# 4 0.0000 0.0000 0.0000 25.5849 0.0000 0.0000
# 5 0.0000 0.0000 0.0000 0.0000 23.0876 0.0000
# 6 0.0000 0.0000 0.0000 0.0000 0.0000 21.2446
#
#
#
# Elastic Compliance Matrix: (Units=1/GPa)
#
#
# Indices 1 2 3 4 5 6 
#
# 1 0.013941 -0.002088 -0.002538 0.000000 0.000000 0.000000
# 2 -0.002088 0.019373 -0.006635 0.000000 0.000000 0.000000
# 3 -0.002538 -0.006635 0.013218 0.000000 0.000000 0.000000
# 4 0.000000 0.000000 0.000000 0.039086 0.000000 0.000000
# 5 0.000000 0.000000 0.000000 0.000000 0.043313 0.000000
# 6 0.000000 0.000000 0.000000 0.000000 0.000000 0.047071
#
#
# Mechanical properties :
#
#
# Convention : Reuss Voigt Hill
#
# Bulk Modulus (GPa) = 41.65254 43.82119 42.73687
# Shear Modulus (GPa) = 24.20992 25.08877 24.64935
#
# Velocity S-wave (km/s) = 3.52340 3.58678 3.55523
# Velocity P-wave (km/s) = 6.15719 6.29475 6.22635
#
# Compressibility (1/GPa) = 0.02400814
#
# Stress axis : x y z
#
# Youngs Moduli (GPa) = 71.73210 51.61804 75.65691
#
# Poissons Ratio (x) = 0.10779 0.19205
# Poissons Ratio (y) = 0.14979 0.50198
# Poissons Ratio (z) = 0.18209 0.34248
#
# Static dielectric constant tensor:
#      x y z
#    x 3.749460 0.000000 0.000000 
#    y 0.000000 3.320500 0.000000 
#    z 0.000000 0.000000 3.465310 
# 
# 
# High freq. dielectric constant tensor:
#      x y z
#    x 1.766880 0.000000 0.000000 
#    y 0.000000 1.739180 0.000000 
#    z 0.000000 0.000000 1.742450 
# 
# From -- ./inp_files/16548.got.cif
#   From: 2010.06.25/outbox.cif.g09.slc.cpg/sg58_9_cif.got.tgz:16548.got - 2010.06.26 21:38:00.
