data_PCOD8236113
_publ_section_title
;
Structure prediction by ZEFSAII (Michael W. Deem and Ramdas Pophale) SiO2 
 PCOD8236113
Probable space group: P N N M
;
_chemical_formula_sum "Si O2"
_cell_formula_units_Z 64
_cell_length_a 18.693841
_cell_length_b 19.937662
_cell_length_c 9.007809
_cell_angle_alpha 90.000000
_cell_angle_beta 90.000000
_cell_angle_gamma 90.000000
_cell_volume 3357.313854
_symmetry_space_group_name_H-M "P N N M"
_symmetry_group_IT_number 58
_symmetry_cell_setting 'orthorhombic'
loop_
_space_group_symop_operation_xyz
x,y,z
-x,-y,z
1/2+x,1/2-y,1/2-z
1/2-x,1/2+y,1/2-z
-x,-y,-z
x,y,-z
1/2-x,1/2+y,1/2+z
1/2+x,1/2-y,1/2+z
loop_
_atom_site_type_symbol
_atom_site_label
_atom_site_fract_x
_atom_site_fract_y
_atom_site_fract_z
Si Si1 0.514723 0.303573 0.823880
Si Si2 0.239930 0.376300 0.824109
Si Si3 0.941571 0.948201 0.323342
Si Si4 0.402811 0.826006 0.175148
Si Si5 0.825732 0.376499 0.676183
Si Si6 0.857639 0.227879 0.676160
Si Si7 0.977641 0.428197 0.323566
Si Si8 0.218302 0.024201 0.675871
O O1 0.540176 0.374742 0.758756
O O2 0.574404 0.249044 0.779005
O O3 0.437032 0.283879 0.757409
O O4 0.507804 0.306893 0.000000
O O5 0.169552 0.344987 0.755391
O O6 0.306881 0.332091 0.768036
O O7 0.250420 0.452783 0.770056
O O8 0.233847 0.372939 0.000000
O O9 0.944890 0.947005 0.500000
O O10 0.863498 0.971167 0.269654
O O11 0.000000 0.000000 0.259619
O O12 0.465496 0.874250 0.233848
O O13 0.391464 0.833604 0.000000
O O14 0.818312 0.382632 0.500000
O O15 0.825646 0.299136 0.729426
O O16 0.760267 0.414570 0.751120
O O17 0.899030 0.409916 0.734458
O O18 0.863001 0.228755 0.500000
O O19 0.977270 0.428811 0.500000
O O20 0.000000 0.500000 0.257686
O O21 0.223749 0.031366 0.500000
#
# Coordination Sequence:
#
# PCOD8236113 Si02
#       8
#     8   8   8   8   8   8   8   8
#     4   9  16  29  51  77 101 127 170 221 256 293
#     4  10  21  35  51  73 106 141 170 204 255 319
#     4   9  17  30  51  77 104 135 171 214 263 306
#     4  10  19  32  52  79 103 129 169 217 258 294
#     4  10  19  33  53  76 101 134 173 210 252 304
#     4   9  17  32  53  75 101 136 175 211 253 308
#     4   9  16  28  48  72  97 125 162 205 244 286
#     4  10  21  35  51  77 109 137 169 212 261 311
#
# _framework density 19.062857999999999
#
# number of rings (size 3 to 8) (size 9 to 14) (size 15 to 20)
#    0.000    2.500    1.250    1.500    1.750    4.500 
#    0.000    0.625    0.000    3.375    0.000    0.000 
#    0.000    0.000    0.000    0.000    0.000    0.000 
#
# Total GULP energy -793550.870840 kJ/mol
# GULP energy per Si atom -12399.232357 kJ/mol
# Density = 1.901947 g / cm^3
# Si number density = 19.062858 Si / 1000 Ang^3
#
#
#
# Elastic Constant Matrix: (Units=GPa)
#
#
# Indices 1 2 3 4 5 6 
#
# 1 154.4361 74.3007 22.6395 0.0000 0.0000 0.0000
# 2 74.3007 168.3476 19.8025 0.0000 0.0000 0.0000
# 3 22.6395 19.8025 12.5391 0.0000 0.0000 0.0000
# 4 0.0000 0.0000 0.0000 17.7773 0.0000 0.0000
# 5 0.0000 0.0000 0.0000 0.0000 21.7193 0.0000
# 6 0.0000 0.0000 0.0000 0.0000 0.0000 42.3206
#
#
#
# Elastic Compliance Matrix: (Units=1/GPa)
#
#
# Indices 1 2 3 4 5 6 
#
# 1 0.009735 -0.002738 -0.013253 0.000000 0.000000 0.000000
# 2 -0.002738 0.008065 -0.007794 0.000000 0.000000 0.000000
# 3 -0.013253 -0.007794 0.115989 0.000000 0.000000 0.000000
# 4 0.000000 0.000000 0.000000 0.056251 0.000000 0.000000
# 5 0.000000 0.000000 0.000000 0.000000 0.046042 0.000000
# 6 0.000000 0.000000 0.000000 0.000000 0.000000 0.023629
#
#
# Mechanical properties :
#
#
# Convention : Reuss Voigt Hill
#
# Bulk Modulus (GPa) = 11.59841 63.20090 37.39965
# Shear Modulus (GPa) = 14.87997 30.93545 22.90771
#
# Velocity S-wave (km/s) = 2.79691 4.03279 3.47031
# Velocity P-wave (km/s) = 4.06543 7.41016 5.97654
#
# Compressibility (1/GPa) = 0.08621875
#
# Stress axis : x y z
#
# Youngs Moduli (GPa) = 102.72036 123.98978 8.62151
#
# Poissons Ratio (x) = 0.33944 0.11427
# Poissons Ratio (y) = 0.28121 0.06720
# Poissons Ratio (z) = 1.36140 0.96639
#
# Static dielectric constant tensor:
#      x y z
#    x 3.631520 0.000000 0.000000 
#    y 0.000000 3.843060 0.000000 
#    z 0.000000 0.000000 2.852700 
# 
# 
# High freq. dielectric constant tensor:
#      x y z
#    x 1.755170 0.000000 0.000000 
#    y 0.000000 1.762630 0.000000 
#    z 0.000000 0.000000 1.672520 
# 
# From -- ./inp_files/8259.got.cif
#   From: 2010.06.25/outbox.cif.g09.slc.cpg/sg58_5_cif.got.tgz:8259.got - 2010.06.26 21:38:00.
