data_PCOD8236637
_publ_section_title
;
Structure prediction by ZEFSAII (Michael W. Deem and Ramdas Pophale) SiO2 
 PCOD8236637
Probable space group: P N N M
;
_chemical_formula_sum "Si O2"
_cell_formula_units_Z 44
_cell_length_a 13.596056
_cell_length_b 17.498109
_cell_length_c 10.472779
_cell_angle_alpha 90.000000
_cell_angle_beta 90.000000
_cell_angle_gamma 90.000000
_cell_volume 2491.529314
_symmetry_space_group_name_H-M "P N N M"
_symmetry_group_IT_number 58
_symmetry_cell_setting 'orthorhombic'
loop_
_space_group_symop_operation_xyz
x,y,z
-x,-y,z
1/2+x,1/2-y,1/2-z
1/2-x,1/2+y,1/2-z
-x,-y,-z
x,y,-z
1/2-x,1/2+y,1/2+z
1/2+x,1/2-y,1/2+z
loop_
_atom_site_type_symbol
_atom_site_label
_atom_site_fract_x
_atom_site_fract_y
_atom_site_fract_z
Si Si1 0.541365 0.796340 0.212239
Si Si2 0.225812 0.722605 0.860792
Si Si3 0.819130 0.904148 0.500000
Si Si4 0.412407 0.099593 0.000000
Si Si5 0.978023 0.172689 0.500000
Si Si6 0.726029 0.582524 0.000000
Si Si7 0.856736 0.565694 0.500000
Si Si8 0.832416 0.645811 0.755661
O O1 0.609918 0.774167 0.330355
O O2 0.448806 0.841487 0.270410
O O3 0.610320 0.851580 0.126317
O O4 0.507557 0.724293 0.126563
O O5 0.282891 0.770714 0.753577
O O6 0.240020 0.762500 0.000000
O O7 0.269693 0.636046 0.874008
O O8 0.936547 0.890558 0.500000
O O9 0.799403 0.993566 0.500000
O O10 0.528799 0.085271 0.000000
O O11 0.344043 0.025565 0.000000
O O12 0.872887 0.131995 0.500000
O O13 0.791083 0.600800 0.876454
O O14 0.806616 0.598120 0.627959
#
# Coordination Sequence:
#
# PCOD8236637 Si02
#       8
#     8   8   4   4   4   4   4   8
#     4  10  19  35  58  86 111 146 199 241 285 337
#     4  10  20  36  58  80 111 161 194 228 291 364
#     4  10  23  40  56  85 120 158 191 240 305 352
#     4   8  18  30  55  79 103 142 189 227 270 351
#     4  11  19  39  64  81 110 157 208 244 269 355
#     4  12  26  35  58  97 120 144 199 255 300 331
#     4   9  17  34  55  75 108 152 179 219 290 344
#     4  11  21  38  57  84 117 151 195 242 284 352
#
# _framework density 17.659837
#
# number of rings (size 3 to 8) (size 9 to 14) (size 15 to 20)
#    0.545    1.273    4.545    0.818    3.818    0.000 
#    0.000    0.909    0.000    0.000    2.364    2.545 
#    0.000    0.000    0.000    0.000    0.000    0.000 
#
# Total GULP energy -545346.850168 kJ/mol
# GULP energy per Si atom -12394.246595 kJ/mol
# Density = 1.761964 g / cm^3
# Si number density = 17.659837 Si / 1000 Ang^3
#
#
#
# Elastic Constant Matrix: (Units=GPa)
#
#
# Indices 1 2 3 4 5 6 
#
# 1 84.6790 26.5232 33.9667 0.0000 0.0000 0.0000
# 2 26.5232 110.1337 32.9564 0.0000 0.0000 0.0000
# 3 33.9667 32.9564 84.1897 0.0000 0.0000 0.0000
# 4 0.0000 0.0000 0.0000 15.8324 0.0000 0.0000
# 5 0.0000 0.0000 0.0000 0.0000 27.4309 0.0000
# 6 0.0000 0.0000 0.0000 0.0000 0.0000 25.3422
#
#
#
# Elastic Compliance Matrix: (Units=1/GPa)
#
#
# Indices 1 2 3 4 5 6 
#
# 1 0.014456 -0.001966 -0.005063 0.000000 0.000000 0.000000
# 2 -0.001966 0.010552 -0.003337 0.000000 0.000000 0.000000
# 3 -0.005063 -0.003337 0.015227 0.000000 0.000000 0.000000
# 4 0.000000 0.000000 0.000000 0.063162 0.000000 0.000000
# 5 0.000000 0.000000 0.000000 0.000000 0.036455 0.000000
# 6 0.000000 0.000000 0.000000 0.000000 0.000000 0.039460
#
#
# Mechanical properties :
#
#
# Convention : Reuss Voigt Hill
#
# Bulk Modulus (GPa) = 51.27601 51.76612 51.52107
# Shear Modulus (GPa) = 24.20780 26.09151 25.14965
#
# Velocity S-wave (km/s) = 3.70643 3.84793 3.77784
# Velocity P-wave (km/s) = 6.88587 7.00847 6.94744
#
# Compressibility (1/GPa) = 0.01950230
#
# Stress axis : x y z
#
# Youngs Moduli (GPa) = 69.17573 94.76785 65.67353
#
# Poissons Ratio (x) = 0.18636 0.33247
# Poissons Ratio (y) = 0.13603 0.21917
# Poissons Ratio (z) = 0.35020 0.31627
#
# Static dielectric constant tensor:
#      x y z
#    x 3.099210 0.000000 0.000000 
#    y 0.000000 3.262090 0.000000 
#    z 0.000000 0.000000 3.152740 
# 
# 
# High freq. dielectric constant tensor:
#      x y z
#    x 1.673010 0.000000 0.000000 
#    y 0.000000 1.678960 0.000000 
#    z 0.000000 0.000000 1.672470 
# 
# From -- ./inp_files/5733.got.cif
#   From: 2010.06.25/outbox.cif.g09.slc.cpg/sg58_3_cif.got.tgz:5733.got - 2010.06.26 21:38:00.
