data_PCOD8236946
_publ_section_title
;
Structure prediction by ZEFSAII (Michael W. Deem and Ramdas Pophale) SiO2 
 PCOD8236946
Probable space group: P N N M
;
_chemical_formula_sum "Si O2"
_cell_formula_units_Z 64
_cell_length_a 12.950335
_cell_length_b 27.301488
_cell_length_c 9.303990
_cell_angle_alpha 90.000000
_cell_angle_beta 90.000000
_cell_angle_gamma 90.000000
_cell_volume 3289.550483
_symmetry_space_group_name_H-M "P N N M"
_symmetry_group_IT_number 58
_symmetry_cell_setting 'orthorhombic'
loop_
_space_group_symop_operation_xyz
x,y,z
-x,-y,z
1/2+x,1/2-y,1/2-z
1/2-x,1/2+y,1/2-z
-x,-y,-z
x,y,-z
1/2-x,1/2+y,1/2+z
1/2+x,1/2-y,1/2+z
loop_
_atom_site_type_symbol
_atom_site_label
_atom_site_fract_x
_atom_site_fract_y
_atom_site_fract_z
Si Si1 0.155333 0.193695 0.834348
Si Si2 0.822998 0.082830 0.661514
Si Si3 0.237389 0.088839 0.162259
Si Si4 0.714271 0.212038 0.169958
Si Si5 0.889786 0.628553 0.170814
Si Si6 0.965025 0.444953 0.331539
Si Si7 0.428227 0.340164 0.666932
Si Si8 0.604838 0.479752 0.162880
O O1 0.231311 0.147147 0.816224
O O2 0.204197 0.233206 0.728155
O O3 0.037075 0.183315 0.785448
O O4 0.156704 0.211813 0.000000
O O5 0.845471 0.100029 0.500000
O O6 0.712095 0.099458 0.714109
O O7 0.913304 0.107489 0.755573
O O8 0.815280 0.024442 0.674167
O O9 0.345597 0.064363 0.205877
O O10 0.146062 0.067133 0.256426
O O11 0.211618 0.074736 0.000000
O O12 0.624796 0.180999 0.251690
O O13 0.831050 0.194676 0.207077
O O14 0.693469 0.209941 0.000000
O O15 0.981134 0.596882 0.237721
O O16 0.906915 0.635385 0.000000
O O17 0.988444 0.436444 0.500000
O O18 0.000000 0.500000 0.285941
O O19 0.431427 0.351937 0.500000
O O20 0.500000 0.500000 0.233521
O O21 0.583054 0.463113 0.000000
#
# Coordination Sequence:
#
# PCOD8236946 Si02
#       8
#     8   8   8   8   8   8   8   8
#     4  10  21  38  56  77 108 140 176 224 273 322
#     4   9  18  32  51  77 106 135 172 215 258 309
#     4  10  22  37  54  79 109 144 185 227 275 330
#     4  10  21  37  57  81 106 137 180 224 273 330
#     4  10  20  35  56  80 106 140 182 225 270 320
#     4  10  21  37  56  81 116 154 191 233 280 333
#     4   9  19  35  55  78 104 135 172 216 264 317
#     4  10  20  33  51  77 108 139 173 216 264 318
#
# _framework density 19.455545999999998
#
# number of rings (size 3 to 8) (size 9 to 14) (size 15 to 20)
#    0.000    2.250    0.000    2.250    0.000    4.500 
#    0.000    2.500    0.000    0.000    0.000    0.000 
#    0.000    0.000    0.000    0.000    0.000    0.000 
#
# Total GULP energy -793431.600593 kJ/mol
# GULP energy per Si atom -12397.368759 kJ/mol
# Density = 1.941126 g / cm^3
# Si number density = 19.455546 Si / 1000 Ang^3
#
#
#
# Elastic Constant Matrix: (Units=GPa)
#
#
# Indices 1 2 3 4 5 6 
#
# 1 83.6676 38.1953 37.8666 0.0000 0.0000 0.0000
# 2 38.1953 79.5471 32.1919 0.0000 0.0000 0.0000
# 3 37.8666 32.1919 61.1676 0.0000 0.0000 0.0000
# 4 0.0000 0.0000 0.0000 36.0974 0.0000 0.0000
# 5 0.0000 0.0000 0.0000 0.0000 23.3503 0.0000
# 6 0.0000 0.0000 0.0000 0.0000 0.0000 29.2837
#
#
#
# Elastic Compliance Matrix: (Units=1/GPa)
#
#
# Indices 1 2 3 4 5 6 
#
# 1 0.018216 -0.005315 -0.008480 0.000000 0.000000 0.000000
# 2 -0.005315 0.017524 -0.005932 0.000000 0.000000 0.000000
# 3 -0.008480 -0.005932 0.024720 0.000000 0.000000 0.000000
# 4 0.000000 0.000000 0.000000 0.027703 0.000000 0.000000
# 5 0.000000 0.000000 0.000000 0.000000 0.042826 0.000000
# 6 0.000000 0.000000 0.000000 0.000000 0.000000 0.034149
#
#
# Mechanical properties :
#
#
# Convention : Reuss Voigt Hill
#
# Bulk Modulus (GPa) = 47.60519 48.98775 48.29647
# Shear Modulus (GPa) = 23.63013 25.48818 24.55915
#
# Velocity S-wave (km/s) = 3.48885 3.62342 3.55677
# Velocity P-wave (km/s) = 6.38367 6.53755 6.46107
#
# Compressibility (1/GPa) = 0.02100611
#
# Stress axis : x y z
#
# Youngs Moduli (GPa) = 54.89604 57.06460 40.45280
#
# Poissons Ratio (x) = 0.30330 0.34303
# Poissons Ratio (y) = 0.29177 0.23998
# Poissons Ratio (z) = 0.46551 0.33853
#
# Static dielectric constant tensor:
#      x y z
#    x 3.646600 0.000000 0.000000 
#    y 0.000000 3.554720 0.000000 
#    z 0.000000 0.000000 3.485480 
# 
# 
# High freq. dielectric constant tensor:
#      x y z
#    x 1.758270 0.000000 0.000000 
#    y 0.000000 1.758490 0.000000 
#    z 0.000000 0.000000 1.753880 
# 
# From -- ./inp_files/4782.got.cif
#   From: 2010.06.25/outbox.cif.g09.slc.cpg/sg58_3_cif.got.tgz:4782.got - 2010.06.26 21:38:00.
