data_PCOD8236467
_publ_section_title
;
Structure prediction by ZEFSAII (Michael W. Deem and Ramdas Pophale) SiO2 
 PCOD8236467
Probable space group: P N N M
;
_chemical_formula_sum "Si O2"
_cell_formula_units_Z 64
_cell_length_a 12.978436
_cell_length_b 27.921399
_cell_length_c 8.612132
_cell_angle_alpha 90.000000
_cell_angle_beta 90.000000
_cell_angle_gamma 90.000000
_cell_volume 3120.830720
_symmetry_space_group_name_H-M "P N N M"
_symmetry_group_IT_number 58
_symmetry_cell_setting 'orthorhombic'
loop_
_space_group_symop_operation_xyz
x,y,z
-x,-y,z
1/2+x,1/2-y,1/2-z
1/2-x,1/2+y,1/2-z
-x,-y,-z
x,y,-z
1/2-x,1/2+y,1/2+z
1/2+x,1/2-y,1/2+z
loop_
_atom_site_type_symbol
_atom_site_label
_atom_site_fract_x
_atom_site_fract_y
_atom_site_fract_z
Si Si1 0.873560 0.863528 0.817772
Si Si2 0.775772 0.697345 0.684808
Si Si3 0.986293 0.656922 0.815850
Si Si4 0.403212 0.368034 0.680551
Si Si5 0.693355 0.796122 0.814557
Si Si6 0.231173 0.052279 0.324884
Si Si7 0.406509 0.467111 0.825321
Si Si8 0.459759 0.051079 0.315663
O O1 0.782443 0.831196 0.750286
O O2 0.851235 0.918366 0.774762
O O3 0.986708 0.849675 0.749564
O O4 0.877567 0.858085 0.000000
O O5 0.789757 0.696085 0.500000
O O6 0.694635 0.658728 0.752738
O O7 0.724620 0.746591 0.737056
O O8 0.885336 0.685548 0.761819
O O9 0.083750 0.683881 0.741328
O O10 0.980187 0.600157 0.765320
O O11 0.996770 0.660734 0.000000
O O12 0.402948 0.357178 0.500000
O O13 0.390790 0.424087 0.708105
O O14 0.692173 0.791488 0.000000
O O15 0.229750 0.072458 0.500000
O O16 0.344233 0.057502 0.251590
O O17 0.199521 0.996787 0.321851
O O18 0.500000 0.500000 0.767771
O O19 0.429244 0.448156 0.000000
O O20 0.459917 0.046463 0.500000
O O21 0.500000 0.000000 0.245730
#
# Coordination Sequence:
#
# PCOD8236467 Si02
#       8
#     8   8   8   8   8   8   8   8
#     4  10  21  38  61  88 120 157 201 254 310 371
#     4  11  26  45  65  92 127 165 211 264 319 377
#     4  11  23  42  69  96 129 168 211 261 319 381
#     4  10  23  41  60  85 123 167 205 253 311 371
#     4  11  24  43  68  95 123 159 209 264 321 381
#     4  10  19  34  56  85 120 158 204 253 304 360
#     4  10  20  33  54  86 121 157 201 254 297 353
#     4   9  19  35  58  88 121 163 210 256 307 370
#
# _framework density 20.507359999999998
#
# number of rings (size 3 to 8) (size 9 to 14) (size 15 to 20)
#    0.000    1.750    2.500    1.125    3.500    2.250 
#    0.000    0.000    0.000    1.875    0.000    0.000 
#    0.000    0.000    0.000    0.000    0.000    0.000 
#
# Total GULP energy -793235.282148 kJ/mol
# GULP energy per Si atom -12394.301284 kJ/mol
# Density = 2.046068 g / cm^3
# Si number density = 20.507360 Si / 1000 Ang^3
#
#
#
# Elastic Constant Matrix: (Units=GPa)
#
#
# Indices 1 2 3 4 5 6 
#
# 1 134.6682 50.1734 19.1963 0.0000 0.0000 0.0000
# 2 50.1734 106.6886 10.2799 0.0000 0.0000 0.0000
# 3 19.1963 10.2799 26.5177 0.0000 0.0000 0.0000
# 4 0.0000 0.0000 0.0000 29.2203 0.0000 0.0000
# 5 0.0000 0.0000 0.0000 0.0000 25.0624 0.0000
# 6 0.0000 0.0000 0.0000 0.0000 0.0000 37.0160
#
#
#
# Elastic Compliance Matrix: (Units=1/GPa)
#
#
# Indices 1 2 3 4 5 6 
#
# 1 0.009709 -0.004040 -0.005463 0.000000 0.000000 0.000000
# 2 -0.004040 0.011418 -0.001502 0.000000 0.000000 0.000000
# 3 -0.005463 -0.001502 0.042247 0.000000 0.000000 0.000000
# 4 0.000000 0.000000 0.000000 0.034223 0.000000 0.000000
# 5 0.000000 0.000000 0.000000 0.000000 0.039900 0.000000
# 6 0.000000 0.000000 0.000000 0.000000 0.000000 0.027015
#
#
# Mechanical properties :
#
#
# Convention : Reuss Voigt Hill
#
# Bulk Modulus (GPa) = 24.17445 47.46375 35.81910
# Shear Modulus (GPa) = 24.96131 30.80806 27.88468
#
# Velocity S-wave (km/s) = 3.49261 3.88015 3.69147
# Velocity P-wave (km/s) = 5.29888 6.57792 5.97274
#
# Compressibility (1/GPa) = 0.04136599
#
# Stress axis : x y z
#
# Youngs Moduli (GPa) = 102.99252 87.58403 23.67015
#
# Poissons Ratio (x) = 0.35382 0.12930
# Poissons Ratio (y) = 0.41607 0.03555
# Poissons Ratio (z) = 0.56261 0.13153
#
# Static dielectric constant tensor:
#      x y z
#    x 4.171420 0.000000 0.000000 
#    y 0.000000 3.821960 0.000000 
#    z 0.000000 0.000000 3.465210 
# 
# 
# High freq. dielectric constant tensor:
#      x y z
#    x 1.819140 0.000000 0.000000 
#    y 0.000000 1.805470 0.000000 
#    z 0.000000 0.000000 1.776830 
# 
# From -- ./inp_files/4826.got.cif
#   From: 2010.06.25/outbox.cif.g09.slc.cpg/sg58_3_cif.got.tgz:4826.got - 2010.06.26 21:38:00.
