data_PCOD8236440
_publ_section_title
;
Structure prediction by ZEFSAII (Michael W. Deem and Ramdas Pophale) SiO2 
 PCOD8236440
Probable space group: P N N M
;
_chemical_formula_sum "Si O2"
_cell_formula_units_Z 64
_cell_length_a 20.783265
_cell_length_b 17.928890
_cell_length_c 8.567720
_cell_angle_alpha 90.000000
_cell_angle_beta 90.000000
_cell_angle_gamma 90.000000
_cell_volume 3192.511298
_symmetry_space_group_name_H-M "P N N M"
_symmetry_group_IT_number 58
_symmetry_cell_setting 'orthorhombic'
loop_
_space_group_symop_operation_xyz
x,y,z
-x,-y,z
1/2+x,1/2-y,1/2-z
1/2-x,1/2+y,1/2-z
-x,-y,-z
x,y,-z
1/2-x,1/2+y,1/2+z
1/2+x,1/2-y,1/2+z
loop_
_atom_site_type_symbol
_atom_site_label
_atom_site_fract_x
_atom_site_fract_y
_atom_site_fract_z
Si Si1 0.351258 0.664568 0.183813
Si Si2 0.884822 0.148040 0.184999
Si Si3 0.989066 0.778625 0.684681
Si Si4 0.206756 0.438544 0.674720
Si Si5 0.167189 0.993460 0.682295
Si Si6 0.487969 0.110935 0.820995
Si Si7 0.587943 0.006104 0.676011
Si Si8 0.253573 0.278252 0.321373
O O1 0.419444 0.694996 0.247836
O O2 0.351825 0.577503 0.226725
O O3 0.288079 0.709168 0.254351
O O4 0.349564 0.678403 0.000000
O O5 0.824957 0.201079 0.248757
O O6 0.953692 0.182124 0.222765
O O7 0.886769 0.067865 0.273934
O O8 0.876367 0.135909 0.000000
O O9 0.996720 0.792915 0.500000
O O10 0.994096 0.692904 0.732270
O O11 0.183835 0.457963 0.500000
O O12 0.276082 0.472116 0.702067
O O13 0.162705 0.478847 0.801996
O O14 0.207239 0.349660 0.698745
O O15 0.185303 0.987520 0.500000
O O16 0.550026 0.059487 0.794000
O O17 0.428336 0.079759 0.718533
O O18 0.467337 0.108654 0.000000
O O19 0.567102 0.023152 0.500000
O O20 0.266286 0.258133 0.500000
#
# Coordination Sequence:
#
# PCOD8236440 Si02
#       8
#     8   8   8   8   8   8   8   8
#     4   9  18  34  57  83 107 136 179 229 278 328
#     4  10  21  37  57  80 112 151 185 225 278 336
#     4  10  21  37  58  82 108 142 187 235 282 335
#     4  10  19  34  56  79 107 142 180 224 277 334
#     4  10  20  35  56  81 108 138 180 232 280 332
#     4  10  20  35  54  77 108 144 182 227 279 333
#     4  11  21  33  52  79 112 147 183 223 268 330
#     4   8  16  33  56  79 103 137 180 223 272 329
#
# _framework density 20.046914999999998
#
# number of rings (size 3 to 8) (size 9 to 14) (size 15 to 20)
#    0.000    2.250    0.000    4.875    0.000    4.500 
#    0.000    5.000    0.000    9.750    0.000    0.000 
#    0.000    0.000    0.000    0.000    0.000    0.000 
#
# Total GULP energy -793108.133926 kJ/mol
# GULP energy per Si atom -12392.314593 kJ/mol
# Density = 2.000129 g / cm^3
# Si number density = 20.046915 Si / 1000 Ang^3
#
#
#
# Elastic Constant Matrix: (Units=GPa)
#
#
# Indices 1 2 3 4 5 6 
#
# 1 76.6449 50.4808 7.7386 0.0000 0.0000 0.0000
# 2 50.4808 139.1285 26.1181 0.0000 0.0000 0.0000
# 3 7.7386 26.1181 41.9005 0.0000 0.0000 0.0000
# 4 0.0000 0.0000 0.0000 20.4089 0.0000 0.0000
# 5 0.0000 0.0000 0.0000 0.0000 25.9951 0.0000
# 6 0.0000 0.0000 0.0000 0.0000 0.0000 22.8240
#
#
#
# Elastic Compliance Matrix: (Units=1/GPa)
#
#
# Indices 1 2 3 4 5 6 
#
# 1 0.017168 -0.006381 0.000806 0.000000 0.000000 0.000000
# 2 -0.006381 0.010512 -0.005374 0.000000 0.000000 0.000000
# 3 0.000806 -0.005374 0.027067 0.000000 0.000000 0.000000
# 4 0.000000 0.000000 0.000000 0.048998 0.000000 0.000000
# 5 0.000000 0.000000 0.000000 0.000000 0.038469 0.000000
# 6 0.000000 0.000000 0.000000 0.000000 0.000000 0.043813
#
#
# Mechanical properties :
#
#
# Convention : Reuss Voigt Hill
#
# Bulk Modulus (GPa) = 30.44075 47.37210 38.90642
# Shear Modulus (GPa) = 22.84427 25.40136 24.12282
#
# Velocity S-wave (km/s) = 3.37937 3.56349 3.47265
# Velocity P-wave (km/s) = 5.51766 6.37285 5.96061
#
# Compressibility (1/GPa) = 0.03285070
#
# Stress axis : x y z
#
# Youngs Moduli (GPa) = 58.24699 95.13362 36.94564
#
# Poissons Ratio (x) = 0.60702 -0.02980
# Poissons Ratio (y) = 0.37165 0.19854
# Poissons Ratio (z) = -0.04698 0.51123
#
# Static dielectric constant tensor:
#      x y z
#    x 3.719780 0.000000 0.000000 
#    y 0.000000 3.987990 0.000000 
#    z 0.000000 0.000000 3.354130 
# 
# 
# High freq. dielectric constant tensor:
#      x y z
#    x 1.781670 0.000000 0.000000 
#    y 0.000000 1.783520 0.000000 
#    z 0.000000 0.000000 1.758180 
# 
# From -- ./inp_files/9219.got.cif
#   From: 2010.06.25/outbox.cif.g09.slc.cpg/sg58_5_cif.got.tgz:9219.got - 2010.06.26 21:38:00.
