data_PCOD8236335
_publ_section_title
;
Structure prediction by ZEFSAII (Michael W. Deem and Ramdas Pophale) SiO2 
 PCOD8236335
Probable space group: P N N M
;
_chemical_formula_sum "Si O2"
_cell_formula_units_Z 56
_cell_length_a 21.288469
_cell_length_b 15.197475
_cell_length_c 9.168621
_cell_angle_alpha 90.000000
_cell_angle_beta 90.000000
_cell_angle_gamma 90.000000
_cell_volume 2966.332895
_symmetry_space_group_name_H-M "P N N M"
_symmetry_group_IT_number 58
_symmetry_cell_setting 'orthorhombic'
loop_
_space_group_symop_operation_xyz
x,y,z
-x,-y,z
1/2+x,1/2-y,1/2-z
1/2-x,1/2+y,1/2-z
-x,-y,-z
x,y,-z
1/2-x,1/2+y,1/2+z
1/2+x,1/2-y,1/2+z
loop_
_atom_site_type_symbol
_atom_site_label
_atom_site_fract_x
_atom_site_fract_y
_atom_site_fract_z
Si Si1 0.816352 0.498595 0.329412
Si Si2 0.216592 0.882440 0.668578
Si Si3 0.977903 0.887280 0.166445
Si Si4 0.160180 0.697683 0.327053
Si Si5 0.528573 0.800149 0.664692
Si Si6 0.949669 0.571907 0.343477
Si Si7 0.589152 0.517331 0.169844
O O1 0.803184 0.505417 0.500000
O O2 0.772254 0.569955 0.253072
O O3 0.807551 0.395549 0.279985
O O4 0.886580 0.525794 0.286019
O O5 0.235297 0.879083 0.500000
O O6 0.202465 0.781897 0.723391
O O7 0.157275 0.944156 0.696800
O O8 0.984560 0.784188 0.174975
O O9 0.040580 0.926240 0.237308
O O10 0.917170 0.918762 0.261953
O O11 0.970417 0.919494 0.000000
O O12 0.150343 0.700861 0.500000
O O13 0.090733 0.706419 0.261434
O O14 0.550291 0.820056 0.500000
O O15 0.478158 0.870455 0.716104
O O16 0.937044 0.621590 0.500000
O O17 0.000000 0.500000 0.381421
O O18 0.571197 0.518091 0.000000
#
# Coordination Sequence:
#
# PCOD8236335 Si02
#       7
#     8   8   8   8   8   8   8
#     4  10  22  40  63  86 112 153 196 239 292 350
#     4  10  22  39  61  86 117 154 195 245 292 343
#     4  10  20  33  51  81 118 150 185 234 287 335
#     4  10  20  40  64  84 111 154 198 233 285 352
#     4  11  22  34  56  89 118 148 186 236 291 340
#     4  10  20  38  62  85 113 148 189 237 291 351
#     4  10  19  33  56  82 109 149 193 234 284 337
#
# _framework density 18.878527999999999
#
# number of rings (size 3 to 8) (size 9 to 14) (size 15 to 20)
#    0.000    1.857    2.857    2.143    0.000    4.857 
#    2.571    0.000    0.000    0.000    0.000    0.000 
#    0.000    0.000    0.000    0.000    0.000    0.000 
#
# Total GULP energy -693845.544480 kJ/mol
# GULP energy per Si atom -12390.099009 kJ/mol
# Density = 1.883556 g / cm^3
# Si number density = 18.878528 Si / 1000 Ang^3
#
#
#
# Elastic Constant Matrix: (Units=GPa)
#
#
# Indices 1 2 3 4 5 6 
#
# 1 103.7261 61.7189 38.4969 0.0000 0.0000 0.0000
# 2 61.7189 131.0407 49.3337 0.0000 0.0000 0.0000
# 3 38.4969 49.3337 68.0387 0.0000 0.0000 0.0000
# 4 0.0000 0.0000 0.0000 30.3100 0.0000 0.0000
# 5 0.0000 0.0000 0.0000 0.0000 57.3662 0.0000
# 6 0.0000 0.0000 0.0000 0.0000 0.0000 30.4673
#
#
#
# Elastic Compliance Matrix: (Units=1/GPa)
#
#
# Indices 1 2 3 4 5 6 
#
# 1 0.014296 -0.005073 -0.004411 0.000000 0.000000 0.000000
# 2 -0.005073 0.012297 -0.006046 0.000000 0.000000 0.000000
# 3 -0.004411 -0.006046 0.021577 0.000000 0.000000 0.000000
# 4 0.000000 0.000000 0.000000 0.032992 0.000000 0.000000
# 5 0.000000 0.000000 0.000000 0.000000 0.017432 0.000000
# 6 0.000000 0.000000 0.000000 0.000000 0.000000 0.032822
#
#
# Mechanical properties :
#
#
# Convention : Reuss Voigt Hill
#
# Bulk Modulus (GPa) = 58.44203 66.87826 62.66014
# Shear Modulus (GPa) = 29.73040 33.84577 31.78809
#
# Velocity S-wave (km/s) = 3.97271 4.23876 4.10789
# Velocity P-wave (km/s) = 7.21577 7.71094 7.46746
#
# Compressibility (1/GPa) = 0.01711097
#
# Stress axis : x y z
#
# Youngs Moduli (GPa) = 69.94874 81.32357 46.34616
#
# Poissons Ratio (x) = 0.41254 0.20442
# Poissons Ratio (y) = 0.35484 0.28020
# Poissons Ratio (z) = 0.30852 0.49166
#
# Static dielectric constant tensor:
#      x y z
#    x 3.340940 0.000000 0.000000 
#    y 0.000000 3.949010 0.000000 
#    z 0.000000 0.000000 3.598140 
# 
# 
# High freq. dielectric constant tensor:
#      x y z
#    x 1.715530 0.000000 0.000000 
#    y 0.000000 1.741540 0.000000 
#    z 0.000000 0.000000 1.737930 
# 
# From -- ./inp_files/9045.got.cif
#   From: 2010.06.25/outbox.cif.g09.slc.cpg/sg58_5_cif.got.tgz:9045.got - 2010.06.26 21:38:00.
