data_PCOD8236054
_publ_section_title
;
Structure prediction by ZEFSAII (Michael W. Deem and Ramdas Pophale) SiO2 
 PCOD8236054
Probable space group: P N N M
;
_chemical_formula_sum "Si O2"
_cell_formula_units_Z 28
_cell_length_a 16.839206
_cell_length_b 5.180047
_cell_length_c 15.416529
_cell_angle_alpha 90.000000
_cell_angle_beta 90.000000
_cell_angle_gamma 90.000000
_cell_volume 1344.751119
_symmetry_space_group_name_H-M "P N N M"
_symmetry_group_IT_number 58
_symmetry_cell_setting 'orthorhombic'
loop_
_space_group_symop_operation_xyz
x,y,z
-x,-y,z
1/2+x,1/2-y,1/2-z
1/2-x,1/2+y,1/2-z
-x,-y,-z
x,y,-z
1/2-x,1/2+y,1/2+z
1/2+x,1/2-y,1/2+z
loop_
_atom_site_type_symbol
_atom_site_label
_atom_site_fract_x
_atom_site_fract_y
_atom_site_fract_z
Si Si1 0.655732 0.668624 0.165995
Si Si2 0.946149 0.251970 0.500000
Si Si3 0.179227 0.549984 0.168097
Si Si4 0.090343 0.038903 0.829686
O O1 0.608949 0.769403 0.083800
O O2 0.732795 0.509685 0.133624
O O3 0.683767 0.912080 0.226313
O O4 0.598601 0.486855 0.224822
O O5 0.000000 0.500000 0.500000
O O6 0.000000 0.000000 0.500000
O O7 0.120059 0.319152 0.141361
O O8 0.144351 0.813504 0.125638
O O9 0.000000 0.000000 0.858906
#
# Coordination Sequence:
#
# PCOD8236054 Si02
#       4
#     8   4   8   8
#     4  10  22  38  56  82 119 160 205 235 298 365
#     4  12  30  38  58  92 137 166 183 242 324 384
#     4  10  20  34  59  76 112 156 209 243 275 354
#     4  10  19  31  56  84 108 139 193 258 292 332
#
# _framework density 20.821694999999998
#
# number of rings (size 3 to 8) (size 9 to 14) (size 15 to 20)
#    1.714    0.000    2.857    1.714    8.000    0.000 
#    0.000    0.000    0.000    0.000    0.000    6.000 
#    0.000    0.000    0.000    0.143    0.000    0.000 
#
# Total GULP energy -346975.770374 kJ/mol
# GULP energy per Si atom -12391.991799 kJ/mol
# Density = 2.077430 g / cm^3
# Si number density = 20.821695 Si / 1000 Ang^3
#
#
#
# Elastic Constant Matrix: (Units=GPa)
#
#
# Indices 1 2 3 4 5 6 
#
# 1 137.3315 46.1208 14.7094 0.0000 0.0000 0.0000
# 2 46.1208 139.1603 5.9371 0.0000 0.0000 0.0000
# 3 14.7094 5.9371 40.7639 0.0000 0.0000 0.0000
# 4 0.0000 0.0000 0.0000 9.0517 0.0000 0.0000
# 5 0.0000 0.0000 0.0000 0.0000 30.8394 0.0000
# 6 0.0000 0.0000 0.0000 0.0000 0.0000 45.0888
#
#
#
# Elastic Compliance Matrix: (Units=1/GPa)
#
#
# Indices 1 2 3 4 5 6 
#
# 1 0.008472 -0.002694 -0.002665 0.000000 0.000000 0.000000
# 2 -0.002694 0.008088 -0.000206 0.000000 0.000000 0.000000
# 3 -0.002665 -0.000206 0.025523 0.000000 0.000000 0.000000
# 4 0.000000 0.000000 0.000000 0.110477 0.000000 0.000000
# 5 0.000000 0.000000 0.000000 0.000000 0.032426 0.000000
# 6 0.000000 0.000000 0.000000 0.000000 0.000000 0.022178
#
#
# Mechanical properties :
#
#
# Convention : Reuss Voigt Hill
#
# Bulk Modulus (GPa) = 32.30657 50.08780 41.19719
# Shear Modulus (GPa) = 21.87129 33.69521 27.78325
#
# Velocity S-wave (km/s) = 3.24452 4.02714 3.65683
# Velocity P-wave (km/s) = 5.43924 6.76252 6.13665
#
# Compressibility (1/GPa) = 0.03095345
#
# Stress axis : x y z
#
# Youngs Moduli (GPa) = 118.03846 123.64589 39.18040
#
# Poissons Ratio (x) = 0.33311 0.10440
# Poissons Ratio (y) = 0.31800 0.00806
# Poissons Ratio (z) = 0.31453 0.02545
#
# Static dielectric constant tensor:
#      x y z
#    x 3.671560 0.000000 0.000000 
#    y 0.000000 3.715960 0.000000 
#    z 0.000000 0.000000 3.129830 
# 
# 
# High freq. dielectric constant tensor:
#      x y z
#    x 1.828110 0.000000 0.000000 
#    y 0.000000 1.821620 0.000000 
#    z 0.000000 0.000000 1.749220 
# 
# From -- ./inp_files/22481.got.cif
#   From: 2010.06.25/outbox.cif.g09.slc.cpg/sg58_12_cif.got.tgz:22481.got - 2010.06.26 21:38:00.
