data_PCOD8236013
_publ_section_title
;
Structure prediction by ZEFSAII (Michael W. Deem and Ramdas Pophale) SiO2 
 PCOD8236013
Probable space group: P N N M
;
_chemical_formula_sum "Si O2"
_cell_formula_units_Z 64
_cell_length_a 15.294734
_cell_length_b 24.326555
_cell_length_c 8.683541
_cell_angle_alpha 90.000000
_cell_angle_beta 90.000000
_cell_angle_gamma 90.000000
_cell_volume 3230.869364
_symmetry_space_group_name_H-M "P N N M"
_symmetry_group_IT_number 58
_symmetry_cell_setting 'orthorhombic'
loop_
_space_group_symop_operation_xyz
x,y,z
-x,-y,z
1/2+x,1/2-y,1/2-z
1/2-x,1/2+y,1/2-z
-x,-y,-z
x,y,-z
1/2-x,1/2+y,1/2+z
1/2+x,1/2-y,1/2+z
loop_
_atom_site_type_symbol
_atom_site_label
_atom_site_fract_x
_atom_site_fract_y
_atom_site_fract_z
Si Si1 0.112806 0.039388 0.819451
Si Si2 0.439895 0.426342 0.819091
Si Si3 0.618124 0.685630 0.681332
Si Si4 0.709121 0.959871 0.320402
Si Si5 0.534776 0.898560 0.319175
Si Si6 0.485936 0.777655 0.680944
Si Si7 0.685364 0.189311 0.178020
Si Si8 0.863658 0.567236 0.680027
O O1 0.041311 0.075968 0.730604
O O2 0.107072 0.975719 0.770817
O O3 0.207622 0.062296 0.773527
O O4 0.096587 0.045329 0.000000
O O5 0.392844 0.370237 0.774616
O O6 0.432004 0.437114 0.000000
O O7 0.606421 0.673841 0.500000
O O8 0.547508 0.729200 0.746318
O O9 0.715875 0.708872 0.714186
O O10 0.730349 0.957383 0.500000
O O11 0.688971 0.022314 0.275441
O O12 0.630298 0.919687 0.274687
O O13 0.515593 0.905352 0.500000
O O14 0.526707 0.835514 0.264439
O O15 0.465537 0.935503 0.226333
O O16 0.487127 0.773333 0.500000
O O17 0.385393 0.772080 0.736218
O O18 0.675291 0.126048 0.230460
O O19 0.662637 0.194577 0.000000
O O20 0.851779 0.555399 0.500000
#
# Coordination Sequence:
#
# PCOD8236013 Si02
#       8
#     8   8   8   8   8   8   8   8
#     4  11  22  38  58  81 115 150 181 222 278 332
#     4  11  22  38  60  85 112 143 183 228 275 328
#     4  10  20  37  60  84 112 148 190 232 282 338
#     4  11  21  33  51  79 113 148 189 228 275 338
#     4   9  19  35  52  73 108 150 187 230 285 334
#     4   9  19  37  58  79 109 147 188 234 281 332
#     4   9  19  35  55  80 109 142 183 233 285 335
#     4  10  19  31  51  78 108 143 189 236 282 336
#
# _framework density 19.808910000000001
#
# number of rings (size 3 to 8) (size 9 to 14) (size 15 to 20)
#    0.000    2.000    0.000    4.875    0.000    5.000 
#    2.250    0.000    0.000    0.000    0.000    0.000 
#    0.000    0.000    0.000    0.000    0.000    0.000 
#
# Total GULP energy -793768.053636 kJ/mol
# GULP energy per Si atom -12402.625838 kJ/mol
# Density = 1.976382 g / cm^3
# Si number density = 19.808910 Si / 1000 Ang^3
#
#
#
# Elastic Constant Matrix: (Units=GPa)
#
#
# Indices 1 2 3 4 5 6 
#
# 1 118.0047 25.1285 14.2846 0.0000 0.0000 0.0000
# 2 25.1285 39.4870 7.3412 0.0000 0.0000 0.0000
# 3 14.2846 7.3412 43.8648 0.0000 0.0000 0.0000
# 4 0.0000 0.0000 0.0000 20.5365 0.0000 0.0000
# 5 0.0000 0.0000 0.0000 0.0000 34.8114 0.0000
# 6 0.0000 0.0000 0.0000 0.0000 0.0000 27.3196
#
#
#
# Elastic Compliance Matrix: (Units=1/GPa)
#
#
# Indices 1 2 3 4 5 6 
#
# 1 0.010016 -0.005953 -0.002265 0.000000 0.000000 0.000000
# 2 -0.005953 0.029676 -0.003028 0.000000 0.000000 0.000000
# 3 -0.002265 -0.003028 0.024042 0.000000 0.000000 0.000000
# 4 0.000000 0.000000 0.000000 0.048694 0.000000 0.000000
# 5 0.000000 0.000000 0.000000 0.000000 0.028726 0.000000
# 6 0.000000 0.000000 0.000000 0.000000 0.000000 0.036604
#
#
# Mechanical properties :
#
#
# Convention : Reuss Voigt Hill
#
# Bulk Modulus (GPa) = 24.24756 32.76278 28.50517
# Shear Modulus (GPa) = 23.36478 26.84033 25.10255
#
# Velocity S-wave (km/s) = 3.43812 3.68497 3.56369
# Velocity P-wave (km/s) = 5.29417 5.88903 5.59951
#
# Compressibility (1/GPa) = 0.04124127
#
# Stress axis : x y z
#
# Youngs Moduli (GPa) = 99.83938 33.69732 41.59413
#
# Poissons Ratio (x) = 0.20059 0.09423
# Poissons Ratio (y) = 0.59432 0.12595
# Poissons Ratio (z) = 0.22618 0.10204
#
# Static dielectric constant tensor:
#      x y z
#    x 3.864350 0.000000 0.000000 
#    y 0.000000 3.503940 0.000000 
#    z 0.000000 0.000000 3.546390 
# 
# 
# High freq. dielectric constant tensor:
#      x y z
#    x 1.786880 0.000000 0.000000 
#    y 0.000000 1.748700 0.000000 
#    z 0.000000 0.000000 1.768630 
# 
# From -- ./inp_files/6728.got.cif
#   From: 2010.06.25/outbox.cif.g09.slc.cpg/sg58_4_cif.got.tgz:6728.got - 2010.06.26 21:38:00.
