data_PCOD8236253
_publ_section_title
;
Structure prediction by ZEFSAII (Michael W. Deem and Ramdas Pophale) SiO2 
 PCOD8236253
Probable space group: P N N M
;
_chemical_formula_sum "Si O2"
_cell_formula_units_Z 64
_cell_length_a 16.874706
_cell_length_b 21.594731
_cell_length_c 9.123668
_cell_angle_alpha 90.000000
_cell_angle_beta 90.000000
_cell_angle_gamma 90.000000
_cell_volume 3324.707836
_symmetry_space_group_name_H-M "P N N M"
_symmetry_group_IT_number 58
_symmetry_cell_setting 'orthorhombic'
loop_
_space_group_symop_operation_xyz
x,y,z
-x,-y,z
1/2+x,1/2-y,1/2-z
1/2-x,1/2+y,1/2-z
-x,-y,-z
x,y,-z
1/2-x,1/2+y,1/2+z
1/2+x,1/2-y,1/2+z
loop_
_atom_site_type_symbol
_atom_site_label
_atom_site_fract_x
_atom_site_fract_y
_atom_site_fract_z
Si Si1 0.805933 0.788559 0.162978
Si Si2 0.633226 0.155299 0.327478
Si Si3 0.321585 0.523155 0.174510
Si Si4 0.062900 0.109197 0.166123
Si Si5 0.541102 0.819881 0.326523
Si Si6 0.774390 0.100076 0.173012
Si Si7 0.800206 0.375486 0.171168
Si Si8 0.583938 0.684445 0.327252
O O1 0.831103 0.721194 0.214131
O O2 0.883449 0.830199 0.168983
O O3 0.738496 0.812705 0.270057
O O4 0.770029 0.787584 0.000000
O O5 0.637185 0.140376 0.500000
O O6 0.542855 0.154541 0.267544
O O7 0.686302 0.105619 0.240680
O O8 0.402146 0.556536 0.227291
O O9 0.317338 0.457960 0.253769
O O10 0.244820 0.563344 0.229274
O O11 0.323307 0.514924 0.000000
O O12 0.978200 0.132174 0.228775
O O13 0.056973 0.082664 0.000000
O O14 0.534095 0.811770 0.500000
O O15 0.606927 0.872053 0.285089
O O16 0.565757 0.752583 0.258971
O O17 0.827632 0.160658 0.212342
O O18 0.768175 0.089512 0.000000
O O19 0.788715 0.372714 0.000000
O O20 0.572571 0.689167 0.500000
#
# Coordination Sequence:
#
# PCOD8236253 Si02
#       8
#     8   8   8   8   8   8   8   8
#     4   9  16  28  50  78 106 134 162 199 260 320
#     4  10  19  33  54  78 106 136 166 209 266 318
#     4  10  21  37  53  74 106 142 181 222 265 309
#     4   9  16  31  55  80 104 135 172 211 253 307
#     4   9  16  31  55  82 106 131 168 214 260 312
#     4  11  23  37  54  76 103 141 183 222 260 306
#     4   9  18  32  54  78 101 135 179 222 257 299
#     4   9  17  31  54  82 108 134 172 215 256 311
#
# _framework density 19.249811000000001
#
# number of rings (size 3 to 8) (size 9 to 14) (size 15 to 20)
#    0.000    2.500    1.250    1.500    0.000    2.500 
#    0.000    5.000    0.000    6.000    0.000    0.000 
#    0.000    0.000    0.000    0.000    0.000    0.000 
#
# Total GULP energy -793293.914300 kJ/mol
# GULP energy per Si atom -12395.217411 kJ/mol
# Density = 1.920600 g / cm^3
# Si number density = 19.249811 Si / 1000 Ang^3
#
#
#
# Elastic Constant Matrix: (Units=GPa)
#
#
# Indices 1 2 3 4 5 6 
#
# 1 106.9009 6.9788 19.1464 0.0000 0.0000 0.0000
# 2 6.9788 32.7068 12.6594 0.0000 0.0000 0.0000
# 3 19.1464 12.6594 35.4360 0.0000 0.0000 0.0000
# 4 0.0000 0.0000 0.0000 22.0357 0.0000 0.0000
# 5 0.0000 0.0000 0.0000 0.0000 24.1818 0.0000
# 6 0.0000 0.0000 0.0000 0.0000 0.0000 10.7748
#
#
#
# Elastic Compliance Matrix: (Units=1/GPa)
#
#
# Indices 1 2 3 4 5 6 
#
# 1 0.010357 -0.000051 -0.005578 0.000000 0.000000 0.000000
# 2 -0.000051 0.035481 -0.012648 0.000000 0.000000 0.000000
# 3 -0.005578 -0.012648 0.035752 0.000000 0.000000 0.000000
# 4 0.000000 0.000000 0.000000 0.045381 0.000000 0.000000
# 5 0.000000 0.000000 0.000000 0.000000 0.041353 0.000000
# 6 0.000000 0.000000 0.000000 0.000000 0.000000 0.092809
#
#
# Mechanical properties :
#
#
# Convention : Reuss Voigt Hill
#
# Bulk Modulus (GPa) = 22.20414 28.06809 25.13611
# Shear Modulus (GPa) = 15.98981 20.48239 18.23610
#
# Velocity S-wave (km/s) = 2.88522 3.26549 3.08123
# Velocity P-wave (km/s) = 4.76016 5.36940 5.07393
#
# Compressibility (1/GPa) = 0.04503665
#
# Stress axis : x y z
#
# Youngs Moduli (GPa) = 96.55530 28.18406 27.97046
#
# Poissons Ratio (x) = 0.00144 0.15601
# Poissons Ratio (y) = 0.00493 0.35377
# Poissons Ratio (z) = 0.53855 0.35647
#
# Static dielectric constant tensor:
#      x y z
#    x 3.825300 0.000000 0.000000 
#    y 0.000000 3.421820 0.000000 
#    z 0.000000 0.000000 3.224860 
# 
# 
# High freq. dielectric constant tensor:
#      x y z
#    x 1.757180 0.000000 0.000000 
#    y 0.000000 1.736150 0.000000 
#    z 0.000000 0.000000 1.715620 
# 
# From -- ./inp_files/8324.got.cif
#   From: 2010.06.25/outbox.cif.g09.slc.cpg/sg58_5_cif.got.tgz:8324.got - 2010.06.26 21:38:00.
