data_PCOD8236083
_publ_section_title
;
Structure prediction by ZEFSAII (Michael W. Deem and Ramdas Pophale) SiO2 
 PCOD8236083
Probable space group: P N N M
;
_chemical_formula_sum "Si O2"
_cell_formula_units_Z 40
_cell_length_a 14.360695
_cell_length_b 11.912587
_cell_length_c 12.979866
_cell_angle_alpha 90.000000
_cell_angle_beta 90.000000
_cell_angle_gamma 90.000000
_cell_volume 2220.504987
_symmetry_space_group_name_H-M "P N N M"
_symmetry_group_IT_number 58
_symmetry_cell_setting 'orthorhombic'
loop_
_space_group_symop_operation_xyz
x,y,z
-x,-y,z
1/2+x,1/2-y,1/2-z
1/2-x,1/2+y,1/2-z
-x,-y,-z
x,y,-z
1/2-x,1/2+y,1/2+z
1/2+x,1/2-y,1/2+z
loop_
_atom_site_type_symbol
_atom_site_label
_atom_site_fract_x
_atom_site_fract_y
_atom_site_fract_z
Si Si1 0.530005 0.750672 0.116056
Si Si2 0.719915 0.615443 0.385540
Si Si3 0.660610 0.304295 0.797753
Si Si4 0.786905 0.371335 0.617633
Si Si5 0.902721 0.041794 0.293223
O O1 0.443605 0.749618 0.196906
O O2 0.608113 0.839551 0.152518
O O3 0.579735 0.628085 0.113577
O O4 0.494369 0.776617 0.000000
O O5 0.676051 0.614890 0.500000
O O6 0.777431 0.730221 0.373858
O O7 0.784127 0.505540 0.369847
O O8 0.640666 0.611899 0.300381
O O9 0.706808 0.306770 0.683643
O O10 0.656850 0.434997 0.834532
O O11 0.769715 0.333222 0.500000
O O12 0.000000 0.000000 0.246532
#
# Coordination Sequence:
#
# PCOD8236083 Si02
#       5
#     8   8   8   8   8
#     4  10  19  33  54  78 104 137 173 212 263 315
#     4  10  19  32  51  77 104 133 173 218 261 305
#     4  10  19  32  53  76 104 133 174 215 257 300
#     4   9  19  35  53  73 104 139 172 209 262 317
#     4   9  19  33  50  75 105 138 171 214 262 310
#
# _framework density 18.013919999999999
#
# number of rings (size 3 to 8) (size 9 to 14) (size 15 to 20)
#    0.000    2.400    2.000    0.600    0.000    5.600 
#    0.000    6.000    0.000    0.000    0.000    1.400 
#    0.000    0.000    0.000    0.000    0.000    0.000 
#
# Total GULP energy -495537.332550 kJ/mol
# GULP energy per Si atom -12388.433314 kJ/mol
# Density = 1.797292 g / cm^3
# Si number density = 18.013920 Si / 1000 Ang^3
#
#
#
# Elastic Constant Matrix: (Units=GPa)
#
#
# Indices 1 2 3 4 5 6 
#
# 1 66.8983 25.8500 30.2033 0.0000 0.0000 0.0000
# 2 25.8500 61.9804 22.7685 0.0000 0.0000 0.0000
# 3 30.2033 22.7685 62.3731 0.0000 0.0000 0.0000
# 4 0.0000 0.0000 0.0000 24.6384 0.0000 0.0000
# 5 0.0000 0.0000 0.0000 0.0000 25.8187 0.0000
# 6 0.0000 0.0000 0.0000 0.0000 0.0000 31.5817
#
#
#
# Elastic Compliance Matrix: (Units=1/GPa)
#
#
# Indices 1 2 3 4 5 6 
#
# 1 0.020756 -0.005733 -0.007958 0.000000 0.000000 0.000000
# 2 -0.005733 0.020216 -0.004603 0.000000 0.000000 0.000000
# 3 -0.007958 -0.004603 0.021567 0.000000 0.000000 0.000000
# 4 0.000000 0.000000 0.000000 0.040587 0.000000 0.000000
# 5 0.000000 0.000000 0.000000 0.000000 0.038732 0.000000
# 6 0.000000 0.000000 0.000000 0.000000 0.000000 0.031664
#
#
# Mechanical properties :
#
#
# Convention : Reuss Voigt Hill
#
# Bulk Modulus (GPa) = 38.53631 38.76614 38.65122
# Shear Modulus (GPa) = 22.85590 23.90308 23.37949
#
# Velocity S-wave (km/s) = 3.56587 3.64665 3.60649
# Velocity P-wave (km/s) = 6.19620 6.26877 6.23259
#
# Compressibility (1/GPa) = 0.02594956
#
# Stress axis : x y z
#
# Youngs Moduli (GPa) = 48.17782 49.46465 46.36805
#
# Poissons Ratio (x) = 0.28360 0.36900
# Poissons Ratio (y) = 0.27623 0.21345
# Poissons Ratio (z) = 0.38340 0.22771
#
# Static dielectric constant tensor:
#      x y z
#    x 3.391870 0.000000 0.000000 
#    y 0.000000 3.515770 0.000000 
#    z 0.000000 0.000000 3.203720 
# 
# 
# High freq. dielectric constant tensor:
#      x y z
#    x 1.689460 0.000000 0.000000 
#    y 0.000000 1.702720 0.000000 
#    z 0.000000 0.000000 1.677600 
# 
# From -- ./inp_files/14090.got.cif
#   From: 2010.06.25/outbox.cif.g09.slc.cpg/sg58_8_cif.got.tgz:14090.got - 2010.06.26 21:38:00.
