data_PCOD8236822
_publ_section_title
;
Structure prediction by ZEFSAII (Michael W. Deem and Ramdas Pophale) SiO2 
 PCOD8236822
Probable space group: P N N M
;
_chemical_formula_sum "Si O2"
_cell_formula_units_Z 48
_cell_length_a 28.754483
_cell_length_b 9.323879
_cell_length_c 8.892094
_cell_angle_alpha 90.000000
_cell_angle_beta 90.000000
_cell_angle_gamma 90.000000
_cell_volume 2383.999925
_symmetry_space_group_name_H-M "P N N M"
_symmetry_group_IT_number 58
_symmetry_cell_setting 'orthorhombic'
loop_
_space_group_symop_operation_xyz
x,y,z
-x,-y,z
1/2+x,1/2-y,1/2-z
1/2-x,1/2+y,1/2-z
-x,-y,-z
x,y,-z
1/2-x,1/2+y,1/2+z
1/2+x,1/2-y,1/2+z
loop_
_atom_site_type_symbol
_atom_site_label
_atom_site_fract_x
_atom_site_fract_y
_atom_site_fract_z
Si Si1 0.619941 0.819265 0.322373
Si Si2 0.284312 0.700570 0.322952
Si Si3 0.463305 0.625484 0.332170
Si Si4 0.522883 0.847108 0.830906
Si Si5 0.698103 0.995353 0.176686
Si Si6 0.632941 0.500264 0.678529
O O1 0.625323 0.835217 0.500000
O O2 0.566091 0.836498 0.281376
O O3 0.649057 0.945685 0.244479
O O4 0.638069 0.664120 0.263998
O O5 0.289886 0.724684 0.500000
O O6 0.235922 0.625007 0.281448
O O7 0.324924 0.596546 0.260590
O O8 0.286266 0.852883 0.242642
O O9 0.500000 0.500000 0.343209
O O10 0.455421 0.690108 0.500000
O O11 0.481583 0.743289 0.218475
O O12 0.415251 0.566485 0.262582
O O13 0.500000 0.000000 0.822745
O O14 0.539228 0.809253 0.000000
O O15 0.692856 0.014523 0.000000
O O16 0.632205 0.504500 0.500000
#
# Coordination Sequence:
#
# PCOD8236822 Si02
#       6
#     8   8   8   8   8   8
#     4  11  22  41  66  89 118 161 208 250 303 364
#     4  10  22  41  64  90 121 162 201 241 299 364
#     4  10  19  37  62  89 118 156 207 252 294 353
#     4  11  25  41  57  86 128 163 200 252 308 361
#     4  11  24  41  62  92 128 157 199 255 303 355
#     4   9  19  37  62  90 118 153 205 255 292 352
#
# _framework density 20.134229000000001
#
# number of rings (size 3 to 8) (size 9 to 14) (size 15 to 20)
#    0.000    1.667    1.667    2.500    2.333    4.333 
#    0.000    1.667    0.000    0.000    0.000    0.000 
#    0.000    0.000    0.000    0.000    0.000    0.000 
#
# Total GULP energy -595342.025053 kJ/mol
# GULP energy per Si atom -12402.958855 kJ/mol
# Density = 2.008840 g / cm^3
# Si number density = 20.134229 Si / 1000 Ang^3
#
#
#
# Elastic Constant Matrix: (Units=GPa)
#
#
# Indices 1 2 3 4 5 6 
#
# 1 75.1266 21.8020 28.6912 0.0000 0.0000 0.0000
# 2 21.8020 114.6379 56.4257 0.0000 0.0000 0.0000
# 3 28.6912 56.4257 65.6615 0.0000 0.0000 0.0000
# 4 0.0000 0.0000 0.0000 32.6589 0.0000 0.0000
# 5 0.0000 0.0000 0.0000 0.0000 30.9107 0.0000
# 6 0.0000 0.0000 0.0000 0.0000 0.0000 35.3352
#
#
#
# Elastic Compliance Matrix: (Units=1/GPa)
#
#
# Indices 1 2 3 4 5 6 
#
# 1 0.016009 0.000691 -0.007588 0.000000 0.000000 0.000000
# 2 0.000691 0.015147 -0.013318 0.000000 0.000000 0.000000
# 3 -0.007588 -0.013318 0.029990 0.000000 0.000000 0.000000
# 4 0.000000 0.000000 0.000000 0.030620 0.000000 0.000000
# 5 0.000000 0.000000 0.000000 0.000000 0.032351 0.000000
# 6 0.000000 0.000000 0.000000 0.000000 0.000000 0.028300
#
#
# Mechanical properties :
#
#
# Convention : Reuss Voigt Hill
#
# Bulk Modulus (GPa) = 48.27725 52.14041 50.20883
# Shear Modulus (GPa) = 25.03074 29.68144 27.35609
#
# Velocity S-wave (km/s) = 3.52972 3.84367 3.69003
# Velocity P-wave (km/s) = 6.37508 6.75655 6.56859
#
# Compressibility (1/GPa) = 0.02071369
#
# Stress axis : x y z
#
# Youngs Moduli (GPa) = 62.46669 66.01888 33.34390
#
# Poissons Ratio (x) = -0.04559 0.25303
# Poissons Ratio (y) = -0.04314 0.44409
# Poissons Ratio (z) = 0.47403 0.87926
#
# Static dielectric constant tensor:
#      x y z
#    x 3.736110 0.000000 0.000000 
#    y 0.000000 3.726810 0.000000 
#    z 0.000000 0.000000 3.566410 
# 
# 
# High freq. dielectric constant tensor:
#      x y z
#    x 1.797790 0.000000 0.000000 
#    y 0.000000 1.796020 0.000000 
#    z 0.000000 0.000000 1.769840 
# 
# From -- ./inp_files/10758.got.cif
#   From: 2010.06.25/outbox.cif.g09.slc.cpg/sg58_6_cif.got.tgz:10758.got - 2010.06.26 21:38:00.
