data_PCOD8236486
_publ_section_title
;
Structure prediction by ZEFSAII (Michael W. Deem and Ramdas Pophale) SiO2 
 PCOD8236486
Probable space group: P N N M
;
_chemical_formula_sum "Si O2"
_cell_formula_units_Z 64
_cell_length_a 19.314408
_cell_length_b 19.617786
_cell_length_c 9.022782
_cell_angle_alpha 90.000000
_cell_angle_beta 90.000000
_cell_angle_gamma 90.000000
_cell_volume 3418.785540
_symmetry_space_group_name_H-M "P N N M"
_symmetry_group_IT_number 58
_symmetry_cell_setting 'orthorhombic'
loop_
_space_group_symop_operation_xyz
x,y,z
-x,-y,z
1/2+x,1/2-y,1/2-z
1/2-x,1/2+y,1/2-z
-x,-y,-z
x,y,-z
1/2-x,1/2+y,1/2+z
1/2+x,1/2-y,1/2+z
loop_
_atom_site_type_symbol
_atom_site_label
_atom_site_fract_x
_atom_site_fract_y
_atom_site_fract_z
Si Si1 0.202685 0.011076 0.673063
Si Si2 0.541475 0.069034 0.169805
Si Si3 0.075975 0.670400 0.672946
Si Si4 0.600581 0.677304 0.825299
Si Si5 0.821344 0.597428 0.172143
Si Si6 0.258233 0.295105 0.672766
Si Si7 0.715556 0.858012 0.671714
Si Si8 0.067329 0.956417 0.826055
O O1 0.183481 0.012250 0.500000
O O2 0.260668 0.955349 0.708080
O O3 0.134097 0.995462 0.764633
O O4 0.231826 0.084092 0.728068
O O5 0.493458 0.131944 0.221879
O O6 0.607036 0.064637 0.276209
O O7 0.500000 0.000000 0.190267
O O8 0.565396 0.078706 0.000000
O O9 0.089545 0.661830 0.500000
O O10 0.067018 0.749851 0.716463
O O11 0.141829 0.635931 0.749399
O O12 0.678095 0.673767 0.763776
O O13 0.556595 0.617315 0.750048
O O14 0.603347 0.664734 0.000000
O O15 0.809543 0.666794 0.265693
O O16 0.825416 0.615549 0.000000
O O17 0.269562 0.310123 0.500000
O O18 0.249169 0.214900 0.703608
O O19 0.699811 0.869277 0.500000
O O20 0.076400 0.945617 0.000000
O O21 0.000000 0.000000 0.786650
#
# Coordination Sequence:
#
# PCOD8236486 Si02
#       8
#     8   8   8   8   8   8   8   8
#     4  10  21  38  59  84 113 145 186 229 279 337
#     4  10  21  37  56  81 115 153 191 231 281 335
#     4   9  19  35  56  84 115 150 192 232 275 333
#     4  10  19  35  59  83 109 144 187 231 277 334
#     4  11  22  35  56  84 113 148 190 234 278 331
#     4  10  19  34  57  82 111 144 182 227 275 330
#     4   9  19  35  57  85 113 146 185 229 277 329
#     4  11  24  40  58  82 111 143 185 235 287 342
#
# _framework density 18.720098
#
# number of rings (size 3 to 8) (size 9 to 14) (size 15 to 20)
#    0.000    2.000    1.250    2.250    0.000    3.750 
#    2.250    0.000    0.000    0.000    0.000    0.000 
#    0.000    0.000    0.000    0.000    0.000    0.000 
#
# Total GULP energy -793798.480235 kJ/mol
# GULP energy per Si atom -12403.101254 kJ/mol
# Density = 1.867749 g / cm^3
# Si number density = 18.720098 Si / 1000 Ang^3
#
#
#
# Elastic Constant Matrix: (Units=GPa)
#
#
# Indices 1 2 3 4 5 6 
#
# 1 112.8555 62.0337 57.8533 0.0000 0.0000 0.0000
# 2 62.0337 125.1471 54.4794 0.0000 0.0000 0.0000
# 3 57.8533 54.4794 78.9628 0.0000 0.0000 0.0000
# 4 0.0000 0.0000 0.0000 24.8239 0.0000 0.0000
# 5 0.0000 0.0000 0.0000 0.0000 31.6879 0.0000
# 6 0.0000 0.0000 0.0000 0.0000 0.0000 26.2823
#
#
#
# Elastic Compliance Matrix: (Units=1/GPa)
#
#
# Indices 1 2 3 4 5 6 
#
# 1 0.015413 -0.003893 -0.008606 0.000000 0.000000 0.000000
# 2 -0.003893 0.012404 -0.005706 0.000000 0.000000 0.000000
# 3 -0.008606 -0.005706 0.022906 0.000000 0.000000 0.000000
# 4 0.000000 0.000000 0.000000 0.040284 0.000000 0.000000
# 5 0.000000 0.000000 0.000000 0.000000 0.031558 0.000000
# 6 0.000000 0.000000 0.000000 0.000000 0.000000 0.038048
#
#
# Mechanical properties :
#
#
# Convention : Reuss Voigt Hill
#
# Bulk Modulus (GPa) = 69.86760 73.96646 71.91703
# Shear Modulus (GPa) = 24.77765 26.06542 25.42153
#
# Velocity S-wave (km/s) = 3.64206 3.73550 3.68908
# Velocity P-wave (km/s) = 7.42222 7.62908 7.52636
#
# Compressibility (1/GPa) = 0.01431279
#
# Stress axis : x y z
#
# Youngs Moduli (GPa) = 64.88094 80.61720 43.65638
#
# Poissons Ratio (x) = 0.31388 0.37572
# Poissons Ratio (y) = 0.25261 0.24909
# Poissons Ratio (z) = 0.55838 0.45997
#
# Static dielectric constant tensor:
#      x y z
#    x 3.291750 0.000000 0.000000 
#    y 0.000000 3.758280 0.000000 
#    z 0.000000 0.000000 3.441390 
# 
# 
# High freq. dielectric constant tensor:
#      x y z
#    x 1.711670 0.000000 0.000000 
#    y 0.000000 1.742410 0.000000 
#    z 0.000000 0.000000 1.730270 
# 
# From -- ./inp_files/8405.got.cif
#   From: 2010.06.25/outbox.cif.g09.slc.cpg/sg58_5_cif.got.tgz:8405.got - 2010.06.26 21:38:00.
