data_PCOD8236902
_publ_section_title
;
Structure prediction by ZEFSAII (Michael W. Deem and Ramdas Pophale) SiO2 
 PCOD8236902
Probable space group: P N N M
;
_chemical_formula_sum "Si O2"
_cell_formula_units_Z 64
_cell_length_a 15.219426
_cell_length_b 23.552771
_cell_length_c 9.131155
_cell_angle_alpha 90.000000
_cell_angle_beta 90.000000
_cell_angle_gamma 90.000000
_cell_volume 3273.150674
_symmetry_space_group_name_H-M "P N N M"
_symmetry_group_IT_number 58
_symmetry_cell_setting 'orthorhombic'
loop_
_space_group_symop_operation_xyz
x,y,z
-x,-y,z
1/2+x,1/2-y,1/2-z
1/2-x,1/2+y,1/2-z
-x,-y,-z
x,y,-z
1/2-x,1/2+y,1/2+z
1/2+x,1/2-y,1/2+z
loop_
_atom_site_type_symbol
_atom_site_label
_atom_site_fract_x
_atom_site_fract_y
_atom_site_fract_z
Si Si1 0.191682 0.315573 0.670903
Si Si2 0.288888 0.687006 0.837806
Si Si3 0.350451 0.124618 0.827819
Si Si4 0.398130 0.001102 0.173083
Si Si5 0.756836 0.575673 0.827181
Si Si6 0.061052 0.948954 0.326591
Si Si7 0.496772 0.208198 0.824694
Si Si8 0.506590 0.331331 0.835040
O O1 0.198957 0.331600 0.500000
O O2 0.228496 0.252665 0.701686
O O3 0.247786 0.360021 0.766234
O O4 0.090652 0.316297 0.724786
O O5 0.243588 0.647040 0.719618
O O6 0.389078 0.669175 0.833049
O O7 0.251238 0.674772 0.000000
O O8 0.425016 0.165346 0.759897
O O9 0.361202 0.060993 0.771082
O O10 0.360131 0.125800 0.000000
O O11 0.340799 0.953672 0.253188
O O12 0.500000 0.000000 0.219382
O O13 0.388298 0.991288 0.000000
O O14 0.664773 0.543587 0.788252
O O15 0.771069 0.577208 0.000000
O O16 0.046681 0.947680 0.500000
O O17 0.029182 0.888536 0.256584
O O18 0.000000 0.000000 0.261273
O O19 0.476318 0.271634 0.760570
O O20 0.497566 0.212996 0.000000
O O21 0.470017 0.332862 0.000000
#
# Coordination Sequence:
#
# PCOD8236902 Si02
#       8
#     8   8   8   8   8   8   8   8
#     4   9  18  36  57  78 109 148 187 220 268 342
#     4   9  19  33  54  81 108 143 180 220 272 328
#     4  10  20  32  54  82 107 136 177 228 276 324
#     4  10  22  41  61  80 108 154 197 225 272 347
#     4  11  23  35  57  90 114 141 184 241 294 323
#     4   9  19  33  50  77 110 144 184 228 276 330
#     4   8  15  30  53  78 100 136 184 221 258 320
#     4   8  15  30  52  74 101 139 181 219 258 315
#
# _framework density 19.553025000000002
#
# number of rings (size 3 to 8) (size 9 to 14) (size 15 to 20)
#    0.000    2.750    0.000    2.625    3.500    3.250 
#    0.000    1.875    0.000    3.750    0.000    0.000 
#    0.000    0.000    0.000    0.000    0.000    0.000 
#
# Total GULP energy -793215.900987 kJ/mol
# GULP energy per Si atom -12393.998453 kJ/mol
# Density = 1.950852 g / cm^3
# Si number density = 19.553025 Si / 1000 Ang^3
#
#
#
# Elastic Constant Matrix: (Units=GPa)
#
#
# Indices 1 2 3 4 5 6 
#
# 1 70.4376 42.7330 25.9020 0.0000 0.0000 0.0000
# 2 42.7330 115.1768 29.1011 0.0000 0.0000 0.0000
# 3 25.9020 29.1011 27.6999 0.0000 0.0000 0.0000
# 4 0.0000 0.0000 0.0000 19.2668 0.0000 0.0000
# 5 0.0000 0.0000 0.0000 0.0000 23.5090 0.0000
# 6 0.0000 0.0000 0.0000 0.0000 0.0000 36.3741
#
#
#
# Elastic Compliance Matrix: (Units=1/GPa)
#
#
# Indices 1 2 3 4 5 6 
#
# 1 0.023058 -0.004230 -0.017117 0.000000 0.000000 0.000000
# 2 -0.004230 0.012596 -0.009278 0.000000 0.000000 0.000000
# 3 -0.017117 -0.009278 0.061854 0.000000 0.000000 0.000000
# 4 0.000000 0.000000 0.000000 0.051903 0.000000 0.000000
# 5 0.000000 0.000000 0.000000 0.000000 0.042537 0.000000
# 6 0.000000 0.000000 0.000000 0.000000 0.000000 0.027492
#
#
# Mechanical properties :
#
#
# Convention : Reuss Voigt Hill
#
# Bulk Modulus (GPa) = 27.57982 45.42072 36.50027
# Shear Modulus (GPa) = 17.07794 23.53518 20.30656
#
# Velocity S-wave (km/s) = 2.95857 3.47314 3.22613
# Velocity P-wave (km/s) = 5.08002 6.27404 5.70833
#
# Compressibility (1/GPa) = 0.03625840
#
# Stress axis : x y z
#
# Youngs Moduli (GPa) = 43.36948 79.39130 16.16701
#
# Poissons Ratio (x) = 0.33582 0.27673
# Poissons Ratio (y) = 0.18345 0.14999
# Poissons Ratio (z) = 0.74236 0.73656
#
# Static dielectric constant tensor:
#      x y z
#    x 3.504570 0.000000 0.000000 
#    y 0.000000 3.904910 0.000000 
#    z 0.000000 0.000000 3.083730 
# 
# 
# High freq. dielectric constant tensor:
#      x y z
#    x 1.763450 0.000000 0.000000 
#    y 0.000000 1.779190 0.000000 
#    z 0.000000 0.000000 1.706760 
# 
# From -- ./inp_files/6761.got.cif
#   From: 2010.06.25/outbox.cif.g09.slc.cpg/sg58_4_cif.got.tgz:6761.got - 2010.06.26 21:38:00.
