data_PCOD8236583
_publ_section_title
;
Structure prediction by ZEFSAII (Michael W. Deem and Ramdas Pophale) SiO2 
 PCOD8236583
Probable space group: P N N M
;
_chemical_formula_sum "Si O2"
_cell_formula_units_Z 40
_cell_length_a 23.262804
_cell_length_b 10.317614
_cell_length_c 8.303015
_cell_angle_alpha 90.000000
_cell_angle_beta 90.000000
_cell_angle_gamma 90.000000
_cell_volume 1992.861698
_symmetry_space_group_name_H-M "P N N M"
_symmetry_group_IT_number 58
_symmetry_cell_setting 'orthorhombic'
loop_
_space_group_symop_operation_xyz
x,y,z
-x,-y,z
1/2+x,1/2-y,1/2-z
1/2-x,1/2+y,1/2-z
-x,-y,-z
x,y,-z
1/2-x,1/2+y,1/2+z
1/2+x,1/2-y,1/2+z
loop_
_atom_site_type_symbol
_atom_site_label
_atom_site_fract_x
_atom_site_fract_y
_atom_site_fract_z
Si Si1 0.179080 0.500175 0.308869
Si Si2 0.308942 0.510711 0.687564
Si Si3 0.999784 0.854594 0.691008
Si Si4 0.124201 0.768302 0.309772
Si Si5 0.380900 0.745964 0.811724
O O1 0.180160 0.489525 0.500000
O O2 0.244147 0.504836 0.244162
O O3 0.145076 0.627600 0.252813
O O4 0.147223 0.374500 0.233105
O O5 0.310104 0.545879 0.500000
O O6 0.338283 0.372972 0.716205
O O7 0.341440 0.621643 0.784355
O O8 0.994195 0.862777 0.500000
O O9 0.057687 0.780728 0.742143
O O10 0.944508 0.778491 0.762420
O O11 0.000000 0.000000 0.762873
O O12 0.132093 0.790117 0.500000
O O13 0.387071 0.769547 0.000000
#
# Coordination Sequence:
#
# PCOD8236583 Si02
#       5
#     8   8   8   8   8
#     4   9  20  34  52  79 106 133 170 213 256 304
#     4  11  21  34  51  77 107 137 176 209 244 304
#     4   9  16  29  53  81 100 124 171 216 251 303
#     4  10  19  35  56  77 103 135 170 212 259 301
#     4  10  19  35  56  77 103 135 170 212 259 301
#
# _framework density 20.071639000000001
#
# number of rings (size 3 to 8) (size 9 to 14) (size 15 to 20)
#    0.000    2.200    2.000    1.800    0.000    0.800 
#    0.000    9.000    0.000    0.000    0.000    2.800 
#    0.000    0.000    0.000    0.000    0.000    0.000 
#
# Total GULP energy -496008.531493 kJ/mol
# GULP energy per Si atom -12400.213287 kJ/mol
# Density = 2.002596 g / cm^3
# Si number density = 20.071639 Si / 1000 Ang^3
#
#
#
# Elastic Constant Matrix: (Units=GPa)
#
#
# Indices 1 2 3 4 5 6 
#
# 1 210.3482 92.1470 3.0825 0.0000 0.0000 0.0000
# 2 92.1470 148.4146 -5.6074 0.0000 0.0000 0.0000
# 3 3.0825 -5.6074 9.5496 0.0000 0.0000 0.0000
# 4 0.0000 0.0000 0.0000 11.7585 0.0000 0.0000
# 5 0.0000 0.0000 0.0000 0.0000 15.6813 0.0000
# 6 0.0000 0.0000 0.0000 0.0000 0.0000 19.3428
#
#
#
# Elastic Compliance Matrix: (Units=1/GPa)
#
#
# Indices 1 2 3 4 5 6 
#
# 1 0.006733 -0.004359 -0.004733 0.000000 0.000000 0.000000
# 2 -0.004359 0.009713 0.007110 0.000000 0.000000 0.000000
# 3 -0.004733 0.007110 0.110419 0.000000 0.000000 0.000000
# 4 0.000000 0.000000 0.000000 0.085045 0.000000 0.000000
# 5 0.000000 0.000000 0.000000 0.000000 0.063770 0.000000
# 6 0.000000 0.000000 0.000000 0.000000 0.000000 0.051699
#
#
# Mechanical properties :
#
#
# Convention : Reuss Voigt Hill
#
# Bulk Modulus (GPa) = 8.13660 60.83963 34.48811
# Shear Modulus (GPa) = 13.42970 27.93588 20.68279
#
# Velocity S-wave (km/s) = 2.58948 3.73474 3.21354
# Velocity P-wave (km/s) = 3.60598 6.99820 5.56677
#
# Compressibility (1/GPa) = 0.12290151
#
# Stress axis : x y z
#
# Youngs Moduli (GPa) = 148.52204 102.95435 9.05642
#
# Poissons Ratio (x) = 0.44880 0.04286
# Poissons Ratio (y) = 0.64744 -0.06440
# Poissons Ratio (z) = 0.70296 -0.73205
#
# Static dielectric constant tensor:
#      x y z
#    x 4.048300 0.000000 0.000000 
#    y 0.000000 3.803840 0.000000 
#    z 0.000000 0.000000 3.093860 
# 
# 
# High freq. dielectric constant tensor:
#      x y z
#    x 1.803220 0.000000 0.000000 
#    y 0.000000 1.789340 0.000000 
#    z 0.000000 0.000000 1.733050 
# 
# From -- ./inp_files/2451.got.cif
#   From: 2010.06.25/outbox.cif.g09.slc.cpg/sg58_2_cif.got.tgz:2451.got - 2010.06.26 21:38:00.
