data_PCOD8236063
_publ_section_title
;
Structure prediction by ZEFSAII (Michael W. Deem and Ramdas Pophale) SiO2 
 PCOD8236063
Probable space group: P N N M
;
_chemical_formula_sum "Si O2"
_cell_formula_units_Z 64
_cell_length_a 14.272543
_cell_length_b 30.647647
_cell_length_c 8.880224
_cell_angle_alpha 90.000000
_cell_angle_beta 90.000000
_cell_angle_gamma 90.000000
_cell_volume 3884.386336
_symmetry_space_group_name_H-M "P N N M"
_symmetry_group_IT_number 58
_symmetry_cell_setting 'orthorhombic'
loop_
_space_group_symop_operation_xyz
x,y,z
-x,-y,z
1/2+x,1/2-y,1/2-z
1/2-x,1/2+y,1/2-z
-x,-y,-z
x,y,-z
1/2-x,1/2+y,1/2+z
1/2+x,1/2-y,1/2+z
loop_
_atom_site_type_symbol
_atom_site_label
_atom_site_fract_x
_atom_site_fract_y
_atom_site_fract_z
Si Si1 0.602363 0.951305 0.179044
Si Si2 0.829204 0.363921 0.331532
Si Si3 0.279490 0.717638 0.323715
Si Si4 0.472762 0.822172 0.832207
Si Si5 0.110223 0.451998 0.678108
Si Si6 0.489672 0.734909 0.671240
Si Si7 0.808200 0.630309 0.176784
Si Si8 0.186045 0.801670 0.174736
O O1 0.671171 0.912700 0.243452
O O2 0.495844 0.945411 0.238103
O O3 0.642503 0.998866 0.223221
O O4 0.597826 0.947102 0.000000
O O5 0.788485 0.366981 0.500000
O O6 0.768607 0.325948 0.250498
O O7 0.938420 0.353052 0.331989
O O8 0.253585 0.722160 0.500000
O O9 0.390338 0.711863 0.297389
O O10 0.241795 0.760458 0.241745
O O11 0.505767 0.774455 0.784574
O O12 0.397033 0.839720 0.715393
O O13 0.428764 0.820730 0.000000
O O14 0.115822 0.444459 0.500000
O O15 0.180034 0.418199 0.757338
O O16 0.493468 0.752494 0.500000
O O17 0.574400 0.701463 0.701184
O O18 0.716740 0.653420 0.246097
O O19 0.795793 0.627158 0.000000
O O20 0.211508 0.803886 0.000000
#
# Coordination Sequence:
#
# PCOD8236063 Si02
#       8
#     8   8   8   8   8   8   8   8
#     4   8  14  26  47  73  97 124 158 195 232 286
#     4   9  16  27  47  73  97 126 162 189 229 287
#     4  10  19  32  49  71  97 126 158 199 242 281
#     4  11  19  29  49  72  96 130 166 196 232 287
#     4   9  16  29  49  70  95 125 160 198 237 288
#     4  10  21  34  47  68 100 128 159 205 245 274
#     4  12  23  33  46  68  98 131 165 204 245 283
#     4  11  22  34  48  68  94 129 168 200 237 286
#
# _framework density 16.476219
#
# number of rings (size 3 to 8) (size 9 to 14) (size 15 to 20)
#    0.000    2.000    3.750    2.625    0.000    0.500 
#    0.000    1.250    0.000    0.000    0.000    0.875 
#    0.000    7.000    0.000    0.000    0.000    0.000 
#
# Total GULP energy -793197.348187 kJ/mol
# GULP energy per Si atom -12393.708565 kJ/mol
# Density = 1.643872 g / cm^3
# Si number density = 16.476219 Si / 1000 Ang^3
#
#
#
# Elastic Constant Matrix: (Units=GPa)
#
#
# Indices 1 2 3 4 5 6 
#
# 1 62.8523 29.4567 20.4807 0.0000 0.0000 0.0000
# 2 29.4567 129.0302 34.2797 0.0000 0.0000 0.0000
# 3 20.4807 34.2797 60.9177 0.0000 0.0000 0.0000
# 4 0.0000 0.0000 0.0000 20.2337 0.0000 0.0000
# 5 0.0000 0.0000 0.0000 0.0000 14.5235 0.0000
# 6 0.0000 0.0000 0.0000 0.0000 0.0000 27.6213
#
#
#
# Elastic Compliance Matrix: (Units=1/GPa)
#
#
# Indices 1 2 3 4 5 6 
#
# 1 0.018855 -0.003081 -0.004605 0.000000 0.000000 0.000000
# 2 -0.003081 0.009616 -0.004375 0.000000 0.000000 0.000000
# 3 -0.004605 -0.004375 0.020426 0.000000 0.000000 0.000000
# 4 0.000000 0.000000 0.000000 0.049422 0.000000 0.000000
# 5 0.000000 0.000000 0.000000 0.000000 0.068854 0.000000
# 6 0.000000 0.000000 0.000000 0.000000 0.000000 0.036204
#
#
# Mechanical properties :
#
#
# Convention : Reuss Voigt Hill
#
# Bulk Modulus (GPa) = 40.36542 46.80381 43.58461
# Shear Modulus (GPa) = 21.20816 23.71456 22.46136
#
# Velocity S-wave (km/s) = 3.59165 3.79795 3.69624
# Velocity P-wave (km/s) = 6.46160 6.90660 6.68780
#
# Compressibility (1/GPa) = 0.02477368
#
# Stress axis : x y z
#
# Youngs Moduli (GPa) = 53.03649 103.99490 48.95726
#
# Poissons Ratio (x) = 0.32040 0.22547
# Poissons Ratio (y) = 0.16340 0.21420
# Poissons Ratio (z) = 0.24425 0.45500
#
# Static dielectric constant tensor:
#      x y z
#    x 3.032680 0.000000 0.000000 
#    y 0.000000 3.376780 0.000000 
#    z 0.000000 0.000000 2.944690 
# 
# 
# High freq. dielectric constant tensor:
#      x y z
#    x 1.605840 0.000000 0.000000 
#    y 0.000000 1.635500 0.000000 
#    z 0.000000 0.000000 1.614510 
# 
# From -- ./inp_files/7168.got.cif
#   From: 2010.06.25/outbox.cif.g09.slc.cpg/sg58_4_cif.got.tgz:7168.got - 2010.06.26 21:38:00.
