data_PCOD8236732
_publ_section_title
;
Structure prediction by ZEFSAII (Michael W. Deem and Ramdas Pophale) SiO2 
 PCOD8236732
Probable space group: P N N M
;
_chemical_formula_sum "Si O2"
_cell_formula_units_Z 48
_cell_length_a 9.478725
_cell_length_b 28.352833
_cell_length_c 8.797505
_cell_angle_alpha 90.000000
_cell_angle_beta 90.000000
_cell_angle_gamma 90.000000
_cell_volume 2364.318093
_symmetry_space_group_name_H-M "P N N M"
_symmetry_group_IT_number 58
_symmetry_cell_setting 'orthorhombic'
loop_
_space_group_symop_operation_xyz
x,y,z
-x,-y,z
1/2+x,1/2-y,1/2-z
1/2-x,1/2+y,1/2-z
-x,-y,-z
x,y,-z
1/2-x,1/2+y,1/2+z
1/2+x,1/2-y,1/2+z
loop_
_atom_site_type_symbol
_atom_site_label
_atom_site_fract_x
_atom_site_fract_y
_atom_site_fract_z
Si Si1 0.351877 0.017020 0.318786
Si Si2 0.487463 0.200113 0.820566
Si Si3 0.193819 0.622744 0.819951
Si Si4 0.691532 0.717627 0.678287
Si Si5 0.015861 0.133665 0.176227
Si Si6 0.898802 0.043952 0.330803
O O1 0.350005 0.018765 0.500000
O O2 0.313348 0.069075 0.257879
O O3 0.500000 0.000000 0.252480
O O4 0.245298 0.976742 0.261502
O O5 0.439020 0.150826 0.747434
O O6 0.378362 0.239886 0.769023
O O7 0.646876 0.211492 0.766452
O O8 0.482290 0.194894 0.000000
O O9 0.341752 0.645753 0.767932
O O10 0.185105 0.625017 0.000000
O O11 0.684944 0.729286 0.500000
O O12 0.605534 0.670613 0.719346
O O13 0.958747 0.082221 0.216414
O O14 0.054241 0.135730 0.000000
O O15 0.879384 0.066289 0.500000
O O16 0.000000 0.000000 0.345435
#
# Coordination Sequence:
#
# PCOD8236732 Si02
#       6
#     8   8   8   8   8   8
#     4   9  19  35  56  84 118 156 200 247 292 347
#     4  11  24  42  64  90 120 151 193 245 296 351
#     4  11  22  39  62  89 121 158 200 246 298 354
#     4  10  24  44  63  88 122 157 195 241 294 359
#     4  11  23  39  61  89 123 160 202 249 300 354
#     4  10  19  36  59  85 118 157 204 249 292 351
#
# _framework density 20.301836000000002
#
# number of rings (size 3 to 8) (size 9 to 14) (size 15 to 20)
#    0.000    1.667    1.667    2.500    2.333    5.667 
#    0.000    0.000    0.000    2.500    0.000    0.000 
#    0.000    0.000    0.000    0.000    0.000    0.000 
#
# Total GULP energy -595291.973710 kJ/mol
# GULP energy per Si atom -12401.916119 kJ/mol
# Density = 2.025563 g / cm^3
# Si number density = 20.301836 Si / 1000 Ang^3
#
#
#
# Elastic Constant Matrix: (Units=GPa)
#
#
# Indices 1 2 3 4 5 6 
#
# 1 153.2187 31.0813 30.7765 0.0000 0.0000 0.0000
# 2 31.0813 77.4652 25.9522 0.0000 0.0000 0.0000
# 3 30.7765 25.9522 51.9797 0.0000 0.0000 0.0000
# 4 0.0000 0.0000 0.0000 38.4813 0.0000 0.0000
# 5 0.0000 0.0000 0.0000 0.0000 33.8053 0.0000
# 6 0.0000 0.0000 0.0000 0.0000 0.0000 40.3023
#
#
#
# Elastic Compliance Matrix: (Units=1/GPa)
#
#
# Indices 1 2 3 4 5 6 
#
# 1 0.007624 -0.001857 -0.003587 0.000000 0.000000 0.000000
# 2 -0.001857 0.015954 -0.006866 0.000000 0.000000 0.000000
# 3 -0.003587 -0.006866 0.024790 0.000000 0.000000 0.000000
# 4 0.000000 0.000000 0.000000 0.025987 0.000000 0.000000
# 5 0.000000 0.000000 0.000000 0.000000 0.029581 0.000000
# 6 0.000000 0.000000 0.000000 0.000000 0.000000 0.024812
#
#
# Mechanical properties :
#
#
# Convention : Reuss Voigt Hill
#
# Bulk Modulus (GPa) = 42.10827 50.92039 46.51433
# Shear Modulus (GPa) = 31.00112 35.50802 33.25457
#
# Velocity S-wave (km/s) = 3.91194 4.18665 4.05162
# Velocity P-wave (km/s) = 6.41798 6.96468 6.69691
#
# Compressibility (1/GPa) = 0.02374830
#
# Stress axis : x y z
#
# Youngs Moduli (GPa) = 131.16775 62.67846 40.33899
#
# Poissons Ratio (x) = 0.11641 0.14468
# Poissons Ratio (y) = 0.24362 0.27697
# Poissons Ratio (z) = 0.47045 0.43035
#
# Static dielectric constant tensor:
#      x y z
#    x 3.901870 0.000000 0.000000 
#    y 0.000000 4.108240 0.000000 
#    z 0.000000 0.000000 3.475840 
# 
# 
# High freq. dielectric constant tensor:
#      x y z
#    x 1.810600 0.000000 0.000000 
#    y 0.000000 1.799460 0.000000 
#    z 0.000000 0.000000 1.772320 
# 
# From -- ./inp_files/2853.got.cif
#   From: 2010.06.25/outbox.cif.g09.slc.cpg/sg58_2_cif.got.tgz:2853.got - 2010.06.26 21:38:00.
