data_PCOD8236679
_publ_section_title
;
Structure prediction by ZEFSAII (Michael W. Deem and Ramdas Pophale) SiO2 
 PCOD8236679
Probable space group: P N N M
;
_chemical_formula_sum "Si O2"
_cell_formula_units_Z 56
_cell_length_a 18.963118
_cell_length_b 17.260958
_cell_length_c 9.234702
_cell_angle_alpha 90.000000
_cell_angle_beta 90.000000
_cell_angle_gamma 90.000000
_cell_volume 3022.717280
_symmetry_space_group_name_H-M "P N N M"
_symmetry_group_IT_number 58
_symmetry_cell_setting 'orthorhombic'
loop_
_space_group_symop_operation_xyz
x,y,z
-x,-y,z
1/2+x,1/2-y,1/2-z
1/2-x,1/2+y,1/2-z
-x,-y,-z
x,y,-z
1/2-x,1/2+y,1/2+z
1/2+x,1/2-y,1/2+z
loop_
_atom_site_type_symbol
_atom_site_label
_atom_site_fract_x
_atom_site_fract_y
_atom_site_fract_z
Si Si1 0.707225 0.677509 0.328796
Si Si2 0.965774 0.747494 0.331778
Si Si3 0.056704 0.107543 0.170358
Si Si4 0.403022 0.443757 0.329037
Si Si5 0.854733 0.617642 0.668024
Si Si6 0.898719 0.305027 0.170198
Si Si7 0.579540 0.981123 0.670496
O O1 0.707737 0.670354 0.500000
O O2 0.659062 0.608561 0.261468
O O3 0.786597 0.664558 0.270841
O O4 0.674904 0.762027 0.287247
O O5 0.977595 0.764242 0.500000
O O6 0.920167 0.817199 0.261260
O O7 0.923354 0.668963 0.305366
O O8 0.040201 0.740696 0.252447
O O9 0.978154 0.087059 0.224802
O O10 0.106873 0.034616 0.211848
O O11 0.060361 0.125806 0.000000
O O12 0.403226 0.435909 0.500000
O O13 0.844584 0.597167 0.500000
O O14 0.864849 0.537731 0.753351
O O15 0.897462 0.394641 0.217383
O O16 0.914601 0.297446 0.000000
O O17 0.585597 0.993479 0.500000
O O18 0.500000 0.000000 0.723309
#
# Coordination Sequence:
#
# PCOD8236679 Si02
#       7
#     8   8   8   8   8   8   8
#     4   9  17  34  57  77 101 141 185 217 260 324
#     4  11  21  32  49  78 111 140 173 216 266 320
#     4   9  16  29  52  79  99 127 174 222 260 301
#     4   8  14  27  53  79  96 125 176 222 253 302
#     4  10  22  37  54  76 108 146 178 215 268 331
#     4  10  19  35  61  82 101 139 186 227 263 313
#     4  10  20  35  58  86 107 131 179 232 274 315
#
# _framework density 18.526377
#
# number of rings (size 3 to 8) (size 9 to 14) (size 15 to 20)
#    0.000    2.429    2.857    1.286    0.000    1.429 
#    2.571    2.143    0.000    0.000    0.000    0.000 
#    0.000    0.000    0.000    0.000    0.000    0.000 
#
# Total GULP energy -694121.549685 kJ/mol
# GULP energy per Si atom -12395.027673 kJ/mol
# Density = 1.848421 g / cm^3
# Si number density = 18.526377 Si / 1000 Ang^3
#
#
#
# Elastic Constant Matrix: (Units=GPa)
#
#
# Indices 1 2 3 4 5 6 
#
# 1 84.7893 41.1764 17.4865 0.0000 0.0000 0.0000
# 2 41.1764 144.7277 41.4297 0.0000 0.0000 0.0000
# 3 17.4865 41.4297 39.3409 0.0000 0.0000 0.0000
# 4 0.0000 0.0000 0.0000 25.6888 0.0000 0.0000
# 5 0.0000 0.0000 0.0000 0.0000 16.0679 0.0000
# 6 0.0000 0.0000 0.0000 0.0000 0.0000 28.0603
#
#
#
# Elastic Compliance Matrix: (Units=1/GPa)
#
#
# Indices 1 2 3 4 5 6 
#
# 1 0.013910 -0.003132 -0.002885 0.000000 0.000000 0.000000
# 2 -0.003132 0.010596 -0.009767 0.000000 0.000000 0.000000
# 3 -0.002885 -0.009767 0.036987 0.000000 0.000000 0.000000
# 4 0.000000 0.000000 0.000000 0.038927 0.000000 0.000000
# 5 0.000000 0.000000 0.000000 0.000000 0.062236 0.000000
# 6 0.000000 0.000000 0.000000 0.000000 0.000000 0.035638
#
#
# Mechanical properties :
#
#
# Convention : Reuss Voigt Hill
#
# Bulk Modulus (GPa) = 33.41586 52.11592 42.76589
# Shear Modulus (GPa) = 20.84756 25.21441 23.03099
#
# Velocity S-wave (km/s) = 3.35817 3.69318 3.52965
# Velocity P-wave (km/s) = 5.75435 6.81012 6.30438
#
# Compressibility (1/GPa) = 0.02992591
#
# Stress axis : x y z
#
# Youngs Moduli (GPa) = 71.89224 94.37146 27.03673
#
# Poissons Ratio (x) = 0.29554 0.07799
# Poissons Ratio (y) = 0.22514 0.26407
# Poissons Ratio (z) = 0.20739 0.92173
#
# Static dielectric constant tensor:
#      x y z
#    x 3.450870 0.000000 0.000000 
#    y 0.000000 3.668920 0.000000 
#    z 0.000000 0.000000 3.029090 
# 
# 
# High freq. dielectric constant tensor:
#      x y z
#    x 1.697470 0.000000 0.000000 
#    y 0.000000 1.736230 0.000000 
#    z 0.000000 0.000000 1.681130 
# 
# From -- ./inp_files/9185.got.cif
#   From: 2010.06.25/outbox.cif.g09.slc.cpg/sg58_5_cif.got.tgz:9185.got - 2010.06.26 21:38:00.
