data_PCOD8236012
_publ_section_title
;
Structure prediction by ZEFSAII (Michael W. Deem and Ramdas Pophale) SiO2 
 PCOD8236012
Probable space group: P N N M
;
_chemical_formula_sum "Si O2"
_cell_formula_units_Z 56
_cell_length_a 14.072706
_cell_length_b 22.645049
_cell_length_c 9.240722
_cell_angle_alpha 90.000000
_cell_angle_beta 90.000000
_cell_angle_gamma 90.000000
_cell_volume 2944.806645
_symmetry_space_group_name_H-M "P N N M"
_symmetry_group_IT_number 58
_symmetry_cell_setting 'orthorhombic'
loop_
_space_group_symop_operation_xyz
x,y,z
-x,-y,z
1/2+x,1/2-y,1/2-z
1/2-x,1/2+y,1/2-z
-x,-y,-z
x,y,-z
1/2-x,1/2+y,1/2+z
1/2+x,1/2-y,1/2+z
loop_
_atom_site_type_symbol
_atom_site_label
_atom_site_fract_x
_atom_site_fract_y
_atom_site_fract_z
Si Si1 0.495141 0.733371 0.167508
Si Si2 0.090347 0.932918 0.663990
Si Si3 0.904131 0.528057 0.670817
Si Si4 0.292817 0.525706 0.665528
Si Si5 0.924713 0.873004 0.166616
Si Si6 0.306944 0.312714 0.838008
Si Si7 0.129567 0.340871 0.333296
O O1 0.423813 0.690335 0.254576
O O2 0.603808 0.725582 0.222380
O O3 0.464894 0.801284 0.188090
O O4 0.490674 0.713252 0.000000
O O5 0.057165 0.945974 0.500000
O O6 0.000395 0.916421 0.760397
O O7 0.167596 0.881412 0.666585
O O8 0.137875 0.990540 0.729681
O O9 0.917161 0.533949 0.500000
O O10 0.816544 0.485066 0.711796
O O11 0.888122 0.594212 0.734854
O O12 0.000000 0.500000 0.738771
O O13 0.307226 0.503810 0.500000
O O14 0.321253 0.595053 0.679095
O O15 0.952949 0.863282 0.000000
O O16 0.214739 0.304438 0.740015
O O17 0.281392 0.291918 0.000000
O O18 0.157471 0.347260 0.500000
#
# Coordination Sequence:
#
# PCOD8236012 Si02
#       7
#     8   8   8   8   8   8   8
#     4   9  20  37  53  78 110 142 182 223 266 324
#     4  10  19  31  51  78 107 142 176 211 263 324
#     4   9  18  34  56  81 106 136 177 226 272 318
#     4  10  19  32  51  79 108 137 178 221 263 317
#     4  10  20  32  49  78 112 142 172 219 269 316
#     4   9  18  33  52  76 106 138 174 219 266 317
#     4  10  19  35  60  81 102 140 184 223 265 320
#
# _framework density 19.016528000000001
#
# number of rings (size 3 to 8) (size 9 to 14) (size 15 to 20)
#    0.000    2.429    1.429    2.143    0.000    5.714 
#    2.571    0.000    0.000    1.714    0.000    0.000 
#    0.000    0.000    0.000    0.000    0.000    0.000 
#
# Total GULP energy -694202.715652 kJ/mol
# GULP energy per Si atom -12396.477065 kJ/mol
# Density = 1.897325 g / cm^3
# Si number density = 19.016528 Si / 1000 Ang^3
#
#
#
# Elastic Constant Matrix: (Units=GPa)
#
#
# Indices 1 2 3 4 5 6 
#
# 1 95.4642 56.0700 30.3918 0.0000 0.0000 0.0000
# 2 56.0700 66.0421 27.1076 0.0000 0.0000 0.0000
# 3 30.3918 27.1076 65.0436 0.0000 0.0000 0.0000
# 4 0.0000 0.0000 0.0000 20.8581 0.0000 0.0000
# 5 0.0000 0.0000 0.0000 0.0000 20.7679 0.0000
# 6 0.0000 0.0000 0.0000 0.0000 0.0000 26.6472
#
#
#
# Elastic Compliance Matrix: (Units=1/GPa)
#
#
# Indices 1 2 3 4 5 6 
#
# 1 0.021344 -0.016923 -0.002920 0.000000 0.000000 0.000000
# 2 -0.016923 0.031684 -0.005297 0.000000 0.000000 0.000000
# 3 -0.002920 -0.005297 0.018947 0.000000 0.000000 0.000000
# 4 0.000000 0.000000 0.000000 0.047943 0.000000 0.000000
# 5 0.000000 0.000000 0.000000 0.000000 0.048151 0.000000
# 6 0.000000 0.000000 0.000000 0.000000 0.000000 0.037527
#
#
# Mechanical properties :
#
#
# Convention : Reuss Voigt Hill
#
# Bulk Modulus (GPa) = 46.09652 50.40984 48.25318
# Shear Modulus (GPa) = 19.00362 21.18668 20.09515
#
# Velocity S-wave (km/s) = 3.16463 3.34146 3.25425
# Velocity P-wave (km/s) = 6.13564 6.43841 6.28885
#
# Compressibility (1/GPa) = 0.02169361
#
# Stress axis : x y z
#
# Youngs Moduli (GPa) = 46.85113 31.56215 52.77985
#
# Poissons Ratio (x) = 0.53411 0.15414
# Poissons Ratio (y) = 0.79284 0.27959
# Poissons Ratio (z) = 0.13683 0.16719
#
# Static dielectric constant tensor:
#      x y z
#    x 3.485250 0.000000 0.000000 
#    y 0.000000 3.439080 0.000000 
#    z 0.000000 0.000000 3.363980 
# 
# 
# High freq. dielectric constant tensor:
#      x y z
#    x 1.731280 0.000000 0.000000 
#    y 0.000000 1.729660 0.000000 
#    z 0.000000 0.000000 1.720890 
# 
# From -- ./inp_files/6377.got.cif
#   From: 2010.06.25/outbox.cif.g09.slc.cpg/sg58_4_cif.got.tgz:6377.got - 2010.06.26 21:38:00.
