data_PCOD8236835
_publ_section_title
;
Structure prediction by ZEFSAII (Michael W. Deem and Ramdas Pophale) SiO2 
 PCOD8236835
Probable space group: P N N M
;
_chemical_formula_sum "Si O2"
_cell_formula_units_Z 32
_cell_length_a 5.239619
_cell_length_b 8.075989
_cell_length_c 34.798538
_cell_angle_alpha 90.000000
_cell_angle_beta 90.000000
_cell_angle_gamma 90.000000
_cell_volume 1472.503804
_symmetry_space_group_name_H-M "P N N M"
_symmetry_group_IT_number 58
_symmetry_cell_setting 'orthorhombic'
loop_
_space_group_symop_operation_xyz
x,y,z
-x,-y,z
1/2+x,1/2-y,1/2-z
1/2-x,1/2+y,1/2-z
-x,-y,-z
x,y,-z
1/2-x,1/2+y,1/2+z
1/2+x,1/2-y,1/2+z
loop_
_atom_site_type_symbol
_atom_site_label
_atom_site_fract_x
_atom_site_fract_y
_atom_site_fract_z
Si Si1 0.751676 0.392133 0.956556
Si Si2 0.122325 0.166518 0.237417
Si Si3 0.762499 0.827353 0.149337
Si Si4 0.240040 0.307082 0.383346
O O1 0.500000 0.500000 0.950660
O O2 0.732884 0.233350 0.928609
O O3 0.000000 0.500000 0.946476
O O4 0.769079 0.323635 0.000000
O O5 0.383791 0.205144 0.260690
O O6 0.215594 0.135056 0.194190
O O7 0.000000 0.000000 0.255168
O O8 0.504093 0.728356 0.138997
O O9 0.007069 0.723384 0.135074
O O10 0.750292 0.996962 0.124663
#
# Coordination Sequence:
#
# PCOD8236835 Si02
#       4
#     8   8   8   8
#     4  10  21  38  59  91 131 166 203 255 313 379
#     4  12  25  44  70  94 130 174 216 277 348 398
#     4  10  21  39  64  83 119 155 208 261 310 373
#     4  10  19  37  65  86 116 168 202 250 318 367
#
# _framework density 21.731691000000001
#
# number of rings (size 3 to 8) (size 9 to 14) (size 15 to 20)
#    0.000    1.500    2.500    3.750    3.500    0.000 
#    0.000   17.500    0.000    0.000    0.000    0.000 
#    0.000    0.000    0.000    0.000    0.000    0.000 
#
# Total GULP energy -396479.137459 kJ/mol
# GULP energy per Si atom -12389.973046 kJ/mol
# Density = 2.168223 g / cm^3
# Si number density = 21.731691 Si / 1000 Ang^3
#
#
#
# Elastic Constant Matrix: (Units=GPa)
#
#
# Indices 1 2 3 4 5 6 
#
# 1 228.2918 22.5331 55.3741 0.0000 0.0000 0.0000
# 2 22.5331 54.0921 58.2998 0.0000 0.0000 0.0000
# 3 55.3741 58.2998 134.0395 0.0000 0.0000 0.0000
# 4 0.0000 0.0000 0.0000 15.9834 0.0000 0.0000
# 5 0.0000 0.0000 0.0000 0.0000 52.3548 0.0000
# 6 0.0000 0.0000 0.0000 0.0000 0.0000 18.4106
#
#
#
# Elastic Compliance Matrix: (Units=1/GPa)
#
#
# Indices 1 2 3 4 5 6 
#
# 1 0.004870 0.000263 -0.002126 0.000000 0.000000 0.000000
# 2 0.000263 0.034815 -0.015251 0.000000 0.000000 0.000000
# 3 -0.002126 -0.015251 0.014972 0.000000 0.000000 0.000000
# 4 0.000000 0.000000 0.000000 0.062565 0.000000 0.000000
# 5 0.000000 0.000000 0.000000 0.000000 0.019100 0.000000
# 6 0.000000 0.000000 0.000000 0.000000 0.000000 0.054317
#
#
# Mechanical properties :
#
#
# Convention : Reuss Voigt Hill
#
# Bulk Modulus (GPa) = 48.95153 76.53749 62.74451
# Shear Modulus (GPa) = 21.58163 36.03084 28.80623
#
# Velocity S-wave (km/s) = 3.15476 4.07625 3.64475
# Velocity P-wave (km/s) = 5.98701 7.57959 6.82988
#
# Compressibility (1/GPa) = 0.02042837
#
# Stress axis : x y z
#
# Youngs Moduli (GPa) = 205.33194 28.72313 66.78957
#
# Poissons Ratio (x) = -0.00755 0.14202
# Poissons Ratio (y) = -0.05400 1.01863
# Poissons Ratio (z) = 0.43660 0.43807
#
# Static dielectric constant tensor:
#      x y z
#    x 6.376370 0.000000 0.000000 
#    y 0.000000 3.401430 0.000000 
#    z 0.000000 0.000000 3.849500 
# 
# 
# High freq. dielectric constant tensor:
#      x y z
#    x 1.905470 0.000000 0.000000 
#    y 0.000000 1.800320 0.000000 
#    z 0.000000 0.000000 1.848090 
# 
# From -- ./inp_files/33938.got.cif
#   From: 2010.06.25/outbox.cif.g09.slc.cpg/sg58_17_cif.got.tgz:33938.got - 2010.06.26 21:38:00.
