data_PCOD8236609
_publ_section_title
;
Structure prediction by ZEFSAII (Michael W. Deem and Ramdas Pophale) SiO2 
 PCOD8236609
Probable space group: P N N M
;
_chemical_formula_sum "Si O2"
_cell_formula_units_Z 64
_cell_length_a 25.828360
_cell_length_b 14.628580
_cell_length_c 9.316077
_cell_angle_alpha 90.000000
_cell_angle_beta 90.000000
_cell_angle_gamma 90.000000
_cell_volume 3519.914153
_symmetry_space_group_name_H-M "P N N M"
_symmetry_group_IT_number 58
_symmetry_cell_setting 'orthorhombic'
loop_
_space_group_symop_operation_xyz
x,y,z
-x,-y,z
1/2+x,1/2-y,1/2-z
1/2-x,1/2+y,1/2-z
-x,-y,-z
x,y,-z
1/2-x,1/2+y,1/2+z
1/2+x,1/2-y,1/2+z
loop_
_atom_site_type_symbol
_atom_site_label
_atom_site_fract_x
_atom_site_fract_y
_atom_site_fract_z
Si Si1 0.896319 0.176046 0.670143
Si Si2 0.390095 0.648423 0.667619
Si Si3 0.359284 0.129393 0.166742
Si Si4 0.443644 0.977746 0.165882
Si Si5 0.670217 0.505084 0.831087
Si Si6 0.127170 0.354882 0.835622
Si Si7 0.210712 0.500374 0.166703
Si Si8 0.993097 0.892652 0.332969
O O1 0.896026 0.179476 0.500000
O O2 0.874140 0.271439 0.730928
O O3 0.859509 0.094802 0.724537
O O4 0.955082 0.158522 0.721421
O O5 0.394862 0.624007 0.500000
O O6 0.351006 0.580658 0.744983
O O7 0.364895 0.747871 0.691420
O O8 0.446650 0.645144 0.737506
O O9 0.309600 0.089125 0.248423
O O10 0.408463 0.065612 0.193934
O O11 0.344557 0.135581 0.000000
O O12 0.421705 0.889125 0.245099
O O13 0.500000 0.000000 0.228834
O O14 0.447236 0.951318 0.000000
O O15 0.730130 0.518340 0.792970
O O16 0.660706 0.488823 0.000000
O O17 0.179016 0.409290 0.788537
O O18 0.114159 0.375680 0.000000
O O19 0.204141 0.522490 0.000000
O O20 0.981392 0.872494 0.500000
O O21 0.000000 0.000000 0.307828
#
# Coordination Sequence:
#
# PCOD8236609 Si02
#       8
#     8   8   8   8   8   8   8   8
#     4   9  18  33  55  81 104 136 181 218 257 316
#     4  11  23  36  53  82 114 142 176 219 272 321
#     4   9  18  33  53  78 108 137 171 218 269 316
#     4   9  18  31  50  78 107 136 176 223 263 303
#     4  10  20  37  58  78 101 138 185 225 264 314
#     4   9  20  37  53  75 108 144 177 211 264 326
#     4   9  19  37  58  76 102 139 180 224 265 315
#     4  10  19  35  58  79 105 143 184 219 258 313
#
# _framework density 18.182261
#
# number of rings (size 3 to 8) (size 9 to 14) (size 15 to 20)
#    0.000    2.500    1.250    0.375    1.750    3.000 
#    0.000    3.750    0.000    0.000    0.000    0.000 
#    0.000    0.000    0.000    0.000    0.000    0.000 
#
# Total GULP energy -793683.389001 kJ/mol
# GULP energy per Si atom -12401.302953 kJ/mol
# Density = 1.814088 g / cm^3
# Si number density = 18.182261 Si / 1000 Ang^3
#
#
#
# Elastic Constant Matrix: (Units=GPa)
#
#
# Indices 1 2 3 4 5 6 
#
# 1 131.4495 52.0117 47.9242 0.0000 0.0000 0.0000
# 2 52.0117 117.4379 44.6229 0.0000 0.0000 0.0000
# 3 47.9242 44.6229 54.1086 0.0000 0.0000 0.0000
# 4 0.0000 0.0000 0.0000 795.1341 0.0000 0.0000
# 5 0.0000 0.0000 0.0000 0.0000 28.3934 0.0000
# 6 0.0000 0.0000 0.0000 0.0000 0.0000 15.0241
#
#
#
# Elastic Compliance Matrix: (Units=1/GPa)
#
#
# Indices 1 2 3 4 5 6 
#
# 1 0.011485 -0.001779 -0.008706 0.000000 0.000000 0.000000
# 2 -0.001779 0.012677 -0.008879 0.000000 0.000000 0.000000
# 3 -0.008706 -0.008879 0.033514 0.000000 0.000000 0.000000
# 4 0.000000 0.000000 0.000000 0.001258 0.000000 0.000000
# 5 0.000000 0.000000 0.000000 0.000000 0.035219 0.000000
# 6 0.000000 0.000000 0.000000 0.000000 0.000000 0.066560
#
#
# Mechanical properties :
#
#
# Convention : Reuss Voigt Hill
#
# Bulk Modulus (GPa) = 52.77131 65.79040 59.28085
# Shear Modulus (GPa) = 24.30071 178.27281 101.28676
#
# Velocity S-wave (km/s) = 3.65979 9.91264 7.47177
# Velocity P-wave (km/s) = 6.85166 12.93354 10.34944
#
# Compressibility (1/GPa) = 0.01894969
#
# Stress axis : x y z
#
# Youngs Moduli (GPa) = 87.06859 78.88536 29.83819
#
# Poissons Ratio (x) = 0.14032 0.25976
# Poissons Ratio (y) = 0.15488 0.26493
# Poissons Ratio (z) = 0.75798 0.70041
#
# Static dielectric constant tensor:
#      x y z
#    x 3.475930 0.000000 0.000000 
#    y 0.000000 3.507310 0.000000 
#    z 0.000000 0.000000 3.229370 
# 
# 
# High freq. dielectric constant tensor:
#      x y z
#    x 1.709740 0.000000 0.000000 
#    y 0.000000 1.709930 0.000000 
#    z 0.000000 0.000000 1.685070 
# 
# From -- ./inp_files/10061.got.cif
#   From: 2010.06.25/outbox.cif.g09.slc.cpg/sg58_6_cif.got.tgz:10061.got - 2010.06.26 21:38:00.
