data_PCOD8236855
_publ_section_title
;
Structure prediction by ZEFSAII (Michael W. Deem and Ramdas Pophale) SiO2 
 PCOD8236855
Probable space group: P N N M
;
_chemical_formula_sum "Si O2"
_cell_formula_units_Z 64
_cell_length_a 14.750775
_cell_length_b 12.455186
_cell_length_c 16.118635
_cell_angle_alpha 90.000000
_cell_angle_beta 90.000000
_cell_angle_gamma 90.000000
_cell_volume 2961.374395
_symmetry_space_group_name_H-M "P N N M"
_symmetry_group_IT_number 58
_symmetry_cell_setting 'orthorhombic'
loop_
_space_group_symop_operation_xyz
x,y,z
-x,-y,z
1/2+x,1/2-y,1/2-z
1/2-x,1/2+y,1/2-z
-x,-y,-z
x,y,-z
1/2-x,1/2+y,1/2+z
1/2+x,1/2-y,1/2+z
loop_
_atom_site_type_symbol
_atom_site_label
_atom_site_fract_x
_atom_site_fract_y
_atom_site_fract_z
Si Si1 0.812920 0.615111 0.839468
Si Si2 0.496814 0.167235 0.595149
Si Si3 0.943224 0.099834 0.905454
Si Si4 0.348297 0.767836 0.092051
Si Si5 0.481768 0.119838 0.901687
Si Si6 0.277865 0.167669 0.902151
Si Si7 0.740572 0.558866 0.660472
Si Si8 0.798464 0.391708 0.904229
O O1 0.921889 0.618277 0.850632
O O2 0.765980 0.722920 0.870679
O O3 0.789658 0.590959 0.745156
O O4 0.773265 0.516081 0.893018
O O5 0.507903 0.126792 0.500000
O O6 0.505720 0.295444 0.599566
O O7 0.398965 0.131790 0.632980
O O8 0.858705 0.111360 0.843547
O O9 0.909060 0.081291 0.000000
O O10 0.000000 0.000000 0.873112
O O11 0.446221 0.791723 0.135024
O O12 0.299970 0.884813 0.088668
O O13 0.281638 0.681447 0.138394
O O14 0.365050 0.723437 0.000000
O O15 0.383479 0.164233 0.877973
O O16 0.500000 0.000000 0.864821
O O17 0.496567 0.114841 0.000000
O O18 0.231476 0.068040 0.855016
O O19 0.261510 0.157015 0.000000
O O20 0.803180 0.357352 0.000000
#
# Coordination Sequence:
#
# PCOD8236855 Si02
#       8
#     8   8   8   8   8   8   8   8
#     4  12  27  41  59  96 139 167 210 271 343 397
#     4  10  20  40  68  93 122 168 226 277 322 393
#     4  10  20  38  66  98 129 171 229 281 328 392
#     4  10  19  38  65  91 120 162 217 268 314 387
#     4   9  17  34  61  93 119 153 217 273 312 372
#     4  11  23  43  69  93 126 175 227 272 317 391
#     4  12  24  39  61  95 137 171 207 268 346 399
#     4  10  21  41  68  89 121 172 225 272 326 403
#
# _framework density 21.611587
#
# number of rings (size 3 to 8) (size 9 to 14) (size 15 to 20)
#    0.000    1.500    2.500    3.375    1.750    2.000 
#    6.750    0.625    0.000    3.000    0.000    0.000 
#    0.000    0.000    0.000    0.000    0.000    0.000 
#
# Total GULP energy -793253.561238 kJ/mol
# GULP energy per Si atom -12394.586894 kJ/mol
# Density = 2.156240 g / cm^3
# Si number density = 21.611587 Si / 1000 Ang^3
#
#
#
# Elastic Constant Matrix: (Units=GPa)
#
#
# Indices 1 2 3 4 5 6 
#
# 1 120.3008 42.3270 31.3190 0.0000 0.0000 0.0000
# 2 42.3270 135.3302 17.9788 0.0000 0.0000 0.0000
# 3 31.3190 17.9788 60.3883 0.0000 0.0000 0.0000
# 4 0.0000 0.0000 0.0000 18.2787 0.0000 0.0000
# 5 0.0000 0.0000 0.0000 0.0000 23.2528 0.0000
# 6 0.0000 0.0000 0.0000 0.0000 0.0000 33.5135
#
#
#
# Elastic Compliance Matrix: (Units=1/GPa)
#
#
# Indices 1 2 3 4 5 6 
#
# 1 0.010452 -0.002654 -0.004630 0.000000 0.000000 0.000000
# 2 -0.002654 0.008367 -0.001115 0.000000 0.000000 0.000000
# 3 -0.004630 -0.001115 0.019293 0.000000 0.000000 0.000000
# 4 0.000000 0.000000 0.000000 0.054708 0.000000 0.000000
# 5 0.000000 0.000000 0.000000 0.000000 0.043006 0.000000
# 6 0.000000 0.000000 0.000000 0.000000 0.000000 0.029839
#
#
# Mechanical properties :
#
#
# Convention : Reuss Voigt Hill
#
# Bulk Modulus (GPa) = 46.91775 55.47434 51.19604
# Shear Modulus (GPa) = 26.37581 29.96862 28.17222
#
# Velocity S-wave (km/s) = 3.49728 3.72787 3.61442
# Velocity P-wave (km/s) = 6.16965 6.65236 6.41555
#
# Compressibility (1/GPa) = 0.02131389
#
# Stress axis : x y z
#
# Youngs Moduli (GPa) = 95.67816 119.51045 51.83256
#
# Poissons Ratio (x) = 0.31716 0.24001
# Poissons Ratio (y) = 0.25391 0.05778
# Poissons Ratio (z) = 0.44303 0.13323
#
# Static dielectric constant tensor:
#      x y z
#    x 4.187580 0.000000 0.000000 
#    y 0.000000 3.982090 0.000000 
#    z 0.000000 0.000000 3.495520 
# 
# 
# High freq. dielectric constant tensor:
#      x y z
#    x 1.857960 0.000000 0.000000 
#    y 0.000000 1.855030 0.000000 
#    z 0.000000 0.000000 1.807330 
# 
# From -- ./inp_files/27004.got.cif
#   From: 2010.06.25/outbox.cif.g09.slc.cpg/sg58_14_cif.got.tgz:27004.got - 2010.06.26 21:38:00.
