data_PCOD8236015
_publ_section_title
;
Structure prediction by ZEFSAII (Michael W. Deem and Ramdas Pophale) SiO2 
 PCOD8236015
Probable space group: P N N M
;
_chemical_formula_sum "Si O2"
_cell_formula_units_Z 64
_cell_length_a 19.258222
_cell_length_b 20.623874
_cell_length_c 9.125488
_cell_angle_alpha 90.000000
_cell_angle_beta 90.000000
_cell_angle_gamma 90.000000
_cell_volume 3624.453512
_symmetry_space_group_name_H-M "P N N M"
_symmetry_group_IT_number 58
_symmetry_cell_setting 'orthorhombic'
loop_
_space_group_symop_operation_xyz
x,y,z
-x,-y,z
1/2+x,1/2-y,1/2-z
1/2-x,1/2+y,1/2-z
-x,-y,-z
x,y,-z
1/2-x,1/2+y,1/2+z
1/2+x,1/2-y,1/2+z
loop_
_atom_site_type_symbol
_atom_site_label
_atom_site_fract_x
_atom_site_fract_y
_atom_site_fract_z
Si Si1 0.963528 0.190078 0.825370
Si Si2 0.179821 0.504339 0.832547
Si Si3 0.036834 0.566063 0.833124
Si Si4 0.321975 0.364767 0.671891
Si Si5 0.830724 0.628316 0.671083
Si Si6 0.815110 0.988202 0.172085
Si Si7 0.974678 0.685675 0.328832
Si Si8 0.960321 0.937949 0.826938
O O1 0.884006 0.180590 0.766356
O O2 0.996011 0.253440 0.756349
O O3 0.008003 0.128864 0.767103
O O4 0.967046 0.197014 0.000000
O O5 0.119447 0.557497 0.820383
O O6 0.155282 0.437885 0.757096
O O7 0.246833 0.536266 0.755921
O O8 0.197343 0.488055 0.000000
O O9 0.000000 0.500000 0.783793
O O10 0.014664 0.622020 0.723237
O O11 0.015212 0.583806 0.000000
O O12 0.331550 0.363372 0.500000
O O13 0.244314 0.340857 0.717506
O O14 0.332391 0.438707 0.724850
O O15 0.829032 0.609886 0.500000
O O16 0.892251 0.678821 0.705677
O O17 0.879058 0.941772 0.215092
O O18 0.799644 0.986509 0.000000
O O19 0.988147 0.694913 0.500000
O O20 0.970738 0.940145 0.000000
O O21 0.000000 0.000000 0.758161
#
# Coordination Sequence:
#
# PCOD8236015 Si02
#       8
#     8   8   8   8   8   8   8   8
#     4  10  19  33  55  79 105 139 181 220 255 302
#     4  10  19  31  51  79 107 133 168 215 266 313
#     4  10  20  36  56  77 102 133 173 218 259 308
#     4   8  14  28  52  77  98 129 174 216 251 300
#     4   9  18  33  53  76 101 133 173 213 260 314
#     4   9  16  29  51  79 110 136 170 217 261 308
#     4  11  23  36  52  77 110 142 173 214 266 321
#     4   9  15  28  54  83 104 133 180 221 252 301
#
# _framework density 17.657833
#
# number of rings (size 3 to 8) (size 9 to 14) (size 15 to 20)
#    0.000    2.500    2.500    1.500    0.000    1.750 
#    0.000    4.375    0.000    5.250    0.000    0.000 
#    0.000    0.000    0.000    0.000    0.000    0.000 
#
# Total GULP energy -793316.743950 kJ/mol
# GULP energy per Si atom -12395.574124 kJ/mol
# Density = 1.761764 g / cm^3
# Si number density = 17.657833 Si / 1000 Ang^3
#
#
#
# Elastic Constant Matrix: (Units=GPa)
#
#
# Indices 1 2 3 4 5 6 
#
# 1 147.9638 64.5715 45.3124 0.0000 0.0000 0.0000
# 2 64.5715 93.2905 30.7253 0.0000 0.0000 0.0000
# 3 45.3124 30.7253 50.5423 0.0000 0.0000 0.0000
# 4 0.0000 0.0000 0.0000 17.2297 0.0000 0.0000
# 5 0.0000 0.0000 0.0000 0.0000 22.2881 0.0000
# 6 0.0000 0.0000 0.0000 0.0000 0.0000 27.0886
#
#
#
# Elastic Compliance Matrix: (Units=1/GPa)
#
#
# Indices 1 2 3 4 5 6 
#
# 1 0.011240 -0.005578 -0.006686 0.000000 0.000000 0.000000
# 2 -0.005578 0.016171 -0.004830 0.000000 0.000000 0.000000
# 3 -0.006686 -0.004830 0.028716 0.000000 0.000000 0.000000
# 4 0.000000 0.000000 0.000000 0.058039 0.000000 0.000000
# 5 0.000000 0.000000 0.000000 0.000000 0.044867 0.000000
# 6 0.000000 0.000000 0.000000 0.000000 0.000000 0.036916
#
#
# Mechanical properties :
#
#
# Convention : Reuss Voigt Hill
#
# Bulk Modulus (GPa) = 45.58069 63.66831 54.62450
# Shear Modulus (GPa) = 21.05713 23.40044 22.22879
#
# Velocity S-wave (km/s) = 3.45702 3.64430 3.55189
# Velocity P-wave (km/s) = 6.46560 7.33777 6.91545
#
# Compressibility (1/GPa) = 0.02193912
#
# Stress axis : x y z
#
# Youngs Moduli (GPa) = 88.96656 61.84076 34.82402
#
# Poissons Ratio (x) = 0.34494 0.23284
# Poissons Ratio (y) = 0.49624 0.16819
# Poissons Ratio (z) = 0.59485 0.29867
#
# Static dielectric constant tensor:
#      x y z
#    x 3.711550 0.000000 0.000000 
#    y 0.000000 3.082010 0.000000 
#    z 0.000000 0.000000 3.043550 
# 
# 
# High freq. dielectric constant tensor:
#      x y z
#    x 1.704380 0.000000 0.000000 
#    y 0.000000 1.651210 0.000000 
#    z 0.000000 0.000000 1.656530 
# 
# From -- ./inp_files/9271.got.cif
#   From: 2010.06.25/outbox.cif.g09.slc.cpg/sg58_5_cif.got.tgz:9271.got - 2010.06.26 21:38:00.
