data_PCOD8236920
_publ_section_title
;
Structure prediction by ZEFSAII (Michael W. Deem and Ramdas Pophale) SiO2 
 PCOD8236920
Probable space group: P N N M
;
_chemical_formula_sum "Si O2"
_cell_formula_units_Z 48
_cell_length_a 19.188085
_cell_length_b 15.510603
_cell_length_c 9.183542
_cell_angle_alpha 90.000000
_cell_angle_beta 90.000000
_cell_angle_gamma 90.000000
_cell_volume 2733.194463
_symmetry_space_group_name_H-M "P N N M"
_symmetry_group_IT_number 58
_symmetry_cell_setting 'orthorhombic'
loop_
_space_group_symop_operation_xyz
x,y,z
-x,-y,z
1/2+x,1/2-y,1/2-z
1/2-x,1/2+y,1/2-z
-x,-y,-z
x,y,-z
1/2-x,1/2+y,1/2+z
1/2+x,1/2-y,1/2+z
loop_
_atom_site_type_symbol
_atom_site_label
_atom_site_fract_x
_atom_site_fract_y
_atom_site_fract_z
Si Si1 0.297143 0.582557 0.829660
Si Si2 0.039429 0.252105 0.835676
Si Si3 0.705106 0.254066 0.339500
Si Si4 0.304956 0.933977 0.327496
Si Si5 0.051332 0.420567 0.331086
Si Si6 0.456717 0.583556 0.828711
O O1 0.266765 0.671931 0.766465
O O2 0.250244 0.504315 0.772027
O O3 0.376782 0.566801 0.781716
O O4 0.290771 0.590524 0.000000
O O5 0.122143 0.249030 0.838141
O O6 0.016727 0.337532 0.747526
O O7 0.011566 0.166233 0.754932
O O8 0.009171 0.255725 0.000000
O O9 0.733361 0.276042 0.500000
O O10 0.730026 0.158915 0.290425
O O11 0.320883 0.939885 0.500000
O O12 0.376069 0.948176 0.241008
O O13 0.063712 0.397692 0.500000
O O14 0.000000 0.500000 0.311034
O O15 0.500000 0.500000 0.781032
O O16 0.463071 0.601590 0.000000
#
# Coordination Sequence:
#
# PCOD8236920 Si02
#       6
#     8   8   8   8   8   8
#     4   9  17  30  48  69  93 123 158 193 229 273
#     4   9  17  30  49  70  94 126 160 194 232 279
#     4   8  15  28  45  65  89 120 156 190 227 273
#     4   9  18  32  49  69  94 124 157 192 233 280
#     4  10  20  33  50  72  95 120 154 195 238 286
#     4   9  17  30  49  72  99 130 161 195 235 277
#
# _framework density 17.561868
#
# number of rings (size 3 to 8) (size 9 to 14) (size 15 to 20)
#    0.000    3.000    0.000    2.000    0.000    6.333 
#    0.000    1.667    0.000    4.000    0.000    0.000 
#    0.000    0.000    0.000    0.000    0.000    0.000 
#
# Total GULP energy -595035.591211 kJ/mol
# GULP energy per Si atom -12396.574817 kJ/mol
# Density = 1.752190 g / cm^3
# Si number density = 17.561868 Si / 1000 Ang^3
#
#
#
# Elastic Constant Matrix: (Units=GPa)
#
#
# Indices 1 2 3 4 5 6 
#
# 1 47.8239 53.0140 33.3758 0.0000 0.0000 0.0000
# 2 53.0140 168.6257 65.0229 0.0000 0.0000 0.0000
# 3 33.3758 65.0229 74.7379 0.0000 0.0000 0.0000
# 4 0.0000 0.0000 0.0000 34.8691 0.0000 0.0000
# 5 0.0000 0.0000 0.0000 0.0000 14.8935 0.0000
# 6 0.0000 0.0000 0.0000 0.0000 0.0000 29.5449
#
#
#
# Elastic Compliance Matrix: (Units=1/GPa)
#
#
# Indices 1 2 3 4 5 6 
#
# 1 0.035986 -0.007700 -0.009371 0.000000 0.000000 0.000000
# 2 -0.007700 0.010572 -0.005759 0.000000 0.000000 0.000000
# 3 -0.009371 -0.005759 0.022575 0.000000 0.000000 0.000000
# 4 0.000000 0.000000 0.000000 0.028679 0.000000 0.000000
# 5 0.000000 0.000000 0.000000 0.000000 0.067143 0.000000
# 6 0.000000 0.000000 0.000000 0.000000 0.000000 0.033847
#
#
# Mechanical properties :
#
#
# Convention : Reuss Voigt Hill
#
# Bulk Modulus (GPa) = 42.60275 66.00145 54.30210
# Shear Modulus (GPa) = 19.81878 25.17982 22.49930
#
# Velocity S-wave (km/s) = 3.36298 3.79063 3.58319
# Velocity P-wave (km/s) = 6.27621 7.53806 6.93589
#
# Compressibility (1/GPa) = 0.02347266
#
# Stress axis : x y z
#
# Youngs Moduli (GPa) = 27.78883 94.59155 44.29600
#
# Poissons Ratio (x) = 0.72835 0.41510
# Poissons Ratio (y) = 0.21397 0.25510
# Poissons Ratio (z) = 0.26041 0.54475
#
# Static dielectric constant tensor:
#      x y z
#    x 2.944130 0.000000 0.000000 
#    y 0.000000 3.691470 0.000000 
#    z 0.000000 0.000000 3.362900 
# 
# 
# High freq. dielectric constant tensor:
#      x y z
#    x 1.633010 0.000000 0.000000 
#    y 0.000000 1.696480 0.000000 
#    z 0.000000 0.000000 1.680150 
# 
# From -- ./inp_files/6034.got.cif
#   From: 2010.06.25/outbox.cif.g09.slc.cpg/sg58_4_cif.got.tgz:6034.got - 2010.06.26 21:38:00.
