data_PCOD8236954
_publ_section_title
;
Structure prediction by ZEFSAII (Michael W. Deem and Ramdas Pophale) SiO2 
 PCOD8236954
Probable space group: P N N M
;
_chemical_formula_sum "Si O2"
_cell_formula_units_Z 56
_cell_length_a 19.035202
_cell_length_b 18.386301
_cell_length_c 8.468105
_cell_angle_alpha 90.000000
_cell_angle_beta 90.000000
_cell_angle_gamma 90.000000
_cell_volume 2963.726271
_symmetry_space_group_name_H-M "P N N M"
_symmetry_group_IT_number 58
_symmetry_cell_setting 'orthorhombic'
loop_
_space_group_symop_operation_xyz
x,y,z
-x,-y,z
1/2+x,1/2-y,1/2-z
1/2-x,1/2+y,1/2-z
-x,-y,-z
x,y,-z
1/2-x,1/2+y,1/2+z
1/2+x,1/2-y,1/2+z
loop_
_atom_site_type_symbol
_atom_site_label
_atom_site_fract_x
_atom_site_fract_y
_atom_site_fract_z
Si Si1 0.118294 0.309360 0.316023
Si Si2 0.249857 0.359929 0.819448
Si Si3 0.043256 0.173644 0.183116
Si Si4 0.404422 0.381737 0.181059
Si Si5 0.134345 0.037172 0.188676
Si Si6 0.783198 0.491363 0.679975
Si Si7 0.928095 0.531980 0.688701
O O1 0.134173 0.311208 0.500000
O O2 0.193111 0.297262 0.224286
O O3 0.065629 0.244447 0.278523
O O4 0.081589 0.384386 0.257805
O O5 0.331248 0.337067 0.796519
O O6 0.234161 0.423465 0.695043
O O7 0.238962 0.386184 0.000000
O O8 0.088401 0.105108 0.244343
O O9 0.961477 0.158628 0.212295
O O10 0.056931 0.187528 0.000000
O O11 0.397242 0.465463 0.232034
O O12 0.429094 0.379714 0.000000
O O13 0.215254 0.050863 0.251465
O O14 0.132686 0.026473 0.000000
O O15 0.788500 0.468013 0.500000
O O16 0.861880 0.482382 0.753746
O O17 0.929723 0.527865 0.500000
O O18 0.000000 0.500000 0.761621
#
# Coordination Sequence:
#
# PCOD8236954 Si02
#       7
#     8   8   8   8   8   8   8
#     4  10  20  34  52  73  99 133 171 209 254 307
#     4   9  17  31  51  72  94 122 159 201 245 297
#     4  11  22  34  49  71 104 140 171 209 256 306
#     4  10  20  33  52  77 101 129 169 214 256 302
#     4   9  18  32  49  71  99 134 173 208 249 302
#     4   8  14  27  48  71  94 121 156 197 241 292
#     4   8  14  27  50  76  96 119 158 208 254 295
#
# _framework density 18.895130999999999
#
# number of rings (size 3 to 8) (size 9 to 14) (size 15 to 20)
#    0.000    2.714    0.000    3.000    0.000    4.571 
#    0.000    1.429    0.000   15.857    0.000    0.000 
#    0.000    0.000    0.000    0.000    0.000    0.000 
#
# Total GULP energy -693752.771140 kJ/mol
# GULP energy per Si atom -12388.442342 kJ/mol
# Density = 1.885213 g / cm^3
# Si number density = 18.895131 Si / 1000 Ang^3
#
#
#
# Elastic Constant Matrix: (Units=GPa)
#
#
# Indices 1 2 3 4 5 6 
#
# 1 170.8122 55.4301 21.4915 0.0000 0.0000 0.0000
# 2 55.4301 67.2876 16.2588 0.0000 0.0000 0.0000
# 3 21.4915 16.2588 34.7054 0.0000 0.0000 0.0000
# 4 0.0000 0.0000 0.0000 21.2714 0.0000 0.0000
# 5 0.0000 0.0000 0.0000 0.0000 24.7954 0.0000
# 6 0.0000 0.0000 0.0000 0.0000 0.0000 21.8133
#
#
#
# Elastic Compliance Matrix: (Units=1/GPa)
#
#
# Indices 1 2 3 4 5 6 
#
# 1 0.008129 -0.006180 -0.002139 0.000000 0.000000 0.000000
# 2 -0.006180 0.021456 -0.006225 0.000000 0.000000 0.000000
# 3 -0.002139 -0.006225 0.033055 0.000000 0.000000 0.000000
# 4 0.000000 0.000000 0.000000 0.047012 0.000000 0.000000
# 5 0.000000 0.000000 0.000000 0.000000 0.040330 0.000000
# 6 0.000000 0.000000 0.000000 0.000000 0.000000 0.045844
#
#
# Mechanical properties :
#
#
# Convention : Reuss Voigt Hill
#
# Bulk Modulus (GPa) = 29.80367 51.01843 40.41105
# Shear Modulus (GPa) = 21.17779 25.55100 23.36440
#
# Velocity S-wave (km/s) = 3.35148 3.68129 3.52025
# Velocity P-wave (km/s) = 5.54833 6.71779 6.16087
#
# Compressibility (1/GPa) = 0.03355291
#
# Stress axis : x y z
#
# Youngs Moduli (GPa) = 123.01938 46.60630 30.25282
#
# Poissons Ratio (x) = 0.28800 0.06471
# Poissons Ratio (y) = 0.76020 0.18833
# Poissons Ratio (z) = 0.26312 0.29013
#
# Static dielectric constant tensor:
#      x y z
#    x 4.064200 0.000000 0.000000 
#    y 0.000000 3.132440 0.000000 
#    z 0.000000 0.000000 3.263280 
# 
# 
# High freq. dielectric constant tensor:
#      x y z
#    x 1.758920 0.000000 0.000000 
#    y 0.000000 1.685730 0.000000 
#    z 0.000000 0.000000 1.719110 
# 
# From -- ./inp_files/8146.got.cif
#   From: 2010.06.25/outbox.cif.g09.slc.cpg/sg58_5_cif.got.tgz:8146.got - 2010.06.26 21:38:00.
