data_PCOD8236932
_publ_section_title
;
Structure prediction by ZEFSAII (Michael W. Deem and Ramdas Pophale) SiO2 
 PCOD8236932
Probable space group: P N N M
;
_chemical_formula_sum "Si O2"
_cell_formula_units_Z 56
_cell_length_a 14.764925
_cell_length_b 21.202939
_cell_length_c 8.633380
_cell_angle_alpha 90.000000
_cell_angle_beta 90.000000
_cell_angle_gamma 90.000000
_cell_volume 2702.764252
_symmetry_space_group_name_H-M "P N N M"
_symmetry_group_IT_number 58
_symmetry_cell_setting 'orthorhombic'
loop_
_space_group_symop_operation_xyz
x,y,z
-x,-y,z
1/2+x,1/2-y,1/2-z
1/2-x,1/2+y,1/2-z
-x,-y,-z
x,y,-z
1/2-x,1/2+y,1/2+z
1/2+x,1/2-y,1/2+z
loop_
_atom_site_type_symbol
_atom_site_label
_atom_site_fract_x
_atom_site_fract_y
_atom_site_fract_z
Si Si1 0.498616 0.734916 0.679575
Si Si2 0.735373 0.099545 0.682957
Si Si3 0.422547 0.046201 0.174159
Si Si4 0.564032 0.146469 0.173175
Si Si5 0.160444 0.165233 0.684616
Si Si6 0.264527 0.535887 0.821297
Si Si7 0.694837 0.735867 0.817726
O O1 0.517377 0.723351 0.500000
O O2 0.434747 0.795703 0.706737
O O3 0.440252 0.677663 0.749902
O O4 0.591958 0.747566 0.767895
O O5 0.718335 0.097033 0.500000
O O6 0.639161 0.096390 0.770689
O O7 0.785821 0.163498 0.732701
O O8 0.790151 0.035638 0.735934
O O9 0.464805 0.115974 0.172434
O O10 0.341467 0.046217 0.294099
O O11 0.500000 0.000000 0.235281
O O12 0.390619 0.027182 0.000000
O O13 0.588011 0.170677 0.000000
O O14 0.158542 0.166499 0.500000
O O15 0.182667 0.095165 0.754229
O O16 0.236106 0.215662 0.738021
O O17 0.286146 0.540285 0.000000
O O18 0.704641 0.745402 0.000000
#
# Coordination Sequence:
#
# PCOD8236932 Si02
#       7
#     8   8   8   8   8   8   8
#     4  12  25  41  62  89 121 159 206 258 310 366
#     4  10  21  38  60  87 120 157 200 244 300 362
#     4  10  20  33  50  81 119 156 193 236 293 360
#     4  11  21  35  58  85 118 156 197 246 303 362
#     4  11  23  41  64  92 126 162 205 254 308 367
#     4  10  22  38  58  86 120 161 201 248 302 363
#     4  11  23  41  65  92 122 161 207 256 309 367
#
# _framework density 20.719528
#
# number of rings (size 3 to 8) (size 9 to 14) (size 15 to 20)
#    0.000    1.286    2.857    3.429    0.000    5.429 
#    0.000    0.714    0.000    4.286    0.000    0.000 
#    0.000    0.000    0.000    0.000    0.000    0.000 
#
# Total GULP energy -694125.813000 kJ/mol
# GULP energy per Si atom -12395.103804 kJ/mol
# Density = 2.067237 g / cm^3
# Si number density = 20.719528 Si / 1000 Ang^3
#
#
#
# Elastic Constant Matrix: (Units=GPa)
#
#
# Indices 1 2 3 4 5 6 
#
# 1 48.7185 7.9276 7.3325 0.0000 0.0000 0.0000
# 2 7.9276 119.6480 27.2376 0.0000 0.0000 0.0000
# 3 7.3325 27.2376 50.1167 0.0000 0.0000 0.0000
# 4 0.0000 0.0000 0.0000 24.8873 0.0000 0.0000
# 5 0.0000 0.0000 0.0000 0.0000 28.2496 0.0000
# 6 0.0000 0.0000 0.0000 0.0000 0.0000 31.5435
#
#
#
# Elastic Compliance Matrix: (Units=1/GPa)
#
#
# Indices 1 2 3 4 5 6 
#
# 1 0.021054 -0.000792 -0.002650 0.000000 0.000000 0.000000
# 2 -0.000792 0.009568 -0.005084 0.000000 0.000000 0.000000
# 3 -0.002650 -0.005084 0.023104 0.000000 0.000000 0.000000
# 4 0.000000 0.000000 0.000000 0.040181 0.000000 0.000000
# 5 0.000000 0.000000 0.000000 0.000000 0.035399 0.000000
# 6 0.000000 0.000000 0.000000 0.000000 0.000000 0.031702
#
#
# Mechanical properties :
#
#
# Convention : Reuss Voigt Hill
#
# Bulk Modulus (GPa) = 27.26724 33.71985 30.49354
# Shear Modulus (GPa) = 26.27649 28.66844 27.47247
#
# Velocity S-wave (km/s) = 3.56504 3.72377 3.64527
# Velocity P-wave (km/s) = 5.48951 5.89902 5.69795
#
# Compressibility (1/GPa) = 0.03667405
#
# Stress axis : x y z
#
# Youngs Moduli (GPa) = 47.49746 104.51866 43.28209
#
# Poissons Ratio (x) = 0.08275 0.11470
# Poissons Ratio (y) = 0.03760 0.22005
# Poissons Ratio (z) = 0.12587 0.53138
#
# Static dielectric constant tensor:
#      x y z
#    x 3.576470 0.000000 0.000000 
#    y 0.000000 4.283490 0.000000 
#    z 0.000000 0.000000 3.604520 
# 
# 
# High freq. dielectric constant tensor:
#      x y z
#    x 1.787760 0.000000 0.000000 
#    y 0.000000 1.829050 0.000000 
#    z 0.000000 0.000000 1.803470 
# 
# From -- ./inp_files/6357.got.cif
#   From: 2010.06.25/outbox.cif.g09.slc.cpg/sg58_4_cif.got.tgz:6357.got - 2010.06.26 21:38:00.
