data_PCOD8236156
_publ_section_title
;
Structure prediction by ZEFSAII (Michael W. Deem and Ramdas Pophale) SiO2 
 PCOD8236156
Probable space group: P N N M
;
_chemical_formula_sum "Si O2"
_cell_formula_units_Z 56
_cell_length_a 20.115436
_cell_length_b 16.574585
_cell_length_c 8.915646
_cell_angle_alpha 90.000000
_cell_angle_beta 90.000000
_cell_angle_gamma 90.000000
_cell_volume 2972.520988
_symmetry_space_group_name_H-M "P N N M"
_symmetry_group_IT_number 58
_symmetry_cell_setting 'orthorhombic'
loop_
_space_group_symop_operation_xyz
x,y,z
-x,-y,z
1/2+x,1/2-y,1/2-z
1/2-x,1/2+y,1/2-z
-x,-y,-z
x,y,-z
1/2-x,1/2+y,1/2+z
1/2+x,1/2-y,1/2+z
loop_
_atom_site_type_symbol
_atom_site_label
_atom_site_fract_x
_atom_site_fract_y
_atom_site_fract_z
Si Si1 0.448247 0.565284 0.177944
Si Si2 0.323769 0.027303 0.174688
Si Si3 0.523070 0.256424 0.821051
Si Si4 0.787687 0.176204 0.176326
Si Si5 0.689866 0.509135 0.822680
Si Si6 0.879809 0.301846 0.325373
Si Si7 0.139428 0.353894 0.324008
O O1 0.500000 0.500000 0.244678
O O2 0.466062 0.653522 0.242691
O O3 0.373821 0.542755 0.227409
O O4 0.454456 0.566516 0.000000
O O5 0.254549 0.037169 0.262175
O O6 0.371150 0.103080 0.205036
O O7 0.362143 0.946981 0.231932
O O8 0.305556 0.017779 0.000000
O O9 0.452074 0.223635 0.765786
O O10 0.579953 0.198120 0.750835
O O11 0.526597 0.256460 0.000000
O O12 0.823822 0.255912 0.232699
O O13 0.710129 0.185362 0.219292
O O14 0.818688 0.098143 0.255337
O O15 0.797207 0.165987 0.000000
O O16 0.694554 0.517302 0.000000
O O17 0.871142 0.280796 0.500000
O O18 0.128459 0.352162 0.500000
#
# Coordination Sequence:
#
# PCOD8236156 Si02
#       7
#     8   8   8   8   8   8   8
#     4   9  17  28  46  75 106 131 167 221 265 303
#     4   9  19  34  50  76 109 137 171 217 269 315
#     4   9  17  30  50  76 103 134 179 226 263 304
#     4  10  20  34  54  77 107 138 171 219 270 320
#     4  10  19  32  54  79 102 135 179 218 265 319
#     4  10  20  33  53  78 105 138 175 218 266 316
#     4   8  16  31  50  73 101 134 173 220 265 302
#
# _framework density 18.839227999999999
#
# number of rings (size 3 to 8) (size 9 to 14) (size 15 to 20)
#    0.000    2.714    0.000    2.571    2.000    3.429 
#    0.000    2.857    0.000   12.000    0.000    5.000 
#    0.000    0.000    0.000    0.000    0.000    0.000 
#
# Total GULP energy -694344.923803 kJ/mol
# GULP energy per Si atom -12399.016496 kJ/mol
# Density = 1.879635 g / cm^3
# Si number density = 18.839228 Si / 1000 Ang^3
#
#
#
# Elastic Constant Matrix: (Units=GPa)
#
#
# Indices 1 2 3 4 5 6 
#
# 1 134.2922 97.8620 26.8031 0.0000 0.0000 0.0000
# 2 97.8620 151.7388 26.3336 0.0000 0.0000 0.0000
# 3 26.8031 26.3336 35.8392 0.0000 0.0000 0.0000
# 4 0.0000 0.0000 0.0000 20.9046 0.0000 0.0000
# 5 0.0000 0.0000 0.0000 0.0000 22.3375 0.0000
# 6 0.0000 0.0000 0.0000 0.0000 0.0000 40.5466
#
#
#
# Elastic Compliance Matrix: (Units=1/GPa)
#
#
# Indices 1 2 3 4 5 6 
#
# 1 0.014686 -0.008671 -0.004612 0.000000 0.000000 0.000000
# 2 -0.008671 0.012673 -0.002827 0.000000 0.000000 0.000000
# 3 -0.004612 -0.002827 0.033429 0.000000 0.000000 0.000000
# 4 0.000000 0.000000 0.000000 0.047836 0.000000 0.000000
# 5 0.000000 0.000000 0.000000 0.000000 0.044768 0.000000
# 6 0.000000 0.000000 0.000000 0.000000 0.000000 0.024663
#
#
# Mechanical properties :
#
#
# Convention : Reuss Voigt Hill
#
# Bulk Modulus (GPa) = 35.00446 69.31862 52.16154
# Shear Modulus (GPa) = 22.74828 28.14918 25.44873
#
# Velocity S-wave (km/s) = 3.47867 3.86965 3.67936
# Velocity P-wave (km/s) = 5.89541 7.53925 6.76743
#
# Compressibility (1/GPa) = 0.02856779
#
# Stress axis : x y z
#
# Youngs Moduli (GPa) = 68.09368 78.90714 29.91441
#
# Poissons Ratio (x) = 0.68420 0.13796
# Poissons Ratio (y) = 0.59044 0.08457
# Poissons Ratio (z) = 0.31404 0.22308
#
# Static dielectric constant tensor:
#      x y z
#    x 3.598120 0.000000 0.000000 
#    y 0.000000 3.707760 0.000000 
#    z 0.000000 0.000000 3.043780 
# 
# 
# High freq. dielectric constant tensor:
#      x y z
#    x 1.737480 0.000000 0.000000 
#    y 0.000000 1.743190 0.000000 
#    z 0.000000 0.000000 1.685290 
# 
# From -- ./inp_files/8968.got.cif
#   From: 2010.06.25/outbox.cif.g09.slc.cpg/sg58_5_cif.got.tgz:8968.got - 2010.06.26 21:38:00.
