data_PCOD8236939
_publ_section_title
;
Structure prediction by ZEFSAII (Michael W. Deem and Ramdas Pophale) SiO2 
 PCOD8236939
Probable space group: P N N M
;
_chemical_formula_sum "Si O2"
_cell_formula_units_Z 40
_cell_length_a 25.580020
_cell_length_b 9.631087
_cell_length_c 9.012361
_cell_angle_alpha 90.000000
_cell_angle_beta 90.000000
_cell_angle_gamma 90.000000
_cell_volume 2220.315881
_symmetry_space_group_name_H-M "P N N M"
_symmetry_group_IT_number 58
_symmetry_cell_setting 'orthorhombic'
loop_
_space_group_symop_operation_xyz
x,y,z
-x,-y,z
1/2+x,1/2-y,1/2-z
1/2-x,1/2+y,1/2-z
-x,-y,-z
x,y,-z
1/2-x,1/2+y,1/2+z
1/2+x,1/2-y,1/2+z
loop_
_atom_site_type_symbol
_atom_site_label
_atom_site_fract_x
_atom_site_fract_y
_atom_site_fract_z
Si Si1 0.206054 0.851754 0.672480
Si Si2 0.795307 0.861284 0.174318
Si Si3 0.001594 0.343810 0.676776
Si Si4 0.901665 0.839537 0.676020
Si Si5 0.088918 0.849421 0.673109
O O1 0.210268 0.892865 0.500000
O O2 0.246387 0.733688 0.718461
O O3 0.147544 0.796791 0.708207
O O4 0.218690 0.986692 0.767994
O O5 0.846822 0.797558 0.250410
O O6 0.804609 0.866191 0.000000
O O7 0.998230 0.348024 0.500000
O O8 0.055186 0.270888 0.728007
O O9 0.000000 0.500000 0.741481
O O10 0.952987 0.256238 0.745399
O O11 0.893832 0.839605 0.500000
O O12 0.918521 0.993166 0.732553
O O13 0.077242 0.851616 0.500000
#
# Coordination Sequence:
#
# PCOD8236939 Si02
#       5
#     8   8   8   8   8
#     4   9  19  34  51  72  98 129 164 202 244 289
#     4  10  20  33  51  75 101 130 164 201 243 293
#     4   9  16  25  43  72  96 116 154 206 248 280
#     4   9  17  30  48  68  94 128 160 194 240 291
#     4   8  14  27  45  64  89 121 156 193 235 281
#
# _framework density 18.015453000000001
#
# number of rings (size 3 to 8) (size 9 to 14) (size 15 to 20)
#    0.000    3.000    0.000    2.400    0.000    5.600 
#    0.000    4.000    0.000   10.200    0.000    0.000 
#    0.000    0.000    0.000    0.000    0.000    0.000 
#
# Total GULP energy -495877.214464 kJ/mol
# GULP energy per Si atom -12396.930362 kJ/mol
# Density = 1.797445 g / cm^3
# Si number density = 18.015453 Si / 1000 Ang^3
#
#
#
# Elastic Constant Matrix: (Units=GPa)
#
#
# Indices 1 2 3 4 5 6 
#
# 1 132.9567 79.1629 34.0876 0.0000 0.0000 0.0000
# 2 79.1629 108.4804 24.3009 0.0000 0.0000 0.0000
# 3 34.0876 24.3009 30.9672 0.0000 0.0000 0.0000
# 4 0.0000 0.0000 0.0000 16.4047 0.0000 0.0000
# 5 0.0000 0.0000 0.0000 0.0000 22.8371 0.0000
# 6 0.0000 0.0000 0.0000 0.0000 0.0000 40.5624
#
#
#
# Elastic Compliance Matrix: (Units=1/GPa)
#
#
# Indices 1 2 3 4 5 6 
#
# 1 0.015454 -0.009059 -0.009902 0.000000 0.000000 0.000000
# 2 -0.009059 0.016495 -0.002972 0.000000 0.000000 0.000000
# 3 -0.009902 -0.002972 0.045524 0.000000 0.000000 0.000000
# 4 0.000000 0.000000 0.000000 0.060958 0.000000 0.000000
# 5 0.000000 0.000000 0.000000 0.000000 0.043788 0.000000
# 6 0.000000 0.000000 0.000000 0.000000 0.000000 0.024653
#
#
# Mechanical properties :
#
#
# Convention : Reuss Voigt Hill
#
# Bulk Modulus (GPa) = 29.75612 60.83412 45.29512
# Shear Modulus (GPa) = 19.08823 24.95102 22.01962
#
# Velocity S-wave (km/s) = 3.25860 3.72557 3.49988
# Velocity P-wave (km/s) = 5.54173 7.23516 6.44431
#
# Compressibility (1/GPa) = 0.03360653
#
# Stress axis : x y z
#
# Youngs Moduli (GPa) = 64.70909 60.62487 21.96634
#
# Poissons Ratio (x) = 0.54921 0.21751
# Poissons Ratio (y) = 0.58621 0.06528
# Poissons Ratio (z) = 0.64075 0.18018
#
# Static dielectric constant tensor:
#      x y z
#    x 3.561210 0.000000 0.000000 
#    y 0.000000 3.473490 0.000000 
#    z 0.000000 0.000000 2.894090 
# 
# 
# High freq. dielectric constant tensor:
#      x y z
#    x 1.711800 0.000000 0.000000 
#    y 0.000000 1.695610 0.000000 
#    z 0.000000 0.000000 1.650060 
# 
# From -- ./inp_files/2422.got.cif
#   From: 2010.06.25/outbox.cif.g09.slc.cpg/sg58_2_cif.got.tgz:2422.got - 2010.06.26 21:38:00.
