data_PCOD8236899
_publ_section_title
;
Structure prediction by ZEFSAII (Michael W. Deem and Ramdas Pophale) SiO2 
 PCOD8236899
Probable space group: P N N M
;
_chemical_formula_sum "Si O2"
_cell_formula_units_Z 64
_cell_length_a 22.255317
_cell_length_b 17.078587
_cell_length_c 9.060638
_cell_angle_alpha 90.000000
_cell_angle_beta 90.000000
_cell_angle_gamma 90.000000
_cell_volume 3443.852167
_symmetry_space_group_name_H-M "P N N M"
_symmetry_group_IT_number 58
_symmetry_cell_setting 'orthorhombic'
loop_
_space_group_symop_operation_xyz
x,y,z
-x,-y,z
1/2+x,1/2-y,1/2-z
1/2-x,1/2+y,1/2-z
-x,-y,-z
x,y,-z
1/2-x,1/2+y,1/2+z
1/2+x,1/2-y,1/2+z
loop_
_atom_site_type_symbol
_atom_site_label
_atom_site_fract_x
_atom_site_fract_y
_atom_site_fract_z
Si Si1 0.474437 0.640555 0.171565
Si Si2 0.836109 0.294695 0.174100
Si Si3 0.064326 0.588130 0.172907
Si Si4 0.878858 0.728589 0.671369
Si Si5 0.600734 0.637933 0.328542
Si Si6 0.213829 0.166499 0.826138
Si Si7 0.119872 0.037962 0.828698
Si Si8 0.569922 0.086679 0.673782
O O1 0.438286 0.720400 0.202309
O O2 0.539764 0.650724 0.239950
O O3 0.438598 0.567726 0.241532
O O4 0.481215 0.622592 0.000000
O O5 0.891734 0.345742 0.235689
O O6 0.850234 0.204155 0.214620
O O7 0.779130 0.330152 0.255907
O O8 0.826428 0.305670 0.000000
O O9 0.090128 0.501997 0.208828
O O10 0.997500 0.599367 0.236359
O O11 0.057621 0.597422 0.000000
O O12 0.861780 0.727216 0.500000
O O13 0.823067 0.761606 0.761306
O O14 0.887146 0.641424 0.731051
O O15 0.583883 0.645487 0.500000
O O16 0.629938 0.553543 0.292142
O O17 0.180096 0.085191 0.782740
O O18 0.219526 0.175943 0.000000
O O19 0.105748 0.051704 0.000000
O O20 0.575262 0.105970 0.500000
#
# Coordination Sequence:
#
# PCOD8236899 Si02
#       8
#     8   8   8   8   8   8   8   8
#     4  10  20  32  51  81 114 141 169 211 263 312
#     4  10  20  36  55  76 106 141 177 217 264 312
#     4   8  16  31  53  79 108 141 173 212 261 314
#     4  10  20  34  52  77 107 139 174 218 267 310
#     4  10  20  34  55  81 107 138 174 212 258 315
#     4  10  21  38  56  72  99 139 182 220 258 309
#     4   9  19  36  55  76 104 139 177 214 256 311
#     4   9  16  31  55  81 107 137 178 216 253 313
#
# _framework density 18.583839999999999
#
# number of rings (size 3 to 8) (size 9 to 14) (size 15 to 20)
#    0.000    2.500    0.000    3.000    0.000    5.500 
#    2.250    2.500    0.000    0.000    0.000    0.000 
#    0.000    0.000    0.000    0.000    0.000    0.000 
#
# Total GULP energy -793563.577954 kJ/mol
# GULP energy per Si atom -12399.430906 kJ/mol
# Density = 1.854154 g / cm^3
# Si number density = 18.583840 Si / 1000 Ang^3
#
#
#
# Elastic Constant Matrix: (Units=GPa)
#
#
# Indices 1 2 3 4 5 6 
#
# 1 78.2395 34.9996 33.5573 0.0000 0.0000 0.0000
# 2 34.9996 107.9346 30.8994 0.0000 0.0000 0.0000
# 3 33.5573 30.8994 57.1952 0.0000 0.0000 0.0000
# 4 0.0000 0.0000 0.0000 12.8974 0.0000 0.0000
# 5 0.0000 0.0000 0.0000 0.0000 33.0825 0.0000
# 6 0.0000 0.0000 0.0000 0.0000 0.0000 17.9825
#
#
#
# Elastic Compliance Matrix: (Units=1/GPa)
#
#
# Indices 1 2 3 4 5 6 
#
# 1 0.018040 -0.003336 -0.008782 0.000000 0.000000 0.000000
# 2 -0.003336 0.011577 -0.004297 0.000000 0.000000 0.000000
# 3 -0.008782 -0.004297 0.024958 0.000000 0.000000 0.000000
# 4 0.000000 0.000000 0.000000 0.077535 0.000000 0.000000
# 5 0.000000 0.000000 0.000000 0.000000 0.030227 0.000000
# 6 0.000000 0.000000 0.000000 0.000000 0.000000 0.055610
#
#
# Mechanical properties :
#
#
# Convention : Reuss Voigt Hill
#
# Bulk Modulus (GPa) = 45.98811 49.14244 47.56527
# Shear Modulus (GPa) = 19.37790 22.38668 20.88229
#
# Velocity S-wave (km/s) = 3.23263 3.47455 3.35577
# Velocity P-wave (km/s) = 6.22360 6.52669 6.37695
#
# Compressibility (1/GPa) = 0.02174475
#
# Stress axis : x y z
#
# Youngs Moduli (GPa) = 55.43164 86.38040 40.06684
#
# Poissons Ratio (x) = 0.28813 0.35188
# Poissons Ratio (y) = 0.18490 0.17217
# Poissons Ratio (z) = 0.48682 0.37119
#
# Static dielectric constant tensor:
#      x y z
#    x 3.500080 0.000000 0.000000 
#    y 0.000000 3.637110 0.000000 
#    z 0.000000 0.000000 3.255120 
# 
# 
# High freq. dielectric constant tensor:
#      x y z
#    x 1.707920 0.000000 0.000000 
#    y 0.000000 1.730460 0.000000 
#    z 0.000000 0.000000 1.707340 
# 
# From -- ./inp_files/9256.got.cif
#   From: 2010.06.25/outbox.cif.g09.slc.cpg/sg58_5_cif.got.tgz:9256.got - 2010.06.26 21:38:00.
