data_PCOD8236610
_publ_section_title
;
Structure prediction by ZEFSAII (Michael W. Deem and Ramdas Pophale) SiO2 
 PCOD8236610
Probable space group: P N N M
;
_chemical_formula_sum "Si O2"
_cell_formula_units_Z 56
_cell_length_a 16.325550
_cell_length_b 19.936372
_cell_length_c 8.986198
_cell_angle_alpha 90.000000
_cell_angle_beta 90.000000
_cell_angle_gamma 90.000000
_cell_volume 2924.757973
_symmetry_space_group_name_H-M "P N N M"
_symmetry_group_IT_number 58
_symmetry_cell_setting 'orthorhombic'
loop_
_space_group_symop_operation_xyz
x,y,z
-x,-y,z
1/2+x,1/2-y,1/2-z
1/2-x,1/2+y,1/2-z
-x,-y,-z
x,y,-z
1/2-x,1/2+y,1/2+z
1/2+x,1/2-y,1/2+z
loop_
_atom_site_type_symbol
_atom_site_label
_atom_site_fract_x
_atom_site_fract_y
_atom_site_fract_z
Si Si1 0.807882 0.125550 0.675583
Si Si2 0.060312 0.695822 0.671214
Si Si3 0.758381 0.483057 0.825953
Si Si4 0.468059 0.333027 0.674077
Si Si5 0.255586 0.234732 0.169436
Si Si6 0.938481 0.441088 0.823993
Si Si7 0.854574 0.879847 0.825941
O O1 0.825342 0.133895 0.500000
O O2 0.753189 0.061335 0.712577
O O3 0.759348 0.190683 0.739986
O O4 0.895630 0.122816 0.755767
O O5 0.032394 0.696554 0.500000
O O6 0.157850 0.698066 0.687116
O O7 0.030195 0.627153 0.747471
O O8 0.021135 0.760005 0.752166
O O9 0.847278 0.460236 0.767191
O O10 0.683580 0.444984 0.749297
O O11 0.751511 0.470052 0.000000
O O12 0.452455 0.322202 0.500000
O O13 0.549137 0.376640 0.704816
O O14 0.187913 0.186907 0.245221
O O15 0.229668 0.244505 0.000000
O O16 0.000000 0.500000 0.775903
O O17 0.939763 0.430288 0.000000
O O18 0.834224 0.884234 0.000000
#
# Coordination Sequence:
#
# PCOD8236610 Si02
#       7
#     8   8   8   8   8   8   8
#     4   9  19  36  55  77 110 148 187 227 275 333
#     4  10  19  35  58  79 106 143 183 227 278 333
#     4  10  21  36  56  82 112 149 187 229 278 334
#     4  10  21  35  55  83 111 143 186 236 283 325
#     4   8  15  31  55  76  97 137 184 223 268 324
#     4  10  21  36  56  84 116 147 182 230 285 336
#     4  10  20  35  56  81 109 145 187 231 281 335
#
# _framework density 19.146884
#
# number of rings (size 3 to 8) (size 9 to 14) (size 15 to 20)
#    0.000    2.429    1.429    1.714    0.000    3.714 
#    0.000    7.143    0.000    3.429    0.000    0.000 
#    0.000    0.000    0.000    0.000    0.000    0.000 
#
# Total GULP energy -694300.304922 kJ/mol
# GULP energy per Si atom -12398.219731 kJ/mol
# Density = 1.910330 g / cm^3
# Si number density = 19.146884 Si / 1000 Ang^3
#
#
#
# Elastic Constant Matrix: (Units=GPa)
#
#
# Indices 1 2 3 4 5 6 
#
# 1 47.5493 24.4700 20.9289 0.0000 0.0000 0.0000
# 2 24.4700 95.5342 32.8131 0.0000 0.0000 0.0000
# 3 20.9289 32.8131 53.3569 0.0000 0.0000 0.0000
# 4 0.0000 0.0000 0.0000 32.3708 0.0000 0.0000
# 5 0.0000 0.0000 0.0000 0.0000 23.2895 0.0000
# 6 0.0000 0.0000 0.0000 0.0000 0.0000 29.3915
#
#
#
# Elastic Compliance Matrix: (Units=1/GPa)
#
#
# Indices 1 2 3 4 5 6 
#
# 1 0.026628 -0.004099 -0.007924 0.000000 0.000000 0.000000
# 2 -0.004099 0.013901 -0.006941 0.000000 0.000000 0.000000
# 3 -0.007924 -0.006941 0.026119 0.000000 0.000000 0.000000
# 4 0.000000 0.000000 0.000000 0.030892 0.000000 0.000000
# 5 0.000000 0.000000 0.000000 0.000000 0.042938 0.000000
# 6 0.000000 0.000000 0.000000 0.000000 0.000000 0.034023
#
#
# Mechanical properties :
#
#
# Convention : Reuss Voigt Hill
#
# Bulk Modulus (GPa) = 34.81923 39.20716 37.01320
# Shear Modulus (GPa) = 22.52228 24.89226 23.70727
#
# Velocity S-wave (km/s) = 3.43343 3.60956 3.52259
# Velocity P-wave (km/s) = 5.82604 6.15576 5.99317
#
# Compressibility (1/GPa) = 0.02871976
#
# Stress axis : x y z
#
# Youngs Moduli (GPa) = 37.55467 71.93496 38.28698
#
# Poissons Ratio (x) = 0.29485 0.30338
# Poissons Ratio (y) = 0.15393 0.26576
# Poissons Ratio (z) = 0.29758 0.49932
#
# Static dielectric constant tensor:
#      x y z
#    x 3.438290 0.000000 0.000000 
#    y 0.000000 3.614070 0.000000 
#    z 0.000000 0.000000 3.329200 
# 
# 
# High freq. dielectric constant tensor:
#      x y z
#    x 1.735300 0.000000 0.000000 
#    y 0.000000 1.754950 0.000000 
#    z 0.000000 0.000000 1.725150 
# 
# From -- ./inp_files/6414.got.cif
#   From: 2010.06.25/outbox.cif.g09.slc.cpg/sg58_4_cif.got.tgz:6414.got - 2010.06.26 21:38:00.
