data_PCOD8236981
_publ_section_title
;
Structure prediction by ZEFSAII (Michael W. Deem and Ramdas Pophale) SiO2 
 PCOD8236981
Probable space group: P N N M
;
_chemical_formula_sum "Si O2"
_cell_formula_units_Z 48
_cell_length_a 14.876350
_cell_length_b 19.574618
_cell_length_c 8.826320
_cell_angle_alpha 90.000000
_cell_angle_beta 90.000000
_cell_angle_gamma 90.000000
_cell_volume 2570.214397
_symmetry_space_group_name_H-M "P N N M"
_symmetry_group_IT_number 58
_symmetry_cell_setting 'orthorhombic'
loop_
_space_group_symop_operation_xyz
x,y,z
-x,-y,z
1/2+x,1/2-y,1/2-z
1/2-x,1/2+y,1/2-z
-x,-y,-z
x,y,-z
1/2-x,1/2+y,1/2+z
1/2+x,1/2-y,1/2+z
loop_
_atom_site_type_symbol
_atom_site_label
_atom_site_fract_x
_atom_site_fract_y
_atom_site_fract_z
Si Si1 0.699115 0.169011 0.179311
Si Si2 0.884071 0.192419 0.323872
Si Si3 0.432049 0.057134 0.678812
Si Si4 0.591206 0.534501 0.174869
Si Si5 0.514367 0.200109 0.320671
Si Si6 0.227304 0.486185 0.677041
O O1 0.784531 0.204581 0.258003
O O2 0.610501 0.206427 0.239511
O O3 0.695151 0.089400 0.227312
O O4 0.707945 0.178059 0.000000
O O5 0.885188 0.212863 0.500000
O O6 0.915091 0.115059 0.297528
O O7 0.953938 0.237162 0.230428
O O8 0.425187 0.052600 0.500000
O O9 0.465709 0.130817 0.733105
O O10 0.500000 0.000000 0.743064
O O11 0.333899 0.043536 0.745852
O O12 0.500000 0.500000 0.233095
O O13 0.671011 0.501168 0.271073
O O14 0.609308 0.517389 0.000000
O O15 0.529086 0.201248 0.500000
O O16 0.220472 0.495977 0.500000
#
# Coordination Sequence:
#
# PCOD8236981 Si02
#       6
#     8   8   8   8   8   8
#     4  10  20  36  58  82 110 147 187 228 280 338
#     4  10  21  38  59  83 112 146 187 234 281 337
#     4  10  20  35  56  82 112 148 189 227 273 336
#     4   9  19  38  62  83 107 146 190 228 274 336
#     4  11  22  37  58  83 113 150 189 234 282 334
#     4  10  20  33  55  85 114 143 180 233 282 327
#
# _framework density 18.675484999999998
#
# number of rings (size 3 to 8) (size 9 to 14) (size 15 to 20)
#    0.000    2.000    1.667    2.000    0.000    4.000 
#    3.000    0.000    0.000    0.000    0.000    0.000 
#    0.000    0.000    0.000    0.000    0.000    0.000 
#
# Total GULP energy -595440.722011 kJ/mol
# GULP energy per Si atom -12405.015042 kJ/mol
# Density = 1.863298 g / cm^3
# Si number density = 18.675485 Si / 1000 Ang^3
#
#
#
# Elastic Constant Matrix: (Units=GPa)
#
#
# Indices 1 2 3 4 5 6 
#
# 1 130.8117 48.4353 20.9336 0.0000 0.0000 0.0000
# 2 48.4353 55.0451 19.1814 0.0000 0.0000 0.0000
# 3 20.9336 19.1814 39.5028 0.0000 0.0000 0.0000
# 4 0.0000 0.0000 0.0000 27.7143 0.0000 0.0000
# 5 0.0000 0.0000 0.0000 0.0000 35.9006 0.0000
# 6 0.0000 0.0000 0.0000 0.0000 0.0000 34.7588
#
#
#
# Elastic Compliance Matrix: (Units=1/GPa)
#
#
# Indices 1 2 3 4 5 6 
#
# 1 0.011404 -0.009543 -0.001409 0.000000 0.000000 0.000000
# 2 -0.009543 0.029853 -0.009439 0.000000 0.000000 0.000000
# 3 -0.001409 -0.009439 0.030645 0.000000 0.000000 0.000000
# 4 0.000000 0.000000 0.000000 0.036083 0.000000 0.000000
# 5 0.000000 0.000000 0.000000 0.000000 0.027855 0.000000
# 6 0.000000 0.000000 0.000000 0.000000 0.000000 0.028770
#
#
# Mechanical properties :
#
#
# Convention : Reuss Voigt Hill
#
# Bulk Modulus (GPa) = 32.13434 44.71779 38.42607
# Shear Modulus (GPa) = 23.17352 28.79535 25.98444
#
# Velocity S-wave (km/s) = 3.52639 3.93094 3.73415
# Velocity P-wave (km/s) = 5.81590 6.67830 6.26196
#
# Compressibility (1/GPa) = 0.03111935
#
# Stress axis : x y z
#
# Youngs Moduli (GPa) = 87.69139 33.49722 32.63220
#
# Poissons Ratio (x) = 0.31967 0.04598
# Poissons Ratio (y) = 0.83686 0.30800
# Poissons Ratio (z) = 0.12357 0.31617
#
# Static dielectric constant tensor:
#      x y z
#    x 3.512170 0.000000 0.000000 
#    y 0.000000 3.309970 0.000000 
#    z 0.000000 0.000000 3.384350 
# 
# 
# High freq. dielectric constant tensor:
#      x y z
#    x 1.736100 0.000000 0.000000 
#    y 0.000000 1.706430 0.000000 
#    z 0.000000 0.000000 1.730840 
# 
# From -- ./inp_files/5842.got.cif
#   From: 2010.06.25/outbox.cif.g09.slc.cpg/sg58_3_cif.got.tgz:5842.got - 2010.06.26 21:38:00.
