data_PCOD8236857
_publ_section_title
;
Structure prediction by ZEFSAII (Michael W. Deem and Ramdas Pophale) SiO2 
 PCOD8236857
Probable space group: P N N M
;
_chemical_formula_sum "Si O2"
_cell_formula_units_Z 48
_cell_length_a 10.405450
_cell_length_b 27.395301
_cell_length_c 7.981937
_cell_angle_alpha 90.000000
_cell_angle_beta 90.000000
_cell_angle_gamma 90.000000
_cell_volume 2275.334432
_symmetry_space_group_name_H-M "P N N M"
_symmetry_group_IT_number 58
_symmetry_cell_setting 'orthorhombic'
loop_
_space_group_symop_operation_xyz
x,y,z
-x,-y,z
1/2+x,1/2-y,1/2-z
1/2-x,1/2+y,1/2-z
-x,-y,-z
x,y,-z
1/2-x,1/2+y,1/2+z
1/2+x,1/2-y,1/2+z
loop_
_atom_site_type_symbol
_atom_site_label
_atom_site_fract_x
_atom_site_fract_y
_atom_site_fract_z
Si Si1 0.031386 0.396100 0.188113
Si Si2 0.888370 0.040566 0.000000
Si Si3 0.248222 0.221371 0.808515
Si Si4 0.393629 0.958709 0.000000
Si Si5 0.998526 0.942070 0.680164
Si Si6 0.533534 0.208645 0.191500
Si Si7 0.748877 0.391285 0.694467
O O1 0.879957 0.402880 0.210939
O O2 0.102251 0.427138 0.330693
O O3 0.070275 0.339312 0.204039
O O4 0.069651 0.413751 0.000000
O O5 0.747553 0.016453 0.000000
O O6 0.907897 0.074212 0.166703
O O7 0.000000 0.000000 0.000000
O O8 0.395634 0.230495 0.746711
O O9 0.147803 0.252433 0.700379
O O10 0.210462 0.165094 0.783715
O O11 0.231759 0.237824 0.000000
O O12 0.500000 0.000000 0.000000
O O13 0.044363 0.920287 0.500000
O O14 0.855225 0.924881 0.717522
O O15 0.000000 0.000000 0.668097
O O16 0.512268 0.191748 0.000000
O O17 0.764643 0.404900 0.500000
#
# Coordination Sequence:
#
# PCOD8236857 Si02
#       7
#     8   4   8   4   8   8   8
#     4  11  23  42  69  94 131 176 217 272 331 395
#     4  10  24  44  66  92 128 170 206 266 336 371
#     4   9  20  36  59  90 123 165 214 264 313 389
#     4  12  28  46  70 100 132 170 228 276 333 399
#     4  10  21  36  61  91 124 165 211 261 321 386
#     4  10  20  40  63  92 131 171 214 267 330 384
#     4  10  19  38  65  94 128 169 218 265 328 390
#
# _framework density 21.095800000000001
#
# number of rings (size 3 to 8) (size 9 to 14) (size 15 to 20)
#    0.000    1.833    2.500    2.000    4.667    5.000 
#    3.000    0.000    0.000    0.000    0.000    0.000 
#    0.000    0.000    0.000    0.000    0.000    0.000 
#
# Total GULP energy -594975.633117 kJ/mol
# GULP energy per Si atom -12395.325690 kJ/mol
# Density = 2.104779 g / cm^3
# Si number density = 21.095800 Si / 1000 Ang^3
#
#
#
# Elastic Constant Matrix: (Units=GPa)
#
#
# Indices 1 2 3 4 5 6 
#
# 1 124.1958 50.2714 35.0063 0.0000 0.0000 0.0000
# 2 50.2714 66.0295 27.2046 0.0000 0.0000 0.0000
# 3 35.0063 27.2046 167.7507 0.0000 0.0000 0.0000
# 4 0.0000 0.0000 0.0000 14.0090 0.0000 0.0000
# 5 0.0000 0.0000 0.0000 0.0000 6.6584 0.0000
# 6 0.0000 0.0000 0.0000 0.0000 0.0000 38.2561
#
#
#
# Elastic Compliance Matrix: (Units=1/GPa)
#
#
# Indices 1 2 3 4 5 6 
#
# 1 0.011818 -0.008553 -0.001079 0.000000 0.000000 0.000000
# 2 -0.008553 0.022419 -0.001851 0.000000 0.000000 0.000000
# 3 -0.001079 -0.001851 0.006487 0.000000 0.000000 0.000000
# 4 0.000000 0.000000 0.000000 0.071382 0.000000 0.000000
# 5 0.000000 0.000000 0.000000 0.000000 0.150187 0.000000
# 6 0.000000 0.000000 0.000000 0.000000 0.000000 0.026140
#
#
# Mechanical properties :
#
#
# Convention : Reuss Voigt Hill
#
# Bulk Modulus (GPa) = 56.31379 64.77115 60.54247
# Shear Modulus (GPa) = 15.75705 28.15095 21.95400
#
# Velocity S-wave (km/s) = 2.73596 3.65695 3.22946
# Velocity P-wave (km/s) = 6.06077 6.97145 6.53200
#
# Compressibility (1/GPa) = 0.01775764
#
# Stress axis : x y z
#
# Youngs Moduli (GPa) = 84.61658 44.60468 154.16420
#
# Poissons Ratio (x) = 0.38150 0.16636
# Poissons Ratio (y) = 0.72373 0.28535
# Poissons Ratio (z) = 0.09131 0.08256
#
# Static dielectric constant tensor:
#      x y z
#    x 3.704100 0.000000 0.000000 
#    y 0.000000 3.517850 0.000000 
#    z 0.000000 0.000000 5.153290 
# 
# 
# High freq. dielectric constant tensor:
#      x y z
#    x 1.821330 0.000000 0.000000 
#    y 0.000000 1.800660 0.000000 
#    z 0.000000 0.000000 1.844470 
# 
# From -- ./inp_files/3058.got.cif
#   From: 2010.06.25/outbox.cif.g09.slc.cpg/sg58_2_cif.got.tgz:3058.got - 2010.06.26 21:38:00.
