data_PCOD8236519
_publ_section_title
;
Structure prediction by ZEFSAII (Michael W. Deem and Ramdas Pophale) SiO2 
 PCOD8236519
Probable space group: P N N M
;
_chemical_formula_sum "Si O2"
_cell_formula_units_Z 64
_cell_length_a 30.576927
_cell_length_b 11.966042
_cell_length_c 9.471772
_cell_angle_alpha 90.000000
_cell_angle_beta 90.000000
_cell_angle_gamma 90.000000
_cell_volume 3465.577335
_symmetry_space_group_name_H-M "P N N M"
_symmetry_group_IT_number 58
_symmetry_cell_setting 'orthorhombic'
loop_
_space_group_symop_operation_xyz
x,y,z
-x,-y,z
1/2+x,1/2-y,1/2-z
1/2-x,1/2+y,1/2-z
-x,-y,-z
x,y,-z
1/2-x,1/2+y,1/2+z
1/2+x,1/2-y,1/2+z
loop_
_atom_site_type_symbol
_atom_site_label
_atom_site_fract_x
_atom_site_fract_y
_atom_site_fract_z
Si Si1 0.925364 0.778563 0.156519
Si Si2 0.450202 0.512633 0.835386
Si Si3 0.695918 0.487523 0.165670
Si Si4 0.674399 0.274787 0.343128
Si Si5 0.373328 0.106037 0.331661
Si Si6 0.792623 0.542642 0.832415
Si Si7 0.954146 0.543685 0.831894
Si Si8 0.877618 0.165128 0.335754
O O1 0.929163 0.883401 0.257355
O O2 0.875678 0.739334 0.144399
O O3 0.950460 0.671557 0.221099
O O4 0.943207 0.809796 0.000000
O O5 0.500000 0.500000 0.783553
O O6 0.422170 0.402226 0.799869
O O7 0.447850 0.539779 0.000000
O O8 0.678476 0.378418 0.240788
O O9 0.744814 0.508750 0.222173
O O10 0.664639 0.590950 0.203631
O O11 0.695225 0.464184 0.000000
O O12 0.692584 0.304552 0.500000
O O13 0.698926 0.167933 0.275855
O O14 0.373785 0.121784 0.500000
O O15 0.376229 0.226461 0.260578
O O16 0.328883 0.045541 0.278509
O O17 0.414550 0.033651 0.277288
O O18 0.795056 0.547107 0.000000
O O19 0.000000 0.500000 0.770429
O O20 0.953413 0.542767 0.000000
O O21 0.876604 0.199268 0.500000
#
# Coordination Sequence:
#
# PCOD8236519 Si02
#       8
#     8   8   8   8   8   8   8   8
#     4  10  19  34  58  83 106 134 176 226 265 307
#     4  10  22  39  56  75 107 148 180 214 266 318
#     4  10  21  37  56  77 106 144 179 216 265 316
#     4  10  19  35  58  80 105 137 177 222 265 311
#     4  10  20  36  57  79 107 141 176 216 264 319
#     4   9  19  36  56  79 108 141 174 216 272 319
#     4   9  18  33  54  81 109 137 170 214 268 316
#     4  10  22  38  53  75 109 143 176 216 263 314
#
# _framework density 18.467341999999999
#
# number of rings (size 3 to 8) (size 9 to 14) (size 15 to 20)
#    0.000    2.250    2.500    0.000    3.500    1.250 
#    0.000    1.875    0.000    0.750    0.000    0.000 
#    0.000    0.000    0.000    0.000    0.000    0.000 
#
# Total GULP energy -793545.424311 kJ/mol
# GULP energy per Si atom -12399.147255 kJ/mol
# Density = 1.842531 g / cm^3
# Si number density = 18.467342 Si / 1000 Ang^3
#
#
#
# Elastic Constant Matrix: (Units=GPa)
#
#
# Indices 1 2 3 4 5 6 
#
# 1 116.5801 32.2937 19.7513 0.0000 0.0000 0.0000
# 2 32.2937 113.7315 39.6471 0.0000 0.0000 0.0000
# 3 19.7513 39.6471 34.2146 0.0000 0.0000 0.0000
# 4 0.0000 0.0000 0.0000 17.6850 0.0000 0.0000
# 5 0.0000 0.0000 0.0000 0.0000 12.3419 0.0000
# 6 0.0000 0.0000 0.0000 0.0000 0.0000 31.2358
#
#
#
# Elastic Compliance Matrix: (Units=1/GPa)
#
#
# Indices 1 2 3 4 5 6 
#
# 1 0.009627 -0.001336 -0.004010 0.000000 0.000000 0.000000
# 2 -0.001336 0.014937 -0.016537 0.000000 0.000000 0.000000
# 3 -0.004010 -0.016537 0.050705 0.000000 0.000000 0.000000
# 4 0.000000 0.000000 0.000000 0.056545 0.000000 0.000000
# 5 0.000000 0.000000 0.000000 0.000000 0.081025 0.000000
# 6 0.000000 0.000000 0.000000 0.000000 0.000000 0.032015
#
#
# Mechanical properties :
#
#
# Convention : Reuss Voigt Hill
#
# Bulk Modulus (GPa) = 31.74252 49.76783 40.75518
# Shear Modulus (GPa) = 16.71566 23.77481 20.24524
#
# Velocity S-wave (km/s) = 3.01183 3.59193 3.31459
# Velocity P-wave (km/s) = 5.41485 6.64907 6.06345
#
# Compressibility (1/GPa) = 0.03150348
#
# Stress axis : x y z
#
# Youngs Moduli (GPa) = 103.87289 66.94803 19.72184
#
# Poissons Ratio (x) = 0.08943 0.07908
# Poissons Ratio (y) = 0.13876 0.32615
# Poissons Ratio (z) = 0.41649 1.10715
#
# Static dielectric constant tensor:
#      x y z
#    x 3.866350 0.000000 0.000000 
#    y 0.000000 3.330330 0.000000 
#    z 0.000000 0.000000 3.053510 
# 
# 
# High freq. dielectric constant tensor:
#      x y z
#    x 1.729840 0.000000 0.000000 
#    y 0.000000 1.724380 0.000000 
#    z 0.000000 0.000000 1.681740 
# 
# From -- ./inp_files/10978.got.cif
#   From: 2010.06.25/outbox.cif.g09.slc.cpg/sg58_6_cif.got.tgz:10978.got - 2010.06.26 21:38:00.
