data_PCOD8236275
_publ_section_title
;
Structure prediction by ZEFSAII (Michael W. Deem and Ramdas Pophale) SiO2 
 PCOD8236275
Probable space group: P N N M
;
_chemical_formula_sum "Si O2"
_cell_formula_units_Z 64
_cell_length_a 24.596842
_cell_length_b 14.547102
_cell_length_c 9.157358
_cell_angle_alpha 90.000000
_cell_angle_beta 90.000000
_cell_angle_gamma 90.000000
_cell_volume 3276.619627
_symmetry_space_group_name_H-M "P N N M"
_symmetry_group_IT_number 58
_symmetry_cell_setting 'orthorhombic'
loop_
_space_group_symop_operation_xyz
x,y,z
-x,-y,z
1/2+x,1/2-y,1/2-z
1/2-x,1/2+y,1/2-z
-x,-y,-z
x,y,-z
1/2-x,1/2+y,1/2+z
1/2+x,1/2-y,1/2+z
loop_
_atom_site_type_symbol
_atom_site_label
_atom_site_fract_x
_atom_site_fract_y
_atom_site_fract_z
Si Si1 0.265278 0.128215 0.168796
Si Si2 0.171837 0.995880 0.169368
Si Si3 0.903562 0.256429 0.839178
Si Si4 0.135520 0.545763 0.166997
Si Si5 0.950562 0.565781 0.327370
Si Si6 0.472987 0.749395 0.334119
Si Si7 0.308257 0.320348 0.830520
Si Si8 0.446011 0.549340 0.673205
O O1 0.204413 0.091139 0.195796
O O2 0.306030 0.067529 0.264734
O O3 0.267755 0.236374 0.213525
O O4 0.283076 0.118362 0.000000
O O5 0.110245 0.004099 0.231978
O O6 0.205731 0.914287 0.246862
O O7 0.169841 0.971753 0.000000
O O8 0.903511 0.366047 0.820525
O O9 0.869151 0.208782 0.712900
O O10 0.964227 0.220389 0.825792
O O11 0.879785 0.230435 0.000000
O O12 0.105944 0.465068 0.254875
O O13 0.143985 0.514534 0.000000
O O14 0.943921 0.563071 0.500000
O O15 0.960451 0.669666 0.277519
O O16 0.000000 0.500000 0.276256
O O17 0.457612 0.779092 0.500000
O O18 0.442169 0.656990 0.284356
O O19 0.305418 0.342053 0.000000
O O20 0.500000 0.500000 0.740346
O O21 0.448212 0.539924 0.500000
#
# Coordination Sequence:
#
# PCOD8236275 Si02
#       8
#     8   8   8   8   8   8   8   8
#     4   9  20  38  57  79 112 147 184 233 287 342
#     4  10  20  38  61  83 112 150 187 229 287 348
#     4   9  17  30  52  79 107 141 186 234 277 327
#     4  10  19  33  55  80 107 143 192 243 278 324
#     4  11  22  34  51  78 118 161 192 227 285 350
#     4  10  19  33  54  82 113 147 191 238 280 333
#     4  10  20  34  55  82 110 142 185 235 281 333
#     4   9  18  34  59  87 113 144 186 235 286 342
#
# _framework density 19.532326000000001
#
# number of rings (size 3 to 8) (size 9 to 14) (size 15 to 20)
#    0.000    2.250    1.250    1.875    0.000    4.500 
#    2.250    0.625    0.000    1.500    0.000    0.000 
#    0.000    0.000    0.000    0.000    0.000    0.000 
#
# Total GULP energy -793453.029662 kJ/mol
# GULP energy per Si atom -12397.703588 kJ/mol
# Density = 1.948787 g / cm^3
# Si number density = 19.532326 Si / 1000 Ang^3
#
#
#
# Elastic Constant Matrix: (Units=GPa)
#
#
# Indices 1 2 3 4 5 6 
#
# 1 89.2126 50.1621 34.1386 0.0000 0.0000 0.0000
# 2 50.1621 118.1416 38.5532 0.0000 0.0000 0.0000
# 3 34.1386 38.5532 63.0566 0.0000 0.0000 0.0000
# 4 0.0000 0.0000 0.0000 27.0700 0.0000 0.0000
# 5 0.0000 0.0000 0.0000 0.0000 21.1062 0.0000
# 6 0.0000 0.0000 0.0000 0.0000 0.0000 30.1403
#
#
#
# Elastic Compliance Matrix: (Units=1/GPa)
#
#
# Indices 1 2 3 4 5 6 
#
# 1 0.016218 -0.005023 -0.005709 0.000000 0.000000 0.000000
# 2 -0.005023 0.012130 -0.004697 0.000000 0.000000 0.000000
# 3 -0.005709 -0.004697 0.021821 0.000000 0.000000 0.000000
# 4 0.000000 0.000000 0.000000 0.036941 0.000000 0.000000
# 5 0.000000 0.000000 0.000000 0.000000 0.047380 0.000000
# 6 0.000000 0.000000 0.000000 0.000000 0.000000 0.033178
#
#
# Mechanical properties :
#
#
# Convention : Reuss Voigt Hill
#
# Bulk Modulus (GPa) = 51.78363 57.34652 54.56508
# Shear Modulus (GPa) = 24.39449 25.50041 24.94745
#
# Velocity S-wave (km/s) = 3.53785 3.61716 3.57773
# Velocity P-wave (km/s) = 6.57707 6.84607 6.71292
#
# Compressibility (1/GPa) = 0.01931112
#
# Stress axis : x y z
#
# Youngs Moduli (GPa) = 61.65870 82.44100 45.82637
#
# Poissons Ratio (x) = 0.41410 0.26164
# Poissons Ratio (y) = 0.30971 0.21524
# Poissons Ratio (z) = 0.35204 0.38721
#
# Static dielectric constant tensor:
#      x y z
#    x 3.446730 0.000000 0.000000 
#    y 0.000000 3.622320 0.000000 
#    z 0.000000 0.000000 3.402220 
# 
# 
# High freq. dielectric constant tensor:
#      x y z
#    x 1.744470 0.000000 0.000000 
#    y 0.000000 1.766020 0.000000 
#    z 0.000000 0.000000 1.740870 
# 
# From -- ./inp_files/10031.got.cif
#   From: 2010.06.25/outbox.cif.g09.slc.cpg/sg58_6_cif.got.tgz:10031.got - 2010.06.26 21:38:00.
