data_PCOD8236001
_publ_section_title
;
Structure prediction by ZEFSAII (Michael W. Deem and Ramdas Pophale) SiO2 
 PCOD8236001
Probable space group: P N N M
;
_chemical_formula_sum "Si O2"
_cell_formula_units_Z 64
_cell_length_a 29.405544
_cell_length_b 12.098040
_cell_length_c 8.866657
_cell_angle_alpha 90.000000
_cell_angle_beta 90.000000
_cell_angle_gamma 90.000000
_cell_volume 3154.308329
_symmetry_space_group_name_H-M "P N N M"
_symmetry_group_IT_number 58
_symmetry_cell_setting 'orthorhombic'
loop_
_space_group_symop_operation_xyz
x,y,z
-x,-y,z
1/2+x,1/2-y,1/2-z
1/2-x,1/2+y,1/2-z
-x,-y,-z
x,y,-z
1/2-x,1/2+y,1/2+z
1/2+x,1/2-y,1/2+z
loop_
_atom_site_type_symbol
_atom_site_label
_atom_site_fract_x
_atom_site_fract_y
_atom_site_fract_z
Si Si1 0.613782 0.355519 0.824044
Si Si2 0.662441 0.754915 0.820359
Si Si3 0.650247 0.120695 0.827286
Si Si4 0.275845 0.045916 0.174812
Si Si5 0.559497 0.802637 0.823200
Si Si6 0.526613 0.262341 0.674000
Si Si7 0.432685 0.975058 0.327644
Si Si8 0.320793 0.477210 0.679527
O O1 0.646415 0.250452 0.790029
O O2 0.563116 0.336621 0.762206
O O3 0.635011 0.460140 0.740385
O O4 0.610596 0.381855 0.000000
O O5 0.610382 0.773887 0.769760
O O6 0.680869 0.645452 0.743347
O O7 0.693745 0.855108 0.755844
O O8 0.665331 0.744993 0.000000
O O9 0.700847 0.074536 0.798820
O O10 0.618891 0.050110 0.717036
O O11 0.634626 0.098578 0.000000
O O12 0.224794 0.039190 0.240766
O O13 0.272215 0.071867 0.000000
O O14 0.523758 0.719316 0.742532
O O15 0.547727 0.927860 0.775831
O O16 0.553223 0.789028 0.000000
O O17 0.527642 0.297603 0.500000
O O18 0.537609 0.133730 0.697734
O O19 0.434745 0.015031 0.500000
O O20 0.322155 0.472998 0.500000
#
# Coordination Sequence:
#
# PCOD8236001 Si02
#       8
#     8   8   8   8   8   8   8   8
#     4  10  21  38  62  87 118 158 205 247 291 357
#     4  10  22  42  63  85 119 158 200 247 295 353
#     4   9  17  34  58  83 113 154 195 237 287 347
#     4   9  19  38  61  86 118 154 192 241 299 353
#     4  11  21  35  58  84 116 160 204 247 298 357
#     4  10  21  36  56  85 123 158 197 249 304 356
#     4  10  19  31  50  82 122 157 189 238 297 351
#     4  11  24  40  62  88 120 157 198 249 303 354
#
# _framework density 20.289708999999998
#
# number of rings (size 3 to 8) (size 9 to 14) (size 15 to 20)
#    0.000    2.000    1.250    2.250    1.750    4.500 
#    0.000    2.500    0.000    3.750    0.000    0.000 
#    0.000    0.000    0.000    0.000    0.000    0.000 
#
# Total GULP energy -793555.248855 kJ/mol
# GULP energy per Si atom -12399.300763 kJ/mol
# Density = 2.024353 g / cm^3
# Si number density = 20.289709 Si / 1000 Ang^3
#
#
#
# Elastic Constant Matrix: (Units=GPa)
#
#
# Indices 1 2 3 4 5 6 
#
# 1 109.8532 23.4614 35.5230 0.0000 0.0000 0.0000
# 2 23.4614 62.1263 23.3670 0.0000 0.0000 0.0000
# 3 35.5230 23.3670 49.2473 0.0000 0.0000 0.0000
# 4 0.0000 0.0000 0.0000 28.4982 0.0000 0.0000
# 5 0.0000 0.0000 0.0000 0.0000 27.0811 0.0000
# 6 0.0000 0.0000 0.0000 0.0000 0.0000 12.2178
#
#
#
# Elastic Compliance Matrix: (Units=1/GPa)
#
#
# Indices 1 2 3 4 5 6 
#
# 1 0.011994 -0.001552 -0.007915 0.000000 0.000000 0.000000
# 2 -0.001552 0.019794 -0.008272 0.000000 0.000000 0.000000
# 3 -0.007915 -0.008272 0.029940 0.000000 0.000000 0.000000
# 4 0.000000 0.000000 0.000000 0.035090 0.000000 0.000000
# 5 0.000000 0.000000 0.000000 0.000000 0.036926 0.000000
# 6 0.000000 0.000000 0.000000 0.000000 0.000000 0.081848
#
#
# Mechanical properties :
#
#
# Convention : Reuss Voigt Hill
#
# Bulk Modulus (GPa) = 38.09688 42.88107 40.48897
# Shear Modulus (GPa) = 19.24410 22.81777 21.03093
#
# Velocity S-wave (km/s) = 3.08306 3.35714 3.22301
# Velocity P-wave (km/s) = 5.61167 6.01726 5.81800
#
# Compressibility (1/GPa) = 0.02624887
#
# Stress axis : x y z
#
# Youngs Moduli (GPa) = 83.37465 50.52092 33.40038
#
# Poissons Ratio (x) = 0.07843 0.26436
# Poissons Ratio (y) = 0.12944 0.27629
# Poissons Ratio (z) = 0.65990 0.41791
#
# Static dielectric constant tensor:
#      x y z
#    x 3.871160 0.000000 0.000000 
#    y 0.000000 3.527800 0.000000 
#    z 0.000000 0.000000 3.540340 
# 
# 
# High freq. dielectric constant tensor:
#      x y z
#    x 1.800450 0.000000 0.000000 
#    y 0.000000 1.775930 0.000000 
#    z 0.000000 0.000000 1.782050 
# 
# From -- ./inp_files/11002.got.cif
#   From: 2010.06.25/outbox.cif.g09.slc.cpg/sg58_6_cif.got.tgz:11002.got - 2010.06.26 21:38:00.
