data_PCOD8236409
_publ_section_title
;
Structure prediction by ZEFSAII (Michael W. Deem and Ramdas Pophale) SiO2 
 PCOD8236409
Probable space group: P N N M
;
_chemical_formula_sum "Si O2"
_cell_formula_units_Z 64
_cell_length_a 20.088958
_cell_length_b 19.979535
_cell_length_c 8.405374
_cell_angle_alpha 90.000000
_cell_angle_beta 90.000000
_cell_angle_gamma 90.000000
_cell_volume 3373.648483
_symmetry_space_group_name_H-M "P N N M"
_symmetry_group_IT_number 58
_symmetry_cell_setting 'orthorhombic'
loop_
_space_group_symop_operation_xyz
x,y,z
-x,-y,z
1/2+x,1/2-y,1/2-z
1/2-x,1/2+y,1/2-z
-x,-y,-z
x,y,-z
1/2-x,1/2+y,1/2+z
1/2+x,1/2-y,1/2+z
loop_
_atom_site_type_symbol
_atom_site_label
_atom_site_fract_x
_atom_site_fract_y
_atom_site_fract_z
Si Si1 0.824906 0.919780 0.315069
Si Si2 0.434744 0.326352 0.189494
Si Si3 0.680038 0.925494 0.813160
Si Si4 0.321062 0.933370 0.314580
Si Si5 0.827049 0.070889 0.687144
Si Si6 0.430161 0.176148 0.811934
Si Si7 0.920931 0.671684 0.314932
Si Si8 0.576247 0.314800 0.683489
O O1 0.839045 0.906311 0.500000
O O2 0.747182 0.909021 0.280893
O O3 0.867225 0.869818 0.208529
O O4 0.845880 0.995074 0.265690
O O5 0.380189 0.377505 0.261868
O O6 0.413800 0.251663 0.244416
O O7 0.505963 0.345814 0.262277
O O8 0.440659 0.331141 0.000000
O O9 0.624160 0.875121 0.743530
O O10 0.654979 0.000811 0.779826
O O11 0.691615 0.914859 0.000000
O O12 0.317650 0.951805 0.500000
O O13 0.247532 0.912260 0.252221
O O14 0.371092 0.872946 0.286833
O O15 0.829306 0.080203 0.500000
O O16 0.504194 0.155613 0.754708
O O17 0.429266 0.173251 0.000000
O O18 0.911367 0.655283 0.500000
O O19 0.905306 0.749565 0.286223
O O20 0.573646 0.294144 0.500000
#
# Coordination Sequence:
#
# PCOD8236409 Si02
#       8
#     8   8   8   8   8   8   8   8
#     4  10  20  36  54  77 107 141 178 219 263 315
#     4   9  17  35  57  76  99 135 176 215 257 311
#     4  10  19  34  54  78 106 141 180 221 264 313
#     4  10  20  35  53  79 110 142 177 218 263 313
#     4   8  17  33  55  77 103 139 178 213 256 312
#     4   8  17  32  53  77 103 134 174 217 264 318
#     4  10  20  37  57  78 103 137 176 218 262 313
#     4  11  22  36  53  78 107 137 171 215 265 317
#
# _framework density 18.970559999999999
#
# number of rings (size 3 to 8) (size 9 to 14) (size 15 to 20)
#    0.000    2.500    0.000    4.125    0.000    2.000 
#    0.000   17.500    0.000    0.000    0.000    0.000 
#    0.000    0.000    0.000    0.000    0.000    0.000 
#
# Total GULP energy -793604.835392 kJ/mol
# GULP energy per Si atom -12400.075553 kJ/mol
# Density = 1.892738 g / cm^3
# Si number density = 18.970560 Si / 1000 Ang^3
#
#
#
# Elastic Constant Matrix: (Units=GPa)
#
#
# Indices 1 2 3 4 5 6 
#
# 1 111.8476 81.6417 12.0196 0.0000 0.0000 0.0000
# 2 81.6417 105.4319 7.1938 0.0000 0.0000 0.0000
# 3 12.0196 7.1938 40.2592 0.0000 0.0000 0.0000
# 4 0.0000 0.0000 0.0000 24.9204 0.0000 0.0000
# 5 0.0000 0.0000 0.0000 0.0000 26.4495 0.0000
# 6 0.0000 0.0000 0.0000 0.0000 0.0000 43.0373
#
#
#
# Elastic Compliance Matrix: (Units=1/GPa)
#
#
# Indices 1 2 3 4 5 6 
#
# 1 0.021016 -0.016042 -0.003408 0.000000 0.000000 0.000000
# 2 -0.016042 0.021846 0.000886 0.000000 0.000000 0.000000
# 3 -0.003408 0.000886 0.025698 0.000000 0.000000 0.000000
# 4 0.000000 0.000000 0.000000 0.040128 0.000000 0.000000
# 5 0.000000 0.000000 0.000000 0.000000 0.037808 0.000000
# 6 0.000000 0.000000 0.000000 0.000000 0.000000 0.023236
#
#
# Mechanical properties :
#
#
# Convention : Reuss Voigt Hill
#
# Bulk Modulus (GPa) = 31.81390 51.02768 41.42079
# Shear Modulus (GPa) = 23.00567 29.32701 26.16634
#
# Velocity S-wave (km/s) = 3.48617 3.93609 3.71794
# Velocity P-wave (km/s) = 5.74552 6.90027 6.34921
#
# Compressibility (1/GPa) = 0.03143280
#
# Stress axis : x y z
#
# Youngs Moduli (GPa) = 47.58212 45.77451 38.91309
#
# Poissons Ratio (x) = 0.73429 0.13262
# Poissons Ratio (y) = 0.76329 -0.03446
# Poissons Ratio (z) = 0.16217 -0.04054
#
# Static dielectric constant tensor:
#      x y z
#    x 3.633640 0.000000 0.000000 
#    y 0.000000 3.592810 0.000000 
#    z 0.000000 0.000000 3.233430 
# 
# 
# High freq. dielectric constant tensor:
#      x y z
#    x 1.740130 0.000000 0.000000 
#    y 0.000000 1.737390 0.000000 
#    z 0.000000 0.000000 1.720710 
# 
# From -- ./inp_files/8392.got.cif
#   From: 2010.06.25/outbox.cif.g09.slc.cpg/sg58_5_cif.got.tgz:8392.got - 2010.06.26 21:38:00.
