data_PCOD8236812
_publ_section_title
;
Structure prediction by ZEFSAII (Michael W. Deem and Ramdas Pophale) SiO2 
 PCOD8236812
Probable space group: P N N M
;
_chemical_formula_sum "Si O2"
_cell_formula_units_Z 56
_cell_length_a 14.665935
_cell_length_b 8.731402
_cell_length_c 20.504288
_cell_angle_alpha 90.000000
_cell_angle_beta 90.000000
_cell_angle_gamma 90.000000
_cell_volume 2625.659667
_symmetry_space_group_name_H-M "P N N M"
_symmetry_group_IT_number 58
_symmetry_cell_setting 'orthorhombic'
loop_
_space_group_symop_operation_xyz
x,y,z
-x,-y,z
1/2+x,1/2-y,1/2-z
1/2-x,1/2+y,1/2-z
-x,-y,-z
x,y,-z
1/2-x,1/2+y,1/2+z
1/2+x,1/2-y,1/2+z
loop_
_atom_site_type_symbol
_atom_site_label
_atom_site_fract_x
_atom_site_fract_y
_atom_site_fract_z
Si Si1 0.152566 0.991623 0.500000
Si Si2 0.745153 0.384484 0.422096
Si Si3 0.745734 0.560915 0.864903
Si Si4 0.443895 0.124489 0.877346
Si Si5 0.003066 0.247347 0.500000
Si Si6 0.918215 0.104309 0.076417
Si Si7 0.420583 0.125377 0.669393
Si Si8 0.922097 0.122095 0.282323
O O1 0.083768 0.129630 0.500000
O O2 0.211150 0.007643 0.566143
O O3 0.098288 0.831005 0.500000
O O4 0.742405 0.351287 0.500000
O O5 0.719057 0.232640 0.381141
O O6 0.843944 0.435390 0.396454
O O7 0.676211 0.521502 0.403169
O O8 0.827484 0.465451 0.835533
O O9 0.673652 0.546968 0.804460
O O10 0.449471 0.292707 0.848201
O O11 0.500000 0.000000 0.833494
O O12 0.510334 0.141742 0.938992
O O13 0.931405 0.274033 0.104446
O O14 0.924984 0.125155 0.000000
O O15 0.000000 0.000000 0.103362
O O16 0.412548 0.247287 0.727963
O O17 0.500000 0.000000 0.677960
O O18 0.000000 0.000000 0.262515
#
# Coordination Sequence:
#
# PCOD8236812 Si02
#       8
#     4   8   8   8   4   8   8   8
#     4  11  20  38  67 102 141 174 227 271 337 405
#     4  10  19  37  61  92 132 166 205 261 326 388
#     4  11  23  42  70 100 133 179 220 280 336 398
#     4  11  21  36  60  99 136 174 209 261 323 403
#     4  11  19  34  64 102 140 176 208 267 335 409
#     4  10  23  42  65  92 122 170 223 277 333 382
#     4  12  28  46  66  96 130 175 230 283 332 395
#     4  11  25  45  69  93 132 177 224 272 339 401
#
# _framework density 21.327973
#
# number of rings (size 3 to 8) (size 9 to 14) (size 15 to 20)
#    0.000    1.143    4.286    2.786    1.000    6.000 
#    0.000    0.000    0.000    0.000    0.000    0.000 
#    0.000    0.000    0.000    0.000    0.000    0.000 
#
# Total GULP energy -693931.171006 kJ/mol
# GULP energy per Si atom -12391.628054 kJ/mol
# Density = 2.127943 g / cm^3
# Si number density = 21.327973 Si / 1000 Ang^3
#
#
#
# Elastic Constant Matrix: (Units=GPa)
#
#
# Indices 1 2 3 4 5 6 
#
# 1 143.9197 89.0553 57.1428 0.0000 0.0000 0.0000
# 2 89.0553 106.8467 40.8582 0.0000 0.0000 0.0000
# 3 57.1428 40.8582 77.9586 0.0000 0.0000 0.0000
# 4 0.0000 0.0000 0.0000 16.3760 0.0000 0.0000
# 5 0.0000 0.0000 0.0000 0.0000 20.4299 0.0000
# 6 0.0000 0.0000 0.0000 0.0000 0.0000 47.9361
#
#
#
# Elastic Compliance Matrix: (Units=1/GPa)
#
#
# Indices 1 2 3 4 5 6 
#
# 1 0.016355 -0.011316 -0.006058 0.000000 0.000000 0.000000
# 2 -0.011316 0.019534 -0.001944 0.000000 0.000000 0.000000
# 3 -0.006058 -0.001944 0.018286 0.000000 0.000000 0.000000
# 4 0.000000 0.000000 0.000000 0.061065 0.000000 0.000000
# 5 0.000000 0.000000 0.000000 0.000000 0.048948 0.000000
# 6 0.000000 0.000000 0.000000 0.000000 0.000000 0.020861
#
#
# Mechanical properties :
#
#
# Convention : Reuss Voigt Hill
#
# Bulk Modulus (GPa) = 64.34327 78.09307 71.21817
# Shear Modulus (GPa) = 21.84703 26.39296 24.11999
#
# Velocity S-wave (km/s) = 3.20400 3.52160 3.36655
# Velocity P-wave (km/s) = 6.62733 7.29592 6.96964
#
# Compressibility (1/GPa) = 0.01554164
#
# Stress axis : x y z
#
# Youngs Moduli (GPa) = 61.14164 51.19343 54.68576
#
# Poissons Ratio (x) = 0.57928 0.33128
# Poissons Ratio (y) = 0.69185 0.10628
# Poissons Ratio (z) = 0.37039 0.09950
#
# Static dielectric constant tensor:
#      x y z
#    x 3.988950 0.000000 0.000000 
#    y 0.000000 4.138860 0.000000 
#    z 0.000000 0.000000 3.922480 
# 
# 
# High freq. dielectric constant tensor:
#      x y z
#    x 1.838220 0.000000 0.000000 
#    y 0.000000 1.846810 0.000000 
#    z 0.000000 0.000000 1.836280 
# 
# From -- ./inp_files/30049.got.cif
#   From: 2010.06.25/outbox.cif.g09.slc.cpg/sg58_16_cif.got.tgz:30049.got - 2010.06.26 21:38:00.
