data_PCOD8236929
_publ_section_title
;
Structure prediction by ZEFSAII (Michael W. Deem and Ramdas Pophale) SiO2 
 PCOD8236929
Probable space group: P N N M
;
_chemical_formula_sum "Si O2"
_cell_formula_units_Z 64
_cell_length_a 24.543261
_cell_length_b 14.602936
_cell_length_c 9.828545
_cell_angle_alpha 90.000000
_cell_angle_beta 90.000000
_cell_angle_gamma 90.000000
_cell_volume 3522.586595
_symmetry_space_group_name_H-M "P N N M"
_symmetry_group_IT_number 58
_symmetry_cell_setting 'orthorhombic'
loop_
_space_group_symop_operation_xyz
x,y,z
-x,-y,z
1/2+x,1/2-y,1/2-z
1/2-x,1/2+y,1/2-z
-x,-y,-z
x,y,-z
1/2-x,1/2+y,1/2+z
1/2+x,1/2-y,1/2+z
loop_
_atom_site_type_symbol
_atom_site_label
_atom_site_fract_x
_atom_site_fract_y
_atom_site_fract_z
Si Si1 0.587517 0.251594 0.660189
Si Si2 0.706722 0.296208 0.657670
Si Si3 0.550756 0.058071 0.338366
Si Si4 0.131681 0.925964 0.651003
Si Si5 0.850437 0.434117 0.156811
Si Si6 0.270282 0.544647 0.850937
Si Si7 0.671784 0.766868 0.842682
Si Si8 0.057755 0.045829 0.840813
O O1 0.580690 0.249318 0.500000
O O2 0.651915 0.240550 0.698809
O O3 0.554809 0.162893 0.719759
O O4 0.561756 0.348440 0.712466
O O5 0.703425 0.322298 0.500000
O O6 0.703897 0.390408 0.738711
O O7 0.764155 0.246392 0.692690
O O8 0.545891 0.062282 0.500000
O O9 0.500000 0.000000 0.277593
O O10 0.605133 0.006075 0.292205
O O11 0.106146 0.941742 0.500000
O O12 0.133121 0.819275 0.688555
O O13 0.195359 0.952087 0.649060
O O14 0.100608 0.984032 0.762203
O O15 0.792089 0.482269 0.178989
O O16 0.853705 0.344052 0.247943
O O17 0.860748 0.406099 0.000000
O O18 0.273750 0.592916 0.000000
O O19 0.667464 0.796821 0.000000
O O20 0.071995 0.041594 0.000000
O O21 0.000000 0.000000 0.809205
#
# Coordination Sequence:
#
# PCOD8236929 Si02
#       8
#     8   8   8   8   8   8   8   8
#     4   9  17  30  49  73 100 132 169 210 254 303
#     4   9  16  29  50  72  98 134 174 208 246 301
#     4   9  18  31  50  76 103 132 171 215 258 303
#     4  10  20  33  50  75 107 139 171 209 257 314
#     4   9  18  32  51  75 101 133 172 217 262 299
#     4   9  17  29  47  72 103 130 161 209 257 300
#     4   9  19  32  49  75 106 140 173 208 256 313
#     4  10  21  36  54  78 106 137 174 216 259 305
#
# _framework density 18.168467
#
# number of rings (size 3 to 8) (size 9 to 14) (size 15 to 20)
#    0.000    2.750    1.250    0.000    1.750    1.750 
#    0.000    2.500    0.000    1.875    0.000    0.000 
#    0.000    0.000    0.000    0.000    0.000    0.000 
#
# Total GULP energy -792983.288757 kJ/mol
# GULP energy per Si atom -12390.363887 kJ/mol
# Density = 1.812711 g / cm^3
# Si number density = 18.168467 Si / 1000 Ang^3
#
#
#
# Elastic Constant Matrix: (Units=GPa)
#
#
# Indices 1 2 3 4 5 6 
#
# 1 94.3087 67.3883 29.3233 0.0000 0.0000 0.0000
# 2 67.3883 128.7862 37.1161 0.0000 0.0000 0.0000
# 3 29.3233 37.1161 36.8137 0.0000 0.0000 0.0000
# 4 0.0000 0.0000 0.0000 17.7123 0.0000 0.0000
# 5 0.0000 0.0000 0.0000 0.0000 19.4596 0.0000
# 6 0.0000 0.0000 0.0000 0.0000 0.0000 28.6961
#
#
#
# Elastic Compliance Matrix: (Units=1/GPa)
#
#
# Indices 1 2 3 4 5 6 
#
# 1 0.018085 -0.007487 -0.006857 0.000000 0.000000 0.000000
# 2 -0.007487 0.014045 -0.008196 0.000000 0.000000 0.000000
# 3 -0.006857 -0.008196 0.040889 0.000000 0.000000 0.000000
# 4 0.000000 0.000000 0.000000 0.056458 0.000000 0.000000
# 5 0.000000 0.000000 0.000000 0.000000 0.051389 0.000000
# 6 0.000000 0.000000 0.000000 0.000000 0.000000 0.034848
#
#
# Mechanical properties :
#
#
# Convention : Reuss Voigt Hill
#
# Bulk Modulus (GPa) = 35.79289 58.61820 47.20554
# Shear Modulus (GPa) = 18.51114 21.57899 20.04506
#
# Velocity S-wave (km/s) = 3.19542 3.45007 3.32518
# Velocity P-wave (km/s) = 5.77561 6.94293 6.38600
#
# Compressibility (1/GPa) = 0.02793851
#
# Stress axis : x y z
#
# Youngs Moduli (GPa) = 55.29311 71.20128 24.45633
#
# Poissons Ratio (x) = 0.53310 0.16770
# Poissons Ratio (y) = 0.41399 0.20045
# Poissons Ratio (z) = 0.37914 0.58359
#
# Static dielectric constant tensor:
#      x y z
#    x 3.463490 0.000000 0.000000 
#    y 0.000000 3.468990 0.000000 
#    z 0.000000 0.000000 3.140860 
# 
# 
# High freq. dielectric constant tensor:
#      x y z
#    x 1.705110 0.000000 0.000000 
#    y 0.000000 1.698850 0.000000 
#    z 0.000000 0.000000 1.672320 
# 
# From -- ./inp_files/10048.got.cif
#   From: 2010.06.25/outbox.cif.g09.slc.cpg/sg58_6_cif.got.tgz:10048.got - 2010.06.26 21:38:00.
