data_PCOD8236212
_publ_section_title
;
Structure prediction by ZEFSAII (Michael W. Deem and Ramdas Pophale) SiO2 
 PCOD8236212
Probable space group: P N N M
;
_chemical_formula_sum "Si O2"
_cell_formula_units_Z 56
_cell_length_a 18.716558
_cell_length_b 7.758340
_cell_length_c 21.773288
_cell_angle_alpha 90.000000
_cell_angle_beta 90.000000
_cell_angle_gamma 90.000000
_cell_volume 3161.686535
_symmetry_space_group_name_H-M "P N N M"
_symmetry_group_IT_number 58
_symmetry_cell_setting 'orthorhombic'
loop_
_space_group_symop_operation_xyz
x,y,z
-x,-y,z
1/2+x,1/2-y,1/2-z
1/2-x,1/2+y,1/2-z
-x,-y,-z
x,y,-z
1/2-x,1/2+y,1/2+z
1/2+x,1/2-y,1/2+z
loop_
_atom_site_type_symbol
_atom_site_label
_atom_site_fract_x
_atom_site_fract_y
_atom_site_fract_z
Si Si1 0.348250 0.692821 0.757009
Si Si2 0.766631 0.312263 0.656268
Si Si3 0.281603 0.974441 0.429668
Si Si4 0.362752 0.298536 0.744888
Si Si5 0.441197 0.855031 0.432782
Si Si6 0.250132 0.300020 0.356633
Si Si7 0.987406 0.700916 0.805877
O O1 0.294976 0.748769 0.702981
O O2 0.345800 0.489982 0.765722
O O3 0.324691 0.773623 0.821647
O O4 0.426119 0.763963 0.742910
O O5 0.768150 0.165408 0.604613
O O6 0.841214 0.318718 0.695658
O O7 0.748042 0.497289 0.624992
O O8 0.263384 0.948631 0.500000
O O9 0.365289 0.941634 0.416112
O O10 0.258753 0.171158 0.413799
O O11 0.314729 0.243887 0.687558
O O12 0.443887 0.291806 0.722446
O O13 0.436258 0.757948 0.500000
O O14 0.464807 0.731903 0.375009
O O15 0.500000 0.000000 0.440560
O O16 0.000000 0.500000 0.812335
#
# Coordination Sequence:
#
# PCOD8236212 Si02
#       7
#     8   8   8   8   8   8   8
#     4  10  19  33  51  75 111 138 175 229 282 319
#     4  10  20  35  53  79 107 140 181 228 280 318
#     4  11  21  36  56  77 110 150 187 225 269 324
#     4  10  20  32  52  77 108 141 179 227 278 327
#     4   9  18  31  50  73 107 152 191 221 259 319
#     4  10  20  34  54  77 105 140 178 228 275 324
#     4  11  19  29  50  78 107 142 182 218 272 326
#
# _framework density 17.712064999999999
#
# number of rings (size 3 to 8) (size 9 to 14) (size 15 to 20)
#    0.000    1.857    2.857    3.000    2.000    0.571 
#    0.000    0.000    0.000    2.571    0.000    2.000 
#    0.000    3.429    0.000    0.000    0.000    0.000 
#
# Total GULP energy -694007.671231 kJ/mol
# GULP energy per Si atom -12392.994129 kJ/mol
# Density = 1.767175 g / cm^3
# Si number density = 17.712065 Si / 1000 Ang^3
#
#
#
# Elastic Constant Matrix: (Units=GPa)
#
#
# Indices 1 2 3 4 5 6 
#
# 1 92.6529 5.2537 48.6600 0.0000 0.0000 0.0000
# 2 5.2537 65.4493 30.6758 0.0000 0.0000 0.0000
# 3 48.6600 30.6758 86.9933 0.0000 0.0000 0.0000
# 4 0.0000 0.0000 0.0000 22.2839 0.0000 0.0000
# 5 0.0000 0.0000 0.0000 0.0000 28.2904 0.0000
# 6 0.0000 0.0000 0.0000 0.0000 0.0000 22.1373
#
#
#
# Elastic Compliance Matrix: (Units=1/GPa)
#
#
# Indices 1 2 3 4 5 6 
#
# 1 0.015913 0.003468 -0.010124 0.000000 0.000000 0.000000
# 2 0.003468 0.019060 -0.008661 0.000000 0.000000 0.000000
# 3 -0.010124 -0.008661 0.020212 0.000000 0.000000 0.000000
# 4 0.000000 0.000000 0.000000 0.044875 0.000000 0.000000
# 5 0.000000 0.000000 0.000000 0.000000 0.035348 0.000000
# 6 0.000000 0.000000 0.000000 0.000000 0.000000 0.045173
#
#
# Mechanical properties :
#
#
# Convention : Reuss Voigt Hill
#
# Bulk Modulus (GPa) = 40.73100 46.03053 43.38077
# Shear Modulus (GPa) = 22.78961 25.24272 24.01616
#
# Velocity S-wave (km/s) = 3.59091 3.77924 3.68628
# Velocity P-wave (km/s) = 6.34342 6.71477 6.53174
#
# Compressibility (1/GPa) = 0.02455132
#
# Stress axis : x y z
#
# Youngs Moduli (GPa) = 62.84055 52.46635 49.47573
#
# Poissons Ratio (x) = -0.18194 0.50089
# Poissons Ratio (y) = -0.21791 0.42849
# Poissons Ratio (z) = 0.63619 0.45439
#
# Static dielectric constant tensor:
#      x y z
#    x 3.156070 0.000000 0.000000 
#    y 0.000000 3.188340 0.000000 
#    z 0.000000 0.000000 3.402720 
# 
# 
# High freq. dielectric constant tensor:
#      x y z
#    x 1.672720 0.000000 0.000000 
#    y 0.000000 1.679010 0.000000 
#    z 0.000000 0.000000 1.666890 
# 
# From -- ./inp_files/29071.got.cif
#   From: 2010.06.25/outbox.cif.g09.slc.cpg/sg58_15_cif.got.tgz:29071.got - 2010.06.26 21:38:00.
