data_PCOD8236018
_publ_section_title
;
Structure prediction by ZEFSAII (Michael W. Deem and Ramdas Pophale) SiO2 
 PCOD8236018
Probable space group: P N N M
;
_chemical_formula_sum "Si O2"
_cell_formula_units_Z 64
_cell_length_a 14.476110
_cell_length_b 24.103140
_cell_length_c 9.605848
_cell_angle_alpha 90.000000
_cell_angle_beta 90.000000
_cell_angle_gamma 90.000000
_cell_volume 3351.669660
_symmetry_space_group_name_H-M "P N N M"
_symmetry_group_IT_number 58
_symmetry_cell_setting 'orthorhombic'
loop_
_space_group_symop_operation_xyz
x,y,z
-x,-y,z
1/2+x,1/2-y,1/2-z
1/2-x,1/2+y,1/2-z
-x,-y,-z
x,y,-z
1/2-x,1/2+y,1/2+z
1/2+x,1/2-y,1/2+z
loop_
_atom_site_type_symbol
_atom_site_label
_atom_site_fract_x
_atom_site_fract_y
_atom_site_fract_z
Si Si1 0.064473 0.451518 0.164153
Si Si2 0.742074 0.403339 0.153148
Si Si3 0.269063 0.469260 0.160899
Si Si4 0.060546 0.947802 0.160213
Si Si5 0.636481 0.755508 0.164896
Si Si6 0.025817 0.823515 0.157588
Si Si7 0.676696 0.309447 0.658789
Si Si8 0.936199 0.354334 0.842128
O O1 0.168554 0.453690 0.222911
O O2 0.000000 0.500000 0.230553
O O3 0.025790 0.390247 0.199058
O O4 0.068929 0.462026 0.000000
O O5 0.713852 0.465866 0.179796
O O6 0.688357 0.366277 0.260951
O O7 0.852110 0.397568 0.167447
O O8 0.710690 0.383963 0.000000
O O9 0.346407 0.439274 0.251782
O O10 0.278661 0.450788 0.000000
O O11 0.007119 0.889270 0.178507
O O12 0.086912 0.958923 0.000000
O O13 0.000000 0.000000 0.216248
O O14 0.602971 0.698339 0.234773
O O15 0.745765 0.763766 0.201419
O O16 0.576401 0.804755 0.232985
O O17 0.618631 0.753662 0.000000
O O18 0.929010 0.790082 0.183887
O O19 0.060439 0.812359 0.000000
O O20 0.693127 0.325406 0.500000
O O21 0.944829 0.330326 0.000000
#
# Coordination Sequence:
#
# PCOD8236018 Si02
#       8
#     8   8   8   8   8   8   8   8
#     4   9  15  28  51  79 112 150 189 223 263 325
#     4   9  16  27  49  80 109 139 180 224 263 310
#     4  10  19  31  51  82 114 145 181 224 273 319
#     4  10  22  40  60  81 108 146 186 226 278 340
#     4  10  21  37  57  83 111 135 174 234 284 319
#     4  10  21  40  62  81 106 145 188 223 268 337
#     4   9  19  36  58  80 102 136 181 225 269 320
#     4   9  16  30  53  77 106 147 189 223 260 318
#
# _framework density 19.094961000000001
#
# number of rings (size 3 to 8) (size 9 to 14) (size 15 to 20)
#    0.000    2.500    1.250    1.125    0.000    3.250 
#    2.250    0.625    0.000    0.750    0.000    0.000 
#    0.000    0.000    0.000    0.000    0.000    0.000 
#
# Total GULP energy -793330.611988 kJ/mol
# GULP energy per Si atom -12395.790812 kJ/mol
# Density = 1.905150 g / cm^3
# Si number density = 19.094961 Si / 1000 Ang^3
#
#
#
# Elastic Constant Matrix: (Units=GPa)
#
#
# Indices 1 2 3 4 5 6 
#
# 1 109.4286 35.4093 44.5535 0.0000 0.0000 0.0000
# 2 35.4093 69.0320 33.0854 0.0000 0.0000 0.0000
# 3 44.5535 33.0854 67.4827 0.0000 0.0000 0.0000
# 4 0.0000 0.0000 0.0000 17.1651 0.0000 0.0000
# 5 0.0000 0.0000 0.0000 0.0000 25.7437 0.0000
# 6 0.0000 0.0000 0.0000 0.0000 0.0000 26.0552
#
#
#
# Elastic Compliance Matrix: (Units=1/GPa)
#
#
# Indices 1 2 3 4 5 6 
#
# 1 0.013067 -0.003357 -0.006981 0.000000 0.000000 0.000000
# 2 -0.003357 0.019798 -0.007490 0.000000 0.000000 0.000000
# 3 -0.006981 -0.007490 0.023100 0.000000 0.000000 0.000000
# 4 0.000000 0.000000 0.000000 0.058258 0.000000 0.000000
# 5 0.000000 0.000000 0.000000 0.000000 0.038845 0.000000
# 6 0.000000 0.000000 0.000000 0.000000 0.000000 0.038380
#
#
# Mechanical properties :
#
#
# Convention : Reuss Voigt Hill
#
# Bulk Modulus (GPa) = 49.24102 52.44885 50.84493
# Shear Modulus (GPa) = 21.37908 22.65245 22.01577
#
# Velocity S-wave (km/s) = 3.34970 3.44802 3.39921
# Velocity P-wave (km/s) = 6.38781 6.58625 6.48779
#
# Compressibility (1/GPa) = 0.02030827
#
# Stress axis : x y z
#
# Youngs Moduli (GPa) = 76.52878 50.51096 43.28955
#
# Poissons Ratio (x) = 0.16954 0.30222
# Poissons Ratio (y) = 0.25687 0.32425
# Poissons Ratio (z) = 0.53428 0.37834
#
# Static dielectric constant tensor:
#      x y z
#    x 3.604690 0.000000 0.000000 
#    y 0.000000 3.293830 0.000000 
#    z 0.000000 0.000000 3.333490 
# 
# 
# High freq. dielectric constant tensor:
#      x y z
#    x 1.743340 0.000000 0.000000 
#    y 0.000000 1.730290 0.000000 
#    z 0.000000 0.000000 1.722580 
# 
# From -- ./inp_files/6956.got.cif
#   From: 2010.06.25/outbox.cif.g09.slc.cpg/sg58_4_cif.got.tgz:6956.got - 2010.06.26 21:38:00.
