data_PCOD8236923
_publ_section_title
;
Structure prediction by ZEFSAII (Michael W. Deem and Ramdas Pophale) SiO2 
 PCOD8236923
Probable space group: P N N M
;
_chemical_formula_sum "Si O2"
_cell_formula_units_Z 56
_cell_length_a 18.103002
_cell_length_b 18.826761
_cell_length_c 9.172195
_cell_angle_alpha 90.000000
_cell_angle_beta 90.000000
_cell_angle_gamma 90.000000
_cell_volume 3126.075682
_symmetry_space_group_name_H-M "P N N M"
_symmetry_group_IT_number 58
_symmetry_cell_setting 'orthorhombic'
loop_
_space_group_symop_operation_xyz
x,y,z
-x,-y,z
1/2+x,1/2-y,1/2-z
1/2-x,1/2+y,1/2-z
-x,-y,-z
x,y,-z
1/2-x,1/2+y,1/2+z
1/2+x,1/2-y,1/2+z
loop_
_atom_site_type_symbol
_atom_site_label
_atom_site_fract_x
_atom_site_fract_y
_atom_site_fract_z
Si Si1 0.501073 0.708248 0.332640
Si Si2 0.526021 0.424810 0.831052
Si Si3 0.396773 0.901924 0.833434
Si Si4 0.668228 0.949010 0.171739
Si Si5 0.803190 0.892956 0.335294
Si Si6 0.044689 0.638924 0.829293
Si Si7 0.138442 0.250106 0.335900
O O1 0.501136 0.686304 0.500000
O O2 0.522717 0.637869 0.242522
O O3 0.553520 0.776208 0.302845
O O4 0.420038 0.733401 0.288127
O O5 0.500000 0.500000 0.764709
O O6 0.612667 0.414287 0.799741
O O7 0.506898 0.421727 0.000000
O O8 0.469847 0.893175 0.737361
O O9 0.341338 0.833614 0.818516
O O10 0.351625 0.970649 0.782352
O O11 0.423444 0.910989 0.000000
O O12 0.751404 0.933864 0.222768
O O13 0.614773 0.895211 0.253261
O O14 0.662152 0.937025 0.000000
O O15 0.781867 0.915196 0.500000
O O16 0.794649 0.806503 0.316590
O O17 0.044341 0.620869 0.000000
O O18 0.104951 0.237598 0.500000
#
# Coordination Sequence:
#
# PCOD8236923 Si02
#       7
#     8   8   8   8   8   8   8
#     4   9  17  29  48  75 100 122 156 201 244 286
#     4   9  18  34  56  78 100 130 167 206 251 302
#     4   9  18  33  52  74  98 127 167 209 249 295
#     4  11  22  33  48  72 103 136 166 203 251 300
#     4   9  18  33  52  72  96 129 165 202 247 297
#     4  10  20  33  50  73 101 133 168 206 247 294
#     4   8  15  31  53  70  89 123 162 199 242 294
#
# _framework density 17.913834000000001
#
# number of rings (size 3 to 8) (size 9 to 14) (size 15 to 20)
#    0.000    2.714    0.000    2.571    0.000    7.143 
#    0.000    1.429    0.000    5.143    0.000    0.000 
#    0.000    0.000    0.000    0.000    0.000    0.000 
#
# Total GULP energy -693946.420502 kJ/mol
# GULP energy per Si atom -12391.900366 kJ/mol
# Density = 1.787306 g / cm^3
# Si number density = 17.913834 Si / 1000 Ang^3
#
#
#
# Elastic Constant Matrix: (Units=GPa)
#
#
# Indices 1 2 3 4 5 6 
#
# 1 50.8620 45.2586 31.1257 0.0000 0.0000 0.0000
# 2 45.2586 156.4649 60.5040 0.0000 0.0000 0.0000
# 3 31.1257 60.5040 75.6075 0.0000 0.0000 0.0000
# 4 0.0000 0.0000 0.0000 28.1066 0.0000 0.0000
# 5 0.0000 0.0000 0.0000 0.0000 25.3169 0.0000
# 6 0.0000 0.0000 0.0000 0.0000 0.0000 20.6464
#
#
#
# Elastic Compliance Matrix: (Units=1/GPa)
#
#
# Indices 1 2 3 4 5 6 
#
# 1 0.029227 -0.005505 -0.007627 0.000000 0.000000 0.000000
# 2 -0.005505 0.010292 -0.005970 0.000000 0.000000 0.000000
# 3 -0.007627 -0.005970 0.021143 0.000000 0.000000 0.000000
# 4 0.000000 0.000000 0.000000 0.035579 0.000000 0.000000
# 5 0.000000 0.000000 0.000000 0.000000 0.039499 0.000000
# 6 0.000000 0.000000 0.000000 0.000000 0.000000 0.048435
#
#
# Mechanical properties :
#
#
# Convention : Reuss Voigt Hill
#
# Bulk Modulus (GPa) = 44.52530 61.85677 53.19104
# Shear Modulus (GPa) = 21.75200 24.55039 23.15120
#
# Velocity S-wave (km/s) = 3.48840 3.70600 3.59885
# Velocity P-wave (km/s) = 6.41362 7.27446 6.85756
#
# Compressibility (1/GPa) = 0.02245914
#
# Stress axis : x y z
#
# Youngs Moduli (GPa) = 34.21525 97.16241 47.29639
#
# Poissons Ratio (x) = 0.53486 0.36072
# Poissons Ratio (y) = 0.18835 0.28235
# Poissons Ratio (z) = 0.26095 0.58005
#
# Static dielectric constant tensor:
#      x y z
#    x 2.908170 0.000000 0.000000 
#    y 0.000000 3.829610 0.000000 
#    z 0.000000 0.000000 3.339650 
# 
# 
# High freq. dielectric constant tensor:
#      x y z
#    x 1.644690 0.000000 0.000000 
#    y 0.000000 1.713970 0.000000 
#    z 0.000000 0.000000 1.697520 
# 
# From -- ./inp_files/9173.got.cif
#   From: 2010.06.25/outbox.cif.g09.slc.cpg/sg58_5_cif.got.tgz:9173.got - 2010.06.26 21:38:00.
