data_PCOD8236504
_publ_section_title
;
Structure prediction by ZEFSAII (Michael W. Deem and Ramdas Pophale) SiO2 
 PCOD8236504
Probable space group: P N N M
;
_chemical_formula_sum "Si O2"
_cell_formula_units_Z 64
_cell_length_a 15.465206
_cell_length_b 23.988353
_cell_length_c 8.510423
_cell_angle_alpha 90.000000
_cell_angle_beta 90.000000
_cell_angle_gamma 90.000000
_cell_volume 3157.237751
_symmetry_space_group_name_H-M "P N N M"
_symmetry_group_IT_number 58
_symmetry_cell_setting 'orthorhombic'
loop_
_space_group_symop_operation_xyz
x,y,z
-x,-y,z
1/2+x,1/2-y,1/2-z
1/2-x,1/2+y,1/2-z
-x,-y,-z
x,y,-z
1/2-x,1/2+y,1/2+z
1/2+x,1/2-y,1/2+z
loop_
_atom_site_type_symbol
_atom_site_label
_atom_site_fract_x
_atom_site_fract_y
_atom_site_fract_z
Si Si1 0.668698 0.868555 0.183989
Si Si2 0.150247 0.360109 0.316293
Si Si3 0.148845 0.131696 0.681464
Si Si4 0.157366 0.864132 0.183227
Si Si5 0.903256 0.753808 0.818602
Si Si6 0.104038 0.744332 0.184087
Si Si7 0.995437 0.061806 0.185054
Si Si8 0.004014 0.562561 0.313120
O O1 0.754883 0.887603 0.273208
O O2 0.647963 0.804348 0.217049
O O3 0.590539 0.907127 0.247666
O O4 0.682994 0.877222 0.000000
O O5 0.135513 0.347453 0.500000
O O6 0.245446 0.385871 0.285164
O O7 0.145861 0.302806 0.221885
O O8 0.079648 0.403672 0.251424
O O9 0.132223 0.119795 0.500000
O O10 0.137485 0.197028 0.716046
O O11 0.082004 0.095729 0.781536
O O12 0.145257 0.801615 0.248809
O O13 0.087855 0.906432 0.259974
O O14 0.136177 0.860315 0.000000
O O15 0.003083 0.745768 0.776978
O O16 0.889969 0.769358 0.000000
O O17 0.122054 0.734043 0.000000
O O18 0.983190 0.056732 0.000000
O O19 0.000000 0.000000 0.260048
O O20 0.002658 0.561100 0.500000
O O21 0.000000 0.500000 0.244175
#
# Coordination Sequence:
#
# PCOD8236504 Si02
#       8
#     8   8   8   8   8   8   8   8
#     4  11  22  37  60  89 120 153 198 246 294 353
#     4  10  19  34  58  86 116 152 193 237 293 352
#     4  12  25  40  60  86 120 159 199 244 300 354
#     4   9  18  34  57  85 114 147 186 234 289 348
#     4  11  21  36  60  87 118 152 194 243 294 354
#     4  10  19  34  57  84 120 154 188 237 298 356
#     4  10  21  40  64  89 116 153 200 246 296 351
#     4   9  19  35  56  85 119 154 197 244 288 342
#
# _framework density 20.270885
#
# number of rings (size 3 to 8) (size 9 to 14) (size 15 to 20)
#    0.000    1.750    2.500    2.625    0.000    2.750 
#    0.000    4.375    0.000    4.875    0.000    0.000 
#    0.000    0.000    0.000    0.000    0.000    0.000 
#
# Total GULP energy -793772.079473 kJ/mol
# GULP energy per Si atom -12402.688742 kJ/mol
# Density = 2.022475 g / cm^3
# Si number density = 20.270885 Si / 1000 Ang^3
#
#
#
# Elastic Constant Matrix: (Units=GPa)
#
#
# Indices 1 2 3 4 5 6 
#
# 1 141.1396 58.3290 6.8298 0.0000 0.0000 0.0000
# 2 58.3290 144.1075 0.7284 0.0000 0.0000 0.0000
# 3 6.8298 0.7284 25.2442 0.0000 0.0000 0.0000
# 4 0.0000 0.0000 0.0000 21.0955 0.0000 0.0000
# 5 0.0000 0.0000 0.0000 0.0000 19.5520 0.0000
# 6 0.0000 0.0000 0.0000 0.0000 0.0000 13.0539
#
#
#
# Elastic Compliance Matrix: (Units=1/GPa)
#
#
# Indices 1 2 3 4 5 6 
#
# 1 0.008633 -0.003483 -0.002235 0.000000 0.000000 0.000000
# 2 -0.003483 0.008345 0.000701 0.000000 0.000000 0.000000
# 3 -0.002235 0.000701 0.040198 0.000000 0.000000 0.000000
# 4 0.000000 0.000000 0.000000 0.047403 0.000000 0.000000
# 5 0.000000 0.000000 0.000000 0.000000 0.051146 0.000000
# 6 0.000000 0.000000 0.000000 0.000000 0.000000 0.076605
#
#
# Mechanical properties :
#
#
# Convention : Reuss Voigt Hill
#
# Bulk Modulus (GPa) = 21.21217 49.14064 35.17641
# Shear Modulus (GPa) = 19.37405 27.04723 23.21064
#
# Velocity S-wave (km/s) = 3.09489 3.65676 3.38749
# Velocity P-wave (km/s) = 4.82267 6.49028 5.71760
#
# Compressibility (1/GPa) = 0.04714274
#
# Stress axis : x y z
#
# Youngs Moduli (GPa) = 115.83836 119.82575 24.87715
#
# Poissons Ratio (x) = 0.41734 0.05560
# Poissons Ratio (y) = 0.40345 -0.01745
# Poissons Ratio (z) = 0.25891 -0.08406
#
# Static dielectric constant tensor:
#      x y z
#    x 3.884750 0.000000 0.000000 
#    y 0.000000 3.815710 0.000000 
#    z 0.000000 0.000000 3.309760 
# 
# 
# High freq. dielectric constant tensor:
#      x y z
#    x 1.809710 0.000000 0.000000 
#    y 0.000000 1.788780 0.000000 
#    z 0.000000 0.000000 1.756540 
# 
# From -- ./inp_files/6951.got.cif
#   From: 2010.06.25/outbox.cif.g09.slc.cpg/sg58_4_cif.got.tgz:6951.got - 2010.06.26 21:38:00.
