data_PCOD8236030
_publ_section_title
;
Structure prediction by ZEFSAII (Michael W. Deem and Ramdas Pophale) SiO2 
 PCOD8236030
Probable space group: P N N M
;
_chemical_formula_sum "Si O2"
_cell_formula_units_Z 56
_cell_length_a 24.548500
_cell_length_b 14.264155
_cell_length_c 8.885302
_cell_angle_alpha 90.000000
_cell_angle_beta 90.000000
_cell_angle_gamma 90.000000
_cell_volume 3111.309416
_symmetry_space_group_name_H-M "P N N M"
_symmetry_group_IT_number 58
_symmetry_cell_setting 'orthorhombic'
loop_
_space_group_symop_operation_xyz
x,y,z
-x,-y,z
1/2+x,1/2-y,1/2-z
1/2-x,1/2+y,1/2-z
-x,-y,-z
x,y,-z
1/2-x,1/2+y,1/2+z
1/2+x,1/2-y,1/2+z
loop_
_atom_site_type_symbol
_atom_site_label
_atom_site_fract_x
_atom_site_fract_y
_atom_site_fract_z
Si Si1 0.790824 0.233290 0.821299
Si Si2 0.497781 0.892293 0.177604
Si Si3 0.826109 0.523284 0.167235
Si Si4 0.394652 0.797745 0.327479
Si Si5 0.718400 0.521271 0.324334
Si Si6 0.105305 0.651836 0.172709
Si Si7 0.317496 0.660067 0.821688
O O1 0.845687 0.283819 0.763604
O O2 0.737053 0.287128 0.760496
O O3 0.793401 0.126212 0.763926
O O4 0.788371 0.236562 0.000000
O O5 0.447631 0.836988 0.247123
O O6 0.551593 0.835375 0.227411
O O7 0.500000 0.000000 0.236027
O O8 0.491941 0.889791 0.000000
O O9 0.845678 0.628697 0.186210
O O10 0.781599 0.499125 0.292372
O O11 0.877724 0.456395 0.189255
O O12 0.800906 0.506108 0.000000
O O13 0.409056 0.775331 0.500000
O O14 0.372301 0.705295 0.245744
O O15 0.706213 0.511076 0.500000
O O16 0.681746 0.447420 0.233868
O O17 0.091860 0.677641 0.000000
O O18 0.320926 0.664264 0.000000
#
# Coordination Sequence:
#
# PCOD8236030 Si02
#       7
#     8   8   8   8   8   8   8
#     4   9  19  34  54  78 109 146 182 221 273 325
#     4  11  23  36  53  81 114 147 182 226 281 331
#     4  10  19  31  52  81 113 145 183 224 268 322
#     4  11  22  36  55  82 112 148 189 227 272 331
#     4  11  21  34  53  81 113 148 186 223 270 329
#     4  10  19  36  56  77 108 149 188 224 270 327
#     4  11  21  37  56  80 113 149 184 227 279 326
#
# _framework density 17.998851999999999
#
# number of rings (size 3 to 8) (size 9 to 14) (size 15 to 20)
#    0.000    1.571    4.286    1.714    0.000    1.714 
#    0.000    1.429    0.000    0.857    0.000    6.000 
#    0.000    0.000    0.000    0.000    0.000    0.000 
#
# Total GULP energy -694432.328866 kJ/mol
# GULP energy per Si atom -12400.577301 kJ/mol
# Density = 1.795789 g / cm^3
# Si number density = 17.998852 Si / 1000 Ang^3
#
#
#
# Elastic Constant Matrix: (Units=GPa)
#
#
# Indices 1 2 3 4 5 6 
#
# 1 88.6519 26.9674 32.5542 0.0000 0.0000 0.0000
# 2 26.9674 85.8161 24.4610 0.0000 0.0000 0.0000
# 3 32.5542 24.4610 65.0253 0.0000 0.0000 0.0000
# 4 0.0000 0.0000 0.0000 25.6383 0.0000 0.0000
# 5 0.0000 0.0000 0.0000 0.0000 31.5523 0.0000
# 6 0.0000 0.0000 0.0000 0.0000 0.0000 25.2772
#
#
#
# Elastic Compliance Matrix: (Units=1/GPa)
#
#
# Indices 1 2 3 4 5 6 
#
# 1 0.014383 -0.002764 -0.006161 0.000000 0.000000 0.000000
# 2 -0.002764 0.013583 -0.003726 0.000000 0.000000 0.000000
# 3 -0.006161 -0.003726 0.019865 0.000000 0.000000 0.000000
# 4 0.000000 0.000000 0.000000 0.039004 0.000000 0.000000
# 5 0.000000 0.000000 0.000000 0.000000 0.031693 0.000000
# 6 0.000000 0.000000 0.000000 0.000000 0.000000 0.039561
#
#
# Mechanical properties :
#
#
# Convention : Reuss Voigt Hill
#
# Bulk Modulus (GPa) = 44.38633 45.27316 44.82975
# Shear Modulus (GPa) = 26.19143 26.86096 26.52620
#
# Velocity S-wave (km/s) = 3.81881 3.86731 3.84314
# Velocity P-wave (km/s) = 6.64519 6.71933 6.68237
#
# Compressibility (1/GPa) = 0.02252946
#
# Stress axis : x y z
#
# Youngs Moduli (GPa) = 69.52537 73.61922 50.34017
#
# Poissons Ratio (x) = 0.20346 0.31015
# Poissons Ratio (y) = 0.19215 0.18758
# Poissons Ratio (z) = 0.42836 0.27432
#
# Static dielectric constant tensor:
#      x y z
#    x 3.171050 0.000000 0.000000 
#    y 0.000000 3.437670 0.000000 
#    z 0.000000 0.000000 3.227340 
# 
# 
# High freq. dielectric constant tensor:
#      x y z
#    x 1.681810 0.000000 0.000000 
#    y 0.000000 1.689680 0.000000 
#    z 0.000000 0.000000 1.690020 
# 
# From -- ./inp_files/9015.got.cif
#   From: 2010.06.25/outbox.cif.g09.slc.cpg/sg58_5_cif.got.tgz:9015.got - 2010.06.26 21:38:00.
