data_PCOD8236338
_publ_section_title
;
Structure prediction by ZEFSAII (Michael W. Deem and Ramdas Pophale) SiO2 
 PCOD8236338
Probable space group: P N N M
;
_chemical_formula_sum "Si O2"
_cell_formula_units_Z 64
_cell_length_a 16.049707
_cell_length_b 22.549527
_cell_length_c 8.861866
_cell_angle_alpha 90.000000
_cell_angle_beta 90.000000
_cell_angle_gamma 90.000000
_cell_volume 3207.227180
_symmetry_space_group_name_H-M "P N N M"
_symmetry_group_IT_number 58
_symmetry_cell_setting 'orthorhombic'
loop_
_space_group_symop_operation_xyz
x,y,z
-x,-y,z
1/2+x,1/2-y,1/2-z
1/2-x,1/2+y,1/2-z
-x,-y,-z
x,y,-z
1/2-x,1/2+y,1/2+z
1/2+x,1/2-y,1/2+z
loop_
_atom_site_type_symbol
_atom_site_label
_atom_site_fract_x
_atom_site_fract_y
_atom_site_fract_z
Si Si1 0.602433 0.355276 0.331519
Si Si2 0.190785 0.831948 0.828326
Si Si3 0.748346 0.055450 0.678065
Si Si4 0.797882 0.747126 0.832175
Si Si5 0.462954 0.293506 0.831072
Si Si6 0.904629 0.990154 0.175052
Si Si7 0.427606 0.955058 0.176932
Si Si8 0.556603 0.180961 0.826563
O O1 0.561509 0.349532 0.500000
O O2 0.687762 0.317786 0.328649
O O3 0.549515 0.326506 0.197551
O O4 0.622071 0.422893 0.295663
O O5 0.245782 0.876124 0.726715
O O6 0.225225 0.766655 0.787542
O O7 0.094402 0.827940 0.788131
O O8 0.202923 0.850421 0.000000
O O9 0.745481 0.047686 0.500000
O O10 0.661516 0.029705 0.744857
O O11 0.834681 0.027465 0.738684
O O12 0.878683 0.708678 0.789606
O O13 0.770034 0.728027 0.000000
O O14 0.473253 0.222032 0.808746
O O15 0.431651 0.306854 0.000000
O O16 0.900896 0.008837 0.000000
O O17 0.000000 0.000000 0.234738
O O18 0.459166 0.888027 0.213928
O O19 0.500000 0.000000 0.235049
O O20 0.413195 0.964034 0.000000
O O21 0.589281 0.186116 0.000000
#
# Coordination Sequence:
#
# PCOD8236338 Si02
#       8
#     8   8   8   8   8   8   8   8
#     4   9  19  36  57  83 116 154 191 231 288 353
#     4  12  23  37  57  82 114 152 198 245 297 361
#     4  12  25  40  62  92 124 161 206 262 315 363
#     4  10  19  33  56  83 112 147 188 238 294 348
#     4  10  20  34  56  87 119 149 189 241 299 359
#     4  10  21  39  63  90 123 165 207 248 299 369
#     4  10  21  40  65  89 118 162 211 256 306 369
#     4   9  18  35  58  84 114 151 191 238 298 360
#
# _framework density 19.954930999999998
#
# number of rings (size 3 to 8) (size 9 to 14) (size 15 to 20)
#    0.000    1.750    1.250    3.750    0.000    3.000 
#    2.250    0.000    0.000    0.000    0.000    0.000 
#    0.000    0.000    0.000    0.000    0.000    0.000 
#
# Total GULP energy -793059.546061 kJ/mol
# GULP energy per Si atom -12391.555407 kJ/mol
# Density = 1.990951 g / cm^3
# Si number density = 19.954931 Si / 1000 Ang^3
#
#
#
# Elastic Constant Matrix: (Units=GPa)
#
#
# Indices 1 2 3 4 5 6 
#
# 1 96.6584 25.3660 42.4957 0.0000 0.0000 0.0000
# 2 25.3660 84.7499 33.0716 0.0000 0.0000 0.0000
# 3 42.4957 33.0716 84.9700 0.0000 0.0000 0.0000
# 4 0.0000 0.0000 0.0000 21.8236 0.0000 0.0000
# 5 0.0000 0.0000 0.0000 0.0000 33.0428 0.0000
# 6 0.0000 0.0000 0.0000 0.0000 0.0000 28.9526
#
#
#
# Elastic Compliance Matrix: (Units=1/GPa)
#
#
# Indices 1 2 3 4 5 6 
#
# 1 0.013455 -0.001652 -0.006086 0.000000 0.000000 0.000000
# 2 -0.001652 0.014115 -0.004668 0.000000 0.000000 0.000000
# 3 -0.006086 -0.004668 0.016629 0.000000 0.000000 0.000000
# 4 0.000000 0.000000 0.000000 0.045822 0.000000 0.000000
# 5 0.000000 0.000000 0.000000 0.000000 0.030264 0.000000
# 6 0.000000 0.000000 0.000000 0.000000 0.000000 0.034539
#
#
# Mechanical properties :
#
#
# Convention : Reuss Voigt Hill
#
# Bulk Modulus (GPa) = 51.57852 52.02720 51.80286
# Shear Modulus (GPa) = 26.86738 27.79347 27.33043
#
# Velocity S-wave (km/s) = 3.67332 3.73609 3.70484
# Velocity P-wave (km/s) = 6.62530 6.68880 6.65713
#
# Compressibility (1/GPa) = 0.01938791
#
# Stress axis : x y z
#
# Youngs Moduli (GPa) = 74.32145 70.84485 60.13441
#
# Poissons Ratio (x) = 0.11705 0.36599
# Poissons Ratio (y) = 0.12279 0.28068
# Poissons Ratio (z) = 0.45233 0.33068
#
# Static dielectric constant tensor:
#      x y z
#    x 3.583450 0.000000 0.000000 
#    y 0.000000 3.828770 0.000000 
#    z 0.000000 0.000000 3.553820 
# 
# 
# High freq. dielectric constant tensor:
#      x y z
#    x 1.766290 0.000000 0.000000 
#    y 0.000000 1.779030 0.000000 
#    z 0.000000 0.000000 1.775070 
# 
# From -- ./inp_files/6859.got.cif
#   From: 2010.06.25/outbox.cif.g09.slc.cpg/sg58_4_cif.got.tgz:6859.got - 2010.06.26 21:38:00.
