data_PCOD8236951
_publ_section_title
;
Structure prediction by ZEFSAII (Michael W. Deem and Ramdas Pophale) SiO2 
 PCOD8236951
Probable space group: P N N M
;
_chemical_formula_sum "Si O2"
_cell_formula_units_Z 64
_cell_length_a 32.701426
_cell_length_b 10.426861
_cell_length_c 8.945421
_cell_angle_alpha 90.000000
_cell_angle_beta 90.000000
_cell_angle_gamma 90.000000
_cell_volume 3050.149033
_symmetry_space_group_name_H-M "P N N M"
_symmetry_group_IT_number 58
_symmetry_cell_setting 'orthorhombic'
loop_
_space_group_symop_operation_xyz
x,y,z
-x,-y,z
1/2+x,1/2-y,1/2-z
1/2-x,1/2+y,1/2-z
-x,-y,-z
x,y,-z
1/2-x,1/2+y,1/2+z
1/2+x,1/2-y,1/2+z
loop_
_atom_site_type_symbol
_atom_site_label
_atom_site_fract_x
_atom_site_fract_y
_atom_site_fract_z
Si Si1 0.623674 0.844451 0.171767
Si Si2 0.229217 0.021923 0.323906
Si Si3 0.463423 0.247310 0.171901
Si Si4 0.153390 0.900861 0.829204
Si Si5 0.215737 0.282232 0.176811
Si Si6 0.947978 0.744412 0.326462
Si Si7 0.063506 0.995406 0.830193
Si Si8 0.635461 0.132211 0.175846
O O1 0.574607 0.847861 0.202897
O O2 0.647258 0.745136 0.276479
O O3 0.641984 0.982549 0.209900
O O4 0.631856 0.806133 0.000000
O O5 0.230189 0.043877 0.500000
O O6 0.184861 0.973714 0.275729
O O7 0.261604 0.913076 0.274163
O O8 0.239039 0.158195 0.245083
O O9 0.507429 0.179083 0.206306
O O10 0.460034 0.369668 0.277671
O O11 0.462540 0.293842 0.000000
O O12 0.111832 0.978890 0.811979
O O13 0.168971 0.898785 0.000000
O O14 0.169550 0.286255 0.237876
O O15 0.215122 0.265468 0.000000
O O16 0.939103 0.747592 0.500000
O O17 0.909206 0.669678 0.256627
O O18 0.951090 0.888220 0.269491
O O19 0.051204 0.022724 0.000000
O O20 0.639460 0.160616 0.000000
#
# Coordination Sequence:
#
# PCOD8236951 Si02
#       8
#     8   8   8   8   8   8   8   8
#     4   9  19  36  58  85 117 158 203 249 300 356
#     4  11  25  44  67  96 126 161 202 249 302 362
#     4   9  18  33  53  79 112 149 194 245 295 350
#     4  10  21  37  60  87 118 155 197 246 302 359
#     4  11  26  45  66  95 127 160 201 248 304 366
#     4  10  20  33  52  79 111 151 195 242 296 350
#     4  10  20  33  51  79 112 147 189 240 296 356
#     4  10  22  39  60  85 117 157 200 247 300 360
#
# _framework density 20.982579999999999
#
# number of rings (size 3 to 8) (size 9 to 14) (size 15 to 20)
#    0.000    2.000    0.000    2.625    1.750    9.000 
#    0.000    2.500    0.000    0.000    0.000    5.250 
#    0.000    0.000    0.000    0.000    0.000    0.000 
#
# Total GULP energy -793541.786993 kJ/mol
# GULP energy per Si atom -12399.090422 kJ/mol
# Density = 2.093482 g / cm^3
# Si number density = 20.982580 Si / 1000 Ang^3
#
#
#
# Elastic Constant Matrix: (Units=GPa)
#
#
# Indices 1 2 3 4 5 6 
#
# 1 76.2145 42.2228 30.0016 0.0000 0.0000 0.0000
# 2 42.2228 84.8884 28.9844 0.0000 0.0000 0.0000
# 3 30.0016 28.9844 30.3189 0.0000 0.0000 0.0000
# 4 0.0000 0.0000 0.0000 25.4225 0.0000 0.0000
# 5 0.0000 0.0000 0.0000 0.0000 22.9903 0.0000
# 6 0.0000 0.0000 0.0000 0.0000 0.0000 19.9724
#
#
#
# Elastic Compliance Matrix: (Units=1/GPa)
#
#
# Indices 1 2 3 4 5 6 
#
# 1 0.023084 -0.005467 -0.017616 0.000000 0.000000 0.000000
# 2 -0.005467 0.018783 -0.012547 0.000000 0.000000 0.000000
# 3 -0.017616 -0.012547 0.062409 0.000000 0.000000 0.000000
# 4 0.000000 0.000000 0.000000 0.039335 0.000000 0.000000
# 5 0.000000 0.000000 0.000000 0.000000 0.043497 0.000000
# 6 0.000000 0.000000 0.000000 0.000000 0.000000 0.050069
#
#
# Mechanical properties :
#
#
# Convention : Reuss Voigt Hill
#
# Bulk Modulus (GPa) = 30.28783 43.75994 37.02388
# Shear Modulus (GPa) = 15.65223 19.69125 17.67174
#
# Velocity S-wave (km/s) = 2.73420 3.06675 2.90523
# Velocity P-wave (km/s) = 4.94306 5.78278 5.37933
#
# Compressibility (1/GPa) = 0.03301656
#
# Stress axis : x y z
#
# Youngs Moduli (GPa) = 43.31984 53.23847 16.02329
#
# Poissons Ratio (x) = 0.29105 0.28227
# Poissons Ratio (y) = 0.23683 0.20104
# Poissons Ratio (z) = 0.76313 0.66798
#
# Static dielectric constant tensor:
#      x y z
#    x 4.102550 0.000000 0.000000 
#    y 0.000000 3.723520 0.000000 
#    z 0.000000 0.000000 3.688530 
# 
# 
# High freq. dielectric constant tensor:
#      x y z
#    x 1.834980 0.000000 0.000000 
#    y 0.000000 1.813760 0.000000 
#    z 0.000000 0.000000 1.812450 
# 
# From -- ./inp_files/11008.got.cif
#   From: 2010.06.25/outbox.cif.g09.slc.cpg/sg58_6_cif.got.tgz:11008.got - 2010.06.26 21:38:00.
