data_PCOD8236327
_publ_section_title
;
Structure prediction by ZEFSAII (Michael W. Deem and Ramdas Pophale) SiO2 
 PCOD8236327
Probable space group: P N N M
;
_chemical_formula_sum "Si O2"
_cell_formula_units_Z 64
_cell_length_a 21.270588
_cell_length_b 16.589654
_cell_length_c 9.610366
_cell_angle_alpha 90.000000
_cell_angle_beta 90.000000
_cell_angle_gamma 90.000000
_cell_volume 3391.226143
_symmetry_space_group_name_H-M "P N N M"
_symmetry_group_IT_number 58
_symmetry_cell_setting 'orthorhombic'
loop_
_space_group_symop_operation_xyz
x,y,z
-x,-y,z
1/2+x,1/2-y,1/2-z
1/2-x,1/2+y,1/2-z
-x,-y,-z
x,y,-z
1/2-x,1/2+y,1/2+z
1/2+x,1/2-y,1/2+z
loop_
_atom_site_type_symbol
_atom_site_label
_atom_site_fract_x
_atom_site_fract_y
_atom_site_fract_z
Si Si1 0.488935 0.849928 0.653713
Si Si2 0.856864 0.599311 0.161892
Si Si3 0.053378 0.066503 0.350286
Si Si4 0.876323 0.041354 0.846456
Si Si5 0.261973 0.350492 0.333926
Si Si6 0.459574 0.313604 0.740762
Si Si7 0.159768 0.728188 0.339888
Si Si8 0.616886 0.914031 0.338496
O O1 0.474759 0.881700 0.500000
O O2 0.421378 0.862696 0.726452
O O3 0.512903 0.757636 0.646053
O O4 0.544255 0.906738 0.714100
O O5 0.804709 0.631738 0.266362
O O6 0.858419 0.503540 0.176405
O O7 0.843375 0.623816 0.000000
O O8 0.086496 0.073765 0.500000
O O9 0.020927 0.151898 0.318491
O O10 0.107125 0.036478 0.245865
O O11 0.000000 0.000000 0.353493
O O12 0.807935 0.073944 0.804072
O O13 0.927188 0.114178 0.844888
O O14 0.875553 0.005671 0.000000
O O15 0.257012 0.333386 0.500000
O O16 0.289213 0.274127 0.252792
O O17 0.407216 0.275235 0.842874
O O18 0.182016 0.718830 0.500000
O O19 0.156853 0.641597 0.265322
O O20 0.621684 0.883870 0.500000
#
# Coordination Sequence:
#
# PCOD8236327 Si02
#       8
#     8   8   8   8   8   8   8   8
#     4   9  17  31  53  80 106 134 170 212 259 311
#     4  10  20  35  56  80 106 138 174 212 257 311
#     4   9  17  28  44  69 101 132 162 202 251 299
#     4   9  18  31  49  72  97 131 172 209 249 301
#     4  10  21  37  54  74 103 137 174 217 263 308
#     4   9  17  29  49  76 108 135 163 207 259 307
#     4  10  19  33  56  81 104 135 177 217 253 304
#     4   9  18  34  56  81 108 136 169 212 260 308
#
# _framework density 18.872229999999998
#
# number of rings (size 3 to 8) (size 9 to 14) (size 15 to 20)
#    0.000    2.625    0.000    1.875    0.000   11.250 
#    0.000    4.375    0.000    5.250    0.000    0.000 
#    0.000    0.000    0.000    0.000    0.000    0.000 
#
# Total GULP energy -792976.354917 kJ/mol
# GULP energy per Si atom -12390.255546 kJ/mol
# Density = 1.882928 g / cm^3
# Si number density = 18.872230 Si / 1000 Ang^3
#
#
#
# Elastic Constant Matrix: (Units=GPa)
#
#
# Indices 1 2 3 4 5 6 
#
# 1 105.4200 35.4495 51.7147 0.0000 0.0000 0.0000
# 2 35.4495 61.9277 28.5915 0.0000 0.0000 0.0000
# 3 51.7147 28.5915 103.9435 0.0000 0.0000 0.0000
# 4 0.0000 0.0000 0.0000 18.3336 0.0000 0.0000
# 5 0.0000 0.0000 0.0000 0.0000 24.7305 0.0000
# 6 0.0000 0.0000 0.0000 0.0000 0.0000 23.2738
#
#
#
# Elastic Compliance Matrix: (Units=1/GPa)
#
#
# Indices 1 2 3 4 5 6 
#
# 1 0.014014 -0.005502 -0.005459 0.000000 0.000000 0.000000
# 2 -0.005502 0.020657 -0.002945 0.000000 0.000000 0.000000
# 3 -0.005459 -0.002945 0.013147 0.000000 0.000000 0.000000
# 4 0.000000 0.000000 0.000000 0.054545 0.000000 0.000000
# 5 0.000000 0.000000 0.000000 0.000000 0.040436 0.000000
# 6 0.000000 0.000000 0.000000 0.000000 0.000000 0.042967
#
#
# Mechanical properties :
#
#
# Convention : Reuss Voigt Hill
#
# Bulk Modulus (GPa) = 49.98386 55.86695 52.92540
# Shear Modulus (GPa) = 22.70209 23.63661 23.16935
#
# Velocity S-wave (km/s) = 3.47210 3.54284 3.50765
# Velocity P-wave (km/s) = 6.52816 6.81195 6.67156
#
# Compressibility (1/GPa) = 0.02000646
#
# Stress axis : x y z
#
# Youngs Moduli (GPa) = 71.35805 48.41020 76.06538
#
# Poissons Ratio (x) = 0.26634 0.41524
# Poissons Ratio (y) = 0.39259 0.22400
# Poissons Ratio (z) = 0.38954 0.14256
#
# Static dielectric constant tensor:
#      x y z
#    x 3.411780 0.000000 0.000000 
#    y 0.000000 3.409250 0.000000 
#    z 0.000000 0.000000 3.422040 
# 
# 
# High freq. dielectric constant tensor:
#      x y z
#    x 1.719960 0.000000 0.000000 
#    y 0.000000 1.722700 0.000000 
#    z 0.000000 0.000000 1.721570 
# 
# From -- ./inp_files/9292.got.cif
#   From: 2010.06.25/outbox.cif.g09.slc.cpg/sg58_5_cif.got.tgz:9292.got - 2010.06.26 21:38:00.
