data_PCOD8236312
_publ_section_title
;
Structure prediction by ZEFSAII (Michael W. Deem and Ramdas Pophale) SiO2 
 PCOD8236312
Probable space group: P N N M
;
_chemical_formula_sum "Si O2"
_cell_formula_units_Z 64
_cell_length_a 21.851343
_cell_length_b 16.749553
_cell_length_c 8.909830
_cell_angle_alpha 90.000000
_cell_angle_beta 90.000000
_cell_angle_gamma 90.000000
_cell_volume 3260.999809
_symmetry_space_group_name_H-M "P N N M"
_symmetry_group_IT_number 58
_symmetry_cell_setting 'orthorhombic'
loop_
_space_group_symop_operation_xyz
x,y,z
-x,-y,z
1/2+x,1/2-y,1/2-z
1/2-x,1/2+y,1/2-z
-x,-y,-z
x,y,-z
1/2-x,1/2+y,1/2+z
1/2+x,1/2-y,1/2+z
loop_
_atom_site_type_symbol
_atom_site_label
_atom_site_fract_x
_atom_site_fract_y
_atom_site_fract_z
Si Si1 0.838835 0.883136 0.668577
Si Si2 0.193985 0.958450 0.176881
Si Si3 0.381972 0.056274 0.825158
Si Si4 0.823358 0.585115 0.177644
Si Si5 0.029682 0.694334 0.676917
Si Si6 0.379196 0.307617 0.671275
Si Si7 0.893101 0.721957 0.323390
Si Si8 0.794954 0.335657 0.166163
O O1 0.849918 0.916200 0.500000
O O2 0.889428 0.816979 0.713627
O O3 0.777312 0.831159 0.676544
O O4 0.836187 0.956711 0.782317
O O5 0.257940 0.944095 0.260664
O O6 0.142843 0.894171 0.228059
O O7 0.206690 0.953108 0.000000
O O8 0.438212 0.111896 0.767619
O O9 0.319509 0.104412 0.793107
O O10 0.377902 0.973435 0.734986
O O11 0.387916 0.036073 0.000000
O O12 0.841072 0.673139 0.234568
O O13 0.819766 0.583999 0.000000
O O14 0.034397 0.699543 0.500000
O O15 0.063564 0.773245 0.737288
O O16 0.959873 0.693336 0.731611
O O17 0.400694 0.311348 0.500000
O O18 0.319688 0.252665 0.694372
O O19 0.883345 0.707199 0.500000
O O20 0.815606 0.366525 0.000000
#
# Coordination Sequence:
#
# PCOD8236312 Si02
#       8
#     8   8   8   8   8   8   8   8
#     4  10  20  35  57  82 112 148 185 231 285 339
#     4  11  22  37  58  86 117 149 185 232 288 342
#     4  10  19  33  55  83 113 148 183 229 282 332
#     4  12  24  37  56  86 119 150 188 233 284 344
#     4   9  20  38  60  84 111 148 197 239 276 331
#     4   9  19  35  57  82 110 147 186 230 282 334
#     4  10  22  41  60  81 113 153 192 235 286 336
#     4   9  16  30  52  78 107 139 179 224 276 336
#
# _framework density 19.625883000000002
#
# number of rings (size 3 to 8) (size 9 to 14) (size 15 to 20)
#    0.000    2.000    1.250    2.625    0.000    5.000 
#    0.000    5.625    0.000    3.750    0.000    0.000 
#    0.000    0.000    0.000    0.000    0.000    0.000 
#
# Total GULP energy -793474.457452 kJ/mol
# GULP energy per Si atom -12398.038398 kJ/mol
# Density = 1.958121 g / cm^3
# Si number density = 19.625883 Si / 1000 Ang^3
#
#
#
# Elastic Constant Matrix: (Units=GPa)
#
#
# Indices 1 2 3 4 5 6 
#
# 1 52.8266 28.9801 24.8486 0.0000 0.0000 0.0000
# 2 28.9801 112.1779 41.6747 0.0000 0.0000 0.0000
# 3 24.8486 41.6747 74.2096 0.0000 0.0000 0.0000
# 4 0.0000 0.0000 0.0000 33.7596 0.0000 0.0000
# 5 0.0000 0.0000 0.0000 0.0000 18.9122 0.0000
# 6 0.0000 0.0000 0.0000 0.0000 0.0000 23.9204
#
#
#
# Elastic Compliance Matrix: (Units=1/GPa)
#
#
# Indices 1 2 3 4 5 6 
#
# 1 0.023831 -0.004033 -0.005714 0.000000 0.000000 0.000000
# 2 -0.004033 0.011947 -0.005359 0.000000 0.000000 0.000000
# 3 -0.005714 -0.005359 0.018398 0.000000 0.000000 0.000000
# 4 0.000000 0.000000 0.000000 0.029621 0.000000 0.000000
# 5 0.000000 0.000000 0.000000 0.000000 0.052876 0.000000
# 6 0.000000 0.000000 0.000000 0.000000 0.000000 0.041805
#
#
# Mechanical properties :
#
#
# Convention : Reuss Voigt Hill
#
# Bulk Modulus (GPa) = 41.73156 47.80233 44.76695
# Shear Modulus (GPa) = 23.07559 24.89914 23.98737
#
# Velocity S-wave (km/s) = 3.43268 3.56573 3.49984
# Velocity P-wave (km/s) = 6.08446 6.43135 6.26031
#
# Compressibility (1/GPa) = 0.02396268
#
# Stress axis : x y z
#
# Youngs Moduli (GPa) = 41.96303 83.70144 54.35330
#
# Poissons Ratio (x) = 0.33761 0.31060
# Poissons Ratio (y) = 0.16926 0.29127
# Poissons Ratio (z) = 0.23979 0.44854
#
# Static dielectric constant tensor:
#      x y z
#    x 3.479590 0.000000 0.000000 
#    y 0.000000 3.680750 0.000000 
#    z 0.000000 0.000000 3.489220 
# 
# 
# High freq. dielectric constant tensor:
#      x y z
#    x 1.745900 0.000000 0.000000 
#    y 0.000000 1.769780 0.000000 
#    z 0.000000 0.000000 1.755790 
# 
# From -- ./inp_files/9327.got.cif
#   From: 2010.06.25/outbox.cif.g09.slc.cpg/sg58_5_cif.got.tgz:9327.got - 2010.06.26 21:38:00.
