data_PCOD8236917
_publ_section_title
;
Structure prediction by ZEFSAII (Michael W. Deem and Ramdas Pophale) SiO2 
 PCOD8236917
Probable space group: P N N M
;
_chemical_formula_sum "Si O2"
_cell_formula_units_Z 64
_cell_length_a 15.018495
_cell_length_b 23.437164
_cell_length_c 9.678203
_cell_angle_alpha 90.000000
_cell_angle_beta 90.000000
_cell_angle_gamma 90.000000
_cell_volume 3406.639678
_symmetry_space_group_name_H-M "P N N M"
_symmetry_group_IT_number 58
_symmetry_cell_setting 'orthorhombic'
loop_
_space_group_symop_operation_xyz
x,y,z
-x,-y,z
1/2+x,1/2-y,1/2-z
1/2-x,1/2+y,1/2-z
-x,-y,-z
x,y,-z
1/2-x,1/2+y,1/2+z
1/2+x,1/2-y,1/2+z
loop_
_atom_site_type_symbol
_atom_site_label
_atom_site_fract_x
_atom_site_fract_y
_atom_site_fract_z
Si Si1 0.995953 0.874247 0.845854
Si Si2 0.418687 0.747519 0.656876
Si Si3 0.744711 0.029233 0.338409
Si Si4 0.697323 0.626084 0.659223
Si Si5 0.085220 0.039138 0.655573
Si Si6 0.425569 0.042111 0.662842
Si Si7 0.925830 0.328856 0.835451
Si Si8 0.244124 0.744059 0.838534
O O1 0.096115 0.887510 0.797331
O O2 0.982342 0.807000 0.842121
O O3 0.925323 0.904624 0.746823
O O4 0.980929 0.898079 0.000000
O O5 0.386274 0.760701 0.500000
O O6 0.482801 0.798060 0.714764
O O7 0.334304 0.734587 0.752937
O O8 0.744265 0.044879 0.500000
O O9 0.736955 0.088185 0.253741
O O10 0.832926 0.997271 0.289016
O O11 0.667235 0.986166 0.297810
O O12 0.715136 0.611025 0.500000
O O13 0.714641 0.691744 0.689225
O O14 0.103310 0.059970 0.500000
O O15 0.000000 0.000000 0.667016
O O16 0.439896 0.046953 0.500000
O O17 0.428888 0.106402 0.723880
O O18 0.500000 0.000000 0.727059
O O19 0.835134 0.297518 0.783795
O O20 0.923877 0.327091 0.000000
O O21 0.263959 0.732710 0.000000
#
# Coordination Sequence:
#
# PCOD8236917 Si02
#       8
#     8   8   8   8   8   8   8   8
#     4  10  20  35  54  78 109 145 185 220 262 331
#     4  10  21  37  58  83 109 143 185 231 279 327
#     4  10  21  35  54  82 110 141 183 229 273 320
#     4  10  20  36  56  79 109 144 184 224 271 336
#     4  10  20  33  49  78 116 144 173 219 274 326
#     4   9  19  34  54  81 107 138 187 233 267 313
#     4   9  18  36  58  80 112 148 182 228 278 327
#     4  10  21  37  58  83 111 147 184 223 281 342
#
# _framework density 18.786842
#
# number of rings (size 3 to 8) (size 9 to 14) (size 15 to 20)
#    0.000    2.250    2.500    0.000    3.500    1.750 
#    0.000    0.625    0.000    1.125    0.000    0.000 
#    0.000    0.000    0.000    0.000    0.000    0.000 
#
# Total GULP energy -793482.854090 kJ/mol
# GULP energy per Si atom -12398.169595 kJ/mol
# Density = 1.874408 g / cm^3
# Si number density = 18.786842 Si / 1000 Ang^3
#
#
#
# Elastic Constant Matrix: (Units=GPa)
#
#
# Indices 1 2 3 4 5 6 
#
# 1 95.9244 42.7309 23.1728 0.0000 0.0000 0.0000
# 2 42.7309 123.9240 33.2307 0.0000 0.0000 0.0000
# 3 23.1728 33.2307 40.8706 0.0000 0.0000 0.0000
# 4 0.0000 0.0000 0.0000 22.3490 0.0000 0.0000
# 5 0.0000 0.0000 0.0000 0.0000 -11.4291 0.0000
# 6 0.0000 0.0000 0.0000 0.0000 0.0000 28.2235
#
#
#
# Elastic Compliance Matrix: (Units=1/GPa)
#
#
# Indices 1 2 3 4 5 6 
#
# 1 0.013004 -0.003206 -0.004767 0.000000 0.000000 0.000000
# 2 -0.003206 0.011110 -0.007215 0.000000 0.000000 0.000000
# 3 -0.004767 -0.007215 0.033037 0.000000 0.000000 0.000000
# 4 0.000000 0.000000 0.000000 0.044745 0.000000 0.000000
# 5 0.000000 0.000000 0.000000 0.000000 -0.087496 0.000000
# 6 0.000000 0.000000 0.000000 0.000000 0.000000 0.035431
#
#
# Mechanical properties :
#
#
# Convention : Reuss Voigt Hill
#
# Bulk Modulus (GPa) = 37.34816 50.99864 44.17340
# Shear Modulus (GPa) = 56.09661 18.60099 37.34880
#
# Velocity S-wave (km/s) = 5.47031 3.15001 4.46357
# Velocity P-wave (km/s) = 7.73448 6.35885 7.08015
#
# Compressibility (1/GPa) = 0.02677508
#
# Stress axis : x y z
#
# Youngs Moduli (GPa) = 76.89647 90.01120 30.26951
#
# Poissons Ratio (x) = 0.28857 0.14428
# Poissons Ratio (y) = 0.24653 0.21840
# Poissons Ratio (z) = 0.36654 0.64946
#
# Static dielectric constant tensor:
#      x y z
#    x 3.759760 0.000000 0.000000 
#    y 0.000000 3.558230 0.000000 
#    z 0.000000 0.000000 3.213280 
# 
# 
# High freq. dielectric constant tensor:
#      x y z
#    x 1.734010 0.000000 0.000000 
#    y 0.000000 1.740290 0.000000 
#    z 0.000000 0.000000 1.691160 
# 
# From -- ./inp_files/6928.got.cif
#   From: 2010.06.25/outbox.cif.g09.slc.cpg/sg58_4_cif.got.tgz:6928.got - 2010.06.26 21:38:00.
