data_PCOD8236238
_publ_section_title
;
Structure prediction by ZEFSAII (Michael W. Deem and Ramdas Pophale) SiO2 
 PCOD8236238
Probable space group: P N N M
;
_chemical_formula_sum "Si O2"
_cell_formula_units_Z 64
_cell_length_a 17.443739
_cell_length_b 19.462018
_cell_length_c 9.229063
_cell_angle_alpha 90.000000
_cell_angle_beta 90.000000
_cell_angle_gamma 90.000000
_cell_volume 3133.177943
_symmetry_space_group_name_H-M "P N N M"
_symmetry_group_IT_number 58
_symmetry_cell_setting 'orthorhombic'
loop_
_space_group_symop_operation_xyz
x,y,z
-x,-y,z
1/2+x,1/2-y,1/2-z
1/2-x,1/2+y,1/2-z
-x,-y,-z
x,y,-z
1/2-x,1/2+y,1/2+z
1/2+x,1/2-y,1/2+z
loop_
_atom_site_type_symbol
_atom_site_label
_atom_site_fract_x
_atom_site_fract_y
_atom_site_fract_z
Si Si1 0.323810 0.399988 0.672632
Si Si2 0.765234 0.735739 0.327940
Si Si3 0.575601 0.041433 0.161765
Si Si4 0.519705 0.578102 0.171022
Si Si5 0.481194 0.169085 0.161424
Si Si6 0.279430 0.998442 0.333661
Si Si7 0.662109 0.856276 0.334809
Si Si8 0.574648 0.292594 0.828599
O O1 0.332329 0.402958 0.500000
O O2 0.264277 0.339581 0.721131
O O3 0.407464 0.391988 0.742799
O O4 0.288772 0.470487 0.733882
O O5 0.770657 0.738795 0.500000
O O6 0.701432 0.788574 0.270685
O O7 0.845766 0.763422 0.260413
O O8 0.557374 0.122317 0.161279
O O9 0.500000 0.000000 0.205109
O O10 0.639170 0.029846 0.281961
O O11 0.604069 0.019305 0.000000
O O12 0.500000 0.500000 0.219198
O O13 0.447655 0.628452 0.210755
O O14 0.537677 0.580645 0.000000
O O15 0.416345 0.130271 0.251385
O O16 0.505756 0.243000 0.226627
O O17 0.448517 0.177650 0.000000
O O18 0.265956 0.976309 0.500000
O O19 0.279066 0.080633 0.317291
O O20 0.638654 0.845893 0.500000
O O21 0.581509 0.284751 0.000000
#
# Coordination Sequence:
#
# PCOD8236238 Si02
#       8
#     8   8   8   8   8   8   8   8
#     4  11  23  40  63  87 119 158 200 248 298 354
#     4   9  19  37  60  84 111 149 195 241 293 351
#     4  10  19  33  53  79 114 155 195 232 282 347
#     4  10  22  39  63  91 119 156 201 249 300 356
#     4  10  19  33  55  81 111 149 189 231 280 342
#     4  11  23  36  56  86 118 152 192 238 290 348
#     4  10  21  35  56  83 111 146 187 235 287 343
#     4   9  18  34  59  86 112 147 194 243 291 348
#
# _framework density 20.426544
#
# number of rings (size 3 to 8) (size 9 to 14) (size 15 to 20)
#    0.000    2.000    1.250    2.250    1.750    3.500 
#    0.000    0.625    0.000    2.250    0.000    0.000 
#    0.000    0.000    0.000    0.000    0.000    0.000 
#
# Total GULP energy -793330.433284 kJ/mol
# GULP energy per Si atom -12395.788020 kJ/mol
# Density = 2.038005 g / cm^3
# Si number density = 20.426544 Si / 1000 Ang^3
#
#
#
# Elastic Constant Matrix: (Units=GPa)
#
#
# Indices 1 2 3 4 5 6 
#
# 1 87.4747 28.4413 33.3816 0.0000 0.0000 0.0000
# 2 28.4413 103.2748 28.7947 0.0000 0.0000 0.0000
# 3 33.3816 28.7947 58.1987 0.0000 0.0000 0.0000
# 4 0.0000 0.0000 0.0000 -32.7222 0.0000 0.0000
# 5 0.0000 0.0000 0.0000 0.0000 31.5902 0.0000
# 6 0.0000 0.0000 0.0000 0.0000 0.0000 31.6149
#
#
#
# Elastic Compliance Matrix: (Units=1/GPa)
#
#
# Indices 1 2 3 4 5 6 
#
# 1 0.014986 -0.002007 -0.007602 0.000000 0.000000 0.000000
# 2 -0.002007 0.011501 -0.004539 0.000000 0.000000 0.000000
# 3 -0.007602 -0.004539 0.023789 0.000000 0.000000 0.000000
# 4 0.000000 0.000000 0.000000 -0.030560 0.000000 0.000000
# 5 0.000000 0.000000 0.000000 0.000000 0.031655 0.000000
# 6 0.000000 0.000000 0.000000 0.000000 0.000000 0.031631
#
#
# Mechanical properties :
#
#
# Convention : Reuss Voigt Hill
#
# Bulk Modulus (GPa) = 45.49935 47.79816 46.64875
# Shear Modulus (GPa) = 42.14956 16.65195 29.40075
#
# Velocity S-wave (km/s) = 4.54747 2.85829 3.79798
# Velocity P-wave (km/s) = 7.06368 5.86037 6.48997
#
# Compressibility (1/GPa) = 0.02197834
#
# Stress axis : x y z
#
# Youngs Moduli (GPa) = 66.73022 86.94692 42.03649
#
# Poissons Ratio (x) = 0.17453 0.31958
# Poissons Ratio (y) = 0.13395 0.19081
# Poissons Ratio (z) = 0.50731 0.39466
#
# Static dielectric constant tensor:
#      x y z
#    x 3.665720 0.000000 0.000000 
#    y 0.000000 3.988610 0.000000 
#    z 0.000000 0.000000 3.357800 
# 
# 
# High freq. dielectric constant tensor:
#      x y z
#    x 1.795390 0.000000 0.000000 
#    y 0.000000 1.815140 0.000000 
#    z 0.000000 0.000000 1.760610 
# 
# From -- ./inp_files/8307.got.cif
#   From: 2010.06.25/outbox.cif.g09.slc.cpg/sg58_5_cif.got.tgz:8307.got - 2010.06.26 21:38:00.
