data_PCOD8236107
_publ_section_title
;
Structure prediction by ZEFSAII (Michael W. Deem and Ramdas Pophale) SiO2 
 PCOD8236107
Probable space group: P N N M
;
_chemical_formula_sum "Si O2"
_cell_formula_units_Z 56
_cell_length_a 21.739958
_cell_length_b 14.444036
_cell_length_c 9.440460
_cell_angle_alpha 90.000000
_cell_angle_beta 90.000000
_cell_angle_gamma 90.000000
_cell_volume 2964.424674
_symmetry_space_group_name_H-M "P N N M"
_symmetry_group_IT_number 58
_symmetry_cell_setting 'orthorhombic'
loop_
_space_group_symop_operation_xyz
x,y,z
-x,-y,z
1/2+x,1/2-y,1/2-z
1/2-x,1/2+y,1/2-z
-x,-y,-z
x,y,-z
1/2-x,1/2+y,1/2+z
1/2+x,1/2-y,1/2+z
loop_
_atom_site_type_symbol
_atom_site_label
_atom_site_fract_x
_atom_site_fract_y
_atom_site_fract_z
Si Si1 0.080830 0.090332 0.832337
Si Si2 0.443221 0.390836 0.665396
Si Si3 0.080428 0.690708 0.833847
Si Si4 0.524203 0.102848 0.838756
Si Si5 0.814594 0.810832 0.663690
Si Si6 0.664629 0.102840 0.835993
Si Si7 0.196087 0.572231 0.167286
O O1 0.128227 0.156789 0.755354
O O2 0.012909 0.117898 0.776856
O O3 0.091966 0.983251 0.781622
O O4 0.089770 0.103600 0.000000
O O5 0.451739 0.404926 0.500000
O O6 0.404370 0.298473 0.701633
O O7 0.135757 0.627009 0.778063
O O8 0.016583 0.668208 0.758693
O O9 0.070461 0.676443 0.000000
O O10 0.594064 0.108309 0.784588
O O11 0.500000 0.000000 0.822249
O O12 0.519296 0.137983 0.000000
O O13 0.830181 0.829035 0.500000
O O14 0.802930 0.701649 0.689579
O O15 0.754156 0.866038 0.711274
O O16 0.700647 0.026229 0.744965
O O17 0.667644 0.072909 0.000000
O O18 0.193345 0.555648 0.000000
#
# Coordination Sequence:
#
# PCOD8236107 Si02
#       7
#     8   8   8   8   8   8   8
#     4   9  17  33  56  80 105 137 176 217 260 312
#     4   8  16  31  53  81 109 133 169 222 267 305
#     4  10  19  32  52  77 105 139 176 215 265 317
#     4  10  19  32  52  79 110 137 168 218 270 318
#     4  10  22  38  54  76 108 142 177 218 264 312
#     4  10  21  38  58  78 105 142 176 213 268 325
#     4  10  22  37  52  74 105 137 175 221 257 300
#
# _framework density 18.89068
#
# number of rings (size 3 to 8) (size 9 to 14) (size 15 to 20)
#    0.000    2.429    1.429    1.714    0.000    3.143 
#    0.000    5.000    0.000    0.000    0.000    0.000 
#    0.000    0.000    0.000    0.000    0.000    0.000 
#
# Total GULP energy -694300.198292 kJ/mol
# GULP energy per Si atom -12398.217827 kJ/mol
# Density = 1.884768 g / cm^3
# Si number density = 18.890680 Si / 1000 Ang^3
#
#
#
# Elastic Constant Matrix: (Units=GPa)
#
#
# Indices 1 2 3 4 5 6 
#
# 1 71.1390 41.9759 25.1472 0.0000 0.0000 0.0000
# 2 41.9759 119.1359 37.1162 0.0000 0.0000 0.0000
# 3 25.1472 37.1162 37.3715 0.0000 0.0000 0.0000
# 4 0.0000 0.0000 0.0000 6.5273 0.0000 0.0000
# 5 0.0000 0.0000 0.0000 0.0000 19.6133 0.0000
# 6 0.0000 0.0000 0.0000 0.0000 0.0000 31.6186
#
#
#
# Elastic Compliance Matrix: (Units=1/GPa)
#
#
# Indices 1 2 3 4 5 6 
#
# 1 0.019722 -0.004075 -0.009224 0.000000 0.000000 0.000000
# 2 -0.004075 0.012997 -0.010166 0.000000 0.000000 0.000000
# 3 -0.009224 -0.010166 0.043061 0.000000 0.000000 0.000000
# 4 0.000000 0.000000 0.000000 0.153202 0.000000 0.000000
# 5 0.000000 0.000000 0.000000 0.000000 0.050986 0.000000
# 6 0.000000 0.000000 0.000000 0.000000 0.000000 0.031627
#
#
# Mechanical properties :
#
#
# Convention : Reuss Voigt Hill
#
# Bulk Modulus (GPa) = 34.66097 48.45834 41.55966
# Shear Modulus (GPa) = 13.58178 19.77899 16.68038
#
# Velocity S-wave (km/s) = 2.68426 3.23928 2.97475
# Velocity P-wave (km/s) = 5.29104 6.30066 5.81779
#
# Compressibility (1/GPa) = 0.02885089
#
# Stress axis : x y z
#
# Youngs Moduli (GPa) = 50.70452 76.94267 23.22287
#
# Poissons Ratio (x) = 0.31356 0.21420
# Poissons Ratio (y) = 0.20663 0.23608
# Poissons Ratio (z) = 0.46768 0.78217
#
# Static dielectric constant tensor:
#      x y z
#    x 3.363840 0.000000 0.000000 
#    y 0.000000 3.710900 0.000000 
#    z 0.000000 0.000000 3.205320 
# 
# 
# High freq. dielectric constant tensor:
#      x y z
#    x 1.723340 0.000000 0.000000 
#    y 0.000000 1.750490 0.000000 
#    z 0.000000 0.000000 1.708330 
# 
# From -- ./inp_files/6387.got.cif
#   From: 2010.06.25/outbox.cif.g09.slc.cpg/sg58_4_cif.got.tgz:6387.got - 2010.06.26 21:38:00.
