data_PCOD8236597
_publ_section_title
;
Structure prediction by ZEFSAII (Michael W. Deem and Ramdas Pophale) SiO2 
 PCOD8236597
Probable space group: P N N M
;
_chemical_formula_sum "Si O2"
_cell_formula_units_Z 64
_cell_length_a 19.783395
_cell_length_b 19.698402
_cell_length_c 9.092441
_cell_angle_alpha 90.000000
_cell_angle_beta 90.000000
_cell_angle_gamma 90.000000
_cell_volume 3543.335784
_symmetry_space_group_name_H-M "P N N M"
_symmetry_group_IT_number 58
_symmetry_cell_setting 'orthorhombic'
loop_
_space_group_symop_operation_xyz
x,y,z
-x,-y,z
1/2+x,1/2-y,1/2-z
1/2-x,1/2+y,1/2-z
-x,-y,-z
x,y,-z
1/2-x,1/2+y,1/2+z
1/2+x,1/2-y,1/2+z
loop_
_atom_site_type_symbol
_atom_site_label
_atom_site_fract_x
_atom_site_fract_y
_atom_site_fract_z
Si Si1 0.472333 0.573513 0.171738
Si Si2 0.841483 0.952114 0.171199
Si Si3 0.204031 0.914501 0.670966
Si Si4 0.909980 0.322516 0.827368
Si Si5 0.973713 0.573908 0.827620
Si Si6 0.194811 0.591580 0.667980
Si Si7 0.662498 0.061601 0.826586
Si Si8 0.083793 0.816846 0.668457
O O1 0.500000 0.500000 0.216841
O O2 0.404947 0.589255 0.265000
O O3 0.527585 0.628894 0.216329
O O4 0.454489 0.576103 0.000000
O O5 0.775230 0.905694 0.194201
O O6 0.834915 0.022320 0.258284
O O7 0.851320 0.969327 0.000000
O O8 0.216478 0.930795 0.500000
O O9 0.274878 0.899611 0.751274
O O10 0.158058 0.848137 0.691362
O O11 0.839442 0.350611 0.765303
O O12 0.925570 0.248095 0.769503
O O13 0.970695 0.371651 0.778731
O O14 0.902716 0.319678 0.000000
O O15 0.906389 0.591967 0.737649
O O16 0.000000 0.500000 0.781426
O O17 0.957222 0.577200 0.000000
O O18 0.176294 0.606891 0.500000
O O19 0.167055 0.517777 0.714281
O O20 0.666518 0.073816 0.000000
O O21 0.073439 0.795141 0.500000
#
# Coordination Sequence:
#
# PCOD8236597 Si02
#       8
#     8   8   8   8   8   8   8   8
#     4  10  19  36  58  83 112 147 192 231 275 338
#     4  10  20  33  54  87 116 141 180 234 283 322
#     4  10  19  35  57  80 110 149 185 225 278 336
#     4  11  23  37  57  83 111 147 190 234 280 335
#     4  10  20  36  56  82 114 148 189 232 278 335
#     4   9  19  35  53  78 113 146 180 222 277 336
#     4  10  20  33  55  87 114 140 181 234 282 325
#     4  10  22  39  58  80 112 152 188 228 283 341
#
# _framework density 18.062076000000001
#
# number of rings (size 3 to 8) (size 9 to 14) (size 15 to 20)
#    0.000    2.000    2.500    2.250    0.000    5.500 
#    0.000    1.250    0.000    1.500    0.000    0.000 
#    0.000    0.000    0.000    0.000    0.000    0.000 
#
# Total GULP energy -793848.526845 kJ/mol
# GULP energy per Si atom -12403.883232 kJ/mol
# Density = 1.802097 g / cm^3
# Si number density = 18.062076 Si / 1000 Ang^3
#
#
#
# Elastic Constant Matrix: (Units=GPa)
#
#
# Indices 1 2 3 4 5 6 
#
# 1 132.6010 53.5723 63.8380 0.0000 0.0000 0.0000
# 2 53.5723 98.5578 47.3728 0.0000 0.0000 0.0000
# 3 63.8380 47.3728 87.3894 0.0000 0.0000 0.0000
# 4 0.0000 0.0000 0.0000 29.9373 0.0000 0.0000
# 5 0.0000 0.0000 0.0000 0.0000 35.4907 0.0000
# 6 0.0000 0.0000 0.0000 0.0000 0.0000 21.4913
#
#
#
# Elastic Compliance Matrix: (Units=1/GPa)
#
#
# Indices 1 2 3 4 5 6 
#
# 1 0.012341 -0.003212 -0.007274 0.000000 0.000000 0.000000
# 2 -0.003212 0.014558 -0.005545 0.000000 0.000000 0.000000
# 3 -0.007274 -0.005545 0.019763 0.000000 0.000000 0.000000
# 4 0.000000 0.000000 0.000000 0.033403 0.000000 0.000000
# 5 0.000000 0.000000 0.000000 0.000000 0.028176 0.000000
# 6 0.000000 0.000000 0.000000 0.000000 0.000000 0.046530
#
#
# Mechanical properties :
#
#
# Convention : Reuss Voigt Hill
#
# Bulk Modulus (GPa) = 68.49734 72.01274 70.25504
# Shear Modulus (GPa) = 26.08249 27.63487 26.85868
#
# Velocity S-wave (km/s) = 3.80418 3.91576 3.86037
# Velocity P-wave (km/s) = 7.56977 7.77177 7.67143
#
# Compressibility (1/GPa) = 0.01459911
#
# Stress axis : x y z
#
# Youngs Moduli (GPa) = 81.03125 68.69311 50.60029
#
# Poissons Ratio (x) = 0.22062 0.36807
# Poissons Ratio (y) = 0.26025 0.28059
# Poissons Ratio (z) = 0.58942 0.38092
#
# Static dielectric constant tensor:
#      x y z
#    x 3.465460 0.000000 0.000000 
#    y 0.000000 3.063650 0.000000 
#    z 0.000000 0.000000 3.332900 
# 
# 
# High freq. dielectric constant tensor:
#      x y z
#    x 1.712080 0.000000 0.000000 
#    y 0.000000 1.669830 0.000000 
#    z 0.000000 0.000000 1.706460 
# 
# From -- ./inp_files/9309.got.cif
#   From: 2010.06.25/outbox.cif.g09.slc.cpg/sg58_5_cif.got.tgz:9309.got - 2010.06.26 21:38:00.
