data_PCOD8236621
_publ_section_title
;
Structure prediction by ZEFSAII (Michael W. Deem and Ramdas Pophale) SiO2 
 PCOD8236621
Probable space group: P N N M
;
_chemical_formula_sum "Si O2"
_cell_formula_units_Z 56
_cell_length_a 19.429829
_cell_length_b 17.082176
_cell_length_c 9.212222
_cell_angle_alpha 90.000000
_cell_angle_beta 90.000000
_cell_angle_gamma 90.000000
_cell_volume 3057.571107
_symmetry_space_group_name_H-M "P N N M"
_symmetry_group_IT_number 58
_symmetry_cell_setting 'orthorhombic'
loop_
_space_group_symop_operation_xyz
x,y,z
-x,-y,z
1/2+x,1/2-y,1/2-z
1/2-x,1/2+y,1/2-z
-x,-y,-z
x,y,-z
1/2-x,1/2+y,1/2+z
1/2+x,1/2-y,1/2+z
loop_
_atom_site_type_symbol
_atom_site_label
_atom_site_fract_x
_atom_site_fract_y
_atom_site_fract_z
Si Si1 0.664433 0.961657 0.669999
Si Si2 0.584429 0.115938 0.333195
Si Si3 0.893172 0.790863 0.166045
Si Si4 0.528989 0.683901 0.831995
Si Si5 0.070093 0.958776 0.168302
Si Si6 0.947059 0.362511 0.668976
Si Si7 0.198247 0.069062 0.833641
O O1 0.661374 0.943347 0.500000
O O2 0.618097 0.899426 0.753159
O O3 0.741809 0.954032 0.724861
O O4 0.639355 0.049416 0.705300
O O5 0.560305 0.110284 0.500000
O O6 0.620801 0.199346 0.300740
O O7 0.517237 0.103147 0.235446
O O8 0.823918 0.840559 0.194629
O O9 0.953042 0.824209 0.266433
O O10 0.917334 0.803328 0.000000
O O11 0.579849 0.621960 0.756343
O O12 0.558780 0.770061 0.803908
O O13 0.523967 0.664005 0.000000
O O14 0.133814 0.014370 0.203079
O O15 0.065750 0.937396 0.000000
O O16 0.000000 0.000000 0.220936
O O17 0.946116 0.383942 0.500000
O O18 0.222587 0.058025 0.000000
#
# Coordination Sequence:
#
# PCOD8236621 Si02
#       7
#     8   8   8   8   8   8   8
#     4  11  23  38  55  81 115 148 186 230 281 334
#     4   9  19  36  60  85 108 141 184 230 280 331
#     4   9  17  35  59  79 105 143 182 222 272 332
#     4  10  20  33  54  86 114 138 178 230 277 320
#     4  10  19  35  58  82 109 145 187 225 271 333
#     4  10  21  37  58  84 112 145 185 231 278 328
#     4  10  21  37  57  79 109 150 188 224 272 333
#
# _framework density 18.315190000000001
#
# number of rings (size 3 to 8) (size 9 to 14) (size 15 to 20)
#    0.000    2.143    1.429    1.714    0.000    6.000 
#    2.571    0.000    0.000    0.000    0.000    0.000 
#    0.000    0.000    0.000    0.000    0.000    0.000 
#
# Total GULP energy -694554.376398 kJ/mol
# GULP energy per Si atom -12402.756721 kJ/mol
# Density = 1.827350 g / cm^3
# Si number density = 18.315190 Si / 1000 Ang^3
#
#
#
# Elastic Constant Matrix: (Units=GPa)
#
#
# Indices 1 2 3 4 5 6 
#
# 1 109.9715 59.7841 58.5547 0.0000 0.0000 0.0000
# 2 59.7841 104.3667 60.7627 0.0000 0.0000 0.0000
# 3 58.5547 60.7627 94.3664 0.0000 0.0000 0.0000
# 4 0.0000 0.0000 0.0000 28.9562 0.0000 0.0000
# 5 0.0000 0.0000 0.0000 0.0000 34.8625 0.0000
# 6 0.0000 0.0000 0.0000 0.0000 0.0000 21.6871
#
#
#
# Elastic Compliance Matrix: (Units=1/GPa)
#
#
# Indices 1 2 3 4 5 6 
#
# 1 0.015114 -0.005115 -0.006084 0.000000 0.000000 0.000000
# 2 -0.005115 0.017059 -0.007810 0.000000 0.000000 0.000000
# 3 -0.006084 -0.007810 0.019401 0.000000 0.000000 0.000000
# 4 0.000000 0.000000 0.000000 0.034535 0.000000 0.000000
# 5 0.000000 0.000000 0.000000 0.000000 0.028684 0.000000
# 6 0.000000 0.000000 0.000000 0.000000 0.000000 0.046110
#
#
# Mechanical properties :
#
#
# Convention : Reuss Voigt Hill
#
# Bulk Modulus (GPa) = 73.77734 74.10083 73.93909
# Shear Modulus (GPa) = 24.57712 25.74138 25.15925
#
# Velocity S-wave (km/s) = 3.66717 3.75302 3.71034
# Velocity P-wave (km/s) = 7.63546 7.70238 7.66900
#
# Compressibility (1/GPa) = 0.01355430
#
# Stress axis : x y z
#
# Youngs Moduli (GPa) = 66.16506 58.62058 51.54253
#
# Poissons Ratio (x) = 0.29985 0.31361
# Poissons Ratio (y) = 0.33844 0.40256
# Poissons Ratio (z) = 0.40258 0.45784
#
# Static dielectric constant tensor:
#      x y z
#    x 3.125950 0.000000 0.000000 
#    y 0.000000 3.645810 0.000000 
#    z 0.000000 0.000000 3.436530 
# 
# 
# High freq. dielectric constant tensor:
#      x y z
#    x 1.687010 0.000000 0.000000 
#    y 0.000000 1.724980 0.000000 
#    z 0.000000 0.000000 1.713770 
# 
# From -- ./inp_files/9175.got.cif
#   From: 2010.06.25/outbox.cif.g09.slc.cpg/sg58_5_cif.got.tgz:9175.got - 2010.06.26 21:38:00.
