data_PCOD8236605
_publ_section_title
;
Structure prediction by ZEFSAII (Michael W. Deem and Ramdas Pophale) SiO2 
 PCOD8236605
Probable space group: P N N M
;
_chemical_formula_sum "Si O2"
_cell_formula_units_Z 56
_cell_length_a 14.586985
_cell_length_b 22.087175
_cell_length_c 8.868132
_cell_angle_alpha 90.000000
_cell_angle_beta 90.000000
_cell_angle_gamma 90.000000
_cell_volume 2857.181684
_symmetry_space_group_name_H-M "P N N M"
_symmetry_group_IT_number 58
_symmetry_cell_setting 'orthorhombic'
loop_
_space_group_symop_operation_xyz
x,y,z
-x,-y,z
1/2+x,1/2-y,1/2-z
1/2-x,1/2+y,1/2-z
-x,-y,-z
x,y,-z
1/2-x,1/2+y,1/2+z
1/2+x,1/2-y,1/2+z
loop_
_atom_site_type_symbol
_atom_site_label
_atom_site_fract_x
_atom_site_fract_y
_atom_site_fract_z
Si Si1 0.864680 0.257325 0.325033
Si Si2 0.279845 0.020586 0.320804
Si Si3 0.465099 0.679656 0.175902
Si Si4 0.424442 0.546928 0.819944
Si Si5 0.678698 0.224544 0.822300
Si Si6 0.373799 0.899667 0.674158
Si Si7 0.919024 0.377422 0.174700
O O1 0.836906 0.260772 0.500000
O O2 0.777236 0.249963 0.220829
O O3 0.917382 0.318091 0.277905
O O4 0.930936 0.200241 0.294615
O O5 0.283008 0.019095 0.500000
O O6 0.176160 0.027957 0.260693
O O7 0.341280 0.076824 0.265047
O O8 0.322577 0.958317 0.257515
O O9 0.448989 0.613230 0.246448
O O10 0.395697 0.728844 0.247452
O O11 0.443163 0.675875 0.000000
O O12 0.500000 0.500000 0.757207
O O13 0.426159 0.547225 0.000000
O O14 0.664335 0.158303 0.758317
O O15 0.669094 0.220780 0.000000
O O16 0.348435 0.891146 0.500000
O O17 0.482345 0.908745 0.696141
O O18 0.902548 0.359888 0.000000
#
# Coordination Sequence:
#
# PCOD8236605 Si02
#       7
#     8   8   8   8   8   8   8
#     4  11  22  36  57  84 114 148 190 237 287 342
#     4   9  18  32  53  81 114 150 188 235 284 335
#     4   9  19  35  54  79 113 145 180 230 283 336
#     4   9  17  29  49  77 107 141 182 226 276 332
#     4  11  22  38  57  81 115 153 190 234 291 348
#     4  10  20  34  56  85 113 144 189 241 289 339
#     4  10  19  35  57  83 115 149 189 233 289 346
#
# _framework density 19.599733000000001
#
# number of rings (size 3 to 8) (size 9 to 14) (size 15 to 20)
#    0.000    2.143    1.429    2.143    2.000    4.000 
#    0.000    0.714    0.000    1.714    0.000    1.000 
#    0.000    0.000    0.000    0.000    0.000    0.000 
#
# Total GULP energy -694470.426912 kJ/mol
# GULP energy per Si atom -12401.257623 kJ/mol
# Density = 1.955512 g / cm^3
# Si number density = 19.599733 Si / 1000 Ang^3
#
#
#
# Elastic Constant Matrix: (Units=GPa)
#
#
# Indices 1 2 3 4 5 6 
#
# 1 99.6251 47.9182 14.1495 0.0000 0.0000 0.0000
# 2 47.9182 144.2341 20.2306 0.0000 0.0000 0.0000
# 3 14.1495 20.2306 26.3204 0.0000 0.0000 0.0000
# 4 0.0000 0.0000 0.0000 23.7378 0.0000 0.0000
# 5 0.0000 0.0000 0.0000 0.0000 21.0066 0.0000
# 6 0.0000 0.0000 0.0000 0.0000 0.0000 39.8886
#
#
#
# Elastic Compliance Matrix: (Units=1/GPa)
#
#
# Indices 1 2 3 4 5 6 
#
# 1 0.012292 -0.003538 -0.003888 0.000000 0.000000 0.000000
# 2 -0.003538 0.008789 -0.004854 0.000000 0.000000 0.000000
# 3 -0.003888 -0.004854 0.043814 0.000000 0.000000 0.000000
# 4 0.000000 0.000000 0.000000 0.042127 0.000000 0.000000
# 5 0.000000 0.000000 0.000000 0.000000 0.047604 0.000000
# 6 0.000000 0.000000 0.000000 0.000000 0.000000 0.025070
#
#
# Mechanical properties :
#
#
# Convention : Reuss Voigt Hill
#
# Bulk Modulus (GPa) = 24.79236 48.30848 36.55042
# Shear Modulus (GPa) = 22.96719 29.45201 26.20960
#
# Velocity S-wave (km/s) = 3.42689 3.88064 3.66080
# Velocity P-wave (km/s) = 5.32305 6.69180 6.04628
#
# Compressibility (1/GPa) = 0.04033501
#
# Stress axis : x y z
#
# Youngs Moduli (GPa) = 81.35565 113.77263 22.82360
#
# Poissons Ratio (x) = 0.40255 0.08874
# Poissons Ratio (y) = 0.28786 0.11078
# Poissons Ratio (z) = 0.31633 0.55222
#
# Static dielectric constant tensor:
#      x y z
#    x 3.755000 0.000000 0.000000 
#    y 0.000000 3.802320 0.000000 
#    z 0.000000 0.000000 3.075970 
# 
# 
# High freq. dielectric constant tensor:
#      x y z
#    x 1.778550 0.000000 0.000000 
#    y 0.000000 1.777250 0.000000 
#    z 0.000000 0.000000 1.710590 
# 
# From -- ./inp_files/6281.got.cif
#   From: 2010.06.25/outbox.cif.g09.slc.cpg/sg58_4_cif.got.tgz:6281.got - 2010.06.26 21:38:00.
