data_PCOD8236172
_publ_section_title
;
Structure prediction by ZEFSAII (Michael W. Deem and Ramdas Pophale) SiO2 
 PCOD8236172
Probable space group: P N N M
;
_chemical_formula_sum "Si O2"
_cell_formula_units_Z 64
_cell_length_a 25.040746
_cell_length_b 15.084857
_cell_length_c 8.963456
_cell_angle_alpha 90.000000
_cell_angle_beta 90.000000
_cell_angle_gamma 90.000000
_cell_volume 3385.820666
_symmetry_space_group_name_H-M "P N N M"
_symmetry_group_IT_number 58
_symmetry_cell_setting 'orthorhombic'
loop_
_space_group_symop_operation_xyz
x,y,z
-x,-y,z
1/2+x,1/2-y,1/2-z
1/2-x,1/2+y,1/2-z
-x,-y,-z
x,y,-z
1/2-x,1/2+y,1/2+z
1/2+x,1/2-y,1/2+z
loop_
_atom_site_type_symbol
_atom_site_label
_atom_site_fract_x
_atom_site_fract_y
_atom_site_fract_z
Si Si1 0.224206 0.527697 0.169679
Si Si2 0.883226 0.492419 0.323828
Si Si3 0.644907 0.303015 0.178666
Si Si4 0.062412 0.689201 0.677180
Si Si5 0.666152 0.481367 0.672770
Si Si6 0.260601 0.231908 0.667888
Si Si7 0.636982 0.674705 0.326442
Si Si8 0.056782 0.333560 0.676523
O O1 0.172340 0.484482 0.244428
O O2 0.275887 0.497383 0.260472
O O3 0.217250 0.632823 0.176766
O O4 0.229715 0.494422 0.000000
O O5 0.873368 0.492911 0.500000
O O6 0.906379 0.398458 0.268987
O O7 0.924859 0.568440 0.275287
O O8 0.636298 0.401545 0.242943
O O9 0.701461 0.263866 0.241600
O O10 0.597634 0.240627 0.238275
O O11 0.647108 0.310946 0.000000
O O12 0.062358 0.694713 0.500000
O O13 0.088931 0.777559 0.741564
O O14 0.002108 0.684480 0.740709
O O15 0.672808 0.456712 0.500000
O O16 0.630346 0.569399 0.694468
O O17 0.253543 0.265589 0.500000
O O18 0.305701 0.293903 0.743905
O O19 0.634627 0.702221 0.500000
O O20 0.055991 0.326873 0.500000
#
# Coordination Sequence:
#
# PCOD8236172 Si02
#       8
#     8   8   8   8   8   8   8   8
#     4  10  19  33  53  78 111 144 176 214 262 323
#     4  10  19  32  54  82 112 143 177 219 268 318
#     4   9  18  35  57  77 104 144 182 221 267 319
#     4  10  20  35  55  83 112 139 181 231 266 309
#     4  10  21  35  55  80 109 141 180 227 274 321
#     4   8  15  29  50  73  99 134 173 209 252 315
#     4  10  20  35  55  78 107 146 182 215 268 330
#     4   9  19  35  57  80 107 146 185 219 270 329
#
# _framework density 18.902360999999999
#
# number of rings (size 3 to 8) (size 9 to 14) (size 15 to 20)
#    0.000    2.500    1.250    1.875    1.750    2.500 
#    0.000    2.500    0.000    5.250    0.000    0.000 
#    0.000    0.000    0.000    0.000    0.000    0.000 
#
# Total GULP energy -793450.799419 kJ/mol
# GULP energy per Si atom -12397.668741 kJ/mol
# Density = 1.885934 g / cm^3
# Si number density = 18.902361 Si / 1000 Ang^3
#
#
#
# Elastic Constant Matrix: (Units=GPa)
#
#
# Indices 1 2 3 4 5 6 
#
# 1 111.4173 49.1854 27.9115 0.0000 0.0000 0.0000
# 2 49.1854 77.8035 22.7984 0.0000 0.0000 0.0000
# 3 27.9115 22.7984 42.7473 0.0000 0.0000 0.0000
# 4 0.0000 0.0000 0.0000 23.4271 0.0000 0.0000
# 5 0.0000 0.0000 0.0000 0.0000 23.6603 0.0000
# 6 0.0000 0.0000 0.0000 0.0000 0.0000 28.6159
#
#
#
# Elastic Compliance Matrix: (Units=1/GPa)
#
#
# Indices 1 2 3 4 5 6 
#
# 1 0.013285 -0.006942 -0.004972 0.000000 0.000000 0.000000
# 2 -0.006942 0.018861 -0.005526 0.000000 0.000000 0.000000
# 3 -0.004972 -0.005526 0.029587 0.000000 0.000000 0.000000
# 4 0.000000 0.000000 0.000000 0.042686 0.000000 0.000000
# 5 0.000000 0.000000 0.000000 0.000000 0.042265 0.000000
# 6 0.000000 0.000000 0.000000 0.000000 0.000000 0.034946
#
#
# Mechanical properties :
#
#
# Convention : Reuss Voigt Hill
#
# Bulk Modulus (GPa) = 37.24059 47.97318 42.60688
# Shear Modulus (GPa) = 22.17680 23.94552 23.06116
#
# Velocity S-wave (km/s) = 3.42896 3.56308 3.49666
# Velocity P-wave (km/s) = 5.95158 6.50860 6.23631
#
# Compressibility (1/GPa) = 0.02685242
#
# Stress axis : x y z
#
# Youngs Moduli (GPa) = 75.27119 53.02071 33.79824
#
# Poissons Ratio (x) = 0.36805 0.16806
# Poissons Ratio (y) = 0.52250 0.18678
# Poissons Ratio (z) = 0.37428 0.29301
#
# Static dielectric constant tensor:
#      x y z
#    x 3.570250 0.000000 0.000000 
#    y 0.000000 3.423110 0.000000 
#    z 0.000000 0.000000 3.166090 
# 
# 
# High freq. dielectric constant tensor:
#      x y z
#    x 1.730650 0.000000 0.000000 
#    y 0.000000 1.734530 0.000000 
#    z 0.000000 0.000000 1.702910 
# 
# From -- ./inp_files/10014.got.cif
#   From: 2010.06.25/outbox.cif.g09.slc.cpg/sg58_6_cif.got.tgz:10014.got - 2010.06.26 21:38:00.
