data_PCOD8236320
_publ_section_title
;
Structure prediction by ZEFSAII (Michael W. Deem and Ramdas Pophale) SiO2 
 PCOD8236320
Probable space group: P N N M
;
_chemical_formula_sum "Si O2"
_cell_formula_units_Z 48
_cell_length_a 7.414723
_cell_length_b 15.080518
_cell_length_c 16.967186
_cell_angle_alpha 90.000000
_cell_angle_beta 90.000000
_cell_angle_gamma 90.000000
_cell_volume 1897.234491
_symmetry_space_group_name_H-M "P N N M"
_symmetry_group_IT_number 58
_symmetry_cell_setting 'orthorhombic'
loop_
_space_group_symop_operation_xyz
x,y,z
-x,-y,z
1/2+x,1/2-y,1/2-z
1/2-x,1/2+y,1/2-z
-x,-y,-z
x,y,-z
1/2-x,1/2+y,1/2+z
1/2+x,1/2-y,1/2+z
loop_
_atom_site_type_symbol
_atom_site_label
_atom_site_fract_x
_atom_site_fract_y
_atom_site_fract_z
Si Si1 0.523724 0.795127 0.676916
Si Si2 0.156141 0.879314 0.845310
Si Si3 0.332010 0.605916 0.093757
Si Si4 0.978405 0.267570 0.650050
Si Si5 0.269000 0.458876 0.500000
Si Si6 0.112884 0.638967 0.500000
Si Si7 0.802811 0.545868 0.804598
O O1 0.488618 0.690166 0.662378
O O2 0.648432 0.841673 0.611871
O O3 0.610018 0.795617 0.766163
O O4 0.335609 0.850141 0.672014
O O5 0.327163 0.814281 0.853195
O O6 0.186159 0.951357 0.775718
O O7 0.117526 0.933940 0.923403
O O8 0.492385 0.660665 0.137318
O O9 0.312856 0.506214 0.129224
O O10 0.362948 0.599682 0.000000
O O11 0.858615 0.301563 0.577549
O O12 0.262596 0.564291 0.500000
O O13 0.079279 0.409398 0.500000
O O14 0.000000 0.500000 0.789811
#
# Coordination Sequence:
#
# PCOD8236320 Si02
#       7
#     8   8   8   8   4   4   8
#     4   9  19  31  52  78 116 150 191 233 289 345
#     4   9  18  31  48  78 113 146 191 234 291 341
#     4  10  19  33  55  86 115 149 196 241 290 353
#     4   9  17  32  51  80 113 149 187 239 287 346
#     4   9  18  24  48  81 111 142 185 247 286 330
#     4   9  16  26  50  79 111 139 189 242 291 328
#     4   9  19  32  52  81 110 146 193 238 284 349
#
# _framework density 25.299982
#
# number of rings (size 3 to 8) (size 9 to 14) (size 15 to 20)
#    0.000    2.833    0.833    0.000   12.833    3.000 
#    0.000    0.833    1.833    1.000    8.667    1.167 
#    0.000    0.000    0.000    0.000    0.000    0.000 
#
# Total GULP energy -594730.276562 kJ/mol
# GULP energy per Si atom -12390.214095 kJ/mol
# Density = 2.524240 g / cm^3
# Si number density = 25.299982 Si / 1000 Ang^3
#
#
#
# Elastic Constant Matrix: (Units=GPa)
#
#
# Indices 1 2 3 4 5 6 
#
# 1 33.2261 18.7608 16.4541 0.0000 0.0000 0.0000
# 2 18.7608 165.8861 71.7822 0.0000 0.0000 0.0000
# 3 16.4541 71.7822 167.8856 0.0000 0.0000 0.0000
# 4 0.0000 0.0000 0.0000 26.2913 0.0000 0.0000
# 5 0.0000 0.0000 0.0000 0.0000 6.0183 0.0000
# 6 0.0000 0.0000 0.0000 0.0000 0.0000 26.1656
#
#
#
# Elastic Compliance Matrix: (Units=1/GPa)
#
#
# Indices 1 2 3 4 5 6 
#
# 1 0.032683 -0.002835 -0.001991 0.000000 0.000000 0.000000
# 2 -0.002835 0.007643 -0.002990 0.000000 0.000000 0.000000
# 3 -0.001991 -0.002990 0.007430 0.000000 0.000000 0.000000
# 4 0.000000 0.000000 0.000000 0.038035 0.000000 0.000000
# 5 0.000000 0.000000 0.000000 0.000000 0.166161 0.000000
# 6 0.000000 0.000000 0.000000 0.000000 0.000000 0.038218
#
#
# Mechanical properties :
#
#
# Convention : Reuss Voigt Hill
#
# Bulk Modulus (GPa) = 31.12894 64.55469 47.84181
# Shear Modulus (GPa) = 15.79729 29.02841 22.41285
#
# Velocity S-wave (km/s) = 2.50151 3.39096 2.97961
# Velocity P-wave (km/s) = 4.54687 6.39551 5.54872
#
# Compressibility (1/GPa) = 0.03212445
#
# Stress axis : x y z
#
# Youngs Moduli (GPa) = 30.59649 130.84534 134.58996
#
# Poissons Ratio (x) = 0.37091 0.26800
# Poissons Ratio (y) = 0.08673 0.40241
# Poissons Ratio (z) = 0.06092 0.39121
#
# Static dielectric constant tensor:
#      x y z
#    x 4.030430 0.000000 0.000000 
#    y 0.000000 5.047940 0.000000 
#    z 0.000000 0.000000 4.508060 
# 
# 
# High freq. dielectric constant tensor:
#      x y z
#    x 1.982810 0.000000 0.000000 
#    y 0.000000 2.027130 0.000000 
#    z 0.000000 0.000000 2.002960 
# 
# From -- ./inp_files/21208.got.cif
#   From: 2010.06.25/outbox.cif.g09.slc.cpg/sg58_11_cif.got.tgz:21208.got - 2010.06.26 21:38:00.
