data_PCOD8236729
_publ_section_title
;
Structure prediction by ZEFSAII (Michael W. Deem and Ramdas Pophale) SiO2 
 PCOD8236729
Probable space group: P N N M
;
_chemical_formula_sum "Si O2"
_cell_formula_units_Z 56
_cell_length_a 21.881138
_cell_length_b 14.692962
_cell_length_c 8.965343
_cell_angle_alpha 90.000000
_cell_angle_beta 90.000000
_cell_angle_gamma 90.000000
_cell_volume 2882.346381
_symmetry_space_group_name_H-M "P N N M"
_symmetry_group_IT_number 58
_symmetry_cell_setting 'orthorhombic'
loop_
_space_group_symop_operation_xyz
x,y,z
-x,-y,z
1/2+x,1/2-y,1/2-z
1/2-x,1/2+y,1/2-z
-x,-y,-z
x,y,-z
1/2-x,1/2+y,1/2+z
1/2+x,1/2-y,1/2+z
loop_
_atom_site_type_symbol
_atom_site_label
_atom_site_fract_x
_atom_site_fract_y
_atom_site_fract_z
Si Si1 0.093933 0.112495 0.824987
Si Si2 0.722808 0.320070 0.322742
Si Si3 0.122997 0.912406 0.825851
Si Si4 0.678501 0.964584 0.176380
Si Si5 0.249862 0.381649 0.176764
Si Si6 0.979974 0.225746 0.177007
Si Si7 0.542014 0.915942 0.824592
O O1 0.157637 0.148832 0.755768
O O2 0.037354 0.168988 0.757029
O O3 0.086010 0.005282 0.791114
O O4 0.094918 0.129886 0.000000
O O5 0.721305 0.323132 0.500000
O O6 0.775504 0.387226 0.264469
O O7 0.738524 0.220027 0.264209
O O8 0.184835 0.915411 0.732952
O O9 0.081696 0.827228 0.775416
O O10 0.140112 0.907614 0.000000
O O11 0.610837 0.936535 0.226194
O O12 0.695364 0.058426 0.256311
O O13 0.683028 0.978832 0.000000
O O14 0.248023 0.387591 0.000000
O O15 0.981712 0.325729 0.244678
O O16 0.983636 0.232746 0.000000
O O17 0.500000 0.000000 0.773953
O O18 0.537651 0.899242 0.000000
#
# Coordination Sequence:
#
# PCOD8236729 Si02
#       7
#     8   8   8   8   8   8   8
#     4   9  17  33  57  83 111 145 188 229 276 339
#     4   9  18  33  55  80 108 146 186 225 279 338
#     4  10  19  36  59  84 115 151 188 224 279 348
#     4  10  20  39  61  79 108 154 192 224 274 340
#     4  11  22  34  56  88 114 142 186 237 285 329
#     4  10  21  35  59  89 112 144 192 243 279 319
#     4  10  23  41  59  81 115 157 194 228 283 352
#
# _framework density 19.428616999999999
#
# number of rings (size 3 to 8) (size 9 to 14) (size 15 to 20)
#    0.000    2.143    1.429    1.714    2.000    4.286 
#    0.000    2.143    0.000    1.714    0.000    0.000 
#    0.000    0.000    0.000    0.000    0.000    0.000 
#
# Total GULP energy -694500.998425 kJ/mol
# GULP energy per Si atom -12401.803543 kJ/mol
# Density = 1.938440 g / cm^3
# Si number density = 19.428617 Si / 1000 Ang^3
#
#
#
# Elastic Constant Matrix: (Units=GPa)
#
#
# Indices 1 2 3 4 5 6 
#
# 1 107.5736 51.6490 21.9381 0.0000 0.0000 0.0000
# 2 51.6490 141.0695 27.6226 0.0000 0.0000 0.0000
# 3 21.9381 27.6226 28.6795 0.0000 0.0000 0.0000
# 4 0.0000 0.0000 0.0000 27.5526 0.0000 0.0000
# 5 0.0000 0.0000 0.0000 0.0000 16.9482 0.0000
# 6 0.0000 0.0000 0.0000 0.0000 0.0000 37.8164
#
#
#
# Elastic Compliance Matrix: (Units=1/GPa)
#
#
# Indices 1 2 3 4 5 6 
#
# 1 0.012098 -0.003226 -0.006148 0.000000 0.000000 0.000000
# 2 -0.003226 0.009596 -0.006775 0.000000 0.000000 0.000000
# 3 -0.006148 -0.006775 0.046096 0.000000 0.000000 0.000000
# 4 0.000000 0.000000 0.000000 0.036294 0.000000 0.000000
# 5 0.000000 0.000000 0.000000 0.000000 0.059003 0.000000
# 6 0.000000 0.000000 0.000000 0.000000 0.000000 0.026444
#
#
# Mechanical properties :
#
#
# Convention : Reuss Voigt Hill
#
# Bulk Modulus (GPa) = 28.17400 53.30468 40.73934
# Shear Modulus (GPa) = 21.39855 28.20431 24.80143
#
# Velocity S-wave (km/s) = 3.32233 3.81424 3.57675
# Velocity P-wave (km/s) = 5.40832 6.84789 6.17023
#
# Compressibility (1/GPa) = 0.03549371
#
# Stress axis : x y z
#
# Youngs Moduli (GPa) = 82.65508 104.20584 21.69376
#
# Poissons Ratio (x) = 0.33615 0.13337
# Poissons Ratio (y) = 0.26663 0.14698
# Poissons Ratio (z) = 0.50814 0.70602
#
# Static dielectric constant tensor:
#      x y z
#    x 3.758210 0.000000 0.000000 
#    y 0.000000 3.727800 0.000000 
#    z 0.000000 0.000000 3.130150 
# 
# 
# High freq. dielectric constant tensor:
#      x y z
#    x 1.769220 0.000000 0.000000 
#    y 0.000000 1.772410 0.000000 
#    z 0.000000 0.000000 1.714760 
# 
# From -- ./inp_files/6378.got.cif
#   From: 2010.06.25/outbox.cif.g09.slc.cpg/sg58_4_cif.got.tgz:6378.got - 2010.06.26 21:38:00.
