data_PCOD8236529
_publ_section_title
;
Structure prediction by ZEFSAII (Michael W. Deem and Ramdas Pophale) SiO2 
 PCOD8236529
Probable space group: P N N M
;
_chemical_formula_sum "Si O2"
_cell_formula_units_Z 64
_cell_length_a 14.634316
_cell_length_b 22.741405
_cell_length_c 8.728400
_cell_angle_alpha 90.000000
_cell_angle_beta 90.000000
_cell_angle_gamma 90.000000
_cell_volume 2904.854351
_symmetry_space_group_name_H-M "P N N M"
_symmetry_group_IT_number 58
_symmetry_cell_setting 'orthorhombic'
loop_
_space_group_symop_operation_xyz
x,y,z
-x,-y,z
1/2+x,1/2-y,1/2-z
1/2-x,1/2+y,1/2-z
-x,-y,-z
x,y,-z
1/2-x,1/2+y,1/2+z
1/2+x,1/2-y,1/2+z
loop_
_atom_site_type_symbol
_atom_site_label
_atom_site_fract_x
_atom_site_fract_y
_atom_site_fract_z
Si Si1 0.641496 0.153956 0.176537
Si Si2 0.030841 0.083397 0.677755
Si Si3 0.626306 0.526450 0.321423
Si Si4 0.820016 0.850886 0.173350
Si Si5 0.355489 0.077948 0.825865
Si Si6 0.181881 0.462130 0.822239
Si Si7 0.788162 0.247191 0.822389
Si Si8 0.050449 0.697262 0.678310
O O1 0.626148 0.097055 0.283302
O O2 0.739897 0.184349 0.209137
O O3 0.558268 0.199764 0.211951
O O4 0.634552 0.133992 0.000000
O O5 0.005904 0.085338 0.500000
O O6 0.090562 0.140373 0.721797
O O7 0.937549 0.082284 0.776996
O O8 0.092143 0.026829 0.716672
O O9 0.615566 0.510812 0.500000
O O10 0.729480 0.542399 0.284485
O O11 0.752442 0.907113 0.186360
O O12 0.767359 0.793474 0.223751
O O13 0.853113 0.843001 0.000000
O O14 0.414127 0.133182 0.765426
O O15 0.375585 0.020486 0.722201
O O16 0.382895 0.063124 0.000000
O O17 0.207474 0.464250 0.000000
O O18 0.894503 0.250892 0.768151
O O19 0.781519 0.263596 0.000000
O O20 0.073340 0.705600 0.500000
#
# Coordination Sequence:
#
# PCOD8236529 Si02
#       8
#     8   8   8   8   8   8   8   8
#     4  10  23  44  65  87 121 165 205 250 311 379
#     4  11  20  32  53  83 117 152 199 253 303 355
#     4  11  21  35  53  77 116 161 200 242 300 370
#     4  10  19  34  58  85 115 157 200 243 299 364
#     4   9  18  34  59  87 117 155 199 244 296 364
#     4  12  24  37  57  86 122 161 201 255 312 368
#     4  10  21  39  64  91 119 153 198 257 310 355
#     4   9  20  41  68  92 119 160 207 251 304 374
#
# _framework density 22.032087000000001
#
# number of rings (size 3 to 8) (size 9 to 14) (size 15 to 20)
#    0.000    1.750    1.250    5.625    0.000    4.000 
#    2.250    2.500    0.000    0.000    0.000    0.000 
#    0.000    0.000    0.000    0.000    0.000    0.000 
#
# Total GULP energy -793558.657553 kJ/mol
# GULP energy per Si atom -12399.354024 kJ/mol
# Density = 2.198194 g / cm^3
# Si number density = 22.032087 Si / 1000 Ang^3
#
#
#
# Elastic Constant Matrix: (Units=GPa)
#
#
# Indices 1 2 3 4 5 6 
#
# 1 69.7148 4.0585 14.9158 0.0000 0.0000 0.0000
# 2 4.0585 55.0241 25.4668 0.0000 0.0000 0.0000
# 3 14.9158 25.4668 102.6731 0.0000 0.0000 0.0000
# 4 0.0000 0.0000 0.0000 25.1192 0.0000 0.0000
# 5 0.0000 0.0000 0.0000 0.0000 32.1054 0.0000
# 6 0.0000 0.0000 0.0000 0.0000 0.0000 25.5167
#
#
#
# Elastic Compliance Matrix: (Units=1/GPa)
#
#
# Indices 1 2 3 4 5 6 
#
# 1 0.014805 -0.000109 -0.002124 0.000000 0.000000 0.000000
# 2 -0.000109 0.020532 -0.005077 0.000000 0.000000 0.000000
# 3 -0.002124 -0.005077 0.011307 0.000000 0.000000 0.000000
# 4 0.000000 0.000000 0.000000 0.039810 0.000000 0.000000
# 5 0.000000 0.000000 0.000000 0.000000 0.031147 0.000000
# 6 0.000000 0.000000 0.000000 0.000000 0.000000 0.039190
#
#
# Mechanical properties :
#
#
# Convention : Reuss Voigt Hill
#
# Bulk Modulus (GPa) = 31.22583 35.14380 33.18482
# Shear Modulus (GPa) = 27.45962 28.74631 28.10297
#
# Velocity S-wave (km/s) = 3.53419 3.61605 3.57536
# Velocity P-wave (km/s) = 5.55497 5.78102 5.66912
#
# Compressibility (1/GPa) = 0.03202477
#
# Stress axis : x y z
#
# Youngs Moduli (GPa) = 67.54528 48.70544 88.43767
#
# Poissons Ratio (x) = 0.00531 0.18782
# Poissons Ratio (y) = 0.00737 0.44898
# Poissons Ratio (z) = 0.14345 0.24727
#
# Static dielectric constant tensor:
#      x y z
#    x 4.173370 0.000000 0.000000 
#    y 0.000000 3.753690 0.000000 
#    z 0.000000 0.000000 3.807960 
# 
# 
# High freq. dielectric constant tensor:
#      x y z
#    x 1.864470 0.000000 0.000000 
#    y 0.000000 1.845930 0.000000 
#    z 0.000000 0.000000 1.859620 
# 
# From -- ./inp_files/6915.got.cif
#   From: 2010.06.25/outbox.cif.g09.slc.cpg/sg58_4_cif.got.tgz:6915.got - 2010.06.26 21:38:00.
