data_PCOD8236711
_publ_section_title
;
Structure prediction by ZEFSAII (Michael W. Deem and Ramdas Pophale) SiO2 
 PCOD8236711
Probable space group: P N N M
;
_chemical_formula_sum "Si O2"
_cell_formula_units_Z 64
_cell_length_a 26.113165
_cell_length_b 14.833370
_cell_length_c 8.846336
_cell_angle_alpha 90.000000
_cell_angle_beta 90.000000
_cell_angle_gamma 90.000000
_cell_volume 3426.594972
_symmetry_space_group_name_H-M "P N N M"
_symmetry_group_IT_number 58
_symmetry_cell_setting 'orthorhombic'
loop_
_space_group_symop_operation_xyz
x,y,z
-x,-y,z
1/2+x,1/2-y,1/2-z
1/2-x,1/2+y,1/2-z
-x,-y,-z
x,y,-z
1/2-x,1/2+y,1/2+z
1/2+x,1/2-y,1/2+z
loop_
_atom_site_type_symbol
_atom_site_label
_atom_site_fract_x
_atom_site_fract_y
_atom_site_fract_z
Si Si1 0.893306 0.168306 0.679252
Si Si2 0.392334 0.662518 0.679891
Si Si3 0.363704 0.135506 0.178500
Si Si4 0.442300 0.007340 0.325625
Si Si5 0.670144 0.497977 0.821060
Si Si6 0.135986 0.356102 0.826295
Si Si7 0.212254 0.503862 0.179146
Si Si8 0.996662 0.895151 0.322305
O O1 0.893189 0.166854 0.500000
O O2 0.870996 0.262673 0.739617
O O3 0.857053 0.088300 0.739448
O O4 0.951426 0.152917 0.735218
O O5 0.392563 0.661855 0.500000
O O6 0.355171 0.586352 0.740925
O O7 0.370669 0.757366 0.746882
O O8 0.450085 0.650280 0.735169
O O9 0.414090 0.080643 0.223787
O O10 0.312633 0.094127 0.252228
O O11 0.357027 0.133723 0.000000
O O12 0.439473 0.038625 0.500000
O O13 0.500000 0.000000 0.267101
O O14 0.416957 0.909673 0.304433
O O15 0.729130 0.502677 0.771843
O O16 0.663531 0.486928 0.000000
O O17 0.182554 0.415384 0.755742
O O18 0.149322 0.341372 0.000000
O O19 0.205017 0.509551 0.000000
O O20 0.987643 0.882455 0.500000
O O21 0.000000 0.000000 0.280403
#
# Coordination Sequence:
#
# PCOD8236711 Si02
#       8
#     8   8   8   8   8   8   8   8
#     4   9  19  35  55  80 107 143 182 215 262 322
#     4  11  22  34  53  84 115 138 171 222 277 319
#     4  10  20  34  54  81 112 138 170 222 277 319
#     4   9  18  34  55  75 102 143 185 219 255 313
#     4  10  20  38  60  78 101 142 189 221 257 318
#     4   8  17  34  52  76 107 139 174 212 265 322
#     4   9  19  38  61  78 101 141 185 223 260 316
#     4  10  19  36  58  75 104 147 187 219 254 315
#
# _framework density 18.677432
#
# number of rings (size 3 to 8) (size 9 to 14) (size 15 to 20)
#    0.000    2.500    1.250    1.500    1.750    2.000 
#    0.000    9.375    0.000    0.000    0.000    0.000 
#    0.000    0.000    0.000    0.000    0.000    0.000 
#
# Total GULP energy -793518.886077 kJ/mol
# GULP energy per Si atom -12398.732595 kJ/mol
# Density = 1.863492 g / cm^3
# Si number density = 18.677432 Si / 1000 Ang^3
#
#
#
# Elastic Constant Matrix: (Units=GPa)
#
#
# Indices 1 2 3 4 5 6 
#
# 1 171.1004 84.6577 34.7091 0.0000 0.0000 0.0000
# 2 84.6577 173.6073 35.2989 0.0000 0.0000 0.0000
# 3 34.7091 35.2989 32.3904 0.0000 0.0000 0.0000
# 4 0.0000 0.0000 0.0000 25.3209 0.0000 0.0000
# 5 0.0000 0.0000 0.0000 0.0000 25.1208 0.0000
# 6 0.0000 0.0000 0.0000 0.0000 0.0000 9.0033
#
#
#
# Elastic Compliance Matrix: (Units=1/GPa)
#
#
# Indices 1 2 3 4 5 6 
#
# 1 0.008498 -0.002945 -0.005897 0.000000 0.000000 0.000000
# 2 -0.002945 0.008420 -0.006021 0.000000 0.000000 0.000000
# 3 -0.005897 -0.006021 0.043754 0.000000 0.000000 0.000000
# 4 0.000000 0.000000 0.000000 0.039493 0.000000 0.000000
# 5 0.000000 0.000000 0.000000 0.000000 0.039808 0.000000
# 6 0.000000 0.000000 0.000000 0.000000 0.000000 0.111071
#
#
# Mechanical properties :
#
#
# Convention : Reuss Voigt Hill
#
# Bulk Modulus (GPa) = 32.31334 76.26994 54.29164
# Shear Modulus (GPa) = 17.17717 26.71782 21.94749
#
# Velocity S-wave (km/s) = 3.03590 3.78628 3.43166
# Velocity P-wave (km/s) = 5.44309 7.74846 6.69574
#
# Compressibility (1/GPa) = 0.03094697
#
# Stress axis : x y z
#
# Youngs Moduli (GPa) = 117.67717 118.75986 22.85518
#
# Poissons Ratio (x) = 0.34974 0.13477
# Poissons Ratio (y) = 0.34655 0.13761
# Poissons Ratio (z) = 0.69392 0.71502
#
# Static dielectric constant tensor:
#      x y z
#    x 3.642440 0.000000 0.000000 
#    y 0.000000 3.705630 0.000000 
#    z 0.000000 0.000000 3.124170 
# 
# 
# High freq. dielectric constant tensor:
#      x y z
#    x 1.733790 0.000000 0.000000 
#    y 0.000000 1.733970 0.000000 
#    z 0.000000 0.000000 1.694720 
# 
# From -- ./inp_files/10062.got.cif
#   From: 2010.06.25/outbox.cif.g09.slc.cpg/sg58_6_cif.got.tgz:10062.got - 2010.06.26 21:38:00.
