data_PCOD8236489
_publ_section_title
;
Structure prediction by ZEFSAII (Michael W. Deem and Ramdas Pophale) SiO2 
 PCOD8236489
Probable space group: P N N M
;
_chemical_formula_sum "Si O2"
_cell_formula_units_Z 48
_cell_length_a 13.982047
_cell_length_b 13.241485
_cell_length_c 13.867735
_cell_angle_alpha 90.000000
_cell_angle_beta 90.000000
_cell_angle_gamma 90.000000
_cell_volume 2567.514971
_symmetry_space_group_name_H-M "P N N M"
_symmetry_group_IT_number 58
_symmetry_cell_setting 'orthorhombic'
loop_
_space_group_symop_operation_xyz
x,y,z
-x,-y,z
1/2+x,1/2-y,1/2-z
1/2-x,1/2+y,1/2-z
-x,-y,-z
x,y,-z
1/2-x,1/2+y,1/2+z
1/2+x,1/2-y,1/2+z
loop_
_atom_site_type_symbol
_atom_site_label
_atom_site_fract_x
_atom_site_fract_y
_atom_site_fract_z
Si Si1 0.673961 0.221548 0.391694
Si Si2 0.007066 0.609604 0.110450
Si Si3 0.031454 0.891373 0.255440
Si Si4 0.676536 0.334552 0.787991
Si Si5 0.338585 0.265780 0.610656
Si Si6 0.683942 0.538766 0.109090
O O1 0.673687 0.266127 0.500000
O O2 0.568779 0.192017 0.350906
O O3 0.712784 0.310005 0.321386
O O4 0.731775 0.118386 0.385605
O O5 0.000000 0.500000 0.162958
O O6 0.112945 0.655046 0.120826
O O7 0.976385 0.593160 0.000000
O O8 0.101575 0.842985 0.176071
O O9 0.087599 0.907017 0.355494
O O10 0.939039 0.825850 0.287537
O O11 0.000000 0.000000 0.211895
O O12 0.728499 0.249768 0.855190
O O13 0.709293 0.445489 0.820867
O O14 0.340648 0.303963 0.500000
O O15 0.668993 0.499234 0.000000
#
# Coordination Sequence:
#
# PCOD8236489 Si02
#       6
#     8   8   8   8   8   8
#     4  10  19  34  57  82 112 150 191 233 286 349
#     4   9  17  30  51  80 107 137 179 231 287 338
#     4  10  22  37  56  84 115 153 192 238 290 352
#     4  11  21  35  58  83 114 149 196 238 290 343
#     4  11  21  35  55  84 116 147 190 243 293 342
#     4  10  21  38  59  84 115 152 193 239 291 349
#
# _framework density 18.695119999999999
#
# number of rings (size 3 to 8) (size 9 to 14) (size 15 to 20)
#    0.000    1.833    3.333    1.500    0.000    6.667 
#    0.000    2.500    0.000    0.000    0.000    0.000 
#    0.000   13.333    0.000    0.000    0.000    0.000 
#
# Total GULP energy -594726.023476 kJ/mol
# GULP energy per Si atom -12390.125489 kJ/mol
# Density = 1.865257 g / cm^3
# Si number density = 18.695120 Si / 1000 Ang^3
#
#
#
# Elastic Constant Matrix: (Units=GPa)
#
#
# Indices 1 2 3 4 5 6 
#
# 1 100.0103 29.9715 45.4706 0.0000 0.0000 0.0000
# 2 29.9715 71.3244 59.4732 0.0000 0.0000 0.0000
# 3 45.4706 59.4732 125.3528 0.0000 0.0000 0.0000
# 4 0.0000 0.0000 0.0000 32.4032 0.0000 0.0000
# 5 0.0000 0.0000 0.0000 0.0000 24.4000 0.0000
# 6 0.0000 0.0000 0.0000 0.0000 0.0000 31.6592
#
#
#
# Elastic Compliance Matrix: (Units=1/GPa)
#
#
# Indices 1 2 3 4 5 6 
#
# 1 0.012213 -0.002379 -0.003301 0.000000 0.000000 0.000000
# 2 -0.002379 0.023661 -0.010363 0.000000 0.000000 0.000000
# 3 -0.003301 -0.010363 0.014092 0.000000 0.000000 0.000000
# 4 0.000000 0.000000 0.000000 0.030861 0.000000 0.000000
# 5 0.000000 0.000000 0.000000 0.000000 0.040984 0.000000
# 6 0.000000 0.000000 0.000000 0.000000 0.000000 0.031586
#
#
# Mechanical properties :
#
#
# Convention : Reuss Voigt Hill
#
# Bulk Modulus (GPa) = 55.93202 62.94646 59.43924
# Shear Modulus (GPa) = 26.11733 28.47730 27.29731
#
# Velocity S-wave (km/s) = 3.74172 3.90711 3.82531
# Velocity P-wave (km/s) = 6.97497 7.35508 7.16754
#
# Compressibility (1/GPa) = 0.01787885
#
# Stress axis : x y z
#
# Youngs Moduli (GPa) = 81.88010 42.26313 70.96395
#
# Poissons Ratio (x) = 0.10056 0.23427
# Poissons Ratio (y) = 0.19482 0.73540
# Poissons Ratio (z) = 0.27031 0.43797
#
# Static dielectric constant tensor:
#      x y z
#    x 3.608120 0.000000 0.000000 
#    y 0.000000 3.377730 0.000000 
#    z 0.000000 0.000000 3.462460 
# 
# 
# High freq. dielectric constant tensor:
#      x y z
#    x 1.734510 0.000000 0.000000 
#    y 0.000000 1.712740 0.000000 
#    z 0.000000 0.000000 1.708960 
# 
# From -- ./inp_files/15576.got.cif
#   From: 2010.06.25/outbox.cif.g09.slc.cpg/sg58_8_cif.got.tgz:15576.got - 2010.06.26 21:38:00.
