data_PCOD8236661
_publ_section_title
;
Structure prediction by ZEFSAII (Michael W. Deem and Ramdas Pophale) SiO2 
 PCOD8236661
Probable space group: P N N M
;
_chemical_formula_sum "Si O2"
_cell_formula_units_Z 64
_cell_length_a 12.721427
_cell_length_b 27.837117
_cell_length_c 9.184210
_cell_angle_alpha 90.000000
_cell_angle_beta 90.000000
_cell_angle_gamma 90.000000
_cell_volume 3252.384558
_symmetry_space_group_name_H-M "P N N M"
_symmetry_group_IT_number 58
_symmetry_cell_setting 'orthorhombic'
loop_
_space_group_symop_operation_xyz
x,y,z
-x,-y,z
1/2+x,1/2-y,1/2-z
1/2-x,1/2+y,1/2-z
-x,-y,-z
x,y,-z
1/2-x,1/2+y,1/2+z
1/2+x,1/2-y,1/2+z
loop_
_atom_site_type_symbol
_atom_site_label
_atom_site_fract_x
_atom_site_fract_y
_atom_site_fract_z
Si Si1 0.537933 0.446753 0.661314
Si Si2 0.649010 0.110483 0.172280
Si Si3 0.915949 0.189268 0.657351
Si Si4 0.769655 0.715287 0.329380
Si Si5 0.029044 0.554487 0.170521
Si Si6 0.147656 0.185139 0.328019
Si Si7 0.264718 0.585414 0.171603
Si Si8 0.843117 0.087149 0.658936
O O1 0.500000 0.500000 0.639564
O O2 0.546079 0.422613 0.500000
O O3 0.650505 0.446534 0.741886
O O4 0.451863 0.421957 0.761063
O O5 0.666033 0.166854 0.211818
O O6 0.539587 0.092653 0.239398
O O7 0.741115 0.076751 0.241279
O O8 0.649599 0.102148 0.000000
O O9 0.930803 0.215851 0.500000
O O10 0.849326 0.220333 0.770288
O O11 0.843881 0.143364 0.628818
O O12 0.028757 0.174900 0.724166
O O13 0.759384 0.718355 0.500000
O O14 0.824306 0.762706 0.262382
O O15 0.149783 0.565612 0.210871
O O16 0.000000 0.500000 0.215868
O O17 0.007417 0.562714 0.000000
O O18 0.155133 0.187322 0.500000
O O19 0.221632 0.141049 0.275374
O O20 0.287814 0.580533 0.000000
O O21 0.834905 0.060494 0.500000
#
# Coordination Sequence:
#
# PCOD8236661 Si02
#       8
#     8   8   8   8   8   8   8   8
#     4  11  24  38  55  86 122 148 180 234 297 353
#     4  10  21  37  57  84 118 155 193 240 298 352
#     4   9  17  32  53  77 107 140 182 232 279 330
#     4   9  19  34  54  81 113 149 189 233 289 351
#     4  10  23  41  60  85 115 154 206 256 294 345
#     4   9  17  34  57  80 109 148 188 234 287 342
#     4  10  21  40  62  84 113 153 200 242 289 348
#     4  10  19  35  60  84 109 147 191 233 281 337
#
# _framework density 19.677869999999999
#
# number of rings (size 3 to 8) (size 9 to 14) (size 15 to 20)
#    0.000    2.250    1.250    1.125    1.750    3.750 
#    0.000    1.250    0.000    0.000    0.000    0.000 
#    0.000    0.000    0.000    0.000    0.000    0.000 
#
# Total GULP energy -792996.082025 kJ/mol
# GULP energy per Si atom -12390.563782 kJ/mol
# Density = 1.963308 g / cm^3
# Si number density = 19.677870 Si / 1000 Ang^3
#
#
#
# Elastic Constant Matrix: (Units=GPa)
#
#
# Indices 1 2 3 4 5 6 
#
# 1 150.3048 56.6855 61.0938 0.0000 0.0000 0.0000
# 2 56.6855 92.1145 35.5558 0.0000 0.0000 0.0000
# 3 61.0938 35.5558 90.4538 0.0000 0.0000 0.0000
# 4 0.0000 0.0000 0.0000 29.2659 0.0000 0.0000
# 5 0.0000 0.0000 0.0000 0.0000 32.8785 0.0000
# 6 0.0000 0.0000 0.0000 0.0000 0.0000 27.3038
#
#
#
# Elastic Compliance Matrix: (Units=1/GPa)
#
#
# Indices 1 2 3 4 5 6 
#
# 1 0.010484 -0.004384 -0.005358 0.000000 0.000000 0.000000
# 2 -0.004384 0.014631 -0.002790 0.000000 0.000000 0.000000
# 3 -0.005358 -0.002790 0.015771 0.000000 0.000000 0.000000
# 4 0.000000 0.000000 0.000000 0.034169 0.000000 0.000000
# 5 0.000000 0.000000 0.000000 0.000000 0.030415 0.000000
# 6 0.000000 0.000000 0.000000 0.000000 0.000000 0.036625
#
#
# Mechanical properties :
#
#
# Convention : Reuss Voigt Hill
#
# Bulk Modulus (GPa) = 63.20303 71.06038 67.13170
# Shear Modulus (GPa) = 28.99668 29.85884 29.42776
#
# Velocity S-wave (km/s) = 3.84287 3.89958 3.87133
# Velocity P-wave (km/s) = 7.20269 7.51438 7.36019
#
# Compressibility (1/GPa) = 0.01582203
#
# Stress axis : x y z
#
# Youngs Moduli (GPa) = 95.38122 68.34947 63.40697
#
# Poissons Ratio (x) = 0.29962 0.33974
# Poissons Ratio (y) = 0.41811 0.17693
# Poissons Ratio (z) = 0.51106 0.19072
#
# Static dielectric constant tensor:
#      x y z
#    x 3.619820 0.000000 0.000000 
#    y 0.000000 4.238380 0.000000 
#    z 0.000000 0.000000 3.721940 
# 
# 
# High freq. dielectric constant tensor:
#      x y z
#    x 1.769060 0.000000 0.000000 
#    y 0.000000 1.755110 0.000000 
#    z 0.000000 0.000000 1.756890 
# 
# From -- ./inp_files/4708.got.cif
#   From: 2010.06.25/outbox.cif.g09.slc.cpg/sg58_3_cif.got.tgz:4708.got - 2010.06.26 21:38:00.
