data_PCOD8236707
_publ_section_title
;
Structure prediction by ZEFSAII (Michael W. Deem and Ramdas Pophale) SiO2 
 PCOD8236707
Probable space group: P N N M
;
_chemical_formula_sum "Si O2"
_cell_formula_units_Z 48
_cell_length_a 11.102765
_cell_length_b 11.982868
_cell_length_c 19.907281
_cell_angle_alpha 90.000000
_cell_angle_beta 90.000000
_cell_angle_gamma 90.000000
_cell_volume 2648.523738
_symmetry_space_group_name_H-M "P N N M"
_symmetry_group_IT_number 58
_symmetry_cell_setting 'orthorhombic'
loop_
_space_group_symop_operation_xyz
x,y,z
-x,-y,z
1/2+x,1/2-y,1/2-z
1/2-x,1/2+y,1/2-z
-x,-y,-z
x,y,-z
1/2-x,1/2+y,1/2+z
1/2+x,1/2-y,1/2+z
loop_
_atom_site_type_symbol
_atom_site_label
_atom_site_fract_x
_atom_site_fract_y
_atom_site_fract_z
Si Si1 0.475896 0.128507 0.152654
Si Si2 0.240609 0.348951 0.323876
Si Si3 0.137278 0.017828 0.922594
Si Si4 0.095230 0.644793 0.801000
Si Si5 0.273547 0.239814 0.076203
Si Si6 0.827898 0.596027 0.821169
O O1 0.604287 0.190426 0.160260
O O2 0.394867 0.135667 0.220204
O O3 0.403348 0.187204 0.093226
O O4 0.500000 0.000000 0.135213
O O5 0.276788 0.445458 0.375438
O O6 0.330879 0.246227 0.332068
O O7 0.246490 0.393581 0.247880
O O8 0.170086 0.147397 0.912286
O O9 0.157407 0.981349 0.000000
O O10 0.000000 0.000000 0.900324
O O11 0.149616 0.534144 0.835302
O O12 0.955252 0.660234 0.818685
O O13 0.250171 0.349875 0.119936
O O14 0.276530 0.280695 0.000000
#
# Coordination Sequence:
#
# PCOD8236707 Si02
#       6
#     8   8   8   8   8   8
#     4  11  19  36  56  85 114 146 187 236 282 338
#     4  11  20  34  59  81 113 149 186 235 285 333
#     4  10  21  36  55  86 118 146 188 238 287 337
#     4  10  19  36  57  83 109 149 183 242 284 330
#     4  11  22  37  58  83 117 153 191 234 283 344
#     4  10  20  36  57  81 115 143 195 234 281 340
#
# _framework density 18.123303
#
# number of rings (size 3 to 8) (size 9 to 14) (size 15 to 20)
#    0.000    1.500    6.667    1.000    0.000    1.000 
#    0.000    3.333    0.000    1.000    0.000    0.000 
#    0.000    0.000    0.000    0.000    0.000    0.000 
#
# Total GULP energy -595292.763042 kJ/mol
# GULP energy per Si atom -12401.932563 kJ/mol
# Density = 1.808205 g / cm^3
# Si number density = 18.123303 Si / 1000 Ang^3
#
#
#
# Elastic Constant Matrix: (Units=GPa)
#
#
# Indices 1 2 3 4 5 6 
#
# 1 57.0551 12.4616 28.3920 0.0000 0.0000 0.0000
# 2 12.4616 57.9495 33.5022 0.0000 0.0000 0.0000
# 3 28.3920 33.5022 100.9814 0.0000 0.0000 0.0000
# 4 0.0000 0.0000 0.0000 26.0657 0.0000 0.0000
# 5 0.0000 0.0000 0.0000 0.0000 24.7741 0.0000
# 6 0.0000 0.0000 0.0000 0.0000 0.0000 24.7015
#
#
#
# Elastic Compliance Matrix: (Units=1/GPa)
#
#
# Indices 1 2 3 4 5 6 
#
# 1 0.020460 -0.001329 -0.005312 0.000000 0.000000 0.000000
# 2 -0.001329 0.021438 -0.006739 0.000000 0.000000 0.000000
# 3 -0.005312 -0.006739 0.013632 0.000000 0.000000 0.000000
# 4 0.000000 0.000000 0.000000 0.038365 0.000000 0.000000
# 5 0.000000 0.000000 0.000000 0.000000 0.040365 0.000000
# 6 0.000000 0.000000 0.000000 0.000000 0.000000 0.040483
#
#
# Mechanical properties :
#
#
# Convention : Reuss Voigt Hill
#
# Bulk Modulus (GPa) = 34.75667 40.52194 37.63931
# Shear Modulus (GPa) = 23.68629 24.55029 24.11829
#
# Velocity S-wave (km/s) = 3.61910 3.68452 3.65196
# Velocity P-wave (km/s) = 6.05668 6.36462 6.21256
#
# Compressibility (1/GPa) = 0.02877146
#
# Stress axis : x y z
#
# Youngs Moduli (GPa) = 48.87479 46.64599 73.35707
#
# Poissons Ratio (x) = 0.06199 0.38965
# Poissons Ratio (y) = 0.06495 0.49434
# Poissons Ratio (z) = 0.25961 0.31434
#
# Static dielectric constant tensor:
#      x y z
#    x 3.439850 0.000000 0.000000 
#    y 0.000000 3.151520 0.000000 
#    z 0.000000 0.000000 3.220820 
# 
# 
# High freq. dielectric constant tensor:
#      x y z
#    x 1.707610 0.000000 0.000000 
#    y 0.000000 1.688200 0.000000 
#    z 0.000000 0.000000 1.689720 
# 
# From -- ./inp_files/26135.got.cif
#   From: 2010.06.25/outbox.cif.g09.slc.cpg/sg58_14_cif.got.tgz:26135.got - 2010.06.26 21:38:00.
