data_PCOD8236316
_publ_section_title
;
Structure prediction by ZEFSAII (Michael W. Deem and Ramdas Pophale) SiO2 
 PCOD8236316
Probable space group: P N N M
;
_chemical_formula_sum "Si O2"
_cell_formula_units_Z 64
_cell_length_a 24.381932
_cell_length_b 14.330259
_cell_length_c 9.308161
_cell_angle_alpha 90.000000
_cell_angle_beta 90.000000
_cell_angle_gamma 90.000000
_cell_volume 3252.265873
_symmetry_space_group_name_H-M "P N N M"
_symmetry_group_IT_number 58
_symmetry_cell_setting 'orthorhombic'
loop_
_space_group_symop_operation_xyz
x,y,z
-x,-y,z
1/2+x,1/2-y,1/2-z
1/2-x,1/2+y,1/2-z
-x,-y,-z
x,y,-z
1/2-x,1/2+y,1/2+z
1/2+x,1/2-y,1/2+z
loop_
_atom_site_type_symbol
_atom_site_label
_atom_site_fract_x
_atom_site_fract_y
_atom_site_fract_z
Si Si1 0.057023 0.451941 0.334647
Si Si2 0.633157 0.574257 0.342077
Si Si3 0.207281 0.226209 0.830834
Si Si4 0.186249 0.746536 0.833601
Si Si5 0.655989 0.960650 0.332099
Si Si6 0.743484 0.478316 0.658058
Si Si7 0.904178 0.750567 0.332778
Si Si8 0.554495 0.450820 0.830584
O O1 0.070969 0.473167 0.500000
O O2 0.101517 0.499337 0.235222
O O3 0.057012 0.339788 0.307659
O O4 0.000000 0.500000 0.290838
O O5 0.607337 0.553105 0.500000
O O6 0.634116 0.684487 0.306104
O O7 0.698142 0.557439 0.344944
O O8 0.604896 0.512765 0.222132
O O9 0.260920 0.274667 0.762216
O O10 0.151448 0.262727 0.757505
O O11 0.212422 0.116500 0.796309
O O12 0.204001 0.248319 0.000000
O O13 0.161978 0.647048 0.788110
O O14 0.204538 0.746421 0.000000
O O15 0.654087 0.979107 0.500000
O O16 0.709613 0.011662 0.268026
O O17 0.770257 0.465401 0.500000
O O18 0.888158 0.761140 0.500000
O O19 0.937930 0.843063 0.280896
O O20 0.500000 0.500000 0.765748
O O21 0.553192 0.456687 0.000000
#
# Coordination Sequence:
#
# PCOD8236316 Si02
#       8
#     8   8   8   8   8   8   8   8
#     4  10  23  42  62  82 108 151 201 241 285 343
#     4  10  20  36  57  83 117 155 192 230 277 340
#     4  10  19  33  55  85 116 148 192 236 277 332
#     4   9  20  36  55  83 120 159 191 227 286 347
#     4  10  21  37  57  84 116 149 189 239 291 337
#     4   9  18  33  54  81 116 151 186 229 276 336
#     4  10  21  38  59  82 112 149 187 234 289 343
#     4  10  22  39  59  86 118 151 189 236 290 342
#
# _framework density 19.678588999999999
#
# number of rings (size 3 to 8) (size 9 to 14) (size 15 to 20)
#    0.000    2.250    1.250    0.750    1.750    4.000 
#    0.000    1.250    0.000    0.000    0.000    0.000 
#    0.000    0.000    0.000    0.000    0.000    0.000 
#
# Total GULP energy -793414.943423 kJ/mol
# GULP energy per Si atom -12397.108491 kJ/mol
# Density = 1.963380 g / cm^3
# Si number density = 19.678589 Si / 1000 Ang^3
#
#
#
# Elastic Constant Matrix: (Units=GPa)
#
#
# Indices 1 2 3 4 5 6 
#
# 1 104.3201 53.5845 48.7228 0.0000 0.0000 0.0000
# 2 53.5845 93.4243 33.5856 0.0000 0.0000 0.0000
# 3 48.7228 33.5856 62.3771 0.0000 0.0000 0.0000
# 4 0.0000 0.0000 0.0000 20.6757 0.0000 0.0000
# 5 0.0000 0.0000 0.0000 0.0000 29.0387 0.0000
# 6 0.0000 0.0000 0.0000 0.0000 0.0000 29.6868
#
#
#
# Elastic Compliance Matrix: (Units=1/GPa)
#
#
# Indices 1 2 3 4 5 6 
#
# 1 0.017751 -0.006444 -0.010396 0.000000 0.000000 0.000000
# 2 -0.006444 0.015612 -0.003373 0.000000 0.000000 0.000000
# 3 -0.010396 -0.003373 0.025968 0.000000 0.000000 0.000000
# 4 0.000000 0.000000 0.000000 0.048366 0.000000 0.000000
# 5 0.000000 0.000000 0.000000 0.000000 0.034437 0.000000
# 6 0.000000 0.000000 0.000000 0.000000 0.000000 0.033685
#
#
# Mechanical properties :
#
#
# Convention : Reuss Voigt Hill
#
# Bulk Modulus (GPa) = 52.89297 59.10079 55.99688
# Shear Modulus (GPa) = 22.46721 24.16216 23.31469
#
# Velocity S-wave (km/s) = 3.38258 3.50786 3.44579
# Velocity P-wave (km/s) = 6.49558 6.81946 6.65949
#
# Compressibility (1/GPa) = 0.01890610
#
# Stress axis : x y z
#
# Youngs Moduli (GPa) = 56.33358 64.05151 38.50948
#
# Poissons Ratio (x) = 0.41276 0.40034
# Poissons Ratio (y) = 0.36303 0.12988
# Poissons Ratio (z) = 0.58564 0.21602
#
# Static dielectric constant tensor:
#      x y z
#    x 3.430840 0.000000 0.000000 
#    y 0.000000 3.810640 0.000000 
#    z 0.000000 0.000000 3.549930 
# 
# 
# High freq. dielectric constant tensor:
#      x y z
#    x 1.747290 0.000000 0.000000 
#    y 0.000000 1.779980 0.000000 
#    z 0.000000 0.000000 1.762730 
# 
# From -- ./inp_files/10004.got.cif
#   From: 2010.06.25/outbox.cif.g09.slc.cpg/sg58_6_cif.got.tgz:10004.got - 2010.06.26 21:38:00.
