data_PCOD8236007
_publ_section_title
;
Structure prediction by ZEFSAII (Michael W. Deem and Ramdas Pophale) SiO2 
 PCOD8236007
Probable space group: P N N M
;
_chemical_formula_sum "Si O2"
_cell_formula_units_Z 56
_cell_length_a 24.480150
_cell_length_b 12.376887
_cell_length_c 10.092811
_cell_angle_alpha 90.000000
_cell_angle_beta 90.000000
_cell_angle_gamma 90.000000
_cell_volume 3058.001127
_symmetry_space_group_name_H-M "P N N M"
_symmetry_group_IT_number 58
_symmetry_cell_setting 'orthorhombic'
loop_
_space_group_symop_operation_xyz
x,y,z
-x,-y,z
1/2+x,1/2-y,1/2-z
1/2-x,1/2+y,1/2-z
-x,-y,-z
x,y,-z
1/2-x,1/2+y,1/2+z
1/2+x,1/2-y,1/2+z
loop_
_atom_site_type_symbol
_atom_site_label
_atom_site_fract_x
_atom_site_fract_y
_atom_site_fract_z
Si Si1 0.873224 0.000569 0.344474
Si Si2 0.298016 0.868540 0.851525
Si Si3 0.250866 0.506095 0.148053
Si Si4 0.401453 0.730319 0.844769
Si Si5 0.603486 0.738240 0.844795
Si Si6 0.802997 0.272557 0.856390
Si Si7 0.498609 0.876890 0.157017
O O1 0.868449 0.980750 0.500000
O O2 0.811379 0.013372 0.291152
O O3 0.906775 0.110611 0.311578
O O4 0.902948 0.892748 0.285242
O O5 0.298200 0.961762 0.741216
O O6 0.342170 0.778631 0.812353
O O7 0.235667 0.830100 0.840887
O O8 0.310959 0.912644 0.000000
O O9 0.240985 0.632541 0.143386
O O10 0.246221 0.454917 0.000000
O O11 0.447602 0.809268 0.782147
O O12 0.413339 0.724743 0.000000
O O13 0.654554 0.782088 0.762590
O O14 0.552209 0.810137 0.801433
O O15 0.616868 0.752157 0.000000
O O16 0.833594 0.268585 0.000000
O O17 0.500000 0.000000 0.214686
O O18 0.493461 0.884424 0.000000
#
# Coordination Sequence:
#
# PCOD8236007 Si02
#       7
#     8   8   8   8   8   8   8
#     4   9  16  29  49  73 101 131 166 208 254 299
#     4  10  19  31  51  77 100 134 173 203 251 310
#     4  10  19  32  48  72 108 139 164 207 256 301
#     4   9  17  31  50  72 103 137 167 209 260 308
#     4  10  20  33  53  78 102 133 174 217 256 296
#     4  10  20  33  50  75 107 140 170 201 256 317
#     4   9  19  33  48  73 105 132 166 216 264 302
#
# _framework density 18.312615000000001
#
# number of rings (size 3 to 8) (size 9 to 14) (size 15 to 20)
#    0.000    2.429    2.857    0.000    2.000    1.143 
#    0.000    2.857    0.000    2.143    0.000    1.000 
#    0.000    0.000    0.000    0.000    0.000    0.000 
#
# Total GULP energy -693802.849844 kJ/mol
# GULP energy per Si atom -12389.336604 kJ/mol
# Density = 1.827093 g / cm^3
# Si number density = 18.312615 Si / 1000 Ang^3
#
#
#
# Elastic Constant Matrix: (Units=GPa)
#
#
# Indices 1 2 3 4 5 6 
#
# 1 95.6786 53.6518 30.6647 0.0000 0.0000 0.0000
# 2 53.6518 118.9875 20.8215 0.0000 0.0000 0.0000
# 3 30.6647 20.8215 39.5064 0.0000 0.0000 0.0000
# 4 0.0000 0.0000 0.0000 17.7532 0.0000 0.0000
# 5 0.0000 0.0000 0.0000 0.0000 17.8786 0.0000
# 6 0.0000 0.0000 0.0000 0.0000 0.0000 34.5549
#
#
#
# Elastic Compliance Matrix: (Units=1/GPa)
#
#
# Indices 1 2 3 4 5 6 
#
# 1 0.016988 -0.005896 -0.010079 0.000000 0.000000 0.000000
# 2 -0.005896 0.011305 -0.001381 0.000000 0.000000 0.000000
# 3 -0.010079 -0.001381 0.033863 0.000000 0.000000 0.000000
# 4 0.000000 0.000000 0.000000 0.056328 0.000000 0.000000
# 5 0.000000 0.000000 0.000000 0.000000 0.055933 0.000000
# 6 0.000000 0.000000 0.000000 0.000000 0.000000 0.028939
#
#
# Mechanical properties :
#
#
# Convention : Reuss Voigt Hill
#
# Bulk Modulus (GPa) = 36.43822 51.60541 44.02181
# Shear Modulus (GPa) = 20.22519 23.97297 22.09908
#
# Velocity S-wave (km/s) = 3.32692 3.62207 3.47763
# Velocity P-wave (km/s) = 5.89058 6.76269 6.34164
#
# Compressibility (1/GPa) = 0.02744371
#
# Stress axis : x y z
#
# Youngs Moduli (GPa) = 58.86434 88.45911 29.53055
#
# Poissons Ratio (x) = 0.52159 0.29762
# Poissons Ratio (y) = 0.34709 0.04079
# Poissons Ratio (z) = 0.59327 0.12219
#
# Static dielectric constant tensor:
#      x y z
#    x 3.239080 0.000000 0.000000 
#    y 0.000000 3.613520 0.000000 
#    z 0.000000 0.000000 3.030130 
# 
# 
# High freq. dielectric constant tensor:
#      x y z
#    x 1.697010 0.000000 0.000000 
#    y 0.000000 1.724200 0.000000 
#    z 0.000000 0.000000 1.655440 
# 
# From -- ./inp_files/14557.got.cif
#   From: 2010.06.25/outbox.cif.g09.slc.cpg/sg58_8_cif.got.tgz:14557.got - 2010.06.26 21:38:00.
