data_PCOD8236875
_publ_section_title
;
Structure prediction by ZEFSAII (Michael W. Deem and Ramdas Pophale) SiO2 
 PCOD8236875
Probable space group: P N N M
;
_chemical_formula_sum "Si O2"
_cell_formula_units_Z 56
_cell_length_a 28.874099
_cell_length_b 12.081562
_cell_length_c 8.971746
_cell_angle_alpha 90.000000
_cell_angle_beta 90.000000
_cell_angle_gamma 90.000000
_cell_volume 3129.741711
_symmetry_space_group_name_H-M "P N N M"
_symmetry_group_IT_number 58
_symmetry_cell_setting 'orthorhombic'
loop_
_space_group_symop_operation_xyz
x,y,z
-x,-y,z
1/2+x,1/2-y,1/2-z
1/2-x,1/2+y,1/2-z
-x,-y,-z
x,y,-z
1/2-x,1/2+y,1/2+z
1/2+x,1/2-y,1/2+z
loop_
_atom_site_type_symbol
_atom_site_label
_atom_site_fract_x
_atom_site_fract_y
_atom_site_fract_z
Si Si1 0.174727 0.619165 0.676747
Si Si2 0.108714 0.807782 0.323075
Si Si3 0.346858 0.527211 0.176743
Si Si4 0.085555 0.214050 0.677273
Si Si5 0.662413 0.126755 0.176817
Si Si6 0.267693 0.683074 0.175960
Si Si7 0.990890 0.124475 0.322318
O O1 0.179723 0.616322 0.500000
O O2 0.129469 0.689535 0.725972
O O3 0.169474 0.495778 0.744637
O O4 0.219258 0.681133 0.740604
O O5 0.106140 0.816116 0.500000
O O6 0.143363 0.903893 0.262378
O O7 0.057113 0.826093 0.257143
O O8 0.387587 0.606191 0.237655
O O9 0.297046 0.574772 0.227897
O O10 0.348322 0.529974 0.000000
O O11 0.086614 0.213711 0.500000
O O12 0.113067 0.323365 0.734633
O O13 0.032418 0.205729 0.733336
O O14 0.704592 0.206449 0.225603
O O15 0.660990 0.119164 0.000000
O O16 0.259140 0.682808 0.000000
O O17 0.988942 0.121485 0.500000
O O18 0.000000 0.000000 0.262915
#
# Coordination Sequence:
#
# PCOD8236875 Si02
#       7
#     8   8   8   8   8   8   8
#     4  10  20  31  43  62  93 122 142 178 228 264
#     4   9  16  24  36  60  91 114 138 178 225 257
#     4   8  13  23  39  59  80 105 141 182 215 245
#     4   8  12  21  38  56  78 113 147 171 205 261
#     4   8  16  30  42  57  86 120 146 173 220 272
#     4   9  18  31  48  63  80 115 159 186 208 257
#     4   9  13  19  35  59  86 114 144 178 215 258
#
# _framework density 17.892851
#
# number of rings (size 3 to 8) (size 9 to 14) (size 15 to 20)
#    0.000    3.286    1.429    1.714    2.000    0.000 
#    0.000    0.714    0.000    4.286    0.000    0.000 
#    0.000    7.429    0.000    0.571    0.000    0.000 
#
# Total GULP energy -693786.042308 kJ/mol
# GULP energy per Si atom -12389.036470 kJ/mol
# Density = 1.785213 g / cm^3
# Si number density = 17.892851 Si / 1000 Ang^3
#
#
#
# Elastic Constant Matrix: (Units=GPa)
#
#
# Indices 1 2 3 4 5 6 
#
# 1 151.9900 79.3471 13.3836 0.0000 0.0000 0.0000
# 2 79.3471 141.4824 11.5838 0.0000 0.0000 0.0000
# 3 13.3836 11.5838 5.9017 0.0000 0.0000 0.0000
# 4 0.0000 0.0000 0.0000 9.5222 0.0000 0.0000
# 5 0.0000 0.0000 0.0000 0.0000 14.4014 0.0000
# 6 0.0000 0.0000 0.0000 0.0000 0.0000 27.2493
#
#
#
# Elastic Compliance Matrix: (Units=1/GPa)
#
#
# Indices 1 2 3 4 5 6 
#
# 1 0.010213 -0.004565 -0.014200 0.000000 0.000000 0.000000
# 2 -0.004565 0.010462 -0.010182 0.000000 0.000000 0.000000
# 3 -0.014200 -0.010182 0.221629 0.000000 0.000000 0.000000
# 4 0.000000 0.000000 0.000000 0.105017 0.000000 0.000000
# 5 0.000000 0.000000 0.000000 0.000000 0.069438 0.000000
# 6 0.000000 0.000000 0.000000 0.000000 0.000000 0.036698
#
#
# Mechanical properties :
#
#
# Convention : Reuss Voigt Hill
#
# Bulk Modulus (GPa) = 5.42271 56.44480 30.93376
# Shear Modulus (GPa) = 8.72872 23.23854 15.98363
#
# Velocity S-wave (km/s) = 2.21109 3.60774 2.99205
# Velocity P-wave (km/s) = 3.09124 6.99778 5.40947
#
# Compressibility (1/GPa) = 0.18440963
#
# Stress axis : x y z
#
# Youngs Moduli (GPa) = 97.91421 95.58494 4.51204
#
# Poissons Ratio (x) = 0.43636 0.06407
# Poissons Ratio (y) = 0.44699 0.04594
# Poissons Ratio (z) = 1.39040 0.97324
#
# Static dielectric constant tensor:
#      x y z
#    x 3.582160 0.000000 0.000000 
#    y 0.000000 3.651960 0.000000 
#    z 0.000000 0.000000 2.530410 
# 
# 
# High freq. dielectric constant tensor:
#      x y z
#    x 1.701170 0.000000 0.000000 
#    y 0.000000 1.690720 0.000000 
#    z 0.000000 0.000000 1.608320 
# 
# From -- ./inp_files/14738.got.cif
#   From: 2010.06.25/outbox.cif.g09.slc.cpg/sg58_8_cif.got.tgz:14738.got - 2010.06.26 21:38:00.
