data_PCOD8236883
_publ_section_title
;
Structure prediction by ZEFSAII (Michael W. Deem and Ramdas Pophale) SiO2 
 PCOD8236883
Probable space group: P N N M
;
_chemical_formula_sum "Si O2"
_cell_formula_units_Z 64
_cell_length_a 14.512454
_cell_length_b 9.300438
_cell_length_c 28.156364
_cell_angle_alpha 90.000000
_cell_angle_beta 90.000000
_cell_angle_gamma 90.000000
_cell_volume 3800.325792
_symmetry_space_group_name_H-M "P N N M"
_symmetry_group_IT_number 58
_symmetry_cell_setting 'orthorhombic'
loop_
_space_group_symop_operation_xyz
x,y,z
-x,-y,z
1/2+x,1/2-y,1/2-z
1/2-x,1/2+y,1/2-z
-x,-y,-z
x,y,-z
1/2-x,1/2+y,1/2+z
1/2+x,1/2-y,1/2+z
loop_
_atom_site_type_symbol
_atom_site_label
_atom_site_fract_x
_atom_site_fract_y
_atom_site_fract_z
Si Si1 0.090734 0.680953 0.876736
Si Si2 0.887167 0.629797 0.852591
Si Si3 0.639653 0.132998 0.244295
Si Si4 0.215591 0.092295 0.129263
Si Si5 0.598877 0.570349 0.444944
Si Si6 0.834586 0.133536 0.796780
Si Si7 0.413110 0.081459 0.836061
Si Si8 0.983773 0.156938 0.716851
O O1 0.118220 0.514635 0.884535
O O2 0.099889 0.765617 0.926396
O O3 0.159082 0.747718 0.837883
O O4 0.986981 0.701027 0.857992
O O5 0.872036 0.584231 0.798303
O O6 0.809396 0.739534 0.870213
O O7 0.745543 0.171412 0.234442
O O8 0.580678 0.274075 0.232202
O O9 0.606755 0.997377 0.213749
O O10 0.326308 0.074364 0.128671
O O11 0.176880 0.021249 0.081629
O O12 0.173379 0.021373 0.177115
O O13 0.500000 0.500000 0.434742
O O14 0.623970 0.571033 0.500000
O O15 0.923151 0.134816 0.763761
O O16 0.435107 0.246604 0.823420
O O17 0.500000 0.000000 0.860768
O O18 0.000000 0.000000 0.693876
#
# Coordination Sequence:
#
# PCOD8236883 Si02
#       8
#     8   8   8   8   8   8   8   8
#     4  10  21  32  49  73 104 137 170 217 260 299
#     4  11  19  30  47  73 105 139 175 213 251 300
#     4  10  20  32  46  66 102 144 182 212 249 282
#     4  10  20  34  54  75 100 134 174 211 262 311
#     4  10  20  38  59  79 103 130 166 209 262 321
#     4  10  20  32  47  69  98 141 183 221 243 286
#     4   9  20  35  49  70 103 140 177 217 252 292
#     4  11  20  29  44  68  96 134 178 216 245 284
#
# _framework density 16.840661999999998
#
# number of rings (size 3 to 8) (size 9 to 14) (size 15 to 20)
#    0.000    1.875    2.500    2.250    3.500    4.000 
#    0.000    1.875    0.000    0.375    0.000    0.000 
#    0.000    1.500    0.000    0.000    0.000    0.000 
#
# Total GULP energy -793740.344652 kJ/mol
# GULP energy per Si atom -12402.192885 kJ/mol
# Density = 1.680233 g / cm^3
# Si number density = 16.840662 Si / 1000 Ang^3
#
#
#
# Elastic Constant Matrix: (Units=GPa)
#
#
# Indices 1 2 3 4 5 6 
#
# 1 102.6878 50.8415 49.1798 0.0000 0.0000 0.0000
# 2 50.8415 120.7288 38.1070 0.0000 0.0000 0.0000
# 3 49.1798 38.1070 83.1223 0.0000 0.0000 0.0000
# 4 0.0000 0.0000 0.0000 11.7168 0.0000 0.0000
# 5 0.0000 0.0000 0.0000 0.0000 19.0443 0.0000
# 6 0.0000 0.0000 0.0000 0.0000 0.0000 21.7490
#
#
#
# Elastic Compliance Matrix: (Units=1/GPa)
#
#
# Indices 1 2 3 4 5 6 
#
# 1 0.015189 -0.004162 -0.007079 0.000000 0.000000 0.000000
# 2 -0.004162 0.010825 -0.002500 0.000000 0.000000 0.000000
# 3 -0.007079 -0.002500 0.017365 0.000000 0.000000 0.000000
# 4 0.000000 0.000000 0.000000 0.085348 0.000000 0.000000
# 5 0.000000 0.000000 0.000000 0.000000 0.052509 0.000000
# 6 0.000000 0.000000 0.000000 0.000000 0.000000 0.045979
#
#
# Mechanical properties :
#
#
# Convention : Reuss Voigt Hill
#
# Bulk Modulus (GPa) = 62.90465 64.75507 63.82986
# Shear Modulus (GPa) = 19.23111 21.72939 20.48025
#
# Velocity S-wave (km/s) = 3.38293 3.59596 3.49107
# Velocity P-wave (km/s) = 7.25899 7.46836 7.36442
#
# Compressibility (1/GPa) = 0.01589708
#
# Stress axis : x y z
#
# Youngs Moduli (GPa) = 65.83670 92.37943 57.58807
#
# Poissons Ratio (x) = 0.38450 0.40764
# Poissons Ratio (y) = 0.27402 0.14397
# Poissons Ratio (z) = 0.46603 0.23095
#
# Static dielectric constant tensor:
#      x y z
#    x 3.290940 0.000000 0.000000 
#    y 0.000000 3.273790 0.000000 
#    z 0.000000 0.000000 2.739510 
# 
# 
# High freq. dielectric constant tensor:
#      x y z
#    x 1.652140 0.000000 0.000000 
#    y 0.000000 1.662370 0.000000 
#    z 0.000000 0.000000 1.597290 
# 
# From -- ./inp_files/35095.got.cif
#   From: 2010.06.25/outbox.cif.g09.slc.cpg/sg58_18_cif.got.tgz:35095.got - 2010.06.26 21:38:00.
