data_PCOD8236468
_publ_section_title
;
Structure prediction by ZEFSAII (Michael W. Deem and Ramdas Pophale) SiO2 
 PCOD8236468
Probable space group: P N N M
;
_chemical_formula_sum "Si O2"
_cell_formula_units_Z 64
_cell_length_a 9.149541
_cell_length_b 19.496184
_cell_length_c 19.748419
_cell_angle_alpha 90.000000
_cell_angle_beta 90.000000
_cell_angle_gamma 90.000000
_cell_volume 3522.745393
_symmetry_space_group_name_H-M "P N N M"
_symmetry_group_IT_number 58
_symmetry_cell_setting 'orthorhombic'
loop_
_space_group_symop_operation_xyz
x,y,z
-x,-y,z
1/2+x,1/2-y,1/2-z
1/2-x,1/2+y,1/2-z
-x,-y,-z
x,y,-z
1/2-x,1/2+y,1/2+z
1/2+x,1/2-y,1/2+z
loop_
_atom_site_type_symbol
_atom_site_label
_atom_site_fract_x
_atom_site_fract_y
_atom_site_fract_z
Si Si1 0.299259 0.704429 0.925897
Si Si2 0.160308 0.130165 0.707744
Si Si3 0.260730 0.896872 0.855685
Si Si4 0.684442 0.638896 0.784210
Si Si5 0.173404 0.492647 0.244572
Si Si6 0.456375 0.314393 0.575547
Si Si7 0.983177 0.322323 0.422796
Si Si8 0.273610 0.718206 0.333500
O O1 0.288776 0.647156 0.868358
O O2 0.168533 0.757798 0.921948
O O3 0.449044 0.746571 0.916735
O O4 0.298091 0.668277 0.000000
O O5 0.214048 0.190215 0.757498
O O6 0.986866 0.121928 0.711786
O O7 0.241303 0.060976 0.727378
O O8 0.233316 0.843192 0.793102
O O9 0.280700 0.972439 0.822435
O O10 0.117423 0.887695 0.903441
O O11 0.405808 0.880285 0.897471
O O12 0.771943 0.569095 0.805296
O O13 0.729297 0.701803 0.832085
O O14 0.000000 0.500000 0.236772
O O15 0.522307 0.321498 0.500000
O O16 0.575398 0.289724 0.628182
O O17 0.938584 0.338830 0.500000
O O18 0.843686 0.326276 0.374470
#
# Coordination Sequence:
#
# PCOD8236468 Si02
#       8
#     8   8   8   8   8   8   8   8
#     4   9  20  35  56  83 114 154 189 228 298 359
#     4  12  22  37  62  83 125 153 195 256 296 356
#     4   9  19  37  55  81 113 155 204 233 295 353
#     4  10  23  35  55  88 116 153 195 246 301 345
#     4  10  23  38  58  86 114 155 199 250 299 348
#     4  10  20  35  56  85 121 156 189 241 297 354
#     4  10  19  34  56  85 122 155 190 243 295 355
#     4  12  21  32  58  92 120 146 198 253 302 350
#
# _framework density 18.167649000000001
#
# number of rings (size 3 to 8) (size 9 to 14) (size 15 to 20)
#    0.750    1.000    2.500    4.125    1.750    0.000 
#    0.000    0.000    0.000   12.375    0.000    0.000 
#    0.000    0.000    0.000    0.000    0.000    0.000 
#
# Total GULP energy -793129.872741 kJ/mol
# GULP energy per Si atom -12392.654262 kJ/mol
# Density = 1.812630 g / cm^3
# Si number density = 18.167649 Si / 1000 Ang^3
#
#
#
# Elastic Constant Matrix: (Units=GPa)
#
#
# Indices 1 2 3 4 5 6 
#
# 1 114.4620 41.5971 39.5455 0.0000 0.0000 0.0000
# 2 41.5971 95.5489 41.2189 0.0000 0.0000 0.0000
# 3 39.5455 41.2189 117.5610 0.0000 0.0000 0.0000
# 4 0.0000 0.0000 0.0000 23.9352 0.0000 0.0000
# 5 0.0000 0.0000 0.0000 0.0000 5.4572 0.0000
# 6 0.0000 0.0000 0.0000 0.0000 0.0000 18.1061
#
#
#
# Elastic Compliance Matrix: (Units=1/GPa)
#
#
# Indices 1 2 3 4 5 6 
#
# 1 0.010908 -0.003730 -0.002361 0.000000 0.000000 0.000000
# 2 -0.003730 0.013606 -0.003516 0.000000 0.000000 0.000000
# 3 -0.002361 -0.003516 0.010533 0.000000 0.000000 0.000000
# 4 0.000000 0.000000 0.000000 0.041780 0.000000 0.000000
# 5 0.000000 0.000000 0.000000 0.000000 0.183245 0.000000
# 6 0.000000 0.000000 0.000000 0.000000 0.000000 0.055230
#
#
# Mechanical properties :
#
#
# Convention : Reuss Voigt Hill
#
# Bulk Modulus (GPa) = 63.15970 63.58833 63.37402
# Shear Modulus (GPa) = 14.71479 23.18039 18.94759
#
# Velocity S-wave (km/s) = 2.84904 3.57587 3.23295
# Velocity P-wave (km/s) = 6.75745 7.21983 6.99246
#
# Compressibility (1/GPa) = 0.01583288
#
# Stress axis : x y z
#
# Youngs Moduli (GPa) = 91.67651 73.49452 94.93693
#
# Poissons Ratio (x) = 0.27414 0.22419
# Poissons Ratio (y) = 0.34196 0.33379
# Poissons Ratio (z) = 0.21649 0.25840
#
# Static dielectric constant tensor:
#      x y z
#    x 3.435020 0.000000 0.000000 
#    y 0.000000 3.067160 0.000000 
#    z 0.000000 0.000000 3.451950 
# 
# 
# High freq. dielectric constant tensor:
#      x y z
#    x 1.715490 0.000000 0.000000 
#    y 0.000000 1.673330 0.000000 
#    z 0.000000 0.000000 1.700240 
# 
# From -- ./inp_files/25730.got.cif
#   From: 2010.06.25/outbox.cif.g09.slc.cpg/sg58_13_cif.got.tgz:25730.got - 2010.06.26 21:38:00.
