data_PCOD8236163
_publ_section_title
;
Structure prediction by ZEFSAII (Michael W. Deem and Ramdas Pophale) SiO2 
 PCOD8236163
Probable space group: P N N M
;
_chemical_formula_sum "Si O2"
_cell_formula_units_Z 64
_cell_length_a 24.565278
_cell_length_b 14.363648
_cell_length_c 9.371568
_cell_angle_alpha 90.000000
_cell_angle_beta 90.000000
_cell_angle_gamma 90.000000
_cell_volume 3306.729712
_symmetry_space_group_name_H-M "P N N M"
_symmetry_group_IT_number 58
_symmetry_cell_setting 'orthorhombic'
loop_
_space_group_symop_operation_xyz
x,y,z
-x,-y,z
1/2+x,1/2-y,1/2-z
1/2-x,1/2+y,1/2-z
-x,-y,-z
x,y,-z
1/2-x,1/2+y,1/2+z
1/2+x,1/2-y,1/2+z
loop_
_atom_site_type_symbol
_atom_site_label
_atom_site_fract_x
_atom_site_fract_y
_atom_site_fract_z
Si Si1 0.262944 0.128804 0.165478
Si Si2 0.170792 0.992740 0.836819
Si Si3 0.911056 0.276781 0.657521
Si Si4 0.137644 0.567563 0.162789
Si Si5 0.954067 0.573727 0.163240
Si Si6 0.468630 0.739720 0.165494
Si Si7 0.301289 0.324438 0.159647
Si Si8 0.446583 0.558166 0.668248
O O1 0.202059 0.090781 0.188478
O O2 0.306239 0.064915 0.249415
O O3 0.266290 0.236336 0.218543
O O4 0.280839 0.126797 0.000000
O O5 0.107990 0.001404 0.789146
O O6 0.205971 0.915585 0.754354
O O7 0.173445 0.962468 0.000000
O O8 0.910883 0.323982 0.500000
O O9 0.903353 0.354692 0.776989
O O10 0.864839 0.199426 0.666945
O O11 0.967144 0.223752 0.684412
O O12 0.106309 0.469855 0.174072
O O13 0.151295 0.592747 0.000000
O O14 0.952351 0.662185 0.265838
O O15 0.000000 0.500000 0.214460
O O16 0.966730 0.603828 0.000000
O O17 0.440915 0.654734 0.247910
O O18 0.450583 0.739108 0.000000
O O19 0.282325 0.349511 0.000000
O O20 0.500000 0.500000 0.714983
O O21 0.447874 0.579806 0.500000
#
# Coordination Sequence:
#
# PCOD8236163 Si02
#       8
#     8   8   8   8   8   8   8   8
#     4   9  20  39  58  79 113 148 182 231 289 342
#     4  10  21  39  61  84 112 150 189 233 289 344
#     4   9  18  32  51  78 113 149 184 225 277 332
#     4  10  19  32  54  81 107 144 193 237 275 324
#     4  10  20  35  53  79 117 156 192 234 285 343
#     4  11  22  34  54  84 116 153 191 232 286 341
#     4   9  18  34  57  81 106 141 183 230 280 331
#     4  10  22  40  61  85 115 152 192 238 293 351
#
# _framework density 19.354471
#
# number of rings (size 3 to 8) (size 9 to 14) (size 15 to 20)
#    0.000    2.250    1.250    2.250    0.000    5.000 
#    2.250    0.000    0.000    0.000    0.000    0.000 
#    0.000    0.000    0.000    0.000    0.000    0.000 
#
# Total GULP energy -793477.608591 kJ/mol
# GULP energy per Si atom -12398.087634 kJ/mol
# Density = 1.931042 g / cm^3
# Si number density = 19.354471 Si / 1000 Ang^3
#
#
#
# Elastic Constant Matrix: (Units=GPa)
#
#
# Indices 1 2 3 4 5 6 
#
# 1 81.9843 36.5600 28.4576 0.0000 0.0000 0.0000
# 2 36.5600 113.1968 53.9965 0.0000 0.0000 0.0000
# 3 28.4576 53.9965 83.4137 0.0000 0.0000 0.0000
# 4 0.0000 0.0000 0.0000 33.7835 0.0000 0.0000
# 5 0.0000 0.0000 0.0000 0.0000 15.7934 0.0000
# 6 0.0000 0.0000 0.0000 0.0000 0.0000 23.3555
#
#
#
# Elastic Compliance Matrix: (Units=1/GPa)
#
#
# Indices 1 2 3 4 5 6 
#
# 1 0.014691 -0.003406 -0.002807 0.000000 0.000000 0.000000
# 2 -0.003406 0.013570 -0.007623 0.000000 0.000000 0.000000
# 3 -0.002807 -0.007623 0.017881 0.000000 0.000000 0.000000
# 4 0.000000 0.000000 0.000000 0.029600 0.000000 0.000000
# 5 0.000000 0.000000 0.000000 0.000000 0.063317 0.000000
# 6 0.000000 0.000000 0.000000 0.000000 0.000000 0.042816
#
#
# Mechanical properties :
#
#
# Convention : Reuss Voigt Hill
#
# Bulk Modulus (GPa) = 54.14085 57.40254 55.77170
# Shear Modulus (GPa) = 23.18000 25.22521 24.20260
#
# Velocity S-wave (km/s) = 3.46447 3.61408 3.54007
# Velocity P-wave (km/s) = 6.63607 6.86574 6.75188
#
# Compressibility (1/GPa) = 0.01847034
#
# Stress axis : x y z
#
# Youngs Moduli (GPa) = 68.07079 73.69100 55.92673
#
# Poissons Ratio (x) = 0.25096 0.15700
# Poissons Ratio (y) = 0.23182 0.42631
# Poissons Ratio (z) = 0.19110 0.56172
#
# Static dielectric constant tensor:
#      x y z
#    x 3.494050 0.000000 0.000000 
#    y 0.000000 3.324080 0.000000 
#    z 0.000000 0.000000 3.558260 
# 
# 
# High freq. dielectric constant tensor:
#      x y z
#    x 1.745590 0.000000 0.000000 
#    y 0.000000 1.741890 0.000000 
#    z 0.000000 0.000000 1.752300 
# 
# From -- ./inp_files/10028.got.cif
#   From: 2010.06.25/outbox.cif.g09.slc.cpg/sg58_6_cif.got.tgz:10028.got - 2010.06.26 21:38:00.
