data_PCOD8236987
_publ_section_title
;
Structure prediction by ZEFSAII (Michael W. Deem and Ramdas Pophale) SiO2 
 PCOD8236987
Probable space group: P N N M
;
_chemical_formula_sum "Si O2"
_cell_formula_units_Z 52
_cell_length_a 15.981928
_cell_length_b 7.481971
_cell_length_c 21.327349
_cell_angle_alpha 90.000000
_cell_angle_beta 90.000000
_cell_angle_gamma 90.000000
_cell_volume 2550.245948
_symmetry_space_group_name_H-M "P N N M"
_symmetry_group_IT_number 58
_symmetry_cell_setting 'orthorhombic'
loop_
_space_group_symop_operation_xyz
x,y,z
-x,-y,z
1/2+x,1/2-y,1/2-z
1/2-x,1/2+y,1/2-z
-x,-y,-z
x,y,-z
1/2-x,1/2+y,1/2+z
1/2+x,1/2-y,1/2+z
loop_
_atom_site_type_symbol
_atom_site_label
_atom_site_fract_x
_atom_site_fract_y
_atom_site_fract_z
Si Si1 0.045939 0.803346 0.069178
Si Si2 0.463830 0.807002 0.307046
Si Si3 0.804114 0.463118 0.929808
Si Si4 0.159885 0.126038 0.068451
Si Si5 0.500000 0.500000 0.216897
Si Si6 0.283453 0.666232 0.305050
Si Si7 0.318656 0.484159 0.821320
O O1 0.128721 0.689437 0.085730
O O2 0.978159 0.752170 0.121331
O O3 0.929238 0.982419 0.067908
O O4 0.012737 0.743832 0.000000
O O5 0.512095 0.671572 0.261056
O O6 0.364053 0.797834 0.296599
O O7 0.500000 0.000000 0.291440
O O8 0.846644 0.658809 0.922519
O O9 0.726684 0.434244 0.882150
O O10 0.768601 0.437700 0.000000
O O11 0.207159 0.049212 0.130267
O O12 0.202957 0.085567 0.000000
O O13 0.582273 0.479010 0.173651
O O14 0.276366 0.550624 0.243146
O O15 0.198008 0.773138 0.316755
#
# Coordination Sequence:
#
# PCOD8236987 Si02
#       7
#     8   8   8   8   4   8   8
#     4  10  20  33  56  83 116 155 182 220 272 335
#     4  11  22  36  53  78 116 148 184 227 272 338
#     4   9  19  36  57  84 112 147 194 233 276 339
#     4   9  18  34  52  78 112 147 184 222 266 323
#     4  10  24  40  54  82 112 138 192 240 288 330
#     4  10  22  34  55  83 104 151 188 227 280 330
#     4  10  21  37  58  80 110 144 186 240 282 333
#
# _framework density 20.39019
#
# number of rings (size 3 to 8) (size 9 to 14) (size 15 to 20)
#    0.000    2.154    0.000    3.692    6.462    0.923 
#    0.000    2.308    0.000    0.000    0.000    0.000 
#    0.000   13.231    0.000    0.000    0.000    0.000 
#
# Total GULP energy -644322.975190 kJ/mol
# GULP energy per Si atom -12390.826446 kJ/mol
# Density = 2.034378 g / cm^3
# Si number density = 20.390190 Si / 1000 Ang^3
#
#
#
# Elastic Constant Matrix: (Units=GPa)
#
#
# Indices 1 2 3 4 5 6 
#
# 1 90.8603 23.1044 54.8676 0.0000 0.0000 0.0000
# 2 23.1044 84.3640 29.9808 0.0000 0.0000 0.0000
# 3 54.8676 29.9808 144.1403 0.0000 0.0000 0.0000
# 4 0.0000 0.0000 0.0000 25.9652 0.0000 0.0000
# 5 0.0000 0.0000 0.0000 0.0000 35.2287 0.0000
# 6 0.0000 0.0000 0.0000 0.0000 0.0000 29.5079
#
#
#
# Elastic Compliance Matrix: (Units=1/GPa)
#
#
# Indices 1 2 3 4 5 6 
#
# 1 0.014657 -0.002194 -0.005123 0.000000 0.000000 0.000000
# 2 -0.002194 0.013128 -0.001896 0.000000 0.000000 0.000000
# 3 -0.005123 -0.001896 0.009282 0.000000 0.000000 0.000000
# 4 0.000000 0.000000 0.000000 0.038513 0.000000 0.000000
# 5 0.000000 0.000000 0.000000 0.000000 0.028386 0.000000
# 6 0.000000 0.000000 0.000000 0.000000 0.000000 0.033889
#
#
# Mechanical properties :
#
#
# Convention : Reuss Voigt Hill
#
# Bulk Modulus (GPa) = 53.64008 59.47449 56.55728
# Shear Modulus (GPa) = 30.77034 32.23450 31.50242
#
# Velocity S-wave (km/s) = 3.88890 3.98034 3.93489
# Velocity P-wave (km/s) = 6.82119 7.09618 6.96004
#
# Compressibility (1/GPa) = 0.01864278
#
# Stress axis : x y z
#
# Youngs Moduli (GPa) = 68.22499 76.17447 107.73421
#
# Poissons Ratio (x) = 0.16709 0.55194
# Poissons Ratio (y) = 0.14965 0.20422
# Poissons Ratio (z) = 0.34953 0.14439
#
# Static dielectric constant tensor:
#      x y z
#    x 3.399900 0.000000 0.000000 
#    y 0.000000 3.800860 0.000000 
#    z 0.000000 0.000000 4.086860 
# 
# 
# High freq. dielectric constant tensor:
#      x y z
#    x 1.766500 0.000000 0.000000 
#    y 0.000000 1.801830 0.000000 
#    z 0.000000 0.000000 1.806960 
# 
# From -- ./inp_files/29972.got.cif
#   From: 2010.06.25/outbox.cif.g09.slc.cpg/sg58_15_cif.got.tgz:29972.got - 2010.06.26 21:38:00.
