data_PCOD8236945
_publ_section_title
;
Structure prediction by ZEFSAII (Michael W. Deem and Ramdas Pophale) SiO2 
 PCOD8236945
Probable space group: P N N M
;
_chemical_formula_sum "Si O2"
_cell_formula_units_Z 64
_cell_length_a 13.982525
_cell_length_b 27.905831
_cell_length_c 9.155995
_cell_angle_alpha 90.000000
_cell_angle_beta 90.000000
_cell_angle_gamma 90.000000
_cell_volume 3572.614126
_symmetry_space_group_name_H-M "P N N M"
_symmetry_group_IT_number 58
_symmetry_cell_setting 'orthorhombic'
loop_
_space_group_symop_operation_xyz
x,y,z
-x,-y,z
1/2+x,1/2-y,1/2-z
1/2-x,1/2+y,1/2-z
-x,-y,-z
x,y,-z
1/2-x,1/2+y,1/2+z
1/2+x,1/2-y,1/2+z
loop_
_atom_site_type_symbol
_atom_site_label
_atom_site_fract_x
_atom_site_fract_y
_atom_site_fract_z
Si Si1 0.258631 0.948642 0.829541
Si Si2 0.612731 0.874457 0.326689
Si Si3 0.891355 0.132868 0.830108
Si Si4 0.247566 0.801189 0.329146
Si Si5 0.742403 0.453340 0.168833
Si Si6 0.740893 0.296832 0.831400
Si Si7 0.416484 0.624306 0.835709
Si Si8 0.897338 0.617467 0.171076
O O1 0.169361 0.914448 0.794420
O O2 0.353683 0.928234 0.753081
O O3 0.232699 0.000134 0.767203
O O4 0.279437 0.952557 0.000000
O O5 0.618502 0.873508 0.500000
O O6 0.666961 0.922463 0.273999
O O7 0.667697 0.826854 0.271747
O O8 0.504448 0.874346 0.268727
O O9 0.847781 0.178290 0.745608
O O10 0.998775 0.123685 0.779937
O O11 0.890360 0.145351 0.000000
O O12 0.228088 0.797619 0.500000
O O13 0.272277 0.749478 0.267204
O O14 0.337685 0.834950 0.292836
O O15 0.646543 0.422799 0.190472
O O16 0.755597 0.468139 0.000000
O O17 0.646206 0.328370 0.812097
O O18 0.755006 0.281837 0.000000
O O19 0.458335 0.623750 0.000000
O O20 0.897642 0.605762 0.000000
#
# Coordination Sequence:
#
# PCOD8236945 Si02
#       8
#     8   8   8   8   8   8   8   8
#     4  10  21  35  50  73 104 133 165 208 256 301
#     4   8  16  33  55  76  98 130 171 206 241 296
#     4  10  21  36  53  72  99 137 174 210 256 304
#     4  10  20  33  51  77 105 133 170 211 249 296
#     4   9  18  34  55  76 100 133 169 204 248 302
#     4   9  18  34  54  76 105 136 164 203 255 303
#     4   9  19  35  54  77 104 133 169 212 253 299
#     4   9  18  34  54  73  97 131 170 208 243 291
#
# _framework density 17.914055000000001
#
# number of rings (size 3 to 8) (size 9 to 14) (size 15 to 20)
#    0.000    2.750    0.000    2.625    0.000    5.000 
#    0.000    9.375    0.000    0.000    0.000    0.000 
#    0.000    0.000    0.000    0.000    0.000    0.000 
#
# Total GULP energy -793690.907646 kJ/mol
# GULP energy per Si atom -12401.420432 kJ/mol
# Density = 1.787328 g / cm^3
# Si number density = 17.914055 Si / 1000 Ang^3
#
#
#
# Elastic Constant Matrix: (Units=GPa)
#
#
# Indices 1 2 3 4 5 6 
#
# 1 112.5663 36.4539 43.4164 0.0000 0.0000 0.0000
# 2 36.4539 115.4267 51.7885 0.0000 0.0000 0.0000
# 3 43.4164 51.7885 72.4271 0.0000 0.0000 0.0000
# 4 0.0000 0.0000 0.0000 34.5319 0.0000 0.0000
# 5 0.0000 0.0000 0.0000 0.0000 20.9652 0.0000
# 6 0.0000 0.0000 0.0000 0.0000 0.0000 12.2065
#
#
#
# Elastic Compliance Matrix: (Units=1/GPa)
#
#
# Indices 1 2 3 4 5 6 
#
# 1 0.011605 -0.000801 -0.006384 0.000000 0.000000 0.000000
# 2 -0.000801 0.012811 -0.008680 0.000000 0.000000 0.000000
# 3 -0.006384 -0.008680 0.023841 0.000000 0.000000 0.000000
# 4 0.000000 0.000000 0.000000 0.028959 0.000000 0.000000
# 5 0.000000 0.000000 0.000000 0.000000 0.047698 0.000000
# 6 0.000000 0.000000 0.000000 0.000000 0.000000 0.081923
#
#
# Mechanical properties :
#
#
# Convention : Reuss Voigt Hill
#
# Bulk Modulus (GPa) = 60.50916 62.63750 61.57333
# Shear Modulus (GPa) = 20.48534 24.79149 22.63841
#
# Velocity S-wave (km/s) = 3.38529 3.72413 3.55875
# Velocity P-wave (km/s) = 7.00935 7.31667 7.16466
#
# Compressibility (1/GPa) = 0.01652642
#
# Stress axis : x y z
#
# Youngs Moduli (GPa) = 86.16712 78.05755 41.94474
#
# Poissons Ratio (x) = 0.06251 0.26779
# Poissons Ratio (y) = 0.06900 0.36410
# Poissons Ratio (z) = 0.55011 0.67757
#
# Static dielectric constant tensor:
#      x y z
#    x 3.408080 0.000000 0.000000 
#    y 0.000000 3.264450 0.000000 
#    z 0.000000 0.000000 3.169050 
# 
# 
# High freq. dielectric constant tensor:
#      x y z
#    x 1.694750 0.000000 0.000000 
#    y 0.000000 1.695680 0.000000 
#    z 0.000000 0.000000 1.682280 
# 
# From -- ./inp_files/7177.got.cif
#   From: 2010.06.25/outbox.cif.g09.slc.cpg/sg58_4_cif.got.tgz:7177.got - 2010.06.26 21:38:00.
