data_PCOD8236266
_publ_section_title
;
Structure prediction by ZEFSAII (Michael W. Deem and Ramdas Pophale) SiO2 
 PCOD8236266
Probable space group: P N N M
;
_chemical_formula_sum "Si O2"
_cell_formula_units_Z 56
_cell_length_a 19.086728
_cell_length_b 18.884072
_cell_length_c 8.886138
_cell_angle_alpha 90.000000
_cell_angle_beta 90.000000
_cell_angle_gamma 90.000000
_cell_volume 3202.876446
_symmetry_space_group_name_H-M "P N N M"
_symmetry_group_IT_number 58
_symmetry_cell_setting 'orthorhombic'
loop_
_space_group_symop_operation_xyz
x,y,z
-x,-y,z
1/2+x,1/2-y,1/2-z
1/2-x,1/2+y,1/2-z
-x,-y,-z
x,y,-z
1/2-x,1/2+y,1/2+z
1/2+x,1/2-y,1/2+z
loop_
_atom_site_type_symbol
_atom_site_label
_atom_site_fract_x
_atom_site_fract_y
_atom_site_fract_z
Si Si1 0.161720 0.272748 0.329390
Si Si2 0.265064 0.147729 0.328724
Si Si3 0.294025 0.517106 0.323385
Si Si4 0.127646 0.765692 0.176390
Si Si5 0.938726 0.944423 0.674341
Si Si6 0.015563 0.210966 0.674905
Si Si7 0.267320 0.370515 0.177034
O O1 0.174598 0.299027 0.500000
O O2 0.196338 0.195925 0.308486
O O3 0.079775 0.264287 0.293842
O O4 0.195738 0.329637 0.217977
O O5 0.270731 0.120582 0.500000
O O6 0.257936 0.081223 0.218841
O O7 0.333697 0.192343 0.282131
O O8 0.293573 0.505352 0.500000
O O9 0.372607 0.532354 0.270907
O O10 0.263011 0.448288 0.244307
O O11 0.164479 0.830974 0.259416
O O12 0.047925 0.759049 0.227470
O O13 0.133266 0.780608 0.000000
O O14 0.915850 0.941953 0.500000
O O15 0.965531 0.868005 0.728743
O O16 0.000000 0.000000 0.703315
O O17 0.994589 0.210263 0.500000
O O18 0.275248 0.375477 0.000000
#
# Coordination Sequence:
#
# PCOD8236266 Si02
#       7
#     8   8   8   8   8   8   8
#     4   9  18  35  56  78 107 141 180 223 268 319
#     4   9  18  36  56  75 105 144 180 217 268 322
#     4  12  23  34  53  80 108 139 179 227 271 317
#     4  10  21  36  55  80 111 142 179 227 268 314
#     4  10  20  34  52  76 110 150 181 208 259 329
#     4  10  19  33  54  80 111 147 179 216 268 323
#     4  11  22  36  55  77 106 143 183 224 271 325
#
# _framework density 17.484283000000001
#
# number of rings (size 3 to 8) (size 9 to 14) (size 15 to 20)
#    0.000    1.857    1.429    4.714    0.000    5.429 
#    0.000    0.000    0.000    0.857    0.000    6.000 
#    0.000    0.000    0.000    0.000    0.000    0.000 
#
# Total GULP energy -694618.517838 kJ/mol
# GULP energy per Si atom -12403.902104 kJ/mol
# Density = 1.744449 g / cm^3
# Si number density = 17.484283 Si / 1000 Ang^3
#
#
#
# Elastic Constant Matrix: (Units=GPa)
#
#
# Indices 1 2 3 4 5 6 
#
# 1 95.2822 54.0850 45.6010 0.0000 0.0000 0.0000
# 2 54.0850 92.4275 52.7126 0.0000 0.0000 0.0000
# 3 45.6010 52.7126 107.7236 0.0000 0.0000 0.0000
# 4 0.0000 0.0000 0.0000 27.5721 0.0000 0.0000
# 5 0.0000 0.0000 0.0000 0.0000 30.1372 0.0000
# 6 0.0000 0.0000 0.0000 0.0000 0.0000 18.5500
#
#
#
# Elastic Compliance Matrix: (Units=1/GPa)
#
#
# Indices 1 2 3 4 5 6 
#
# 1 0.016439 -0.007838 -0.003123 0.000000 0.000000 0.000000
# 2 -0.007838 0.018745 -0.005854 0.000000 0.000000 0.000000
# 3 -0.003123 -0.005854 0.013470 0.000000 0.000000 0.000000
# 4 0.000000 0.000000 0.000000 0.036269 0.000000 0.000000
# 5 0.000000 0.000000 0.000000 0.000000 0.033182 0.000000
# 6 0.000000 0.000000 0.000000 0.000000 0.000000 0.053908
#
#
# Mechanical properties :
#
#
# Convention : Reuss Voigt Hill
#
# Bulk Modulus (GPa) = 66.56999 66.69227 66.63113
# Shear Modulus (GPa) = 23.73588 24.78752 24.26170
#
# Velocity S-wave (km/s) = 3.68850 3.76932 3.72913
# Velocity P-wave (km/s) = 7.50312 7.56113 7.53218
#
# Compressibility (1/GPa) = 0.01502178
#
# Stress axis : x y z
#
# Youngs Moduli (GPa) = 60.83024 53.34836 74.23936
#
# Poissons Ratio (x) = 0.41816 0.23188
# Poissons Ratio (y) = 0.47680 0.43462
# Poissons Ratio (z) = 0.19000 0.31232
#
# Static dielectric constant tensor:
#      x y z
#    x 3.214770 0.000000 0.000000 
#    y 0.000000 3.231880 0.000000 
#    z 0.000000 0.000000 3.208790 
# 
# 
# High freq. dielectric constant tensor:
#      x y z
#    x 1.670120 0.000000 0.000000 
#    y 0.000000 1.668210 0.000000 
#    z 0.000000 0.000000 1.676690 
# 
# From -- ./inp_files/9169.got.cif
#   From: 2010.06.25/outbox.cif.g09.slc.cpg/sg58_5_cif.got.tgz:9169.got - 2010.06.26 21:38:00.
