data_PCOD8236017
_publ_section_title
;
Structure prediction by ZEFSAII (Michael W. Deem and Ramdas Pophale) SiO2 
 PCOD8236017
Probable space group: P N N M
;
_chemical_formula_sum "Si O2"
_cell_formula_units_Z 64
_cell_length_a 18.944591
_cell_length_b 20.501356
_cell_length_c 9.337912
_cell_angle_alpha 90.000000
_cell_angle_beta 90.000000
_cell_angle_gamma 90.000000
_cell_volume 3626.749815
_symmetry_space_group_name_H-M "P N N M"
_symmetry_group_IT_number 58
_symmetry_cell_setting 'orthorhombic'
loop_
_space_group_symop_operation_xyz
x,y,z
-x,-y,z
1/2+x,1/2-y,1/2-z
1/2-x,1/2+y,1/2-z
-x,-y,-z
x,y,-z
1/2-x,1/2+y,1/2+z
1/2+x,1/2-y,1/2+z
loop_
_atom_site_type_symbol
_atom_site_label
_atom_site_fract_x
_atom_site_fract_y
_atom_site_fract_z
Si Si1 0.960185 0.180657 0.669658
Si Si2 0.183174 0.502161 0.836379
Si Si3 0.038217 0.564444 0.836424
Si Si4 0.329115 0.360756 0.664234
Si Si5 0.828120 0.627074 0.665426
Si Si6 0.816722 0.988725 0.162310
Si Si7 0.974940 0.682431 0.334222
Si Si8 0.964540 0.932621 0.835054
O O1 0.955396 0.172626 0.500000
O O2 0.881341 0.179847 0.734437
O O3 0.997720 0.247513 0.716321
O O4 0.007796 0.123472 0.732868
O O5 0.122396 0.556258 0.824391
O O6 0.157338 0.436717 0.758838
O O7 0.253292 0.532179 0.765743
O O8 0.199692 0.484368 0.000000
O O9 0.000000 0.500000 0.774033
O O10 0.017459 0.627496 0.748494
O O11 0.013820 0.574772 0.000000
O O12 0.346497 0.343354 0.500000
O O13 0.248167 0.341630 0.703372
O O14 0.341713 0.437409 0.693869
O O15 0.827194 0.604838 0.500000
O O16 0.890687 0.678399 0.696632
O O17 0.880674 0.938977 0.187611
O O18 0.788930 0.984710 0.000000
O O19 0.991028 0.671148 0.500000
O O20 0.983619 0.916289 0.000000
O O21 0.000000 0.000000 0.788626
#
# Coordination Sequence:
#
# PCOD8236017 Si02
#       8
#     8   8   8   8   8   8   8   8
#     4  11  23  36  52  81 115 142 176 226 274 315
#     4  10  19  31  51  81 113 138 169 222 276 316
#     4  10  20  35  54  80 111 139 174 221 269 317
#     4   9  17  33  55  77 102 139 181 219 261 322
#     4   9  18  34  55  76 101 139 183 219 260 319
#     4   9  18  33  54  79 107 139 179 222 262 318
#     4  10  22  38  55  78 109 145 183 223 267 319
#     4  10  19  36  58  78 104 140 181 220 262 320
#
# _framework density 17.646654999999999
#
# number of rings (size 3 to 8) (size 9 to 14) (size 15 to 20)
#    0.000    2.250    2.500    1.500    0.000    5.000 
#    0.000    1.250    0.000    4.500    0.000    0.000 
#    0.000    0.000    0.000    0.000    0.000    0.000 
#
# Total GULP energy -793639.995381 kJ/mol
# GULP energy per Si atom -12400.624928 kJ/mol
# Density = 1.760649 g / cm^3
# Si number density = 17.646655 Si / 1000 Ang^3
#
#
#
# Elastic Constant Matrix: (Units=GPa)
#
#
# Indices 1 2 3 4 5 6 
#
# 1 128.4672 64.7830 60.6123 0.0000 0.0000 0.0000
# 2 64.7830 103.5177 57.4865 0.0000 0.0000 0.0000
# 3 60.6123 57.4865 85.0297 0.0000 0.0000 0.0000
# 4 0.0000 0.0000 0.0000 24.6492 0.0000 0.0000
# 5 0.0000 0.0000 0.0000 0.0000 32.8089 0.0000
# 6 0.0000 0.0000 0.0000 0.0000 0.0000 25.0069
#
#
#
# Elastic Compliance Matrix: (Units=1/GPa)
#
#
# Indices 1 2 3 4 5 6 
#
# 1 0.013073 -0.004813 -0.006065 0.000000 0.000000 0.000000
# 2 -0.004813 0.017239 -0.008224 0.000000 0.000000 0.000000
# 3 -0.006065 -0.008224 0.021644 0.000000 0.000000 0.000000
# 4 0.000000 0.000000 0.000000 0.040569 0.000000 0.000000
# 5 0.000000 0.000000 0.000000 0.000000 0.030480 0.000000
# 6 0.000000 0.000000 0.000000 0.000000 0.000000 0.039989
#
#
# Mechanical properties :
#
#
# Convention : Reuss Voigt Hill
#
# Bulk Modulus (GPa) = 72.71648 75.86425 74.29037
# Shear Modulus (GPa) = 24.29763 25.43519 24.86641
#
# Velocity S-wave (km/s) = 3.71468 3.80064 3.75791
# Velocity P-wave (km/s) = 7.72625 7.89582 7.81149
#
# Compressibility (1/GPa) = 0.01375204
#
# Stress axis : x y z
#
# Youngs Moduli (GPa) = 76.49586 58.00634 46.20273
#
# Poissons Ratio (x) = 0.27920 0.28020
# Poissons Ratio (y) = 0.36819 0.37998
# Poissons Ratio (z) = 0.46391 0.47705
#
# Static dielectric constant tensor:
#      x y z
#    x 3.526900 0.000000 0.000000 
#    y 0.000000 3.015910 0.000000 
#    z 0.000000 0.000000 3.264230 
# 
# 
# High freq. dielectric constant tensor:
#      x y z
#    x 1.699830 0.000000 0.000000 
#    y 0.000000 1.647470 0.000000 
#    z 0.000000 0.000000 1.683130 
# 
# From -- ./inp_files/9270.got.cif
#   From: 2010.06.25/outbox.cif.g09.slc.cpg/sg58_5_cif.got.tgz:9270.got - 2010.06.26 21:38:00.
