data_PCOD8236019
_publ_section_title
;
Structure prediction by ZEFSAII (Michael W. Deem and Ramdas Pophale) SiO2 
 PCOD8236019
Probable space group: P N N M
;
_chemical_formula_sum "Si O2"
_cell_formula_units_Z 64
_cell_length_a 15.274442
_cell_length_b 24.500328
_cell_length_c 9.008628
_cell_angle_alpha 90.000000
_cell_angle_beta 90.000000
_cell_angle_gamma 90.000000
_cell_volume 3371.288398
_symmetry_space_group_name_H-M "P N N M"
_symmetry_group_IT_number 58
_symmetry_cell_setting 'orthorhombic'
loop_
_space_group_symop_operation_xyz
x,y,z
-x,-y,z
1/2+x,1/2-y,1/2-z
1/2-x,1/2+y,1/2-z
-x,-y,-z
x,y,-z
1/2-x,1/2+y,1/2+z
1/2+x,1/2-y,1/2+z
loop_
_atom_site_type_symbol
_atom_site_label
_atom_site_fract_x
_atom_site_fract_y
_atom_site_fract_z
Si Si1 0.311764 0.056806 0.326103
Si Si2 0.453205 0.216158 0.826217
Si Si3 0.155590 0.444263 0.323924
Si Si4 0.778905 0.266288 0.171276
Si Si5 0.474623 0.339957 0.175276
Si Si6 0.837826 0.863661 0.673493
Si Si7 0.702326 0.642780 0.327713
Si Si8 0.997858 0.389087 0.827540
O O1 0.302133 0.042625 0.500000
O O2 0.229980 0.092020 0.261965
O O3 0.399500 0.091014 0.298272
O O4 0.311217 0.002512 0.229840
O O5 0.353067 0.209517 0.777152
O O6 0.484261 0.276479 0.779787
O O7 0.511489 0.170961 0.742443
O O8 0.462898 0.205526 0.000000
O O9 0.144572 0.443648 0.500000
O O10 0.226412 0.399868 0.268700
O O11 0.062429 0.431775 0.250296
O O12 0.692582 0.301459 0.205639
O O13 0.760002 0.203050 0.206945
O O14 0.809125 0.273933 0.000000
O O15 0.562887 0.370002 0.234739
O O16 0.390264 0.367748 0.248173
O O17 0.463812 0.345446 0.000000
O O18 0.840182 0.873602 0.500000
O O19 0.684637 0.634220 0.500000
O O20 0.020980 0.386756 0.000000
#
# Coordination Sequence:
#
# PCOD8236019 Si02
#       8
#     8   8   8   8   8   8   8   8
#     4  10  21  39  59  80 108 145 189 230 272 331
#     4  10  19  31  51  83 119 146 177 224 277 326
#     4  11  24  39  57  82 110 147 188 233 286 333
#     4   9  16  32  56  77 106 148 184 219 268 331
#     4   9  19  34  57  84 114 148 186 232 276 325
#     4   9  17  33  58  83 107 144 189 227 272 327
#     4   9  20  37  57  79 111 149 185 225 281 336
#     4  11  22  37  57  82 112 150 189 226 273 334
#
# _framework density 18.983840000000001
#
# number of rings (size 3 to 8) (size 9 to 14) (size 15 to 20)
#    0.000    2.250    1.250    1.500    1.750    4.000 
#    0.000    1.875    0.000    3.750    0.000    0.000 
#    0.000    0.000    0.000    0.000    0.000    0.000 
#
# Total GULP energy -793542.057463 kJ/mol
# GULP energy per Si atom -12399.094648 kJ/mol
# Density = 1.894063 g / cm^3
# Si number density = 18.983840 Si / 1000 Ang^3
#
#
#
# Elastic Constant Matrix: (Units=GPa)
#
#
# Indices 1 2 3 4 5 6 
#
# 1 84.2668 31.3840 34.3066 0.0000 0.0000 0.0000
# 2 31.3840 82.5679 38.3631 0.0000 0.0000 0.0000
# 3 34.3066 38.3631 55.2301 0.0000 0.0000 0.0000
# 4 0.0000 0.0000 0.0000 29.9435 0.0000 0.0000
# 5 0.0000 0.0000 0.0000 0.0000 26.6703 0.0000
# 6 0.0000 0.0000 0.0000 0.0000 0.0000 26.9697
#
#
#
# Elastic Compliance Matrix: (Units=1/GPa)
#
#
# Indices 1 2 3 4 5 6 
#
# 1 0.016146 -0.002181 -0.008514 0.000000 0.000000 0.000000
# 2 -0.002181 0.018177 -0.011271 0.000000 0.000000 0.000000
# 3 -0.008514 -0.011271 0.031223 0.000000 0.000000 0.000000
# 4 0.000000 0.000000 0.000000 0.033396 0.000000 0.000000
# 5 0.000000 0.000000 0.000000 0.000000 0.037495 0.000000
# 6 0.000000 0.000000 0.000000 0.000000 0.000000 0.037079
#
#
# Mechanical properties :
#
#
# Convention : Reuss Voigt Hill
#
# Bulk Modulus (GPa) = 46.26649 47.79691 47.03170
# Shear Modulus (GPa) = 22.25658 24.58412 23.42035
#
# Velocity S-wave (km/s) = 3.42774 3.60252 3.51622
# Velocity P-wave (km/s) = 6.33169 6.52200 6.42755
#
# Compressibility (1/GPa) = 0.02161391
#
# Stress axis : x y z
#
# Youngs Moduli (GPa) = 61.93651 55.01429 32.02726
#
# Poissons Ratio (x) = 0.12000 0.27268
# Poissons Ratio (y) = 0.13509 0.36098
# Poissons Ratio (z) = 0.52732 0.62007
#
# Static dielectric constant tensor:
#      x y z
#    x 3.615300 0.000000 0.000000 
#    y 0.000000 3.546670 0.000000 
#    z 0.000000 0.000000 3.332130 
# 
# 
# High freq. dielectric constant tensor:
#      x y z
#    x 1.737680 0.000000 0.000000 
#    y 0.000000 1.733320 0.000000 
#    z 0.000000 0.000000 1.722030 
# 
# From -- ./inp_files/6981.got.cif
#   From: 2010.06.25/outbox.cif.g09.slc.cpg/sg58_4_cif.got.tgz:6981.got - 2010.06.26 21:38:00.
