data_PCOD8236133
_publ_section_title
;
Structure prediction by ZEFSAII (Michael W. Deem and Ramdas Pophale) SiO2 
 PCOD8236133
Probable space group: P N N M
;
_chemical_formula_sum "Si O2"
_cell_formula_units_Z 48
_cell_length_a 10.214848
_cell_length_b 28.849386
_cell_length_c 9.076562
_cell_angle_alpha 90.000000
_cell_angle_beta 90.000000
_cell_angle_gamma 90.000000
_cell_volume 2674.791052
_symmetry_space_group_name_H-M "P N N M"
_symmetry_group_IT_number 58
_symmetry_cell_setting 'orthorhombic'
loop_
_space_group_symop_operation_xyz
x,y,z
-x,-y,z
1/2+x,1/2-y,1/2-z
1/2-x,1/2+y,1/2-z
-x,-y,-z
x,y,-z
1/2-x,1/2+y,1/2+z
1/2+x,1/2-y,1/2+z
loop_
_atom_site_type_symbol
_atom_site_label
_atom_site_fract_x
_atom_site_fract_y
_atom_site_fract_z
Si Si1 0.217930 0.614987 0.829239
Si Si2 0.776973 0.288812 0.674088
Si Si3 0.119439 0.969247 0.173643
Si Si4 0.367822 0.026760 0.171303
Si Si5 0.509793 0.280471 0.827112
Si Si6 0.480821 0.384447 0.831859
O O1 0.185897 0.661986 0.743358
O O2 0.129599 0.574182 0.762969
O O3 0.368799 0.601066 0.806774
O O4 0.183677 0.622465 0.000000
O O5 0.759756 0.293981 0.500000
O O6 0.642954 0.267939 0.740766
O O7 0.896072 0.254958 0.715278
O O8 0.112782 0.917483 0.237673
O O9 0.252514 0.993215 0.226361
O O10 0.112379 0.964492 0.000000
O O11 0.000000 0.000000 0.235084
O O12 0.500000 0.000000 0.204240
O O13 0.350709 0.039430 0.000000
O O14 0.460710 0.331547 0.779839
O O15 0.544067 0.280065 0.000000
O O16 0.438700 0.390371 0.000000
#
# Coordination Sequence:
#
# PCOD8236133 Si02
#       6
#     8   8   8   8   8   8
#     4  10  20  35  56  80 108 141 183 223 265 324
#     4  10  20  36  60  83 110 146 182 224 276 326
#     4  10  19  32  53  79 103 132 176 219 253 311
#     4  10  21  37  54  75 109 143 176 220 271 324
#     4   9  20  38  56  81 113 142 180 226 272 326
#     4   9  18  33  54  78 105 136 172 220 267 310
#
# _framework density 17.945326999999999
#
# number of rings (size 3 to 8) (size 9 to 14) (size 15 to 20)
#    0.000    2.333    1.667    2.000    0.000    5.333 
#    3.000    0.000    0.000    0.000    0.000    0.000 
#    0.000    0.000    0.000    0.000    0.000    0.000 
#
# Total GULP energy -595308.888275 kJ/mol
# GULP energy per Si atom -12402.268506 kJ/mol
# Density = 1.790448 g / cm^3
# Si number density = 17.945327 Si / 1000 Ang^3
#
#
#
# Elastic Constant Matrix: (Units=GPa)
#
#
# Indices 1 2 3 4 5 6 
#
# 1 117.1893 77.7014 53.3882 0.0000 0.0000 0.0000
# 2 77.7014 130.1554 60.6996 0.0000 0.0000 0.0000
# 3 53.3882 60.6996 71.9314 0.0000 0.0000 0.0000
# 4 0.0000 0.0000 0.0000 33.6701 0.0000 0.0000
# 5 0.0000 0.0000 0.0000 0.0000 20.2061 0.0000
# 6 0.0000 0.0000 0.0000 0.0000 0.0000 31.0851
#
#
#
# Elastic Compliance Matrix: (Units=1/GPa)
#
#
# Indices 1 2 3 4 5 6 
#
# 1 0.015611 -0.006457 -0.006138 0.000000 0.000000 0.000000
# 2 -0.006457 0.015340 -0.008152 0.000000 0.000000 0.000000
# 3 -0.006138 -0.008152 0.025337 0.000000 0.000000 0.000000
# 4 0.000000 0.000000 0.000000 0.029700 0.000000 0.000000
# 5 0.000000 0.000000 0.000000 0.000000 0.049490 0.000000
# 6 0.000000 0.000000 0.000000 0.000000 0.000000 0.032170
#
#
# Mechanical properties :
#
#
# Convention : Reuss Voigt Hill
#
# Bulk Modulus (GPa) = 67.59625 78.09493 72.84559
# Shear Modulus (GPa) = 23.35678 25.49141 24.42410
#
# Velocity S-wave (km/s) = 3.61162 3.77305 3.69321
# Velocity P-wave (km/s) = 7.42572 7.91163 7.67252
#
# Compressibility (1/GPa) = 0.01479372
#
# Stress axis : x y z
#
# Youngs Moduli (GPa) = 64.05917 65.19045 39.46872
#
# Poissons Ratio (x) = 0.42094 0.24224
# Poissons Ratio (y) = 0.41363 0.32175
# Poissons Ratio (z) = 0.39316 0.53143
#
# Static dielectric constant tensor:
#      x y z
#    x 3.207990 0.000000 0.000000 
#    y 0.000000 3.329580 0.000000 
#    z 0.000000 0.000000 3.262050 
# 
# 
# High freq. dielectric constant tensor:
#      x y z
#    x 1.680150 0.000000 0.000000 
#    y 0.000000 1.701660 0.000000 
#    z 0.000000 0.000000 1.694630 
# 
# From -- ./inp_files/2942.got.cif
#   From: 2010.06.25/outbox.cif.g09.slc.cpg/sg58_2_cif.got.tgz:2942.got - 2010.06.26 21:38:00.
