data_PCOD8236910
_publ_section_title
;
Structure prediction by ZEFSAII (Michael W. Deem and Ramdas Pophale) SiO2 
 PCOD8236910
Probable space group: P N N M
;
_chemical_formula_sum "Si O2"
_cell_formula_units_Z 64
_cell_length_a 23.328934
_cell_length_b 18.756771
_cell_length_c 9.013708
_cell_angle_alpha 90.000000
_cell_angle_beta 90.000000
_cell_angle_gamma 90.000000
_cell_volume 3944.177539
_symmetry_space_group_name_H-M "P N N M"
_symmetry_group_IT_number 58
_symmetry_cell_setting 'orthorhombic'
loop_
_space_group_symop_operation_xyz
x,y,z
-x,-y,z
1/2+x,1/2-y,1/2-z
1/2-x,1/2+y,1/2-z
-x,-y,-z
x,y,-z
1/2-x,1/2+y,1/2+z
1/2+x,1/2-y,1/2+z
loop_
_atom_site_type_symbol
_atom_site_label
_atom_site_fract_x
_atom_site_fract_y
_atom_site_fract_z
Si Si1 0.767483 0.649778 0.675379
Si Si2 0.885878 0.997911 0.673785
Si Si3 0.333619 0.731921 0.328531
Si Si4 0.254430 0.493733 0.825311
Si Si5 0.444517 0.353859 0.828905
Si Si6 0.272424 0.131786 0.168973
Si Si7 0.061437 0.137710 0.825724
Si Si8 0.166198 0.771294 0.670554
O O1 0.768871 0.644683 0.500000
O O2 0.820023 0.698974 0.730043
O O3 0.776033 0.571802 0.743998
O O4 0.706758 0.681478 0.726398
O O5 0.888793 0.983035 0.500000
O O6 0.921062 0.936596 0.753681
O O7 0.820280 0.999948 0.728189
O O8 0.915219 0.072105 0.717046
O O9 0.331833 0.754948 0.500000
O O10 0.287322 0.670664 0.296725
O O11 0.395001 0.700748 0.280788
O O12 0.220703 0.565137 0.778444
O O13 0.249996 0.482267 0.000000
O O14 0.499217 0.338239 0.728484
O O15 0.399704 0.290090 0.797630
O O16 0.463524 0.355669 0.000000
O O17 0.324203 0.187284 0.200295
O O18 0.273954 0.104237 0.000000
O O19 0.061352 0.125832 0.000000
O O20 0.182543 0.790205 0.500000
#
# Coordination Sequence:
#
# PCOD8236910 Si02
#       8
#     8   8   8   8   8   8   8   8
#     4  11  21  31  50  75  98 124 164 209 246 290
#     4  10  20  33  48  67  98 138 175 202 232 290
#     4   9  19  35  50  67  98 133 162 199 252 298
#     4  11  20  32  50  72 101 134 165 198 246 300
#     4  10  20  35  51  68  95 136 175 202 238 290
#     4   9  17  31  51  72  96 126 163 203 244 293
#     4  11  22  34  49  71  99 132 169 211 249 281
#     4   9  18  35  52  69  98 133 163 200 251 297
#
# _framework density 16.226451000000001
#
# number of rings (size 3 to 8) (size 9 to 14) (size 15 to 20)
#    0.000    2.000    2.500    3.000    0.000    6.000 
#    0.000    0.000    0.000    0.000    0.000    0.875 
#    0.000    7.000    0.000    0.000    0.000    0.000 
#
# Total GULP energy -793766.868340 kJ/mol
# GULP energy per Si atom -12402.607318 kJ/mol
# Density = 1.618952 g / cm^3
# Si number density = 16.226451 Si / 1000 Ang^3
#
#
#
# Elastic Constant Matrix: (Units=GPa)
#
#
# Indices 1 2 3 4 5 6 
#
# 1 86.3709 53.9555 33.4881 0.0000 0.0000 0.0000
# 2 53.9555 107.9805 51.0357 0.0000 0.0000 0.0000
# 3 33.4881 51.0357 69.5918 0.0000 0.0000 0.0000
# 4 0.0000 0.0000 0.0000 27.5225 0.0000 0.0000
# 5 0.0000 0.0000 0.0000 0.0000 18.1709 0.0000
# 6 0.0000 0.0000 0.0000 0.0000 0.0000 23.9099
#
#
#
# Elastic Compliance Matrix: (Units=1/GPa)
#
#
# Indices 1 2 3 4 5 6 
#
# 1 0.017239 -0.007183 -0.003028 0.000000 0.000000 0.000000
# 2 -0.007183 0.017167 -0.009133 0.000000 0.000000 0.000000
# 3 -0.003028 -0.009133 0.022524 0.000000 0.000000 0.000000
# 4 0.000000 0.000000 0.000000 0.036334 0.000000 0.000000
# 5 0.000000 0.000000 0.000000 0.000000 0.055033 0.000000
# 6 0.000000 0.000000 0.000000 0.000000 0.000000 0.041824
#
#
# Mechanical properties :
#
#
# Convention : Reuss Voigt Hill
#
# Bulk Modulus (GPa) = 54.81673 60.10018 57.45846
# Shear Modulus (GPa) = 21.28669 22.28492 21.78580
#
# Velocity S-wave (km/s) = 3.62588 3.70992 3.66814
# Velocity P-wave (km/s) = 7.16833 7.44783 7.30942
#
# Compressibility (1/GPa) = 0.01824261
#
# Stress axis : x y z
#
# Youngs Moduli (GPa) = 58.00771 58.25292 44.39672
#
# Poissons Ratio (x) = 0.41842 0.13443
# Poissons Ratio (y) = 0.41666 0.40546
# Poissons Ratio (z) = 0.17565 0.53201
#
# Static dielectric constant tensor:
#      x y z
#    x 3.005990 0.000000 0.000000 
#    y 0.000000 3.083610 0.000000 
#    z 0.000000 0.000000 3.030680 
# 
# 
# High freq. dielectric constant tensor:
#      x y z
#    x 1.599930 0.000000 0.000000 
#    y 0.000000 1.619100 0.000000 
#    z 0.000000 0.000000 1.626820 
# 
# From -- ./inp_files/8482.got.cif
#   From: 2010.06.25/outbox.cif.g09.slc.cpg/sg58_5_cif.got.tgz:8482.got - 2010.06.26 21:38:00.
