data_PCOD8236648
_publ_section_title
;
Structure prediction by ZEFSAII (Michael W. Deem and Ramdas Pophale) SiO2 
 PCOD8236648
Probable space group: P N N M
;
_chemical_formula_sum "Si O2"
_cell_formula_units_Z 40
_cell_length_a 14.813665
_cell_length_b 5.246795
_cell_length_c 23.645885
_cell_angle_alpha 90.000000
_cell_angle_beta 90.000000
_cell_angle_gamma 90.000000
_cell_volume 1837.858995
_symmetry_space_group_name_H-M "P N N M"
_symmetry_group_IT_number 58
_symmetry_cell_setting 'orthorhombic'
loop_
_space_group_symop_operation_xyz
x,y,z
-x,-y,z
1/2+x,1/2-y,1/2-z
1/2-x,1/2+y,1/2-z
-x,-y,-z
x,y,-z
1/2-x,1/2+y,1/2+z
1/2+x,1/2-y,1/2+z
loop_
_atom_site_type_symbol
_atom_site_label
_atom_site_fract_x
_atom_site_fract_y
_atom_site_fract_z
Si Si1 0.223956 0.625760 0.937049
Si Si2 0.875705 0.152123 0.617513
Si Si3 0.440364 0.247900 0.640599
Si Si4 0.407577 0.839903 0.062774
Si Si5 0.058475 0.749447 0.733203
O O1 0.273420 0.382634 0.906502
O O2 0.141030 0.741169 0.902894
O O3 0.298176 0.849859 0.940966
O O4 0.191836 0.543551 0.000000
O O5 0.933860 0.375057 0.584886
O O6 0.866548 0.226628 0.683729
O O7 0.932085 0.889772 0.606499
O O8 0.500000 0.500000 0.630390
O O9 0.398360 0.239602 0.704132
O O10 0.500000 0.000000 0.629901
O O11 0.447751 0.789699 0.000000
O O12 0.000000 0.500000 0.721544
O O13 0.000000 0.000000 0.728804
#
# Coordination Sequence:
#
# PCOD8236648 Si02
#       5
#     8   8   8   8   8
#     4   9  21  38  60  85 117 151 191 241 289 341
#     4  10  19  35  59  85 109 154 193 234 289 343
#     4  10  23  40  57  84 118 154 194 237 287 347
#     4   9  18  33  55  82 114 144 182 234 283 332
#     4  10  21  40  59  81 117 155 192 239 290 345
#
# _framework density 21.764455999999999
#
# number of rings (size 3 to 8) (size 9 to 14) (size 15 to 20)
#    1.200    1.200    0.000    2.400    2.800    0.800 
#    3.600    0.000    0.000   20.400    0.000    0.000 
#    0.000    0.000    0.000    0.000    0.000    0.000 
#
# Total GULP energy -495600.169741 kJ/mol
# GULP energy per Si atom -12390.004244 kJ/mol
# Density = 2.171492 g / cm^3
# Si number density = 21.764456 Si / 1000 Ang^3
#
#
#
# Elastic Constant Matrix: (Units=GPa)
#
#
# Indices 1 2 3 4 5 6 
#
# 1 70.8116 44.2906 68.7603 0.0000 0.0000 0.0000
# 2 44.2906 154.3326 46.0904 0.0000 0.0000 0.0000
# 3 68.7603 46.0904 182.5502 0.0000 0.0000 0.0000
# 4 0.0000 0.0000 0.0000 39.9308 0.0000 0.0000
# 5 0.0000 0.0000 0.0000 0.0000 44.0159 0.0000
# 6 0.0000 0.0000 0.0000 0.0000 0.0000 30.0973
#
#
#
# Elastic Compliance Matrix: (Units=1/GPa)
#
#
# Indices 1 2 3 4 5 6 
#
# 1 0.025107 -0.004738 -0.008261 0.000000 0.000000 0.000000
# 2 -0.004738 0.007902 -0.000210 0.000000 0.000000 0.000000
# 3 -0.008261 -0.000210 0.008643 0.000000 0.000000 0.000000
# 4 0.000000 0.000000 0.000000 0.025043 0.000000 0.000000
# 5 0.000000 0.000000 0.000000 0.000000 0.022719 0.000000
# 6 0.000000 0.000000 0.000000 0.000000 0.000000 0.033226
#
#
# Mechanical properties :
#
#
# Convention : Reuss Voigt Hill
#
# Bulk Modulus (GPa) = 65.64649 80.66412 73.15531
# Shear Modulus (GPa) = 32.43896 39.37901 35.90899
#
# Velocity S-wave (km/s) = 3.86483 4.25823 4.06629
# Velocity P-wave (km/s) = 7.08122 7.83068 7.46536
#
# Compressibility (1/GPa) = 0.01523311
#
# Stress axis : x y z
#
# Youngs Moduli (GPa) = 39.82975 126.54798 115.70688
#
# Poissons Ratio (x) = 0.59962 0.95580
# Poissons Ratio (y) = 0.18872 0.02435
# Poissons Ratio (z) = 0.32902 0.02663
#
# Static dielectric constant tensor:
#      x y z
#    x 3.425880 0.000000 0.000000 
#    y 0.000000 3.938850 0.000000 
#    z 0.000000 0.000000 4.222080 
# 
# 
# High freq. dielectric constant tensor:
#      x y z
#    x 1.827300 0.000000 0.000000 
#    y 0.000000 1.867280 0.000000 
#    z 0.000000 0.000000 1.863190 
# 
# From -- ./inp_files/27160.got.cif
#   From: 2010.06.25/outbox.cif.g09.slc.cpg/sg58_14_cif.got.tgz:27160.got - 2010.06.26 21:38:00.
