data_PCOD8236116
_publ_section_title
;
Structure prediction by ZEFSAII (Michael W. Deem and Ramdas Pophale) SiO2 
 PCOD8236116
Probable space group: P N N M
;
_chemical_formula_sum "Si O2"
_cell_formula_units_Z 64
_cell_length_a 22.509253
_cell_length_b 16.914341
_cell_length_c 8.818625
_cell_angle_alpha 90.000000
_cell_angle_beta 90.000000
_cell_angle_gamma 90.000000
_cell_volume 3357.507873
_symmetry_space_group_name_H-M "P N N M"
_symmetry_group_IT_number 58
_symmetry_cell_setting 'orthorhombic'
loop_
_space_group_symop_operation_xyz
x,y,z
-x,-y,z
1/2+x,1/2-y,1/2-z
1/2-x,1/2+y,1/2-z
-x,-y,-z
x,y,-z
1/2-x,1/2+y,1/2+z
1/2+x,1/2-y,1/2+z
loop_
_atom_site_type_symbol
_atom_site_label
_atom_site_fract_x
_atom_site_fract_y
_atom_site_fract_z
Si Si1 0.870410 0.921315 0.327897
Si Si2 0.124781 0.320139 0.180612
Si Si3 0.465437 0.704332 0.822008
Si Si4 0.817817 0.084613 0.324531
Si Si5 0.665678 0.866972 0.179433
Si Si6 0.713099 0.308634 0.322693
Si Si7 0.597446 0.720933 0.180038
Si Si8 0.809066 0.541642 0.319332
O O1 0.854415 0.897783 0.500000
O O2 0.933318 0.879782 0.285300
O O3 0.819925 0.889366 0.217736
O O4 0.867937 0.015674 0.306849
O O5 0.064580 0.278958 0.238195
O O6 0.179280 0.266889 0.244244
O O7 0.137434 0.404368 0.256230
O O8 0.122134 0.328116 0.000000
O O9 0.532496 0.697202 0.758535
O O10 0.464959 0.723072 0.000000
O O11 0.800078 0.096436 0.500000
O O12 0.851112 0.162031 0.257185
O O13 0.756283 0.066259 0.238975
O O14 0.720678 0.814541 0.241041
O O15 0.609363 0.813043 0.228366
O O16 0.670512 0.955478 0.245075
O O17 0.669051 0.875240 0.000000
O O18 0.713286 0.298916 0.500000
O O19 0.598771 0.712312 0.000000
O O20 0.807826 0.544491 0.500000
#
# Coordination Sequence:
#
# PCOD8236116 Si02
#       8
#     8   8   8   8   8   8   8   8
#     4   9  17  28  47  78 109 134 164 210 259 304
#     4  10  20  34  55  77 101 135 173 214 262 315
#     4   9  18  34  54  76 104 138 180 220 254 300
#     4  10  19  32  52  79 111 139 169 209 262 321
#     4   9  17  30  49  73  99 130 171 214 255 302
#     4   9  16  30  51  72  97 132 169 204 252 313
#     4   9  18  33  53  75 102 140 181 217 253 307
#     4  11  21  33  52  78 106 132 168 219 265 311
#
# _framework density 19.061757
#
# number of rings (size 3 to 8) (size 9 to 14) (size 15 to 20)
#    0.000    2.500    1.250    1.500    0.000    3.000 
#    0.000    3.750    0.000    6.750    0.000    4.375 
#    0.000    0.000    0.000    0.000    0.000    0.000 
#
# Total GULP energy -792910.408931 kJ/mol
# GULP energy per Si atom -12389.225140 kJ/mol
# Density = 1.901837 g / cm^3
# Si number density = 19.061757 Si / 1000 Ang^3
#
#
#
# Elastic Constant Matrix: (Units=GPa)
#
#
# Indices 1 2 3 4 5 6 
#
# 1 74.1846 49.2137 9.6847 0.0000 0.0000 0.0000
# 2 49.2137 122.0362 19.7007 0.0000 0.0000 0.0000
# 3 9.6847 19.7007 21.3727 0.0000 0.0000 0.0000
# 4 0.0000 0.0000 0.0000 19.3913 0.0000 0.0000
# 5 0.0000 0.0000 0.0000 0.0000 21.4284 0.0000
# 6 0.0000 0.0000 0.0000 0.0000 0.0000 22.3631
#
#
#
# Elastic Compliance Matrix: (Units=1/GPa)
#
#
# Indices 1 2 3 4 5 6 
#
# 1 0.018460 -0.007159 -0.001766 0.000000 0.000000 0.000000
# 2 -0.007159 0.012403 -0.008189 0.000000 0.000000 0.000000
# 3 -0.001766 -0.008189 0.055137 0.000000 0.000000 0.000000
# 4 0.000000 0.000000 0.000000 0.051569 0.000000 0.000000
# 5 0.000000 0.000000 0.000000 0.000000 0.046667 0.000000
# 6 0.000000 0.000000 0.000000 0.000000 0.000000 0.044716
#
#
# Mechanical properties :
#
#
# Convention : Reuss Voigt Hill
#
# Bulk Modulus (GPa) = 19.31520 41.64354 30.47937
# Shear Modulus (GPa) = 17.82921 21.90286 19.86604
#
# Velocity S-wave (km/s) = 3.06165 3.39344 3.23180
# Velocity P-wave (km/s) = 4.75954 6.10311 5.47271
#
# Compressibility (1/GPa) = 0.05177270
#
# Stress axis : x y z
#
# Youngs Moduli (GPa) = 54.17169 80.62300 18.13659
#
# Poissons Ratio (x) = 0.57720 0.03202
# Poissons Ratio (y) = 0.38783 0.14852
# Poissons Ratio (z) = 0.09564 0.66022
#
# Static dielectric constant tensor:
#      x y z
#    x 3.588310 0.000000 0.000000 
#    y 0.000000 3.753640 0.000000 
#    z 0.000000 0.000000 3.204350 
# 
# 
# High freq. dielectric constant tensor:
#      x y z
#    x 1.729000 0.000000 0.000000 
#    y 0.000000 1.750090 0.000000 
#    z 0.000000 0.000000 1.706600 
# 
# From -- ./inp_files/8484.got.cif
#   From: 2010.06.25/outbox.cif.g09.slc.cpg/sg58_5_cif.got.tgz:8484.got - 2010.06.26 21:38:00.
