data_PCOD8236798
_publ_section_title
;
Structure prediction by ZEFSAII (Michael W. Deem and Ramdas Pophale) SiO2 
 PCOD8236798
Probable space group: P N N M
;
_chemical_formula_sum "Si O2"
_cell_formula_units_Z 64
_cell_length_a 25.248366
_cell_length_b 14.612661
_cell_length_c 8.466474
_cell_angle_alpha 90.000000
_cell_angle_beta 90.000000
_cell_angle_gamma 90.000000
_cell_volume 3123.670135
_symmetry_space_group_name_H-M "P N N M"
_symmetry_group_IT_number 58
_symmetry_cell_setting 'orthorhombic'
loop_
_space_group_symop_operation_xyz
x,y,z
-x,-y,z
1/2+x,1/2-y,1/2-z
1/2-x,1/2+y,1/2-z
-x,-y,-z
x,y,-z
1/2-x,1/2+y,1/2+z
1/2+x,1/2-y,1/2+z
loop_
_atom_site_type_symbol
_atom_site_label
_atom_site_fract_x
_atom_site_fract_y
_atom_site_fract_z
Si Si1 0.926131 0.249928 0.312634
Si Si2 0.745778 0.051058 0.682668
Si Si3 0.446314 0.046384 0.186334
Si Si4 0.991027 0.897618 0.313543
Si Si5 0.806966 0.229080 0.316354
Si Si6 0.218801 0.143057 0.314872
Si Si7 0.132061 0.402662 0.813967
Si Si8 0.608417 0.295474 0.684479
O O1 0.926421 0.242876 0.500000
O O2 0.947366 0.348694 0.256710
O O3 0.866399 0.238876 0.250041
O O4 0.964425 0.171119 0.241788
O O5 0.734025 0.033159 0.500000
O O6 0.764756 0.955479 0.755835
O O7 0.792266 0.123540 0.708593
O O8 0.691023 0.087406 0.760300
O O9 0.500000 0.000000 0.244668
O O10 0.398677 0.993847 0.268744
O O11 0.438577 0.038342 0.000000
O O12 0.997099 0.901309 0.500000
O O13 0.932795 0.860449 0.273910
O O14 0.000000 0.000000 0.243588
O O15 0.802458 0.258018 0.500000
O O16 0.768072 0.290246 0.212805
O O17 0.204428 0.140253 0.500000
O O18 0.168070 0.173143 0.215930
O O19 0.104006 0.309550 0.750729
O O20 0.136293 0.391827 0.000000
O O21 0.595881 0.301846 0.500000
#
# Coordination Sequence:
#
# PCOD8236798 Si02
#       8
#     8   8   8   8   8   8   8   8
#     4   9  19  35  58  86 115 153 194 236 291 349
#     4   9  19  35  56  80 111 150 187 234 289 343
#     4  10  20  34  54  82 116 147 181 233 286 330
#     4  10  22  40  64  90 116 154 204 248 288 344
#     4  10  19  37  60  81 116 156 190 231 289 353
#     4  11  22  36  59  89 117 151 199 248 291 345
#     4  10  20  37  58  82 112 150 191 230 284 349
#     4  11  23  40  61  84 118 159 195 241 300 353
#
# _framework density 20.488719
#
# number of rings (size 3 to 8) (size 9 to 14) (size 15 to 20)
#    0.000    2.000    1.250    2.250    1.750    2.500 
#    0.000    3.125    0.000    0.000    0.000    0.000 
#    0.000    0.000    0.000    0.000    0.000    0.000 
#
# Total GULP energy -793617.521225 kJ/mol
# GULP energy per Si atom -12400.273769 kJ/mol
# Density = 2.044209 g / cm^3
# Si number density = 20.488719 Si / 1000 Ang^3
#
#
#
# Elastic Constant Matrix: (Units=GPa)
#
#
# Indices 1 2 3 4 5 6 
#
# 1 136.7014 63.6792 -0.9530 0.0000 0.0000 0.0000
# 2 63.6792 165.0147 7.5884 0.0000 0.0000 0.0000
# 3 -0.9530 7.5884 11.3644 0.0000 0.0000 0.0000
# 4 0.0000 0.0000 0.0000 20.9313 0.0000 0.0000
# 5 0.0000 0.0000 0.0000 0.0000 26.3549 0.0000
# 6 0.0000 0.0000 0.0000 0.0000 0.0000 41.6520
#
#
#
# Elastic Compliance Matrix: (Units=1/GPa)
#
#
# Indices 1 2 3 4 5 6 
#
# 1 0.009029 -0.003630 0.003181 0.000000 0.000000 0.000000
# 2 -0.003630 0.007712 -0.005454 0.000000 0.000000 0.000000
# 3 0.003181 -0.005454 0.091903 0.000000 0.000000 0.000000
# 4 0.000000 0.000000 0.000000 0.047775 0.000000 0.000000
# 5 0.000000 0.000000 0.000000 0.000000 0.037944 0.000000
# 6 0.000000 0.000000 0.000000 0.000000 0.000000 0.024008
#
#
# Mechanical properties :
#
#
# Convention : Reuss Voigt Hill
#
# Bulk Modulus (GPa) = 10.32660 50.41221 30.36940
# Shear Modulus (GPa) = 19.05080 33.97202 26.51141
#
# Velocity S-wave (km/s) = 3.05260 4.07638 3.60106
# Velocity P-wave (km/s) = 4.18038 6.84208 5.66964
#
# Compressibility (1/GPa) = 0.09683729
#
# Stress axis : x y z
#
# Youngs Moduli (GPa) = 110.75996 129.67056 10.88103
#
# Poissons Ratio (x) = 0.47076 -0.03462
# Poissons Ratio (y) = 0.40210 0.05934
# Poissons Ratio (z) = -0.35236 0.70722
#
# Static dielectric constant tensor:
#      x y z
#    x 3.796920 0.000000 0.000000 
#    y 0.000000 4.035650 0.000000 
#    z 0.000000 0.000000 3.263790 
# 
# 
# High freq. dielectric constant tensor:
#      x y z
#    x 1.811240 0.000000 0.000000 
#    y 0.000000 1.818640 0.000000 
#    z 0.000000 0.000000 1.760660 
# 
# From -- ./inp_files/10091.got.cif
#   From: 2010.06.25/outbox.cif.g09.slc.cpg/sg58_6_cif.got.tgz:10091.got - 2010.06.26 21:38:00.
