data_PCOD8236027
_publ_section_title
;
Structure prediction by ZEFSAII (Michael W. Deem and Ramdas Pophale) SiO2 
 PCOD8236027
Probable space group: P N N M
;
_chemical_formula_sum "Si O2"
_cell_formula_units_Z 64
_cell_length_a 20.042734
_cell_length_b 18.841482
_cell_length_c 9.179062
_cell_angle_alpha 90.000000
_cell_angle_beta 90.000000
_cell_angle_gamma 90.000000
_cell_volume 3466.333352
_symmetry_space_group_name_H-M "P N N M"
_symmetry_group_IT_number 58
_symmetry_cell_setting 'orthorhombic'
loop_
_space_group_symop_operation_xyz
x,y,z
-x,-y,z
1/2+x,1/2-y,1/2-z
1/2-x,1/2+y,1/2-z
-x,-y,-z
x,y,-z
1/2-x,1/2+y,1/2+z
1/2+x,1/2-y,1/2+z
loop_
_atom_site_type_symbol
_atom_site_label
_atom_site_fract_x
_atom_site_fract_y
_atom_site_fract_z
Si Si1 0.347524 0.298263 0.827891
Si Si2 0.181389 0.943447 0.829443
Si Si3 0.911890 0.800466 0.826884
Si Si4 0.021082 0.714181 0.327941
Si Si5 0.561736 0.456993 0.327979
Si Si6 0.238753 0.187611 0.173060
Si Si7 0.702423 0.958644 0.827163
Si Si8 0.946101 0.444483 0.673336
O O1 0.338643 0.374285 0.757326
O O2 0.417979 0.264722 0.780423
O O3 0.288589 0.247976 0.769225
O O4 0.343579 0.306608 0.000000
O O5 0.130650 0.005749 0.785150
O O6 0.254883 0.971577 0.783902
O O7 0.177114 0.925980 0.000000
O O8 0.938751 0.876528 0.770074
O O9 0.835474 0.793000 0.774521
O O10 0.953913 0.738882 0.750879
O O11 0.918276 0.793084 0.000000
O O12 0.009792 0.716351 0.500000
O O13 0.036200 0.634568 0.273965
O O14 0.500000 0.500000 0.257244
O O15 0.553796 0.454853 0.500000
O O16 0.262687 0.112001 0.237753
O O17 0.240742 0.182927 0.000000
O O18 0.627151 0.965951 0.766270
O O19 0.700725 0.950856 0.000000
O O20 0.945895 0.447367 0.500000
O O21 0.000000 0.500000 0.737221
#
# Coordination Sequence:
#
# PCOD8236027 Si02
#       8
#     8   8   8   8   8   8   8   8
#     4  10  20  34  52  74 104 143 176 202 251 323
#     4  10  19  31  52  80 103 126 169 224 264 294
#     4  10  19  32  53  77 101 133 173 215 258 302
#     4  10  20  34  52  76 109 143 173 210 258 316
#     4   9  16  27  45  70  98 127 161 203 247 293
#     4   9  16  31  53  72  94 135 181 209 242 307
#     4   9  15  29  52  74  96 129 175 218 253 299
#     4   9  17  30  51  77 103 134 173 216 261 304
#
# _framework density 18.463311999999998
#
# number of rings (size 3 to 8) (size 9 to 14) (size 15 to 20)
#    0.000    2.500    2.500    0.750    0.000    2.500 
#    0.000    2.500    0.000    4.125    0.000    0.000 
#    0.000    0.000    0.000    0.000    0.000    0.000 
#
# Total GULP energy -793463.199215 kJ/mol
# GULP energy per Si atom -12397.862488 kJ/mol
# Density = 1.842129 g / cm^3
# Si number density = 18.463312 Si / 1000 Ang^3
#
#
#
# Elastic Constant Matrix: (Units=GPa)
#
#
# Indices 1 2 3 4 5 6 
#
# 1 149.8047 52.2944 21.3077 0.0000 0.0000 0.0000
# 2 52.2944 107.0741 20.0114 0.0000 0.0000 0.0000
# 3 21.3077 20.0114 14.5311 0.0000 0.0000 0.0000
# 4 0.0000 0.0000 0.0000 19.3938 0.0000 0.0000
# 5 0.0000 0.0000 0.0000 0.0000 18.6822 0.0000
# 6 0.0000 0.0000 0.0000 0.0000 0.0000 38.1061
#
#
#
# Elastic Compliance Matrix: (Units=1/GPa)
#
#
# Indices 1 2 3 4 5 6 
#
# 1 0.008934 -0.002579 -0.009549 0.000000 0.000000 0.000000
# 2 -0.002579 0.013320 -0.014563 0.000000 0.000000 0.000000
# 3 -0.009549 -0.014563 0.102875 0.000000 0.000000 0.000000
# 4 0.000000 0.000000 0.000000 0.051563 0.000000 0.000000
# 5 0.000000 0.000000 0.000000 0.000000 0.053527 0.000000
# 6 0.000000 0.000000 0.000000 0.000000 0.000000 0.026243
#
#
# Mechanical properties :
#
#
# Convention : Reuss Voigt Hill
#
# Bulk Modulus (GPa) = 13.93760 50.95966 32.44863
# Shear Modulus (GPa) = 14.98087 27.08951 21.03519
#
# Velocity S-wave (km/s) = 2.85157 3.83457 3.37901
# Velocity P-wave (km/s) = 4.29036 6.87500 5.73031
#
# Compressibility (1/GPa) = 0.07174838
#
# Stress axis : x y z
#
# Youngs Moduli (GPa) = 111.93586 75.07277 9.72050
#
# Poissons Ratio (x) = 0.19358 0.09282
# Poissons Ratio (y) = 0.28863 0.14156
# Poissons Ratio (z) = 1.06887 1.09329
#
# Static dielectric constant tensor:
#      x y z
#    x 3.777580 0.000000 0.000000 
#    y 0.000000 3.477460 0.000000 
#    z 0.000000 0.000000 2.776060 
# 
# 
# High freq. dielectric constant tensor:
#      x y z
#    x 1.734880 0.000000 0.000000 
#    y 0.000000 1.723150 0.000000 
#    z 0.000000 0.000000 1.649670 
# 
# From -- ./inp_files/8320.got.cif
#   From: 2010.06.25/outbox.cif.g09.slc.cpg/sg58_5_cif.got.tgz:8320.got - 2010.06.26 21:38:00.
