data_PCOD8236204
_publ_section_title
;
Structure prediction by ZEFSAII (Michael W. Deem and Ramdas Pophale) SiO2 
 PCOD8236204
Probable space group: P N N M
;
_chemical_formula_sum "Si O2"
_cell_formula_units_Z 56
_cell_length_a 14.549856
_cell_length_b 21.522648
_cell_length_c 9.108523
_cell_angle_alpha 90.000000
_cell_angle_beta 90.000000
_cell_angle_gamma 90.000000
_cell_volume 2852.346995
_symmetry_space_group_name_H-M "P N N M"
_symmetry_group_IT_number 58
_symmetry_cell_setting 'orthorhombic'
loop_
_space_group_symop_operation_xyz
x,y,z
-x,-y,z
1/2+x,1/2-y,1/2-z
1/2-x,1/2+y,1/2-z
-x,-y,-z
x,y,-z
1/2-x,1/2+y,1/2+z
1/2+x,1/2-y,1/2+z
loop_
_atom_site_type_symbol
_atom_site_label
_atom_site_fract_x
_atom_site_fract_y
_atom_site_fract_z
Si Si1 0.303466 0.093850 0.332393
Si Si2 0.890031 0.941259 0.672333
Si Si3 0.908875 0.080218 0.326431
Si Si4 0.914705 0.303915 0.672923
Si Si5 0.186573 0.808540 0.828782
Si Si6 0.613445 0.155583 0.830638
Si Si7 0.592268 0.029407 0.333107
O O1 0.314605 0.118419 0.500000
O O2 0.197884 0.099112 0.275823
O O3 0.368201 0.132427 0.225373
O O4 0.327183 0.021063 0.323587
O O5 0.883844 0.951048 0.500000
O O6 0.983877 0.905057 0.711108
O O7 0.888349 0.011303 0.735290
O O8 0.889646 0.087886 0.500000
O O9 0.845301 0.126326 0.236655
O O10 0.901777 0.296391 0.500000
O O11 0.866351 0.246691 0.750464
O O12 0.022423 0.306413 0.717917
O O13 0.296379 0.802309 0.800856
O O14 0.163354 0.806155 0.000000
O O15 0.624338 0.090756 0.748223
O O16 0.605062 0.137853 0.000000
O O17 0.570821 0.048920 0.500000
O O18 0.500000 0.000000 0.262489
#
# Coordination Sequence:
#
# PCOD8236204 Si02
#       7
#     8   8   8   8   8   8   8
#     4  10  19  34  55  84 119 150 181 226 280 333
#     4   8  16  31  57  86 114 148 183 220 271 330
#     4   9  17  35  59  84 111 146 189 227 266 327
#     4  11  24  41  58  79 107 146 191 231 272 332
#     4  11  24  41  59  81 110 148 189 235 286 333
#     4  10  23  41  60  82 113 150 189 230 283 344
#     4  10  19  32  57  91 120 147 183 230 283 332
#
# _framework density 19.632954000000002
#
# number of rings (size 3 to 8) (size 9 to 14) (size 15 to 20)
#    0.000    2.143    1.429    2.571    0.000    4.857 
#    0.000    8.571    0.000    0.000    0.000    0.000 
#    0.000    0.000    0.000    0.000    0.000    0.000 
#
# Total GULP energy -694287.828086 kJ/mol
# GULP energy per Si atom -12397.996930 kJ/mol
# Density = 1.958827 g / cm^3
# Si number density = 19.632954 Si / 1000 Ang^3
#
#
#
# Elastic Constant Matrix: (Units=GPa)
#
#
# Indices 1 2 3 4 5 6 
#
# 1 148.0664 40.3502 49.4181 0.0000 0.0000 0.0000
# 2 40.3502 77.7731 40.7908 0.0000 0.0000 0.0000
# 3 49.4181 40.7908 71.4395 0.0000 0.0000 0.0000
# 4 0.0000 0.0000 0.0000 27.1463 0.0000 0.0000
# 5 0.0000 0.0000 0.0000 0.0000 25.2388 0.0000
# 6 0.0000 0.0000 0.0000 0.0000 0.0000 28.3099
#
#
#
# Elastic Compliance Matrix: (Units=1/GPa)
#
#
# Indices 1 2 3 4 5 6 
#
# 1 0.008994 -0.002003 -0.005078 0.000000 0.000000 0.000000
# 2 -0.002003 0.018801 -0.009349 0.000000 0.000000 0.000000
# 3 -0.005078 -0.009349 0.022849 0.000000 0.000000 0.000000
# 4 0.000000 0.000000 0.000000 0.036837 0.000000 0.000000
# 5 0.000000 0.000000 0.000000 0.000000 0.039621 0.000000
# 6 0.000000 0.000000 0.000000 0.000000 0.000000 0.035323
#
#
# Mechanical properties :
#
#
# Convention : Reuss Voigt Hill
#
# Bulk Modulus (GPa) = 56.23326 62.04414 59.13870
# Shear Modulus (GPa) = 24.84903 27.25366 26.05135
#
# Velocity S-wave (km/s) = 3.56150 3.72984 3.64664
# Velocity P-wave (km/s) = 6.75402 7.08658 6.92230
#
# Compressibility (1/GPa) = 0.01778307
#
# Stress axis : x y z
#
# Youngs Moduli (GPa) = 111.17940 53.18950 43.76571
#
# Poissons Ratio (x) = 0.10654 0.22225
# Poissons Ratio (y) = 0.22270 0.40918
# Poissons Ratio (z) = 0.56459 0.49728
#
# Static dielectric constant tensor:
#      x y z
#    x 4.307760 0.000000 0.000000 
#    y 0.000000 3.378770 0.000000 
#    z 0.000000 0.000000 3.389470 
# 
# 
# High freq. dielectric constant tensor:
#      x y z
#    x 1.788080 0.000000 0.000000 
#    y 0.000000 1.751350 0.000000 
#    z 0.000000 0.000000 1.740710 
# 
# From -- ./inp_files/6480.got.cif
#   From: 2010.06.25/outbox.cif.g09.slc.cpg/sg58_4_cif.got.tgz:6480.got - 2010.06.26 21:38:00.
