data_PCOD8236634
_publ_section_title
;
Structure prediction by ZEFSAII (Michael W. Deem and Ramdas Pophale) SiO2 
 PCOD8236634
Probable space group: P N N M
;
_chemical_formula_sum "Si O2"
_cell_formula_units_Z 64
_cell_length_a 8.692303
_cell_length_b 23.995920
_cell_length_c 15.018725
_cell_angle_alpha 90.000000
_cell_angle_beta 90.000000
_cell_angle_gamma 90.000000
_cell_volume 3132.602768
_symmetry_space_group_name_H-M "P N N M"
_symmetry_group_IT_number 58
_symmetry_cell_setting 'orthorhombic'
loop_
_space_group_symop_operation_xyz
x,y,z
-x,-y,z
1/2+x,1/2-y,1/2-z
1/2-x,1/2+y,1/2-z
-x,-y,-z
x,y,-z
1/2-x,1/2+y,1/2+z
1/2+x,1/2-y,1/2+z
loop_
_atom_site_type_symbol
_atom_site_label
_atom_site_fract_x
_atom_site_fract_y
_atom_site_fract_z
Si Si1 0.178318 0.084539 0.246714
Si Si2 0.886967 0.451248 0.100764
Si Si3 0.179137 0.508766 0.603499
Si Si4 0.620059 0.710420 0.398053
Si Si5 0.836224 0.301548 0.238471
Si Si6 0.834108 0.093386 0.803130
Si Si7 0.220481 0.252790 0.096544
Si Si8 0.392076 0.861797 0.334800
O O1 0.240951 0.051047 0.333169
O O2 0.265914 0.062571 0.158873
O O3 0.208775 0.150057 0.259768
O O4 0.997706 0.074543 0.236268
O O5 0.000000 0.500000 0.132327
O O6 0.987318 0.395070 0.104413
O O7 0.826941 0.460397 0.000000
O O8 0.210643 0.521268 0.500000
O O9 0.274378 0.454252 0.631086
O O10 0.000000 0.500000 0.622867
O O11 0.677338 0.713141 0.500000
O O12 0.703470 0.759861 0.343129
O O13 0.659748 0.650645 0.357272
O O14 0.438115 0.719518 0.391298
O O15 0.839460 0.266936 0.329549
O O16 0.008138 0.325750 0.234964
O O17 0.721175 0.097825 0.718757
O O18 0.200408 0.319527 0.102541
O O19 0.291467 0.239498 0.000000
#
# Coordination Sequence:
#
# PCOD8236634 Si02
#       8
#     8   8   8   8   8   8   8   8
#     4  11  23  39  65  95 128 165 211 264 327 372
#     4  10  21  41  67  94 126 168 219 260 312 384
#     4  11  25  44  65  94 128 166 211 259 315 386
#     4  10  21  37  62  92 125 167 213 260 318 385
#     4  10  20  38  60  86 123 164 213 264 312 374
#     4  12  22  39  66  91 133 166 208 263 321 385
#     4  10  19  35  58  85 119 163 214 260 314 373
#     4  10  21  36  62  86 127 168 211 255 316 381
#
# _framework density 20.430295999999998
#
# number of rings (size 3 to 8) (size 9 to 14) (size 15 to 20)
#    0.000    1.500    2.500    3.750    0.000    5.000 
#    0.000    2.500    0.000    3.000    0.000    0.000 
#    0.000    0.000    0.000    0.000    0.000    0.000 
#
# Total GULP energy -793713.456965 kJ/mol
# GULP energy per Si atom -12401.772765 kJ/mol
# Density = 2.038380 g / cm^3
# Si number density = 20.430296 Si / 1000 Ang^3
#
#
#
# Elastic Constant Matrix: (Units=GPa)
#
#
# Indices 1 2 3 4 5 6 
#
# 1 93.2780 31.5871 52.6565 0.0000 0.0000 0.0000
# 2 31.5871 103.9639 42.9958 0.0000 0.0000 0.0000
# 3 52.6565 42.9958 134.5736 0.0000 0.0000 0.0000
# 4 0.0000 0.0000 0.0000 31.4928 0.0000 0.0000
# 5 0.0000 0.0000 0.0000 0.0000 25.8639 0.0000
# 6 0.0000 0.0000 0.0000 0.0000 0.0000 32.1113
#
#
#
# Elastic Compliance Matrix: (Units=1/GPa)
#
#
# Indices 1 2 3 4 5 6 
#
# 1 0.014233 -0.002329 -0.004825 0.000000 0.000000 0.000000
# 2 -0.002329 0.011464 -0.002752 0.000000 0.000000 0.000000
# 3 -0.004825 -0.002752 0.010198 0.000000 0.000000 0.000000
# 4 0.000000 0.000000 0.000000 0.031753 0.000000 0.000000
# 5 0.000000 0.000000 0.000000 0.000000 0.038664 0.000000
# 6 0.000000 0.000000 0.000000 0.000000 0.000000 0.031142
#
#
# Mechanical properties :
#
#
# Convention : Reuss Voigt Hill
#
# Bulk Modulus (GPa) = 62.17265 65.14380 63.65822
# Shear Modulus (GPa) = 30.74528 31.53203 31.13866
#
# Velocity S-wave (km/s) = 3.88350 3.93287 3.90826
# Velocity P-wave (km/s) = 7.11382 7.25110 7.18278
#
# Compressibility (1/GPa) = 0.01608424
#
# Stress axis : x y z
#
# Youngs Moduli (GPa) = 70.25860 87.22780 98.05874
#
# Poissons Ratio (x) = 0.20315 0.47315
# Poissons Ratio (y) = 0.16363 0.26981
# Poissons Ratio (z) = 0.33901 0.24001
#
# Static dielectric constant tensor:
#      x y z
#    x 3.523230 0.000000 0.000000 
#    y 0.000000 3.874540 0.000000 
#    z 0.000000 0.000000 3.748050 
# 
# 
# High freq. dielectric constant tensor:
#      x y z
#    x 1.779840 0.000000 0.000000 
#    y 0.000000 1.812700 0.000000 
#    z 0.000000 0.000000 1.801370 
# 
# From -- ./inp_files/20307.got.cif
#   From: 2010.06.25/outbox.cif.g09.slc.cpg/sg58_11_cif.got.tgz:20307.got - 2010.06.26 21:38:00.
