data_PCOD8236195
_publ_section_title
;
Structure prediction by ZEFSAII (Michael W. Deem and Ramdas Pophale) SiO2 
 PCOD8236195
Probable space group: P N N M
;
_chemical_formula_sum "Si O2"
_cell_formula_units_Z 64
_cell_length_a 16.753064
_cell_length_b 11.070184
_cell_length_c 17.284014
_cell_angle_alpha 90.000000
_cell_angle_beta 90.000000
_cell_angle_gamma 90.000000
_cell_volume 3205.484612
_symmetry_space_group_name_H-M "P N N M"
_symmetry_group_IT_number 58
_symmetry_cell_setting 'orthorhombic'
loop_
_space_group_symop_operation_xyz
x,y,z
-x,-y,z
1/2+x,1/2-y,1/2-z
1/2-x,1/2+y,1/2-z
-x,-y,-z
x,y,-z
1/2-x,1/2+y,1/2+z
1/2+x,1/2-y,1/2+z
loop_
_atom_site_type_symbol
_atom_site_label
_atom_site_fract_x
_atom_site_fract_y
_atom_site_fract_z
Si Si1 0.776130 0.647812 0.660576
Si Si2 0.976851 0.867006 0.744962
Si Si3 0.702042 0.874646 0.843613
Si Si4 0.372741 0.221623 0.299210
Si Si5 0.959453 0.387300 0.415820
Si Si6 0.592183 0.986056 0.584483
Si Si7 0.844626 0.713702 0.823272
Si Si8 0.905533 0.806586 0.585829
O O1 0.783186 0.511505 0.629706
O O2 0.681605 0.673791 0.663035
O O3 0.815192 0.652294 0.744817
O O4 0.821313 0.741478 0.603873
O O5 0.054718 0.779497 0.748761
O O6 0.914351 0.809236 0.804708
O O7 0.935536 0.885959 0.659513
O O8 0.000000 0.000000 0.774644
O O9 0.687794 0.859714 0.751950
O O10 0.619186 0.829352 0.879690
O O11 0.774875 0.787628 0.867841
O O12 0.401520 0.135138 0.366398
O O13 0.934228 0.437055 0.500000
O O14 0.000000 0.500000 0.368225
O O15 0.025611 0.288485 0.422748
O O16 0.633204 0.968954 0.500000
O O17 0.628315 0.105793 0.622244
O O18 0.500000 0.000000 0.571868
O O19 0.897757 0.872304 0.500000
#
# Coordination Sequence:
#
# PCOD8236195 Si02
#       8
#     8   8   8   8   8   8   8   8
#     4  10  21  35  59  89 122 163 203 251 303 368
#     4  11  22  39  63  88 121 161 208 259 308 368
#     4  11  20  35  60  88 125 160 202 254 306 361
#     4  11  22  38  62  90 120 158 208 253 310 367
#     4  10  19  32  55  87 120 157 203 243 290 359
#     4  11  23  42  68  91 118 157 209 264 314 372
#     4  10  22  38  59  91 121 155 207 261 309 369
#     4  10  21  37  57  88 126 164 203 243 299 368
#
# _framework density 19.965779999999999
#
# number of rings (size 3 to 8) (size 9 to 14) (size 15 to 20)
#    0.000    1.500    5.000    0.750    0.000    1.750 
#    0.000    0.000    0.000    3.000    0.000    0.000 
#    0.000    0.000    0.000    0.000    0.000    0.000 
#
# Total GULP energy -792943.449190 kJ/mol
# GULP energy per Si atom -12389.741394 kJ/mol
# Density = 1.992034 g / cm^3
# Si number density = 19.965780 Si / 1000 Ang^3
#
#
#
# Elastic Constant Matrix: (Units=GPa)
#
#
# Indices 1 2 3 4 5 6 
#
# 1 106.6121 20.6230 21.9781 0.0000 0.0000 0.0000
# 2 20.6230 76.0463 20.2545 0.0000 0.0000 0.0000
# 3 21.9781 20.2545 81.6807 0.0000 0.0000 0.0000
# 4 0.0000 0.0000 0.0000 8.9808 0.0000 0.0000
# 5 0.0000 0.0000 0.0000 0.0000 31.6003 0.0000
# 6 0.0000 0.0000 0.0000 0.0000 0.0000 36.9397
#
#
#
# Elastic Compliance Matrix: (Units=1/GPa)
#
#
# Indices 1 2 3 4 5 6 
#
# 1 0.010261 -0.002192 -0.002217 0.000000 0.000000 0.000000
# 2 -0.002192 0.014548 -0.003018 0.000000 0.000000 0.000000
# 3 -0.002217 -0.003018 0.013588 0.000000 0.000000 0.000000
# 4 0.000000 0.000000 0.000000 0.111349 0.000000 0.000000
# 5 0.000000 0.000000 0.000000 0.000000 0.031645 0.000000
# 6 0.000000 0.000000 0.000000 0.000000 0.000000 0.027071
#
#
# Mechanical properties :
#
#
# Convention : Reuss Voigt Hill
#
# Bulk Modulus (GPa) = 42.47640 43.33893 42.90767
# Shear Modulus (GPa) = 21.62970 28.93639 25.28304
#
# Velocity S-wave (km/s) = 3.29498 3.81110 3.56240
# Velocity P-wave (km/s) = 5.98303 6.41246 6.20146
#
# Compressibility (1/GPa) = 0.02354249
#
# Stress axis : x y z
#
# Youngs Moduli (GPa) = 97.45691 68.73754 73.59582
#
# Poissons Ratio (x) = 0.15068 0.16319
# Poissons Ratio (y) = 0.21363 0.22209
# Poissons Ratio (z) = 0.21610 0.20743
#
# Static dielectric constant tensor:
#      x y z
#    x 3.914240 0.000000 0.000000 
#    y 0.000000 3.466040 0.000000 
#    z 0.000000 0.000000 4.034900 
# 
# 
# High freq. dielectric constant tensor:
#      x y z
#    x 1.789340 0.000000 0.000000 
#    y 0.000000 1.765170 0.000000 
#    z 0.000000 0.000000 1.763240 
# 
# From -- ./inp_files/27015.got.cif
#   From: 2010.06.25/outbox.cif.g09.slc.cpg/sg58_14_cif.got.tgz:27015.got - 2010.06.26 21:38:00.
