data_PCOD8236607
_publ_section_title
;
Structure prediction by ZEFSAII (Michael W. Deem and Ramdas Pophale) SiO2 
 PCOD8236607
Probable space group: P N N M
;
_chemical_formula_sum "Si O2"
_cell_formula_units_Z 48
_cell_length_a 10.440995
_cell_length_b 30.508234
_cell_length_c 7.665660
_cell_angle_alpha 90.000000
_cell_angle_beta 90.000000
_cell_angle_gamma 90.000000
_cell_volume 2441.791116
_symmetry_space_group_name_H-M "P N N M"
_symmetry_group_IT_number 58
_symmetry_cell_setting 'orthorhombic'
loop_
_space_group_symop_operation_xyz
x,y,z
-x,-y,z
1/2+x,1/2-y,1/2-z
1/2-x,1/2+y,1/2-z
-x,-y,-z
x,y,-z
1/2-x,1/2+y,1/2+z
1/2+x,1/2-y,1/2+z
loop_
_atom_site_type_symbol
_atom_site_label
_atom_site_fract_x
_atom_site_fract_y
_atom_site_fract_z
Si Si1 0.329444 0.879020 0.196950
Si Si2 0.188888 0.281848 0.202245
Si Si3 0.699388 0.982142 0.500000
Si Si4 0.608806 0.463848 0.698553
Si Si5 0.046416 0.428607 0.000000
Si Si6 0.955678 0.118944 0.206752
Si Si7 0.027856 0.783757 0.206719
O O1 0.336949 0.826396 0.193583
O O2 0.432329 0.899969 0.326356
O O3 0.188608 0.893130 0.265565
O O4 0.355951 0.895838 0.000000
O O5 0.088581 0.246029 0.276871
O O6 0.334680 0.265111 0.229848
O O7 0.162592 0.290603 0.000000
O O8 0.778224 0.978985 0.677635
O O9 0.600738 0.942186 0.500000
O O10 0.634804 0.029110 0.500000
O O11 0.500000 0.500000 0.703836
O O12 0.660000 0.458518 0.500000
O O13 0.553009 0.418033 0.774476
O O14 0.993602 0.166868 0.280952
O O15 0.957594 0.119684 0.000000
O O16 0.027804 0.784824 0.000000
#
# Coordination Sequence:
#
# PCOD8236607 Si02
#       7
#     8   8   4   8   4   8   8
#     4  10  20  38  63  84 112 153 198 237 290 354
#     4  10  19  35  57  85 118 151 201 251 290 354
#     4  11  25  40  58  86 125 149 196 250 290 351
#     4  10  20  37  61  89 118 151 193 243 300 353
#     4  11  24  42  58  84 118 160 198 238 289 352
#     4   8  16  33  57  84 113 146 190 240 291 349
#     4   9  19  35  54  80 117 157 193 242 297 348
#
# _framework density 19.657700999999999
#
# number of rings (size 3 to 8) (size 9 to 14) (size 15 to 20)
#    0.000    2.333    0.833    2.750    0.000    4.667 
#    4.500    1.667    0.000    0.000    0.000    0.000 
#    0.000    0.000    0.000    0.000    0.000    0.000 
#
# Total GULP energy -595149.566922 kJ/mol
# GULP energy per Si atom -12398.949311 kJ/mol
# Density = 1.961296 g / cm^3
# Si number density = 19.657701 Si / 1000 Ang^3
#
#
#
# Elastic Constant Matrix: (Units=GPa)
#
#
# Indices 1 2 3 4 5 6 
#
# 1 90.5962 40.8234 30.2579 0.0000 0.0000 0.0000
# 2 40.8234 74.0434 19.0738 0.0000 0.0000 0.0000
# 3 30.2579 19.0738 83.9896 0.0000 0.0000 0.0000
# 4 0.0000 0.0000 0.0000 -14.0083 0.0000 0.0000
# 5 0.0000 0.0000 0.0000 0.0000 95.3145 0.0000
# 6 0.0000 0.0000 0.0000 0.0000 0.0000 35.4175
#
#
#
# Elastic Compliance Matrix: (Units=1/GPa)
#
#
# Indices 1 2 3 4 5 6 
#
# 1 0.015833 -0.007711 -0.003953 0.000000 0.000000 0.000000
# 2 -0.007711 0.018100 -0.001333 0.000000 0.000000 0.000000
# 3 -0.003953 -0.001333 0.013633 0.000000 0.000000 0.000000
# 4 0.000000 0.000000 0.000000 -0.071386 0.000000 0.000000
# 5 0.000000 0.000000 0.000000 0.000000 0.010492 0.000000
# 6 0.000000 0.000000 0.000000 0.000000 0.000000 0.028235
#
#
# Mechanical properties :
#
#
# Convention : Reuss Voigt Hill
#
# Bulk Modulus (GPa) = 46.35367 47.65991 47.00679
# Shear Modulus (GPa) = 103.97207 33.90968 68.94088
#
# Velocity S-wave (km/s) = 7.28053 4.15783 5.92847
# Velocity P-wave (km/s) = 9.71115 6.88096 8.41588
#
# Compressibility (1/GPa) = 0.02157327
#
# Stress axis : x y z
#
# Youngs Moduli (GPa) = 63.15994 55.24758 73.35219
#
# Poissons Ratio (x) = 0.42602 0.28994
# Poissons Ratio (y) = 0.48703 0.09775
# Poissons Ratio (z) = 0.24965 0.07362
#
# Static dielectric constant tensor:
#      x y z
#    x 3.582190 0.000000 0.000000 
#    y 0.000000 3.906220 0.000000 
#    z 0.000000 0.000000 3.483570 
# 
# 
# High freq. dielectric constant tensor:
#      x y z
#    x 1.747920 0.000000 0.000000 
#    y 0.000000 1.769430 0.000000 
#    z 0.000000 0.000000 1.766360 
# 
# From -- ./inp_files/3033.got.cif
#   From: 2010.06.25/outbox.cif.g09.slc.cpg/sg58_2_cif.got.tgz:3033.got - 2010.06.26 21:38:00.
