data_PCOD8236785
_publ_section_title
;
Structure prediction by ZEFSAII (Michael W. Deem and Ramdas Pophale) SiO2 
 PCOD8236785
Probable space group: P N N M
;
_chemical_formula_sum "Si O2"
_cell_formula_units_Z 64
_cell_length_a 12.236091
_cell_length_b 18.775036
_cell_length_c 14.044552
_cell_angle_alpha 90.000000
_cell_angle_beta 90.000000
_cell_angle_gamma 90.000000
_cell_volume 3226.497753
_symmetry_space_group_name_H-M "P N N M"
_symmetry_group_IT_number 58
_symmetry_cell_setting 'orthorhombic'
loop_
_space_group_symop_operation_xyz
x,y,z
-x,-y,z
1/2+x,1/2-y,1/2-z
1/2-x,1/2+y,1/2-z
-x,-y,-z
x,y,-z
1/2-x,1/2+y,1/2+z
1/2+x,1/2-y,1/2+z
loop_
_atom_site_type_symbol
_atom_site_label
_atom_site_fract_x
_atom_site_fract_y
_atom_site_fract_z
Si Si1 0.893197 0.951811 0.393254
Si Si2 0.957836 0.840427 0.887686
Si Si3 0.539579 0.923453 0.755888
Si Si4 0.841593 0.071560 0.889951
Si Si5 0.420314 0.192646 0.611732
Si Si6 0.212818 0.067981 0.204207
Si Si7 0.172818 0.202478 0.391554
Si Si8 0.626764 0.145666 0.887298
O O1 0.845394 0.966981 0.500000
O O2 0.810099 0.968640 0.308074
O O3 0.908425 0.865668 0.382107
O O4 0.000000 0.000000 0.378559
O O5 0.850555 0.857382 0.821525
O O6 0.043321 0.899996 0.850374
O O7 0.012526 0.764348 0.864827
O O8 0.928042 0.845829 0.000000
O O9 0.520994 0.871492 0.666581
O O10 0.659482 0.921203 0.800983
O O11 0.469258 0.900794 0.845731
O O12 0.500000 0.000000 0.719501
O O13 0.740854 0.115378 0.845474
O O14 0.829030 0.987636 0.874276
O O15 0.843460 0.089803 0.000000
O O16 0.423510 0.176019 0.500000
O O17 0.294828 0.192016 0.652272
O O18 0.198345 0.221223 0.500000
O O19 0.114612 0.272726 0.349759
O O20 0.619147 0.137600 0.000000
#
# Coordination Sequence:
#
# PCOD8236785 Si02
#       8
#     8   8   8   8   8   8   8   8
#     4  10  21  37  60  89 121 161 208 253 303 358
#     4  10  21  38  64  94 119 150 196 254 321 370
#     4  12  26  40  57  86 120 166 211 239 296 372
#     4  10  19  36  62  90 122 155 195 249 310 376
#     4  10  21  40  65  88 115 155 203 254 307 365
#     4  12  23  37  58  92 126 159 198 256 306 360
#     4   9  17  36  63  87 114 154 202 249 305 362
#     4  10  21  38  62  88 120 162 202 246 301 376
#
# _framework density 19.835750000000001
#
# number of rings (size 3 to 8) (size 9 to 14) (size 15 to 20)
#    0.000    1.625    3.750    1.500    1.750    2.500 
#    0.000    0.000    0.000    0.000    0.000    0.000 
#    0.000    0.000    0.000    0.000    0.000    0.000 
#
# Total GULP energy -793053.666781 kJ/mol
# GULP energy per Si atom -12391.463543 kJ/mol
# Density = 1.979060 g / cm^3
# Si number density = 19.835750 Si / 1000 Ang^3
#
#
#
# Elastic Constant Matrix: (Units=GPa)
#
#
# Indices 1 2 3 4 5 6 
#
# 1 108.2558 40.9809 32.6405 0.0000 0.0000 0.0000
# 2 40.9809 124.3064 21.4330 0.0000 0.0000 0.0000
# 3 32.6405 21.4330 53.4445 0.0000 0.0000 0.0000
# 4 0.0000 0.0000 0.0000 29.3062 0.0000 0.0000
# 5 0.0000 0.0000 0.0000 0.0000 19.4353 0.0000
# 6 0.0000 0.0000 0.0000 0.0000 0.0000 36.1344
#
#
#
# Elastic Compliance Matrix: (Units=1/GPa)
#
#
# Indices 1 2 3 4 5 6 
#
# 1 0.012255 -0.002954 -0.006300 0.000000 0.000000 0.000000
# 2 -0.002954 0.009354 -0.001947 0.000000 0.000000 0.000000
# 3 -0.006300 -0.001947 0.023340 0.000000 0.000000 0.000000
# 4 0.000000 0.000000 0.000000 0.034122 0.000000 0.000000
# 5 0.000000 0.000000 0.000000 0.000000 0.051453 0.000000
# 6 0.000000 0.000000 0.000000 0.000000 0.000000 0.027674
#
#
# Mechanical properties :
#
#
# Convention : Reuss Voigt Hill
#
# Bulk Modulus (GPa) = 44.35292 52.90173 48.62732
# Shear Modulus (GPa) = 26.57924 29.70533 28.14228
#
# Velocity S-wave (km/s) = 3.66453 3.87404 3.77074
# Velocity P-wave (km/s) = 6.34930 6.83657 6.59744
#
# Compressibility (1/GPa) = 0.02254643
#
# Stress axis : x y z
#
# Youngs Moduli (GPa) = 81.59826 106.90330 42.84572
#
# Poissons Ratio (x) = 0.31579 0.26993
# Poissons Ratio (y) = 0.24104 0.08343
# Poissons Ratio (z) = 0.51407 0.20817
#
# Static dielectric constant tensor:
#      x y z
#    x 3.566370 0.000000 0.000000 
#    y 0.000000 3.762450 0.000000 
#    z 0.000000 0.000000 3.563730 
# 
# 
# High freq. dielectric constant tensor:
#      x y z
#    x 1.760250 0.000000 0.000000 
#    y 0.000000 1.782170 0.000000 
#    z 0.000000 0.000000 1.766680 
# 
# From -- ./inp_files/21525.got.cif
#   From: 2010.06.25/outbox.cif.g09.slc.cpg/sg58_11_cif.got.tgz:21525.got - 2010.06.26 21:38:00.
