data_PCOD8236062
_publ_section_title
;
Structure prediction by ZEFSAII (Michael W. Deem and Ramdas Pophale) SiO2 
 PCOD8236062
Probable space group: P N N M
;
_chemical_formula_sum "Si O2"
_cell_formula_units_Z 64
_cell_length_a 13.051719
_cell_length_b 27.196150
_cell_length_c 9.809432
_cell_angle_alpha 90.000000
_cell_angle_beta 90.000000
_cell_angle_gamma 90.000000
_cell_volume 3481.921725
_symmetry_space_group_name_H-M "P N N M"
_symmetry_group_IT_number 58
_symmetry_cell_setting 'orthorhombic'
loop_
_space_group_symop_operation_xyz
x,y,z
-x,-y,z
1/2+x,1/2-y,1/2-z
1/2-x,1/2+y,1/2-z
-x,-y,-z
x,y,-z
1/2-x,1/2+y,1/2+z
1/2+x,1/2-y,1/2+z
loop_
_atom_site_type_symbol
_atom_site_label
_atom_site_fract_x
_atom_site_fract_y
_atom_site_fract_z
Si Si1 0.701275 0.799385 0.343156
Si Si2 0.469575 0.553950 0.162862
Si Si3 0.964697 0.447430 0.162304
Si Si4 0.362407 0.370123 0.840041
Si Si5 0.085450 0.763373 0.652404
Si Si6 0.748203 0.408333 0.839047
Si Si7 0.368528 0.868569 0.659930
Si Si8 0.625860 0.222630 0.149893
O O1 0.664196 0.802693 0.500000
O O2 0.608722 0.784734 0.244280
O O3 0.749582 0.851091 0.297678
O O4 0.776184 0.754497 0.314758
O O5 0.500000 0.500000 0.216291
O O6 0.554909 0.591774 0.222067
O O7 0.356299 0.567747 0.220264
O O8 0.469479 0.555316 0.000000
O O9 0.851099 0.434522 0.219295
O O10 0.000000 0.500000 0.220841
O O11 0.048573 0.407948 0.212235
O O12 0.962345 0.448300 0.000000
O O13 0.378789 0.315128 0.780338
O O14 0.246648 0.388099 0.807638
O O15 0.382676 0.366907 0.000000
O O16 0.132850 0.757224 0.500000
O O17 0.963217 0.763276 0.646121
O O18 0.747081 0.414741 0.000000
O O19 0.381091 0.858140 0.500000
O O20 0.390510 0.818172 0.736513
O O21 0.636212 0.197675 0.000000
#
# Coordination Sequence:
#
# PCOD8236062 Si02
#       8
#     8   8   8   8   8   8   8   8
#     4  10  19  32  49  71 100 133 166 200 245 295
#     4   9  17  27  44  68  96 130 164 200 248 301
#     4   9  18  29  45  69  98 130 161 200 251 299
#     4   9  17  29  45  68  97 128 162 201 246 292
#     4  10  19  32  49  71 101 135 166 203 246 290
#     4   9  17  29  43  64  97 131 162 199 244 297
#     4  10  19  32  51  74 102 132 164 204 250 299
#     4  10  20  32  49  72 101 134 168 205 245 290
#
# _framework density 18.380654
#
# number of rings (size 3 to 8) (size 9 to 14) (size 15 to 20)
#    0.000    2.500    1.250    1.500    1.750    4.500 
#    0.000    0.000    0.000    0.375    0.000    0.000 
#    0.000    2.500    0.000    0.000    0.000    0.000 
#
# Total GULP energy -793220.649245 kJ/mol
# GULP energy per Si atom -12394.072644 kJ/mol
# Density = 1.833882 g / cm^3
# Si number density = 18.380654 Si / 1000 Ang^3
#
#
#
# Elastic Constant Matrix: (Units=GPa)
#
#
# Indices 1 2 3 4 5 6 
#
# 1 133.6625 62.9305 17.3173 0.0000 0.0000 0.0000
# 2 62.9305 127.9660 29.8353 0.0000 0.0000 0.0000
# 3 17.3173 29.8353 26.2678 0.0000 0.0000 0.0000
# 4 0.0000 0.0000 0.0000 17.5206 0.0000 0.0000
# 5 0.0000 0.0000 0.0000 0.0000 12.6315 0.0000
# 6 0.0000 0.0000 0.0000 0.0000 0.0000 32.5041
#
#
#
# Elastic Compliance Matrix: (Units=1/GPa)
#
#
# Indices 1 2 3 4 5 6 
#
# 1 0.009770 -0.004493 -0.001338 0.000000 0.000000 0.000000
# 2 -0.004493 0.012695 -0.011458 0.000000 0.000000 0.000000
# 3 -0.001338 -0.011458 0.051965 0.000000 0.000000 0.000000
# 4 0.000000 0.000000 0.000000 0.057076 0.000000 0.000000
# 5 0.000000 0.000000 0.000000 0.000000 0.079167 0.000000
# 6 0.000000 0.000000 0.000000 0.000000 0.000000 0.030765
#
#
# Mechanical properties :
#
#
# Convention : Reuss Voigt Hill
#
# Bulk Modulus (GPa) = 25.09178 56.45142 40.77160
# Shear Modulus (GPa) = 17.28307 24.38546 20.83427
#
# Velocity S-wave (km/s) = 3.06974 3.64633 3.37039
# Velocity P-wave (km/s) = 5.12301 6.96468 6.11359
#
# Compressibility (1/GPa) = 0.03985368
#
# Stress axis : x y z
#
# Youngs Moduli (GPa) = 102.35256 78.76902 19.24361
#
# Poissons Ratio (x) = 0.35389 0.02575
# Poissons Ratio (y) = 0.45984 0.22049
# Poissons Ratio (z) = 0.13697 0.90251
#
# Static dielectric constant tensor:
#      x y z
#    x 3.653460 0.000000 0.000000 
#    y 0.000000 3.446500 0.000000 
#    z 0.000000 0.000000 2.845340 
# 
# 
# High freq. dielectric constant tensor:
#      x y z
#    x 1.732470 0.000000 0.000000 
#    y 0.000000 1.714900 0.000000 
#    z 0.000000 0.000000 1.642680 
# 
# From -- ./inp_files/14828.got.cif
#   From: 2010.06.25/outbox.cif.g09.slc.cpg/sg58_8_cif.got.tgz:14828.got - 2010.06.26 21:38:00.
