data_PCOD8236584
_publ_section_title
;
Structure prediction by ZEFSAII (Michael W. Deem and Ramdas Pophale) SiO2 
 PCOD8236584
Probable space group: P N N M
;
_chemical_formula_sum "Si O2"
_cell_formula_units_Z 56
_cell_length_a 14.510533
_cell_length_b 21.858125
_cell_length_c 9.193023
_cell_angle_alpha 90.000000
_cell_angle_beta 90.000000
_cell_angle_gamma 90.000000
_cell_volume 2915.779090
_symmetry_space_group_name_H-M "P N N M"
_symmetry_group_IT_number 58
_symmetry_cell_setting 'orthorhombic'
loop_
_space_group_symop_operation_xyz
x,y,z
-x,-y,z
1/2+x,1/2-y,1/2-z
1/2-x,1/2+y,1/2-z
-x,-y,-z
x,y,-z
1/2-x,1/2+y,1/2+z
1/2+x,1/2-y,1/2+z
loop_
_atom_site_type_symbol
_atom_site_label
_atom_site_fract_x
_atom_site_fract_y
_atom_site_fract_z
Si Si1 0.793029 0.583099 0.334412
Si Si2 0.602483 0.840249 0.672240
Si Si3 0.915450 0.921673 0.672428
Si Si4 0.078304 0.307676 0.328122
Si Si5 0.118758 0.943066 0.671229
Si Si6 0.304553 0.692775 0.828072
Si Si7 0.907656 0.465947 0.333098
O O1 0.768900 0.598703 0.500000
O O2 0.874183 0.628439 0.282998
O O3 0.701044 0.595181 0.243009
O O4 0.824007 0.513166 0.314537
O O5 0.587581 0.841446 0.500000
O O6 0.519505 0.803537 0.747379
O O7 0.697183 0.805771 0.716246
O O8 0.610117 0.909496 0.727915
O O9 0.907269 0.923030 0.500000
O O10 0.854190 0.867191 0.740405
O O11 0.022349 0.911398 0.715717
O O12 0.880414 0.987152 0.731246
O O13 0.060370 0.303429 0.500000
O O14 0.143920 0.253233 0.270770
O O15 0.133437 0.941871 0.500000
O O16 0.314168 0.689294 0.000000
O O17 0.917177 0.442958 0.500000
O O18 0.000000 0.500000 0.284163
#
# Coordination Sequence:
#
# PCOD8236584 Si02
#       7
#     8   8   8   8   8   8   8
#     4  10  20  33  51  76 106 139 178 217 260 320
#     4  11  22  36  57  87 112 134 179 239 281 311
#     4   8  15  31  52  77 104 135 173 214 261 321
#     4  10  21  39  56  72 104 151 184 210 262 332
#     4   9  17  30  53  79 106 134 167 216 270 314
#     4   9  19  35  56  77 104 144 186 220 264 326
#     4  10  19  35  56  78 108 147 183 214 266 341
#
# _framework density 19.205846000000001
#
# number of rings (size 3 to 8) (size 9 to 14) (size 15 to 20)
#    0.000    2.429    1.429    2.143    0.000    3.714 
#    0.000    2.857    0.000    2.571    0.000    0.000 
#    0.000    0.000    0.000    0.000    0.000    0.000 
#
# Total GULP energy -694342.139376 kJ/mol
# GULP energy per Si atom -12398.966775 kJ/mol
# Density = 1.916213 g / cm^3
# Si number density = 19.205846 Si / 1000 Ang^3
#
#
#
# Elastic Constant Matrix: (Units=GPa)
#
#
# Indices 1 2 3 4 5 6 
#
# 1 160.8225 58.4859 50.3294 0.0000 0.0000 0.0000
# 2 58.4859 91.9496 30.0260 0.0000 0.0000 0.0000
# 3 50.3294 30.0260 46.5475 0.0000 0.0000 0.0000
# 4 0.0000 0.0000 0.0000 17.3137 0.0000 0.0000
# 5 0.0000 0.0000 0.0000 0.0000 29.9507 0.0000
# 6 0.0000 0.0000 0.0000 0.0000 0.0000 31.1018
#
#
#
# Elastic Compliance Matrix: (Units=1/GPa)
#
#
# Indices 1 2 3 4 5 6 
#
# 1 0.010301 -0.003693 -0.008756 0.000000 0.000000 0.000000
# 2 -0.003693 0.015102 -0.005748 0.000000 0.000000 0.000000
# 3 -0.008756 -0.005748 0.034659 0.000000 0.000000 0.000000
# 4 0.000000 0.000000 0.000000 0.057758 0.000000 0.000000
# 5 0.000000 0.000000 0.000000 0.000000 0.033388 0.000000
# 6 0.000000 0.000000 0.000000 0.000000 0.000000 0.032153
#
#
# Mechanical properties :
#
#
# Convention : Reuss Voigt Hill
#
# Bulk Modulus (GPa) = 42.25297 64.11137 53.18217
# Shear Modulus (GPa) = 21.96409 26.37177 24.16793
#
# Velocity S-wave (km/s) = 3.38541 3.70957 3.55119
# Velocity P-wave (km/s) = 6.10976 7.19733 6.67573
#
# Compressibility (1/GPa) = 0.02366697
#
# Stress axis : x y z
#
# Youngs Moduli (GPa) = 97.07548 66.21792 28.85258
#
# Poissons Ratio (x) = 0.24454 0.25263
# Poissons Ratio (y) = 0.35850 0.16586
# Poissons Ratio (z) = 0.84999 0.38065
#
# Static dielectric constant tensor:
#      x y z
#    x 3.680010 0.000000 0.000000 
#    y 0.000000 3.625830 0.000000 
#    z 0.000000 0.000000 3.110270 
# 
# 
# High freq. dielectric constant tensor:
#      x y z
#    x 1.762750 0.000000 0.000000 
#    y 0.000000 1.740230 0.000000 
#    z 0.000000 0.000000 1.707390 
# 
# From -- ./inp_files/6237.got.cif
#   From: 2010.06.25/outbox.cif.g09.slc.cpg/sg58_4_cif.got.tgz:6237.got - 2010.06.26 21:38:00.
