data_PCOD8236839
_publ_section_title
;
Structure prediction by ZEFSAII (Michael W. Deem and Ramdas Pophale) SiO2 
 PCOD8236839
Probable space group: P N N M
;
_chemical_formula_sum "Si O2"
_cell_formula_units_Z 28
_cell_length_a 12.366173
_cell_length_b 7.134880
_cell_length_c 14.255778
_cell_angle_alpha 90.000000
_cell_angle_beta 90.000000
_cell_angle_gamma 90.000000
_cell_volume 1257.803836
_symmetry_space_group_name_H-M "P N N M"
_symmetry_group_IT_number 58
_symmetry_cell_setting 'orthorhombic'
loop_
_space_group_symop_operation_xyz
x,y,z
-x,-y,z
1/2+x,1/2-y,1/2-z
1/2-x,1/2+y,1/2-z
-x,-y,-z
x,y,-z
1/2-x,1/2+y,1/2+z
1/2+x,1/2-y,1/2+z
loop_
_atom_site_type_symbol
_atom_site_label
_atom_site_fract_x
_atom_site_fract_y
_atom_site_fract_z
Si Si1 0.176950 0.566473 0.348976
Si Si2 0.000000 0.500000 0.800281
Si Si3 0.595963 0.360723 0.609121
Si Si4 0.131704 0.851897 0.500000
Si Si5 0.384130 0.763116 0.000000
O O1 0.098135 0.585558 0.260884
O O2 0.305297 0.560374 0.325454
O O3 0.175713 0.759470 0.406085
O O4 0.140131 0.384141 0.407829
O O5 0.945254 0.655106 0.865096
O O6 0.500000 0.500000 0.629775
O O7 0.632297 0.364900 0.500000
O O8 0.994893 0.189746 0.500000
O O9 0.178442 0.064869 0.500000
#
# Coordination Sequence:
#
# PCOD8236839 Si02
#       5
#     8   4   8   4   4
#     4  11  22  45  66 105 141 176 235 297 334 422
#     4  12  27  43  72 106 144 178 242 297 343 408
#     4  11  27  49  69  97 143 193 232 277 357 428
#     4  10  19  37  70 102 138 182 226 275 364 404
#     4  10  19  37  68 101 142 183 225 284 350 417
#
# _framework density 22.261023999999999
#
# number of rings (size 3 to 8) (size 9 to 14) (size 15 to 20)
#    0.000    1.143    5.714    1.286    4.000    4.571 
#    0.000    0.000    0.000    0.000    0.000    0.000 
#    0.000    0.000    0.000    0.000    0.000    0.000 
#
# Total GULP energy -347042.178126 kJ/mol
# GULP energy per Si atom -12394.363505 kJ/mol
# Density = 2.221036 g / cm^3
# Si number density = 22.261024 Si / 1000 Ang^3
#
#
#
# Elastic Constant Matrix: (Units=GPa)
#
#
# Indices 1 2 3 4 5 6 
#
# 1 142.1103 7.0638 24.0737 0.0000 0.0000 0.0000
# 2 7.0638 108.3461 0.6968 0.0000 0.0000 0.0000
# 3 24.0737 0.6968 23.2933 0.0000 0.0000 0.0000
# 4 0.0000 0.0000 0.0000 13.3880 0.0000 0.0000
# 5 0.0000 0.0000 0.0000 0.0000 7.3821 0.0000
# 6 0.0000 0.0000 0.0000 0.0000 0.0000 24.4051
#
#
#
# Elastic Compliance Matrix: (Units=1/GPa)
#
#
# Indices 1 2 3 4 5 6 
#
# 1 0.008557 -0.000501 -0.008829 0.000000 0.000000 0.000000
# 2 -0.000501 0.009261 0.000241 0.000000 0.000000 0.000000
# 3 -0.008829 0.000241 0.052049 0.000000 0.000000 0.000000
# 4 0.000000 0.000000 0.000000 0.074694 0.000000 0.000000
# 5 0.000000 0.000000 0.000000 0.000000 0.135463 0.000000
# 6 0.000000 0.000000 0.000000 0.000000 0.000000 0.040975
#
#
# Mechanical properties :
#
#
# Convention : Reuss Voigt Hill
#
# Bulk Modulus (GPa) = 19.34682 37.49093 28.41888
# Shear Modulus (GPa) = 14.02891 25.16272 19.59582
#
# Velocity S-wave (km/s) = 2.51310 3.36571 2.97016
# Velocity P-wave (km/s) = 4.13892 5.65527 4.95544
#
# Compressibility (1/GPa) = 0.05168807
#
# Stress axis : x y z
#
# Youngs Moduli (GPa) = 116.85850 107.98202 19.21282
#
# Poissons Ratio (x) = 0.05411 0.16963
# Poissons Ratio (y) = 0.05856 -0.00463
# Poissons Ratio (z) = 1.03175 -0.02601
#
# Static dielectric constant tensor:
#      x y z
#    x 4.507760 0.000000 0.000000 
#    y 0.000000 4.450630 0.000000 
#    z 0.000000 0.000000 3.769710 
# 
# 
# High freq. dielectric constant tensor:
#      x y z
#    x 1.900910 0.000000 0.000000 
#    y 0.000000 1.883340 0.000000 
#    z 0.000000 0.000000 1.850360 
# 
# From -- ./inp_files/21707.got.cif
#   From: 2010.06.25/outbox.cif.g09.slc.cpg/sg58_11_cif.got.tgz:21707.got - 2010.06.26 21:38:00.
