data_PCOD8236398
_publ_section_title
;
Structure prediction by ZEFSAII (Michael W. Deem and Ramdas Pophale) SiO2 
 PCOD8236398
Probable space group: P N N M
;
_chemical_formula_sum "Si O2"
_cell_formula_units_Z 64
_cell_length_a 23.643761
_cell_length_b 15.156616
_cell_length_c 9.503591
_cell_angle_alpha 90.000000
_cell_angle_beta 90.000000
_cell_angle_gamma 90.000000
_cell_volume 3405.701228
_symmetry_space_group_name_H-M "P N N M"
_symmetry_group_IT_number 58
_symmetry_cell_setting 'orthorhombic'
loop_
_space_group_symop_operation_xyz
x,y,z
-x,-y,z
1/2+x,1/2-y,1/2-z
1/2-x,1/2+y,1/2-z
-x,-y,-z
x,y,-z
1/2-x,1/2+y,1/2+z
1/2+x,1/2-y,1/2+z
loop_
_atom_site_type_symbol
_atom_site_label
_atom_site_fract_x
_atom_site_fract_y
_atom_site_fract_z
Si Si1 0.539341 0.422372 0.332746
Si Si2 0.017350 0.747006 0.837724
Si Si3 0.169961 0.080636 0.832317
Si Si4 0.973269 0.591321 0.656945
Si Si5 0.750376 0.576387 0.666423
Si Si6 0.254635 0.722257 0.167413
Si Si7 0.630000 0.836857 0.339531
Si Si8 0.864036 0.496741 0.342360
O O1 0.500000 0.500000 0.270421
O O2 0.538072 0.426274 0.500000
O O3 0.508808 0.335363 0.272862
O O4 0.604631 0.425515 0.282592
O O5 0.085542 0.743568 0.816588
O O6 0.987222 0.666332 0.764876
O O7 0.001006 0.740750 0.000000
O O8 0.199940 0.162353 0.751165
O O9 0.197032 0.985206 0.790235
O O10 0.175591 0.097511 0.000000
O O11 0.995513 0.614870 0.500000
O O12 0.905512 0.580511 0.656535
O O13 0.000000 0.500000 0.708251
O O14 0.753422 0.584267 0.500000
O O15 0.752179 0.676610 0.724223
O O16 0.805245 0.526727 0.727281
O O17 0.192448 0.688959 0.206829
O O18 0.267120 0.716480 0.000000
O O19 0.628828 0.868074 0.500000
O O20 0.608379 0.917862 0.246091
O O21 0.853949 0.461180 0.500000
#
# Coordination Sequence:
#
# PCOD8236398 Si02
#       8
#     8   8   8   8   8   8   8   8
#     4   9  20  37  58  83 110 142 184 232 273 313
#     4  10  21  35  53  79 109 142 179 221 270 319
#     4  10  20  37  60  84 109 141 184 229 270 318
#     4  10  20  33  51  76 107 143 179 214 260 319
#     4   9  19  34  55  78 103 141 180 215 266 326
#     4  10  21  36  55  81 110 141 177 221 274 327
#     4  10  20  33  52  78 108 139 175 221 271 320
#     4  10  19  34  53  75 106 142 179 216 260 319
#
# _framework density 18.792017999999999
#
# number of rings (size 3 to 8) (size 9 to 14) (size 15 to 20)
#    0.000    2.250    2.500    0.000    3.500    0.750 
#    0.000    1.250    0.000    1.500    0.000    0.000 
#    0.000    0.000    0.000    0.000    0.000    0.000 
#
# Total GULP energy -793195.165068 kJ/mol
# GULP energy per Si atom -12393.674454 kJ/mol
# Density = 1.874925 g / cm^3
# Si number density = 18.792018 Si / 1000 Ang^3
#
#
#
# Elastic Constant Matrix: (Units=GPa)
#
#
# Indices 1 2 3 4 5 6 
#
# 1 144.6405 68.4709 33.6471 0.0000 0.0000 0.0000
# 2 68.4709 142.6387 40.3468 0.0000 0.0000 0.0000
# 3 33.6471 40.3468 36.5973 0.0000 0.0000 0.0000
# 4 0.0000 0.0000 0.0000 -8.4739 0.0000 0.0000
# 5 0.0000 0.0000 0.0000 0.0000 22.6778 0.0000
# 6 0.0000 0.0000 0.0000 0.0000 0.0000 29.8543
#
#
#
# Elastic Compliance Matrix: (Units=1/GPa)
#
#
# Indices 1 2 3 4 5 6 
#
# 1 0.009645 -0.003083 -0.005469 0.000000 0.000000 0.000000
# 2 -0.003083 0.011173 -0.009483 0.000000 0.000000 0.000000
# 3 -0.005469 -0.009483 0.042807 0.000000 0.000000 0.000000
# 4 0.000000 0.000000 0.000000 -0.118010 0.000000 0.000000
# 5 0.000000 0.000000 0.000000 0.000000 0.044096 0.000000
# 6 0.000000 0.000000 0.000000 0.000000 0.000000 0.033496
#
#
# Mechanical properties :
#
#
# Convention : Reuss Voigt Hill
#
# Bulk Modulus (GPa) = 36.29065 67.64511 51.96788
# Shear Modulus (GPa) = 73.03117 20.90575 46.96846
#
# Velocity S-wave (km/s) = 6.24077 3.33901 5.00481
# Velocity P-wave (km/s) = 8.44294 7.13724 7.81740
#
# Compressibility (1/GPa) = 0.02755531
#
# Stress axis : x y z
#
# Youngs Moduli (GPa) = 103.67612 89.50007 23.36054
#
# Poissons Ratio (x) = 0.27595 0.12775
# Poissons Ratio (y) = 0.31965 0.22153
# Poissons Ratio (z) = 0.56699 0.84875
#
# Static dielectric constant tensor:
#      x y z
#    x 3.747530 0.000000 0.000000 
#    y 0.000000 3.573280 0.000000 
#    z 0.000000 0.000000 3.125950 
# 
# 
# High freq. dielectric constant tensor:
#      x y z
#    x 1.747550 0.000000 0.000000 
#    y 0.000000 1.727890 0.000000 
#    z 0.000000 0.000000 1.692500 
# 
# From -- ./inp_files/6927.got.cif
#   From: 2010.06.25/outbox.cif.g09.slc.cpg/sg58_4_cif.got.tgz:6927.got - 2010.06.26 21:38:00.
