data_PCOD8236792
_publ_section_title
;
Structure prediction by ZEFSAII (Michael W. Deem and Ramdas Pophale) SiO2 
 PCOD8236792
Probable space group: P N N M
;
_chemical_formula_sum "Si O2"
_cell_formula_units_Z 52
_cell_length_a 4.930897
_cell_length_b 30.823054
_cell_length_c 16.327988
_cell_angle_alpha 90.000000
_cell_angle_beta 90.000000
_cell_angle_gamma 90.000000
_cell_volume 2481.614228
_symmetry_space_group_name_H-M "P N N M"
_symmetry_group_IT_number 58
_symmetry_cell_setting 'orthorhombic'
loop_
_space_group_symop_operation_xyz
x,y,z
-x,-y,z
1/2+x,1/2-y,1/2-z
1/2-x,1/2+y,1/2-z
-x,-y,-z
x,y,-z
1/2-x,1/2+y,1/2+z
1/2+x,1/2-y,1/2+z
loop_
_atom_site_type_symbol
_atom_site_label
_atom_site_fract_x
_atom_site_fract_y
_atom_site_fract_z
Si Si1 0.570576 0.866682 0.327670
Si Si2 0.972867 0.278504 0.742296
Si Si3 0.917985 0.109968 0.090344
Si Si4 0.445067 0.415432 0.763581
Si Si5 0.580645 0.831350 0.089244
Si Si6 0.249178 0.103672 0.500000
Si Si7 0.767563 0.544661 0.000000
Si Si8 0.000000 0.000000 0.359567
O O1 0.484303 0.817693 0.306613
O O2 0.818574 0.879517 0.268288
O O3 0.681145 0.867876 0.420452
O O4 0.317984 0.899334 0.314137
O O5 0.260822 0.256433 0.724041
O O6 0.852993 0.295423 0.656422
O O7 0.876253 0.076970 0.166956
O O8 0.222332 0.127451 0.092957
O O9 0.720582 0.150631 0.105208
O O10 0.861219 0.088433 0.000000
O O11 0.571350 0.459251 0.801768
O O12 0.600179 0.808949 0.000000
O O13 0.426520 0.060448 0.500000
O O14 0.940383 0.085980 0.500000
O O15 0.742704 0.514681 0.919315
#
# Coordination Sequence:
#
# PCOD8236792 Si02
#       8
#     8   8   8   8   8   4   4   4
#     4  12  24  42  64  86 125 166 203 254 312 367
#     4  12  24  41  63  89 123 158 198 252 314 380
#     4  10  19  36  64  87 114 154 202 254 301 359
#     4  12  22  40  62  91 124 163 213 250 306 371
#     4  10  20  38  63  88 112 150 205 252 298 359
#     4  12  22  45  62  92 126 174 208 260 308 377
#     4  11  24  38  62  92 132 160 228 258 302 350
#     4  11  24  38  61  96 126 174 209 268 298 365
#
# _framework density 20.954103
#
# number of rings (size 3 to 8) (size 9 to 14) (size 15 to 20)
#    0.000    0.769    6.154    1.846    0.000    3.077 
#    2.769    0.385    0.000    0.000    0.000    5.385 
#    0.000    0.000    0.000    0.000    0.000    0.000 
#
# Total GULP energy -644662.297138 kJ/mol
# GULP energy per Si atom -12397.351868 kJ/mol
# Density = 2.090641 g / cm^3
# Si number density = 20.954103 Si / 1000 Ang^3
#
#
#
# Elastic Constant Matrix: (Units=GPa)
#
#
# Indices 1 2 3 4 5 6 
#
# 1 74.7339 13.6127 6.0873 0.0000 0.0000 0.0000
# 2 13.6127 90.5456 50.8360 0.0000 0.0000 0.0000
# 3 6.0873 50.8360 147.8692 0.0000 0.0000 0.0000
# 4 0.0000 0.0000 0.0000 36.5525 0.0000 0.0000
# 5 0.0000 0.0000 0.0000 0.0000 21.5349 0.0000
# 6 0.0000 0.0000 0.0000 0.0000 0.0000 25.2137
#
#
#
# Elastic Compliance Matrix: (Units=1/GPa)
#
#
# Indices 1 2 3 4 5 6 
#
# 1 0.013761 -0.002170 0.000179 0.000000 0.000000 0.000000
# 2 -0.002170 0.014028 -0.004733 0.000000 0.000000 0.000000
# 3 0.000179 -0.004733 0.008383 0.000000 0.000000 0.000000
# 4 0.000000 0.000000 0.000000 0.027358 0.000000 0.000000
# 5 0.000000 0.000000 0.000000 0.000000 0.046436 0.000000
# 6 0.000000 0.000000 0.000000 0.000000 0.000000 0.039661
#
#
# Mechanical properties :
#
#
# Convention : Reuss Voigt Hill
#
# Bulk Modulus (GPa) = 44.00492 50.46896 47.23694
# Shear Modulus (GPa) = 29.29991 32.83439 31.06715
#
# Velocity S-wave (km/s) = 3.74343 3.96279 3.85467
# Velocity P-wave (km/s) = 6.30322 6.71387 6.51178
#
# Compressibility (1/GPa) = 0.02272473
#
# Stress axis : x y z
#
# Youngs Moduli (GPa) = 72.66712 71.28690 119.29448
#
# Poissons Ratio (x) = 0.15466 -0.02140
# Poissons Ratio (y) = 0.15766 0.56466
# Poissons Ratio (z) = -0.01303 0.33742
#
# Static dielectric constant tensor:
#      x y z
#    x 3.780660 0.000000 0.000000 
#    y 0.000000 3.389900 0.000000 
#    z 0.000000 0.000000 4.145610 
# 
# 
# High freq. dielectric constant tensor:
#      x y z
#    x 1.833170 0.000000 0.000000 
#    y 0.000000 1.778140 0.000000 
#    z 0.000000 0.000000 1.839580 
# 
# From -- ./inp_files/24414.got.cif
#   From: 2010.06.25/outbox.cif.g09.slc.cpg/sg58_13_cif.got.tgz:24414.got - 2010.06.26 21:38:00.
