data_PCOD8236099
_publ_section_title
;
Structure prediction by ZEFSAII (Michael W. Deem and Ramdas Pophale) SiO2 
 PCOD8236099
Probable space group: P N N M
;
_chemical_formula_sum "Si O2"
_cell_formula_units_Z 40
_cell_length_a 16.508319
_cell_length_b 16.712586
_cell_length_c 8.573858
_cell_angle_alpha 90.000000
_cell_angle_beta 90.000000
_cell_angle_gamma 90.000000
_cell_volume 2365.499137
_symmetry_space_group_name_H-M "P N N M"
_symmetry_group_IT_number 58
_symmetry_cell_setting 'orthorhombic'
loop_
_space_group_symop_operation_xyz
x,y,z
-x,-y,z
1/2+x,1/2-y,1/2-z
1/2-x,1/2+y,1/2-z
-x,-y,-z
x,y,-z
1/2-x,1/2+y,1/2+z
1/2+x,1/2-y,1/2+z
loop_
_atom_site_type_symbol
_atom_site_label
_atom_site_fract_x
_atom_site_fract_y
_atom_site_fract_z
Si Si1 0.400270 0.273299 0.180133
Si Si2 0.950090 0.073595 0.822996
Si Si3 0.458486 0.111464 0.681559
Si Si4 0.615230 0.041967 0.183984
Si Si5 0.720849 0.619758 0.323405
O O1 0.464138 0.344271 0.225224
O O2 0.419229 0.196314 0.282657
O O3 0.308840 0.303221 0.222644
O O4 0.407299 0.251181 0.000000
O O5 0.853140 0.054801 0.820865
O O6 0.980675 0.087687 0.000000
O O7 0.000000 0.000000 0.747027
O O8 0.478327 0.103995 0.500000
O O9 0.541649 0.101605 0.777553
O O10 0.395620 0.042433 0.730014
O O11 0.698367 0.080962 0.247891
O O12 0.619600 0.026453 0.000000
O O13 0.737593 0.648701 0.500000
#
# Coordination Sequence:
#
# PCOD8236099 Si02
#       5
#     8   8   8   8   8
#     4  10  19  32  52  75 103 136 173 215 258 303
#     4   8  15  31  53  75 102 137 169 203 257 310
#     4  11  21  34  52  75 105 139 178 214 259 312
#     4  10  19  34  55  77 104 135 174 218 263 310
#     4   8  17  33  52  75 102 134 166 210 261 306
#
# _framework density 16.909749999999999
#
# number of rings (size 3 to 8) (size 9 to 14) (size 15 to 20)
#    1.200    1.400    0.000    4.800    0.000    2.000 
#    0.000    2.000    0.000    7.200    0.000    0.000 
#    0.000    0.000    0.000    0.000    0.000    0.000 
#
# Total GULP energy -495618.099500 kJ/mol
# GULP energy per Si atom -12390.452488 kJ/mol
# Density = 1.687126 g / cm^3
# Si number density = 16.909750 Si / 1000 Ang^3
#
#
#
# Elastic Constant Matrix: (Units=GPa)
#
#
# Indices 1 2 3 4 5 6 
#
# 1 79.7570 50.5163 8.5009 0.0000 0.0000 0.0000
# 2 50.5163 106.5002 19.2539 0.0000 0.0000 0.0000
# 3 8.5009 19.2539 59.0315 0.0000 0.0000 0.0000
# 4 0.0000 0.0000 0.0000 28.9806 0.0000 0.0000
# 5 0.0000 0.0000 0.0000 0.0000 21.3255 0.0000
# 6 0.0000 0.0000 0.0000 0.0000 0.0000 20.8528
#
#
#
# Elastic Compliance Matrix: (Units=1/GPa)
#
#
# Indices 1 2 3 4 5 6 
#
# 1 0.017925 -0.008539 0.000204 0.000000 0.000000 0.000000
# 2 -0.008539 0.014046 -0.003352 0.000000 0.000000 0.000000
# 3 0.000204 -0.003352 0.018004 0.000000 0.000000 0.000000
# 4 0.000000 0.000000 0.000000 0.034506 0.000000 0.000000
# 5 0.000000 0.000000 0.000000 0.000000 0.046892 0.000000
# 6 0.000000 0.000000 0.000000 0.000000 0.000000 0.047955
#
#
# Mechanical properties :
#
#
# Convention : Reuss Voigt Hill
#
# Bulk Modulus (GPa) = 37.59261 44.64787 41.12024
# Shear Modulus (GPa) = 23.63298 25.36629 24.49963
#
# Velocity S-wave (km/s) = 3.74250 3.87731 3.81050
# Velocity P-wave (km/s) = 6.39958 6.81951 6.61288
#
# Compressibility (1/GPa) = 0.02660098
#
# Stress axis : x y z
#
# Youngs Moduli (GPa) = 55.78836 71.19479 55.54352
#
# Poissons Ratio (x) = 0.60795 -0.01132
# Poissons Ratio (y) = 0.47639 0.18616
# Poissons Ratio (z) = -0.01137 0.23861
#
# Static dielectric constant tensor:
#      x y z
#    x 3.099080 0.000000 0.000000 
#    y 0.000000 3.015450 0.000000 
#    z 0.000000 0.000000 3.071670 
# 
# 
# High freq. dielectric constant tensor:
#      x y z
#    x 1.633450 0.000000 0.000000 
#    y 0.000000 1.638090 0.000000 
#    z 0.000000 0.000000 1.655440 
# 
# From -- ./inp_files/5552.got.cif
#   From: 2010.06.25/outbox.cif.g09.slc.cpg/sg58_3_cif.got.tgz:5552.got - 2010.06.26 21:38:00.
