data_PCOD8236008
_publ_section_title
;
Structure prediction by ZEFSAII (Michael W. Deem and Ramdas Pophale) SiO2 
 PCOD8236008
Probable space group: P N N M
;
_chemical_formula_sum "Si O2"
_cell_formula_units_Z 56
_cell_length_a 19.329735
_cell_length_b 19.135173
_cell_length_c 8.835587
_cell_angle_alpha 90.000000
_cell_angle_beta 90.000000
_cell_angle_gamma 90.000000
_cell_volume 3268.087687
_symmetry_space_group_name_H-M "P N N M"
_symmetry_group_IT_number 58
_symmetry_cell_setting 'orthorhombic'
loop_
_space_group_symop_operation_xyz
x,y,z
-x,-y,z
1/2+x,1/2-y,1/2-z
1/2-x,1/2+y,1/2-z
-x,-y,-z
x,y,-z
1/2-x,1/2+y,1/2+z
1/2+x,1/2-y,1/2+z
loop_
_atom_site_type_symbol
_atom_site_label
_atom_site_fract_x
_atom_site_fract_y
_atom_site_fract_z
Si Si1 0.947645 0.439210 0.177869
Si Si2 0.978183 0.291421 0.678371
Si Si3 0.235057 0.370268 0.321443
Si Si4 0.653910 0.736265 0.679032
Si Si5 0.694887 0.979652 0.175229
Si Si6 0.868743 0.747592 0.678217
Si Si7 0.260827 0.662827 0.674233
O O1 0.971817 0.368652 0.256897
O O2 0.871575 0.460148 0.228428
O O3 0.000000 0.500000 0.227194
O O4 0.948266 0.426304 0.000000
O O5 0.969653 0.296568 0.500000
O O6 0.920874 0.238893 0.743960
O O7 0.051735 0.259050 0.725539
O O8 0.234221 0.374102 0.500000
O O9 0.307598 0.335282 0.269440
O O10 0.226534 0.448422 0.256819
O O11 0.171482 0.321953 0.266069
O O12 0.644985 0.740808 0.500000
O O13 0.699140 0.802166 0.731261
O O14 0.753636 0.920568 0.192795
O O15 0.672583 0.987866 0.000000
O O16 0.859266 0.758357 0.500000
O O17 0.835621 0.814516 0.761977
O O18 0.253590 0.685590 0.500000
#
# Coordination Sequence:
#
# PCOD8236008 Si02
#       7
#     8   8   8   8   8   8   8
#     4  11  23  34  47  74 110 142 170 205 258 315
#     4  11  21  34  53  76 101 136 178 214 258 311
#     4   8  16  32  52  73  97 132 172 208 252 303
#     4  10  19  33  53  74 102 136 172 214 258 307
#     4  10  19  33  53  75 101 135 174 211 252 308
#     4   9  19  34  52  72  99 135 172 213 258 306
#     4  10  19  31  51  77 101 130 172 216 255 307
#
# _framework density 17.135401999999999
#
# number of rings (size 3 to 8) (size 9 to 14) (size 15 to 20)
#    0.000    2.143    1.429    3.429    0.000    4.000 
#    0.000    5.000    0.000    0.857    0.000    6.000 
#    0.000    0.000    0.000    0.000    0.000    0.000 
#
# Total GULP energy -694378.706374 kJ/mol
# GULP energy per Si atom -12399.619757 kJ/mol
# Density = 1.709640 g / cm^3
# Si number density = 17.135402 Si / 1000 Ang^3
#
#
#
# Elastic Constant Matrix: (Units=GPa)
#
#
# Indices 1 2 3 4 5 6 
#
# 1 142.8795 63.2994 50.9009 0.0000 0.0000 0.0000
# 2 63.2994 77.1628 38.7506 0.0000 0.0000 0.0000
# 3 50.9009 38.7506 58.3412 0.0000 0.0000 0.0000
# 4 0.0000 0.0000 0.0000 19.7460 0.0000 0.0000
# 5 0.0000 0.0000 0.0000 0.0000 27.5678 0.0000
# 6 0.0000 0.0000 0.0000 0.0000 0.0000 25.4821
#
#
#
# Elastic Compliance Matrix: (Units=1/GPa)
#
#
# Indices 1 2 3 4 5 6 
#
# 1 0.012261 -0.007032 -0.006027 0.000000 0.000000 0.000000
# 2 -0.007032 0.023478 -0.009460 0.000000 0.000000 0.000000
# 3 -0.006027 -0.009460 0.028682 0.000000 0.000000 0.000000
# 4 0.000000 0.000000 0.000000 0.050643 0.000000 0.000000
# 5 0.000000 0.000000 0.000000 0.000000 0.036274 0.000000
# 6 0.000000 0.000000 0.000000 0.000000 0.000000 0.039243
#
#
# Mechanical properties :
#
#
# Convention : Reuss Voigt Hill
#
# Bulk Modulus (GPa) = 51.58603 64.92056 58.25329
# Shear Modulus (GPa) = 20.65425 22.92137 21.78781
#
# Velocity S-wave (km/s) = 3.47559 3.66137 3.56969
# Velocity P-wave (km/s) = 6.80269 7.47283 7.14562
#
# Compressibility (1/GPa) = 0.01938509
#
# Stress axis : x y z
#
# Youngs Moduli (GPa) = 81.55786 42.59229 34.86482
#
# Poissons Ratio (x) = 0.29949 0.21014
# Poissons Ratio (y) = 0.57348 0.32981
# Poissons Ratio (z) = 0.49156 0.40291
#
# Static dielectric constant tensor:
#      x y z
#    x 3.302530 0.000000 0.000000 
#    y 0.000000 3.447230 0.000000 
#    z 0.000000 0.000000 3.175470 
# 
# 
# High freq. dielectric constant tensor:
#      x y z
#    x 1.655650 0.000000 0.000000 
#    y 0.000000 1.653170 0.000000 
#    z 0.000000 0.000000 1.659930 
# 
# From -- ./inp_files/8112.got.cif
#   From: 2010.06.25/outbox.cif.g09.slc.cpg/sg58_5_cif.got.tgz:8112.got - 2010.06.26 21:38:00.
