data_PCOD8236003
_publ_section_title
;
Structure prediction by ZEFSAII (Michael W. Deem and Ramdas Pophale) SiO2 
 PCOD8236003
Probable space group: P N N M
;
_chemical_formula_sum "Si O2"
_cell_formula_units_Z 48
_cell_length_a 8.928383
_cell_length_b 13.954168
_cell_length_c 18.364645
_cell_angle_alpha 90.000000
_cell_angle_beta 90.000000
_cell_angle_gamma 90.000000
_cell_volume 2288.017263
_symmetry_space_group_name_H-M "P N N M"
_symmetry_group_IT_number 58
_symmetry_cell_setting 'orthorhombic'
loop_
_space_group_symop_operation_xyz
x,y,z
-x,-y,z
1/2+x,1/2-y,1/2-z
1/2-x,1/2+y,1/2-z
-x,-y,-z
x,y,-z
1/2-x,1/2+y,1/2+z
1/2+x,1/2-y,1/2+z
loop_
_atom_site_type_symbol
_atom_site_label
_atom_site_fract_x
_atom_site_fract_y
_atom_site_fract_z
Si Si1 0.336497 0.131919 0.720699
Si Si2 0.803107 0.244669 0.583205
Si Si3 0.970374 0.315414 0.081933
Si Si4 0.659114 0.960719 0.864755
Si Si5 0.457347 0.737673 0.812335
Si Si6 0.752132 0.647155 0.582979
O O1 0.393522 0.109055 0.638366
O O2 0.342974 0.042324 0.775770
O O3 0.448562 0.216291 0.746669
O O4 0.163182 0.164677 0.719472
O O5 0.851245 0.234957 0.500000
O O6 0.644695 0.195523 0.597970
O O7 0.799031 0.356233 0.605867
O O8 0.922957 0.187101 0.633032
O O9 0.895629 0.210932 0.092801
O O10 0.941571 0.353833 0.000000
O O11 0.500000 0.000000 0.894337
O O12 0.782619 0.036704 0.894294
O O13 0.381511 0.820054 0.861444
O O14 0.810563 0.653630 0.500000
#
# Coordination Sequence:
#
# PCOD8236003 Si02
#       6
#     8   8   8   8   8   8
#     4  10  19  33  50  74 107 139 189 217 263 315
#     4  10  19  32  52  79 107 138 178 217 271 321
#     4   9  20  36  55  77 106 142 183 231 264 312
#     4  11  20  31  50  80 112 151 168 216 267 326
#     4  10  19  31  51  73 104 147 172 225 253 314
#     4  10  19  33  53  81 111 143 174 208 269 329
#
# _framework density 20.978861999999999
#
# number of rings (size 3 to 8) (size 9 to 14) (size 15 to 20)
#    0.000    2.000    3.333    3.000    0.000    2.000 
#    0.000    2.500    0.000    0.500    0.000    0.000 
#    0.000    2.667    0.000    0.000    0.000    0.000 
#
# Total GULP energy -594850.204059 kJ/mol
# GULP energy per Si atom -12392.712585 kJ/mol
# Density = 2.093111 g / cm^3
# Si number density = 20.978862 Si / 1000 Ang^3
#
#
#
# Elastic Constant Matrix: (Units=GPa)
#
#
# Indices 1 2 3 4 5 6 
#
# 1 95.0552 -0.4640 42.0898 0.0000 0.0000 0.0000
# 2 -0.4640 17.4037 4.3379 0.0000 0.0000 0.0000
# 3 42.0898 4.3379 113.2966 0.0000 0.0000 0.0000
# 4 0.0000 0.0000 0.0000 33.1053 0.0000 0.0000
# 5 0.0000 0.0000 0.0000 0.0000 42.2325 0.0000
# 6 0.0000 0.0000 0.0000 0.0000 0.0000 15.1528
#
#
#
# Elastic Compliance Matrix: (Units=1/GPa)
#
#
# Indices 1 2 3 4 5 6 
#
# 1 0.012631 0.001521 -0.004751 0.000000 0.000000 0.000000
# 2 0.001521 0.058196 -0.002793 0.000000 0.000000 0.000000
# 3 -0.004751 -0.002793 0.010698 0.000000 0.000000 0.000000
# 4 0.000000 0.000000 0.000000 0.030207 0.000000 0.000000
# 5 0.000000 0.000000 0.000000 0.000000 0.023678 0.000000
# 6 0.000000 0.000000 0.000000 0.000000 0.000000 0.065995
#
#
# Mechanical properties :
#
#
# Convention : Reuss Voigt Hill
#
# Bulk Modulus (GPa) = 14.39279 35.29808 24.84543
# Shear Modulus (GPa) = 21.13175 30.08424 25.60799
#
# Velocity S-wave (km/s) = 3.17722 3.79096 3.49758
# Velocity P-wave (km/s) = 4.50945 6.00199 5.30844
#
# Compressibility (1/GPa) = 0.06947924
#
# Stress axis : x y z
#
# Youngs Moduli (GPa) = 79.16887 17.18334 93.47333
#
# Poissons Ratio (x) = -0.02613 0.44407
# Poissons Ratio (y) = -0.12041 0.26109
# Poissons Ratio (z) = 0.37611 0.04800
#
# Static dielectric constant tensor:
#      x y z
#    x 3.889940 0.000000 0.000000 
#    y 0.000000 3.251560 0.000000 
#    z 0.000000 0.000000 4.270130 
# 
# 
# High freq. dielectric constant tensor:
#      x y z
#    x 1.825320 0.000000 0.000000 
#    y 0.000000 1.758160 0.000000 
#    z 0.000000 0.000000 1.846540 
# 
# From -- ./inp_files/25436.got.cif
#   From: 2010.06.25/outbox.cif.g09.slc.cpg/sg58_13_cif.got.tgz:25436.got - 2010.06.26 21:38:00.
