data_PCOD8236016
_publ_section_title
;
Structure prediction by ZEFSAII (Michael W. Deem and Ramdas Pophale) SiO2 
 PCOD8236016
Probable space group: P N N M
;
_chemical_formula_sum "Si O2"
_cell_formula_units_Z 56
_cell_length_a 14.425252
_cell_length_b 22.471911
_cell_length_c 9.054884
_cell_angle_alpha 90.000000
_cell_angle_beta 90.000000
_cell_angle_gamma 90.000000
_cell_volume 2935.258173
_symmetry_space_group_name_H-M "P N N M"
_symmetry_group_IT_number 58
_symmetry_cell_setting 'orthorhombic'
loop_
_space_group_symop_operation_xyz
x,y,z
-x,-y,z
1/2+x,1/2-y,1/2-z
1/2-x,1/2+y,1/2-z
-x,-y,-z
x,y,-z
1/2-x,1/2+y,1/2+z
1/2+x,1/2-y,1/2+z
loop_
_atom_site_type_symbol
_atom_site_label
_atom_site_fract_x
_atom_site_fract_y
_atom_site_fract_z
Si Si1 0.104723 0.495029 0.825020
Si Si2 0.712474 0.107462 0.831770
Si Si3 0.906548 0.721839 0.668642
Si Si4 0.724596 0.893203 0.672937
Si Si5 0.100687 0.844822 0.826430
Si Si6 0.411361 0.211791 0.326364
Si Si7 0.106134 0.154930 0.174559
O O1 0.151951 0.435312 0.768521
O O2 0.163816 0.551521 0.769892
O O3 0.000000 0.500000 0.762439
O O4 0.101956 0.492554 0.000000
O O5 0.675707 0.174606 0.823065
O O6 0.818329 0.111195 0.767377
O O7 0.709343 0.083677 0.000000
O O8 0.927167 0.740075 0.500000
O O9 0.875445 0.780384 0.756749
O O10 0.996597 0.691047 0.740902
O O11 0.745154 0.898332 0.500000
O O12 0.671337 0.832613 0.712512
O O13 0.822017 0.892776 0.759271
O O14 0.114537 0.777490 0.767630
O O15 0.997815 0.867771 0.784235
O O16 0.114243 0.842085 0.000000
O O17 0.434261 0.210939 0.500000
O O18 0.118836 0.159683 0.000000
#
# Coordination Sequence:
#
# PCOD8236016 Si02
#       7
#     8   8   8   8   8   8   8
#     4  10  22  39  57  78 105 137 173 214 263 317
#     4  10  20  35  55  76 102 139 179 218 260 307
#     4  10  19  31  51  81 112 139 171 215 266 315
#     4  10  20  35  55  77 105 141 177 218 267 313
#     4   8  16  32  52  75 102 133 171 212 255 305
#     4   9  17  32  54  77 105 141 175 210 260 320
#     4  10  20  34  54  79 107 140 177 216 261 317
#
# _framework density 19.078391
#
# number of rings (size 3 to 8) (size 9 to 14) (size 15 to 20)
#    0.000    2.429    0.000    3.429    0.000    6.000 
#    0.000    4.286    0.000    4.286    0.000    0.000 
#    0.000    0.000    0.000    0.000    0.000    0.000 
#
# Total GULP energy -694297.167779 kJ/mol
# GULP energy per Si atom -12398.163710 kJ/mol
# Density = 1.903497 g / cm^3
# Si number density = 19.078391 Si / 1000 Ang^3
#
#
#
# Elastic Constant Matrix: (Units=GPa)
#
#
# Indices 1 2 3 4 5 6 
#
# 1 155.3871 60.0297 40.3373 0.0000 0.0000 0.0000
# 2 60.0297 68.8110 23.5819 0.0000 0.0000 0.0000
# 3 40.3373 23.5819 44.1039 0.0000 0.0000 0.0000
# 4 0.0000 0.0000 0.0000 25.2045 0.0000 0.0000
# 5 0.0000 0.0000 0.0000 0.0000 29.7730 0.0000
# 6 0.0000 0.0000 0.0000 0.0000 0.0000 31.4256
#
#
#
# Elastic Compliance Matrix: (Units=1/GPa)
#
#
# Indices 1 2 3 4 5 6 
#
# 1 0.010849 -0.007425 -0.005953 0.000000 0.000000 0.000000
# 2 -0.007425 0.022874 -0.005440 0.000000 0.000000 0.000000
# 3 -0.005953 -0.005440 0.031027 0.000000 0.000000 0.000000
# 4 0.000000 0.000000 0.000000 0.039675 0.000000 0.000000
# 5 0.000000 0.000000 0.000000 0.000000 0.033588 0.000000
# 6 0.000000 0.000000 0.000000 0.000000 0.000000 0.031821
#
#
# Mechanical properties :
#
#
# Convention : Reuss Voigt Hill
#
# Bulk Modulus (GPa) = 36.87954 57.35555 47.11754
# Shear Modulus (GPa) = 23.09393 26.90414 24.99903
#
# Velocity S-wave (km/s) = 3.48296 3.75932 3.62378
# Velocity P-wave (km/s) = 5.96215 6.99798 6.50073
#
# Compressibility (1/GPa) = 0.02711530
#
# Stress axis : x y z
#
# Youngs Moduli (GPa) = 92.17343 43.71782 32.23020
#
# Poissons Ratio (x) = 0.32459 0.19186
# Poissons Ratio (y) = 0.68435 0.17533
# Poissons Ratio (z) = 0.54868 0.23782
#
# Static dielectric constant tensor:
#      x y z
#    x 3.844190 0.000000 0.000000 
#    y 0.000000 3.331100 0.000000 
#    z 0.000000 0.000000 3.335300 
# 
# 
# High freq. dielectric constant tensor:
#      x y z
#    x 1.758410 0.000000 0.000000 
#    y 0.000000 1.720170 0.000000 
#    z 0.000000 0.000000 1.722970 
# 
# From -- ./inp_files/6425.got.cif
#   From: 2010.06.25/outbox.cif.g09.slc.cpg/sg58_4_cif.got.tgz:6425.got - 2010.06.26 21:38:00.
