data_PCOD8236745
_publ_section_title
;
Structure prediction by ZEFSAII (Michael W. Deem and Ramdas Pophale) SiO2 
 PCOD8236745
Probable space group: P N N M
;
_chemical_formula_sum "Si O2"
_cell_formula_units_Z 64
_cell_length_a 14.509543
_cell_length_b 24.244244
_cell_length_c 9.243584
_cell_angle_alpha 90.000000
_cell_angle_beta 90.000000
_cell_angle_gamma 90.000000
_cell_volume 3251.642358
_symmetry_space_group_name_H-M "P N N M"
_symmetry_group_IT_number 58
_symmetry_cell_setting 'orthorhombic'
loop_
_space_group_symop_operation_xyz
x,y,z
-x,-y,z
1/2+x,1/2-y,1/2-z
1/2-x,1/2+y,1/2-z
-x,-y,-z
x,y,-z
1/2-x,1/2+y,1/2+z
1/2+x,1/2-y,1/2+z
loop_
_atom_site_type_symbol
_atom_site_label
_atom_site_fract_x
_atom_site_fract_y
_atom_site_fract_z
Si Si1 0.665777 0.229360 0.168555
Si Si2 0.239264 0.060597 0.834051
Si Si3 0.989254 0.666673 0.172689
Si Si4 0.875876 0.236607 0.170396
Si Si5 0.600679 0.515076 0.832542
Si Si6 0.645492 0.352306 0.839285
Si Si7 0.046576 0.557110 0.666767
Si Si8 0.942320 0.134869 0.339511
O O1 0.609425 0.185485 0.263270
O O2 0.770729 0.234846 0.225255
O O3 0.621501 0.289116 0.197037
O O4 0.661095 0.211972 0.000000
O O5 0.218043 0.121275 0.770713
O O6 0.345548 0.047912 0.810635
O O7 0.181665 0.014194 0.753048
O O8 0.210156 0.060125 0.000000
O O9 0.069457 0.709057 0.225962
O O10 0.010635 0.606196 0.232606
O O11 0.981901 0.664339 0.000000
O O12 0.924082 0.181088 0.222166
O O13 0.879179 0.236870 0.000000
O O14 0.500000 0.500000 0.770136
O O15 0.618325 0.580505 0.811477
O O16 0.607593 0.497436 0.000000
O O17 0.549035 0.385001 0.830352
O O18 0.689580 0.355789 0.000000
O O19 0.023236 0.571325 0.500000
O O20 0.000000 0.500000 0.715425
O O21 0.922551 0.158956 0.500000
#
# Coordination Sequence:
#
# PCOD8236745 Si02
#       8
#     8   8   8   8   8   8   8   8
#     4  10  21  38  61  86 118 164 201 233 293 360
#     4  11  23  37  60  91 117 152 202 254 300 349
#     4  11  23  40  64  94 123 153 198 253 299 346
#     4  10  22  38  57  87 125 158 192 240 298 352
#     4  10  20  37  57  81 116 156 194 235 291 358
#     4  10  19  36  60  84 117 159 199 239 292 357
#     4  10  24  46  66  85 116 158 203 248 299 358
#     4  10  20  35  58  84 113 155 199 238 286 349
#
# _framework density 19.682359999999999
#
# number of rings (size 3 to 8) (size 9 to 14) (size 15 to 20)
#    0.000    1.750    2.500    1.500    0.000    6.000 
#    0.000    3.750    0.000    0.000    0.000    0.000 
#    0.000    0.000    0.000    0.000    0.000    0.000 
#
# Total GULP energy -793674.893873 kJ/mol
# GULP energy per Si atom -12401.170217 kJ/mol
# Density = 1.963756 g / cm^3
# Si number density = 19.682360 Si / 1000 Ang^3
#
#
#
# Elastic Constant Matrix: (Units=GPa)
#
#
# Indices 1 2 3 4 5 6 
#
# 1 101.1950 52.1920 51.5866 0.0000 0.0000 0.0000
# 2 52.1920 116.4959 51.6832 0.0000 0.0000 0.0000
# 3 51.5866 51.6832 70.7917 0.0000 0.0000 0.0000
# 4 0.0000 0.0000 0.0000 35.0666 0.0000 0.0000
# 5 0.0000 0.0000 0.0000 0.0000 29.5858 0.0000
# 6 0.0000 0.0000 0.0000 0.0000 0.0000 31.9761
#
#
#
# Elastic Compliance Matrix: (Units=1/GPa)
#
#
# Indices 1 2 3 4 5 6 
#
# 1 0.016414 -0.003028 -0.009750 0.000000 0.000000 0.000000
# 2 -0.003028 0.013255 -0.007470 0.000000 0.000000 0.000000
# 3 -0.009750 -0.007470 0.026685 0.000000 0.000000 0.000000
# 4 0.000000 0.000000 0.000000 0.028517 0.000000 0.000000
# 5 0.000000 0.000000 0.000000 0.000000 0.033800 0.000000
# 6 0.000000 0.000000 0.000000 0.000000 0.000000 0.031273
#
#
# Mechanical properties :
#
#
# Convention : Reuss Voigt Hill
#
# Bulk Modulus (GPa) = 63.06646 66.60067 64.83357
# Shear Modulus (GPa) = 25.54563 28.19375 26.86969
#
# Velocity S-wave (km/s) = 3.60654 3.78886 3.69882
# Velocity P-wave (km/s) = 7.03239 7.28367 7.15913
#
# Compressibility (1/GPa) = 0.01585629
#
# Stress axis : x y z
#
# Youngs Moduli (GPa) = 60.92295 75.44407 37.47392
#
# Poissons Ratio (x) = 0.22845 0.36539
# Poissons Ratio (y) = 0.18448 0.27995
# Poissons Ratio (z) = 0.59403 0.56360
#
# Static dielectric constant tensor:
#      x y z
#    x 3.625870 0.000000 0.000000 
#    y 0.000000 3.559450 0.000000 
#    z 0.000000 0.000000 3.502520 
# 
# 
# High freq. dielectric constant tensor:
#      x y z
#    x 1.766790 0.000000 0.000000 
#    y 0.000000 1.773870 0.000000 
#    z 0.000000 0.000000 1.757300 
# 
# From -- ./inp_files/6913.got.cif
#   From: 2010.06.25/outbox.cif.g09.slc.cpg/sg58_4_cif.got.tgz:6913.got - 2010.06.26 21:38:00.
