data_PCOD8236089
_publ_section_title
;
Structure prediction by ZEFSAII (Michael W. Deem and Ramdas Pophale) SiO2 
 PCOD8236089
Probable space group: P N N M
;
_chemical_formula_sum "Si O2"
_cell_formula_units_Z 64
_cell_length_a 23.194480
_cell_length_b 14.440030
_cell_length_c 9.169700
_cell_angle_alpha 90.000000
_cell_angle_beta 90.000000
_cell_angle_gamma 90.000000
_cell_volume 3071.198332
_symmetry_space_group_name_H-M "P N N M"
_symmetry_group_IT_number 58
_symmetry_cell_setting 'orthorhombic'
loop_
_space_group_symop_operation_xyz
x,y,z
-x,-y,z
1/2+x,1/2-y,1/2-z
1/2-x,1/2+y,1/2-z
-x,-y,-z
x,y,-z
1/2-x,1/2+y,1/2+z
1/2+x,1/2-y,1/2+z
loop_
_atom_site_type_symbol
_atom_site_label
_atom_site_fract_x
_atom_site_fract_y
_atom_site_fract_z
Si Si1 0.680505 0.456243 0.830326
Si Si2 0.595987 0.152730 0.837966
Si Si3 0.964638 0.372339 0.335461
Si Si4 0.326597 0.361977 0.332414
Si Si5 0.876421 0.485037 0.172615
Si Si6 0.543704 0.682765 0.668831
Si Si7 0.566180 0.355722 0.171259
Si Si8 0.784808 0.335182 0.828132
O O1 0.700001 0.549711 0.749749
O O2 0.614097 0.432759 0.794644
O O3 0.720710 0.368987 0.783559
O O4 0.689832 0.475184 0.000000
O O5 0.532380 0.109304 0.842335
O O6 0.592448 0.257240 0.777306
O O7 0.635809 0.088690 0.734286
O O8 0.623419 0.153241 0.000000
O O9 0.939165 0.371935 0.500000
O O10 0.936996 0.452660 0.238674
O O11 0.950395 0.276018 0.258908
O O12 0.308265 0.369735 0.500000
O O13 0.395615 0.368938 0.314914
O O14 0.300428 0.266498 0.263701
O O15 0.828320 0.413643 0.230385
O O16 0.879646 0.490002 0.000000
O O17 0.529959 0.704348 0.500000
O O18 0.491783 0.621120 0.737719
O O19 0.550169 0.351035 0.000000
O O20 0.793158 0.327453 0.000000
#
# Coordination Sequence:
#
# PCOD8236089 Si02
#       8
#     8   8   8   8   8   8   8   8
#     4  10  22  41  64  86 112 153 198 237 285 343
#     4   9  19  33  49  76 113 150 187 231 285 341
#     4  10  19  32  51  78 115 153 190 235 283 338
#     4  10  21  40  63  87 117 150 187 236 293 345
#     4  11  20  32  52  79 111 151 195 237 285 339
#     4  10  19  34  59  87 116 153 191 233 291 348
#     4   9  20  38  57  82 118 155 191 238 292 344
#     4   9  20  40  60  81 115 154 191 236 288 345
#
# _framework density 20.838771000000001
#
# number of rings (size 3 to 8) (size 9 to 14) (size 15 to 20)
#    0.000    2.250    1.250    2.250    0.000    7.000 
#    0.000    5.625    0.000    0.000    0.000    0.000 
#    0.000    0.000    0.000    0.000    0.000    0.000 
#
# Total GULP energy -793394.412459 kJ/mol
# GULP energy per Si atom -12396.787695 kJ/mol
# Density = 2.079134 g / cm^3
# Si number density = 20.838771 Si / 1000 Ang^3
#
#
#
# Elastic Constant Matrix: (Units=GPa)
#
#
# Indices 1 2 3 4 5 6 
#
# 1 63.6192 39.0550 29.4845 0.0000 0.0000 0.0000
# 2 39.0550 91.4731 31.7804 0.0000 0.0000 0.0000
# 3 29.4845 31.7804 74.8328 0.0000 0.0000 0.0000
# 4 0.0000 0.0000 0.0000 32.5805 0.0000 0.0000
# 5 0.0000 0.0000 0.0000 0.0000 20.2065 0.0000
# 6 0.0000 0.0000 0.0000 0.0000 0.0000 23.6790
#
#
#
# Elastic Compliance Matrix: (Units=1/GPa)
#
#
# Indices 1 2 3 4 5 6 
#
# 1 0.023270 -0.007918 -0.005806 0.000000 0.000000 0.000000
# 2 -0.007918 0.015519 -0.003471 0.000000 0.000000 0.000000
# 3 -0.005806 -0.003471 0.017125 0.000000 0.000000 0.000000
# 4 0.000000 0.000000 0.000000 0.030693 0.000000 0.000000
# 5 0.000000 0.000000 0.000000 0.000000 0.049489 0.000000
# 6 0.000000 0.000000 0.000000 0.000000 0.000000 0.042232
#
#
# Mechanical properties :
#
#
# Convention : Reuss Voigt Hill
#
# Bulk Modulus (GPa) = 46.45991 47.84055 47.15023
# Shear Modulus (GPa) = 22.73847 23.93353 23.33600
#
# Velocity S-wave (km/s) = 3.30686 3.39264 3.35002
# Velocity P-wave (km/s) = 6.07649 6.19306 6.13505
#
# Compressibility (1/GPa) = 0.02152393
#
# Stress axis : x y z
#
# Youngs Moduli (GPa) = 42.97358 64.43813 58.39540
#
# Poissons Ratio (x) = 0.51024 0.33903
# Poissons Ratio (y) = 0.34027 0.20268
# Poissons Ratio (z) = 0.24950 0.22365
#
# Static dielectric constant tensor:
#      x y z
#    x 3.731680 0.000000 0.000000 
#    y 0.000000 3.770000 0.000000 
#    z 0.000000 0.000000 3.607180 
# 
# 
# High freq. dielectric constant tensor:
#      x y z
#    x 1.802550 0.000000 0.000000 
#    y 0.000000 1.819960 0.000000 
#    z 0.000000 0.000000 1.794660 
# 
# From -- ./inp_files/9954.got.cif
#   From: 2010.06.25/outbox.cif.g09.slc.cpg/sg58_5_cif.got.tgz:9954.got - 2010.06.26 21:38:00.
