data_PCOD8236393
_publ_section_title
;
Structure prediction by ZEFSAII (Michael W. Deem and Ramdas Pophale) SiO2 
 PCOD8236393
Probable space group: P N N M
;
_chemical_formula_sum "Si O2"
_cell_formula_units_Z 64
_cell_length_a 12.712280
_cell_length_b 29.608702
_cell_length_c 8.912460
_cell_angle_alpha 90.000000
_cell_angle_beta 90.000000
_cell_angle_gamma 90.000000
_cell_volume 3354.597452
_symmetry_space_group_name_H-M "P N N M"
_symmetry_group_IT_number 58
_symmetry_cell_setting 'orthorhombic'
loop_
_space_group_symop_operation_xyz
x,y,z
-x,-y,z
1/2+x,1/2-y,1/2-z
1/2-x,1/2+y,1/2-z
-x,-y,-z
x,y,-z
1/2-x,1/2+y,1/2+z
1/2+x,1/2-y,1/2+z
loop_
_atom_site_type_symbol
_atom_site_label
_atom_site_fract_x
_atom_site_fract_y
_atom_site_fract_z
Si Si1 0.127460 0.951867 0.677563
Si Si2 0.025263 0.261105 0.822812
Si Si3 0.280706 0.124171 0.321687
Si Si4 0.222798 0.381839 0.678837
Si Si5 0.491296 0.144179 0.821772
Si Si6 0.710163 0.277918 0.164608
Si Si7 0.360026 0.301899 0.335668
Si Si8 0.107155 0.054257 0.677456
O O1 0.141987 0.946685 0.500000
O O2 0.222782 0.926753 0.759885
O O3 0.012279 0.932910 0.728969
O O4 0.135750 0.003794 0.729537
O O5 0.982754 0.304824 0.736743
O O6 0.144981 0.251842 0.781700
O O7 0.970709 0.213631 0.763124
O O8 0.011855 0.268641 0.000000
O O9 0.294744 0.120658 0.500000
O O10 0.394324 0.115187 0.245624
O O11 0.238706 0.173053 0.271310
O O12 0.195123 0.088343 0.258333
O O13 0.223584 0.381302 0.500000
O O14 0.101742 0.378106 0.733217
O O15 0.288566 0.339037 0.749082
O O16 0.483784 0.144420 0.000000
O O17 0.813491 0.248301 0.146413
O O18 0.655278 0.282386 0.000000
O O19 0.379557 0.323059 0.500000
O O20 0.108182 0.056194 0.500000
#
# Coordination Sequence:
#
# PCOD8236393 Si02
#       8
#     8   8   8   8   8   8   8   8
#     4   9  18  36  61  86 109 136 177 222 267 327
#     4  11  21  34  52  75 105 144 187 226 266 319
#     4  10  20  36  58  80 108 146 183 221 273 329
#     4  10  21  37  54  75 109 148 179 218 275 322
#     4  11  22  37  55  76 109 149 186 228 274 317
#     4  10  19  34  52  74 108 145 178 218 271 320
#     4   9  18  34  50  69 104 145 176 213 265 313
#     4   8  17  36  60  85 113 139 167 220 282 323
#
# _framework density 19.078295000000001
#
# number of rings (size 3 to 8) (size 9 to 14) (size 15 to 20)
#    0.000    2.250    2.500    1.500    1.750    1.500 
#    0.000    3.750    0.000    3.750    0.000    0.000 
#    0.000    0.000    0.000    0.000    0.000    0.000 
#
# Total GULP energy -792901.725957 kJ/mol
# GULP energy per Si atom -12389.089468 kJ/mol
# Density = 1.903487 g / cm^3
# Si number density = 19.078295 Si / 1000 Ang^3
#
#
#
# Elastic Constant Matrix: (Units=GPa)
#
#
# Indices 1 2 3 4 5 6 
#
# 1 83.3852 29.3404 22.8320 0.0000 0.0000 0.0000
# 2 29.3404 73.9309 10.5431 0.0000 0.0000 0.0000
# 3 22.8320 10.5431 33.7926 0.0000 0.0000 0.0000
# 4 0.0000 0.0000 0.0000 23.2906 0.0000 0.0000
# 5 0.0000 0.0000 0.0000 0.0000 27.5012 0.0000
# 6 0.0000 0.0000 0.0000 0.0000 0.0000 36.2363
#
#
#
# Elastic Compliance Matrix: (Units=1/GPa)
#
#
# Indices 1 2 3 4 5 6 
#
# 1 0.016401 -0.005158 -0.009472 0.000000 0.000000 0.000000
# 2 -0.005158 0.015778 -0.001438 0.000000 0.000000 0.000000
# 3 -0.009472 -0.001438 0.036441 0.000000 0.000000 0.000000
# 4 0.000000 0.000000 0.000000 0.042936 0.000000 0.000000
# 5 0.000000 0.000000 0.000000 0.000000 0.036362 0.000000
# 6 0.000000 0.000000 0.000000 0.000000 0.000000 0.027597
#
#
# Mechanical properties :
#
#
# Convention : Reuss Voigt Hill
#
# Bulk Modulus (GPa) = 27.40909 35.17107 31.29008
# Shear Modulus (GPa) = 22.74676 25.96518 24.35597
#
# Velocity S-wave (km/s) = 3.45669 3.69315 3.57688
# Velocity P-wave (km/s) = 5.50722 6.05483 5.78750
#
# Compressibility (1/GPa) = 0.03648425
#
# Stress axis : x y z
#
# Youngs Moduli (GPa) = 60.97144 63.37834 27.44190
#
# Poissons Ratio (x) = 0.32692 0.25993
# Poissons Ratio (y) = 0.31450 0.03945
# Poissons Ratio (z) = 0.57753 0.09111
#
# Static dielectric constant tensor:
#      x y z
#    x 3.752830 0.000000 0.000000 
#    y 0.000000 3.506950 0.000000 
#    z 0.000000 0.000000 3.188000 
# 
# 
# High freq. dielectric constant tensor:
#      x y z
#    x 1.754710 0.000000 0.000000 
#    y 0.000000 1.728530 0.000000 
#    z 0.000000 0.000000 1.709540 
# 
# From -- ./inp_files/4817.got.cif
#   From: 2010.06.25/outbox.cif.g09.slc.cpg/sg58_3_cif.got.tgz:4817.got - 2010.06.26 21:38:00.
