data_PCOD8236989
_publ_section_title
;
Structure prediction by ZEFSAII (Michael W. Deem and Ramdas Pophale) SiO2 
 PCOD8236989
Probable space group: P N N M
;
_chemical_formula_sum "Si O2"
_cell_formula_units_Z 64
_cell_length_a 16.547586
_cell_length_b 21.706529
_cell_length_c 9.114438
_cell_angle_alpha 90.000000
_cell_angle_beta 90.000000
_cell_angle_gamma 90.000000
_cell_volume 3273.820959
_symmetry_space_group_name_H-M "P N N M"
_symmetry_group_IT_number 58
_symmetry_cell_setting 'orthorhombic'
loop_
_space_group_symop_operation_xyz
x,y,z
-x,-y,z
1/2+x,1/2-y,1/2-z
1/2-x,1/2+y,1/2-z
-x,-y,-z
x,y,-z
1/2-x,1/2+y,1/2+z
1/2+x,1/2-y,1/2+z
loop_
_atom_site_type_symbol
_atom_site_label
_atom_site_fract_x
_atom_site_fract_y
_atom_site_fract_z
Si Si1 0.299125 0.030163 0.173590
Si Si2 0.273594 0.907009 0.330750
Si Si3 0.679013 0.382039 0.170420
Si Si4 0.817960 0.290340 0.836642
Si Si5 0.640099 0.655876 0.665571
Si Si6 0.932829 0.372490 0.329176
Si Si7 0.577918 0.176381 0.668748
Si Si8 0.542807 0.314603 0.326991
O O1 0.220792 0.060481 0.249189
O O2 0.380660 0.067422 0.214319
O O3 0.311454 0.962324 0.237031
O O4 0.284904 0.028766 0.000000
O O5 0.267788 0.926620 0.500000
O O6 0.183222 0.892734 0.272635
O O7 0.330775 0.847397 0.309195
O O8 0.732072 0.320951 0.195136
O O9 0.593521 0.367139 0.244305
O O10 0.667143 0.398560 0.000000
O O11 0.806745 0.217647 0.824203
O O12 0.883941 0.311977 0.719571
O O13 0.849143 0.308449 0.000000
O O14 0.641036 0.629419 0.500000
O O15 0.549397 0.670951 0.715549
O O16 0.948940 0.369427 0.500000
O O17 0.019443 0.372001 0.250898
O O18 0.552092 0.175655 0.500000
O O19 0.567441 0.246153 0.729226
O O20 0.558409 0.320080 0.500000
#
# Coordination Sequence:
#
# PCOD8236989 Si02
#       8
#     8   8   8   8   8   8   8   8
#     4  10  22  41  60  80 113 154 196 237 283 340
#     4  11  24  39  58  84 113 150 194 241 285 330
#     4  10  20  34  58  87 113 145 189 239 283 329
#     4   9  17  33  55  80 113 150 183 221 281 346
#     4  10  20  36  58  81 113 154 188 226 283 346
#     4  10  20  33  56  87 114 147 189 237 280 326
#     4  10  21  38  58  84 121 156 186 228 286 350
#     4  10  20  36  58  85 118 153 186 224 281 347
#
# _framework density 19.549022000000001
#
# number of rings (size 3 to 8) (size 9 to 14) (size 15 to 20)
#    0.000    2.000    1.250    2.250    0.000    5.000 
#    0.000    3.125    0.000    3.750    0.000    0.000 
#    0.000    0.000    0.000    0.000    0.000    0.000 
#
# Total GULP energy -793671.722582 kJ/mol
# GULP energy per Si atom -12401.120665 kJ/mol
# Density = 1.950453 g / cm^3
# Si number density = 19.549022 Si / 1000 Ang^3
#
#
#
# Elastic Constant Matrix: (Units=GPa)
#
#
# Indices 1 2 3 4 5 6 
#
# 1 90.4907 27.3896 43.9666 0.0000 0.0000 0.0000
# 2 27.3896 53.0778 29.9169 0.0000 0.0000 0.0000
# 3 43.9666 29.9169 78.2921 0.0000 0.0000 0.0000
# 4 0.0000 0.0000 0.0000 30.7610 0.0000 0.0000
# 5 0.0000 0.0000 0.0000 0.0000 35.4002 0.0000
# 6 0.0000 0.0000 0.0000 0.0000 0.0000 23.8638
#
#
#
# Elastic Compliance Matrix: (Units=1/GPa)
#
#
# Indices 1 2 3 4 5 6 
#
# 1 0.015846 -0.004029 -0.007359 0.000000 0.000000 0.000000
# 2 -0.004029 0.025036 -0.007304 0.000000 0.000000 0.000000
# 3 -0.007359 -0.007304 0.019696 0.000000 0.000000 0.000000
# 4 0.000000 0.000000 0.000000 0.032509 0.000000 0.000000
# 5 0.000000 0.000000 0.000000 0.000000 0.028248 0.000000
# 6 0.000000 0.000000 0.000000 0.000000 0.000000 0.041904
#
#
# Mechanical properties :
#
#
# Convention : Reuss Voigt Hill
#
# Bulk Modulus (GPa) = 43.11464 47.15629 45.13547
# Shear Modulus (GPa) = 23.99737 26.04417 25.02077
#
# Velocity S-wave (km/s) = 3.50744 3.65396 3.58145
# Velocity P-wave (km/s) = 6.20527 6.47891 6.34357
#
# Compressibility (1/GPa) = 0.02319398
#
# Stress axis : x y z
#
# Youngs Moduli (GPa) = 63.10787 39.94189 50.77074
#
# Poissons Ratio (x) = 0.16093 0.37362
# Poissons Ratio (y) = 0.25427 0.37084
# Poissons Ratio (z) = 0.46441 0.29175
#
# Static dielectric constant tensor:
#      x y z
#    x 3.455780 0.000000 0.000000 
#    y 0.000000 3.381550 0.000000 
#    z 0.000000 0.000000 3.580700 
# 
# 
# High freq. dielectric constant tensor:
#      x y z
#    x 1.758880 0.000000 0.000000 
#    y 0.000000 1.744750 0.000000 
#    z 0.000000 0.000000 1.762830 
# 
# From -- ./inp_files/6923.got.cif
#   From: 2010.06.25/outbox.cif.g09.slc.cpg/sg58_4_cif.got.tgz:6923.got - 2010.06.26 21:38:00.
