data_PCOD8236223
_publ_section_title
;
Structure prediction by ZEFSAII (Michael W. Deem and Ramdas Pophale) SiO2 
 PCOD8236223
Probable space group: P N N M
;
_chemical_formula_sum "Si O2"
_cell_formula_units_Z 48
_cell_length_a 19.177015
_cell_length_b 15.606027
_cell_length_c 8.865625
_cell_angle_alpha 90.000000
_cell_angle_beta 90.000000
_cell_angle_gamma 90.000000
_cell_volume 2653.277776
_symmetry_space_group_name_H-M "P N N M"
_symmetry_group_IT_number 58
_symmetry_cell_setting 'orthorhombic'
loop_
_space_group_symop_operation_xyz
x,y,z
-x,-y,z
1/2+x,1/2-y,1/2-z
1/2-x,1/2+y,1/2-z
-x,-y,-z
x,y,-z
1/2-x,1/2+y,1/2+z
1/2+x,1/2-y,1/2+z
loop_
_atom_site_type_symbol
_atom_site_label
_atom_site_fract_x
_atom_site_fract_y
_atom_site_fract_z
Si Si1 0.296184 0.423565 0.179055
Si Si2 0.952663 0.425008 0.323313
Si Si3 0.455699 0.242589 0.333888
Si Si4 0.055086 0.928670 0.822144
Si Si5 0.207663 0.574039 0.678960
Si Si6 0.209931 0.747866 0.829986
O O1 0.374812 0.443591 0.229169
O O2 0.248279 0.499338 0.238504
O O3 0.266273 0.334819 0.247047
O O4 0.292733 0.418026 0.000000
O O5 0.959177 0.428383 0.500000
O O6 0.983016 0.332699 0.273550
O O7 0.872964 0.436685 0.272304
O O8 0.000000 0.500000 0.250287
O O9 0.484679 0.222166 0.500000
O O10 0.480407 0.336916 0.280378
O O11 0.372765 0.246482 0.334377
O O12 0.073315 0.931786 0.000000
O O13 0.000000 0.000000 0.773807
O O14 0.218065 0.568594 0.500000
O O15 0.237096 0.665354 0.737307
O O16 0.240619 0.746132 0.000000
#
# Coordination Sequence:
#
# PCOD8236223 Si02
#       6
#     8   8   8   8   8   8
#     4  11  21  33  51  76 104 134 170 208 249 302
#     4   9  18  32  50  72  97 127 162 201 246 293
#     4   8  15  28  48  72  95 124 160 197 240 292
#     4   9  18  34  54  74  99 131 166 206 253 301
#     4  10  19  33  53  75 101 133 168 208 254 302
#     4   9  17  32  52  73  98 129 168 210 252 301
#
# _framework density 18.090831999999999
#
# number of rings (size 3 to 8) (size 9 to 14) (size 15 to 20)
#    0.000    2.667    0.000    3.500    0.000    5.333 
#    0.000    1.667    0.000    4.000    0.000    0.000 
#    0.000    0.000    0.000    0.000    0.000    0.000 
#
# Total GULP energy -595025.741412 kJ/mol
# GULP energy per Si atom -12396.369613 kJ/mol
# Density = 1.804966 g / cm^3
# Si number density = 18.090832 Si / 1000 Ang^3
#
#
#
# Elastic Constant Matrix: (Units=GPa)
#
#
# Indices 1 2 3 4 5 6 
#
# 1 46.2252 58.1519 33.1438 0.0000 0.0000 0.0000
# 2 58.1519 183.2651 53.1165 0.0000 0.0000 0.0000
# 3 33.1438 53.1165 81.1281 0.0000 0.0000 0.0000
# 4 0.0000 0.0000 0.0000 36.2767 0.0000 0.0000
# 5 0.0000 0.0000 0.0000 0.0000 14.7906 0.0000
# 6 0.0000 0.0000 0.0000 0.0000 0.0000 30.9124
#
#
#
# Elastic Compliance Matrix: (Units=1/GPa)
#
#
# Indices 1 2 3 4 5 6 
#
# 1 0.042130 -0.010342 -0.010440 0.000000 0.000000 0.000000
# 2 -0.010342 0.009273 -0.001846 0.000000 0.000000 0.000000
# 3 -0.010440 -0.001846 0.017800 0.000000 0.000000 0.000000
# 4 0.000000 0.000000 0.000000 0.027566 0.000000 0.000000
# 5 0.000000 0.000000 0.000000 0.000000 0.067610 0.000000
# 6 0.000000 0.000000 0.000000 0.000000 0.000000 0.032349
#
#
# Mechanical properties :
#
#
# Convention : Reuss Voigt Hill
#
# Bulk Modulus (GPa) = 41.76112 66.60476 54.18294
# Shear Modulus (GPa) = 20.00254 27.47638 23.73946
#
# Velocity S-wave (km/s) = 3.32877 3.90141 3.62641
# Velocity P-wave (km/s) = 6.15699 7.56250 6.89565
#
# Compressibility (1/GPa) = 0.02394572
#
# Stress axis : x y z
#
# Youngs Moduli (GPa) = 23.73630 107.83529 56.17913
#
# Poissons Ratio (x) = 1.11526 0.58652
# Poissons Ratio (y) = 0.24549 0.10373
# Poissons Ratio (z) = 0.24781 0.19910
#
# Static dielectric constant tensor:
#      x y z
#    x 3.049730 0.000000 0.000000 
#    y 0.000000 3.776190 0.000000 
#    z 0.000000 0.000000 3.390680 
# 
# 
# High freq. dielectric constant tensor:
#      x y z
#    x 1.654510 0.000000 0.000000 
#    y 0.000000 1.722930 0.000000 
#    z 0.000000 0.000000 1.702680 
# 
# From -- ./inp_files/6027.got.cif
#   From: 2010.06.25/outbox.cif.g09.slc.cpg/sg58_4_cif.got.tgz:6027.got - 2010.06.26 21:38:00.
