data_PCOD8236523
_publ_section_title
;
Structure prediction by ZEFSAII (Michael W. Deem and Ramdas Pophale) SiO2 
 PCOD8236523
Probable space group: P N N M
;
_chemical_formula_sum "Si O2"
_cell_formula_units_Z 64
_cell_length_a 16.698116
_cell_length_b 15.439783
_cell_length_c 13.000152
_cell_angle_alpha 90.000000
_cell_angle_beta 90.000000
_cell_angle_gamma 90.000000
_cell_volume 3351.637926
_symmetry_space_group_name_H-M "P N N M"
_symmetry_group_IT_number 58
_symmetry_cell_setting 'orthorhombic'
loop_
_space_group_symop_operation_xyz
x,y,z
-x,-y,z
1/2+x,1/2-y,1/2-z
1/2-x,1/2+y,1/2-z
-x,-y,-z
x,y,-z
1/2-x,1/2+y,1/2+z
1/2+x,1/2-y,1/2+z
loop_
_atom_site_type_symbol
_atom_site_label
_atom_site_fract_x
_atom_site_fract_y
_atom_site_fract_z
Si Si1 0.132932 0.990133 0.616884
Si Si2 0.572851 0.680227 0.800930
Si Si3 0.322723 0.173484 0.118981
Si Si4 0.569349 0.939500 0.266515
Si Si5 0.903778 0.816169 0.382758
Si Si6 0.167137 0.254520 0.189409
Si Si7 0.009141 0.727800 0.118488
Si Si8 0.309861 0.940972 0.382204
O O1 0.109726 0.965568 0.500000
O O2 0.089883 0.921473 0.690775
O O3 0.228059 0.993654 0.630987
O O4 0.099531 0.083152 0.647222
O O5 0.644799 0.731316 0.854486
O O6 0.494313 0.713129 0.861786
O O7 0.563624 0.702833 0.680105
O O8 0.370975 0.099854 0.181203
O O9 0.228510 0.181532 0.146659
O O10 0.332781 0.150379 0.000000
O O11 0.524773 0.866153 0.332566
O O12 0.500000 0.000000 0.215176
O O13 0.619343 0.998668 0.343579
O O14 0.878220 0.798721 0.500000
O O15 0.844037 0.761949 0.311122
O O16 0.199315 0.351991 0.180315
O O17 0.083749 0.245528 0.128136
O O18 0.035721 0.728788 0.000000
O O19 0.327897 0.916483 0.500000
#
# Coordination Sequence:
#
# PCOD8236523 Si02
#       8
#     8   8   8   8   8   8   8   8
#     4  10  19  34  58  83 109 145 189 235 283 333
#     4  10  20  34  57  86 113 145 189 233 281 342
#     4  11  22  38  58  81 114 153 192 234 282 345
#     4  11  23  37  56  89 119 149 190 243 295 343
#     4  10  21  36  56  85 115 142 179 236 294 337
#     4  11  21  36  59  84 110 151 195 235 276 345
#     4  10  21  37  59  86 118 153 192 240 289 338
#     4  11  21  35  58  83 113 150 194 239 281 335
#
# _framework density 19.095141999999999
#
# number of rings (size 3 to 8) (size 9 to 14) (size 15 to 20)
#    0.000    1.500    2.500    3.750    0.000    1.750 
#    0.000    3.125    0.000    9.750    0.000    0.000 
#    0.000    0.000    0.000    0.000    0.000    0.000 
#
# Total GULP energy -793683.885556 kJ/mol
# GULP energy per Si atom -12401.310712 kJ/mol
# Density = 1.905168 g / cm^3
# Si number density = 19.095142 Si / 1000 Ang^3
#
#
#
# Elastic Constant Matrix: (Units=GPa)
#
#
# Indices 1 2 3 4 5 6 
#
# 1 96.8685 34.2850 46.5435 0.0000 0.0000 0.0000
# 2 34.2850 82.5042 56.4116 0.0000 0.0000 0.0000
# 3 46.5435 56.4116 132.9571 0.0000 0.0000 0.0000
# 4 0.0000 0.0000 0.0000 26.7166 0.0000 0.0000
# 5 0.0000 0.0000 0.0000 0.0000 23.7812 0.0000
# 6 0.0000 0.0000 0.0000 0.0000 0.0000 33.5130
#
#
#
# Elastic Compliance Matrix: (Units=1/GPa)
#
#
# Indices 1 2 3 4 5 6 
#
# 1 0.012993 -0.003225 -0.003180 0.000000 0.000000 0.000000
# 2 -0.003225 0.017874 -0.006455 0.000000 0.000000 0.000000
# 3 -0.003180 -0.006455 0.011373 0.000000 0.000000 0.000000
# 4 0.000000 0.000000 0.000000 0.037430 0.000000 0.000000
# 5 0.000000 0.000000 0.000000 0.000000 0.042050 0.000000
# 6 0.000000 0.000000 0.000000 0.000000 0.000000 0.029839
#
#
# Mechanical properties :
#
#
# Convention : Reuss Voigt Hill
#
# Bulk Modulus (GPa) = 60.53075 65.20111 62.86593
# Shear Modulus (GPa) = 27.35456 28.47481 27.91468
#
# Velocity S-wave (km/s) = 3.78900 3.86580 3.82759
# Velocity P-wave (km/s) = 7.13515 7.35836 7.24761
#
# Compressibility (1/GPa) = 0.01652053
#
# Stress axis : x y z
#
# Youngs Moduli (GPa) = 76.96701 55.94685 87.92684
#
# Poissons Ratio (x) = 0.18042 0.27961
# Poissons Ratio (y) = 0.24821 0.56755
# Poissons Ratio (z) = 0.24475 0.36113
#
# Static dielectric constant tensor:
#      x y z
#    x 3.628420 0.000000 0.000000 
#    y 0.000000 3.449300 0.000000 
#    z 0.000000 0.000000 3.427780 
# 
# 
# High freq. dielectric constant tensor:
#      x y z
#    x 1.758280 0.000000 0.000000 
#    y 0.000000 1.735280 0.000000 
#    z 0.000000 0.000000 1.727920 
# 
# From -- ./inp_files/16531.got.cif
#   From: 2010.06.25/outbox.cif.g09.slc.cpg/sg58_9_cif.got.tgz:16531.got - 2010.06.26 21:38:00.
