data_PCOD8236258
_publ_section_title
;
Structure prediction by ZEFSAII (Michael W. Deem and Ramdas Pophale) SiO2 
 PCOD8236258
Probable space group: P N N M
;
_chemical_formula_sum "Si O2"
_cell_formula_units_Z 64
_cell_length_a 12.645245
_cell_length_b 27.680734
_cell_length_c 9.673659
_cell_angle_alpha 90.000000
_cell_angle_beta 90.000000
_cell_angle_gamma 90.000000
_cell_volume 3386.067602
_symmetry_space_group_name_H-M "P N N M"
_symmetry_group_IT_number 58
_symmetry_cell_setting 'orthorhombic'
loop_
_space_group_symop_operation_xyz
x,y,z
-x,-y,z
1/2+x,1/2-y,1/2-z
1/2-x,1/2+y,1/2-z
-x,-y,-z
x,y,-z
1/2-x,1/2+y,1/2+z
1/2+x,1/2-y,1/2+z
loop_
_atom_site_type_symbol
_atom_site_label
_atom_site_fract_x
_atom_site_fract_y
_atom_site_fract_z
Si Si1 0.153609 0.411592 0.151554
Si Si2 0.667090 0.611151 0.340042
Si Si3 0.524562 0.944529 0.848985
Si Si4 0.252132 0.098092 0.838542
Si Si5 0.035458 0.051976 0.837703
Si Si6 0.750988 0.715815 0.342615
Si Si7 0.840254 0.318566 0.839552
Si Si8 0.924293 0.691106 0.149991
O O1 0.253702 0.422415 0.249768
O O2 0.150346 0.354714 0.128025
O O3 0.044692 0.424647 0.225047
O O4 0.163769 0.437178 0.000000
O O5 0.692446 0.600016 0.500000
O O6 0.549231 0.593898 0.301593
O O7 0.681382 0.668111 0.306722
O O8 0.647429 0.936443 0.811796
O O9 0.500000 0.000000 0.861916
O O10 0.499591 0.920261 0.000000
O O11 0.149131 0.069769 0.780360
O O12 0.265852 0.147844 0.753908
O O13 0.238573 0.111306 0.000000
O O14 0.047016 0.044760 0.000000
O O15 0.000000 0.000000 0.773032
O O16 0.788234 0.713030 0.500000
O O17 0.680778 0.762314 0.311760
O O18 0.859814 0.723675 0.257543
O O19 0.961764 0.325361 0.792242
O O20 0.823368 0.332617 0.000000
O O21 0.938815 0.717383 0.000000
#
# Coordination Sequence:
#
# PCOD8236258 Si02
#       8
#     8   8   8   8   8   8   8   8
#     4  10  19  33  54  79 107 140 178 219 274 333
#     4   9  18  34  56  79 107 144 186 233 279 325
#     4  10  21  34  53  82 112 139 176 227 279 330
#     4  10  21  36  56  85 113 142 186 230 273 335
#     4   9  19  35  58  84 111 145 188 236 282 330
#     4   9  19  33  52  79 106 140 186 227 272 330
#     4  10  20  36  55  77 111 149 180 222 282 337
#     4   9  18  33  52  74 105 140 174 218 271 326
#
# _framework density 18.900981999999999
#
# number of rings (size 3 to 8) (size 9 to 14) (size 15 to 20)
#    0.000    2.500    1.250    0.375    1.750    2.750 
#    0.000    3.125    0.000    3.750    0.000    0.000 
#    0.000    0.000    0.000    0.000    0.000    0.000 
#
# Total GULP energy -793136.010405 kJ/mol
# GULP energy per Si atom -12392.750163 kJ/mol
# Density = 1.885796 g / cm^3
# Si number density = 18.900982 Si / 1000 Ang^3
#
#
#
# Elastic Constant Matrix: (Units=GPa)
#
#
# Indices 1 2 3 4 5 6 
#
# 1 138.1148 49.8825 55.1995 0.0000 0.0000 0.0000
# 2 49.8825 86.0476 36.5395 0.0000 0.0000 0.0000
# 3 55.1995 36.5395 81.7219 0.0000 0.0000 0.0000
# 4 0.0000 0.0000 0.0000 45.0073 0.0000 0.0000
# 5 0.0000 0.0000 0.0000 0.0000 22.6739 0.0000
# 6 0.0000 0.0000 0.0000 0.0000 0.0000 23.6287
#
#
#
# Elastic Compliance Matrix: (Units=1/GPa)
#
#
# Indices 1 2 3 4 5 6 
#
# 1 0.010903 -0.003942 -0.005602 0.000000 0.000000 0.000000
# 2 -0.003942 0.015770 -0.004389 0.000000 0.000000 0.000000
# 3 -0.005602 -0.004389 0.017983 0.000000 0.000000 0.000000
# 4 0.000000 0.000000 0.000000 0.022219 0.000000 0.000000
# 5 0.000000 0.000000 0.000000 0.000000 0.044104 0.000000
# 6 0.000000 0.000000 0.000000 0.000000 0.000000 0.042321
#
#
# Mechanical properties :
#
#
# Convention : Reuss Voigt Hill
#
# Bulk Modulus (GPa) = 59.55557 65.45858 62.50708
# Shear Modulus (GPa) = 26.77214 29.21283 27.99248
#
# Velocity S-wave (km/s) = 3.76765 3.93564 3.85256
# Velocity P-wave (km/s) = 7.10665 7.44042 7.27545
#
# Compressibility (1/GPa) = 0.01679104
#
# Stress axis : x y z
#
# Youngs Moduli (GPa) = 91.71906 63.41103 55.60864
#
# Poissons Ratio (x) = 0.24994 0.31152
# Poissons Ratio (y) = 0.36152 0.24405
# Poissons Ratio (z) = 0.51381 0.27829
#
# Static dielectric constant tensor:
#      x y z
#    x 3.521380 0.000000 0.000000 
#    y 0.000000 3.595000 0.000000 
#    z 0.000000 0.000000 3.714180 
# 
# 
# High freq. dielectric constant tensor:
#      x y z
#    x 1.735190 0.000000 0.000000 
#    y 0.000000 1.716900 0.000000 
#    z 0.000000 0.000000 1.721800 
# 
# From -- ./inp_files/4762.got.cif
#   From: 2010.06.25/outbox.cif.g09.slc.cpg/sg58_3_cif.got.tgz:4762.got - 2010.06.26 21:38:00.
