data_PCOD8236657
_publ_section_title
;
Structure prediction by ZEFSAII (Michael W. Deem and Ramdas Pophale) SiO2 
 PCOD8236657
Probable space group: P N N M
;
_chemical_formula_sum "Si O2"
_cell_formula_units_Z 64
_cell_length_a 19.410853
_cell_length_b 19.189596
_cell_length_c 8.450157
_cell_angle_alpha 90.000000
_cell_angle_beta 90.000000
_cell_angle_gamma 90.000000
_cell_volume 3147.568789
_symmetry_space_group_name_H-M "P N N M"
_symmetry_group_IT_number 58
_symmetry_cell_setting 'orthorhombic'
loop_
_space_group_symop_operation_xyz
x,y,z
-x,-y,z
1/2+x,1/2-y,1/2-z
1/2-x,1/2+y,1/2-z
-x,-y,-z
x,y,-z
1/2-x,1/2+y,1/2+z
1/2+x,1/2-y,1/2+z
loop_
_atom_site_type_symbol
_atom_site_label
_atom_site_fract_x
_atom_site_fract_y
_atom_site_fract_z
Si Si1 0.027777 0.637773 0.814167
Si Si2 0.960412 0.091830 0.315857
Si Si3 0.403579 0.546409 0.684679
Si Si4 0.774138 0.886287 0.314868
Si Si5 0.625771 0.122447 0.310790
Si Si6 0.112703 0.764633 0.315366
Si Si7 0.140471 0.533927 0.188284
Si Si8 0.767980 0.737568 0.813849
O O1 0.070669 0.706155 0.775079
O O2 0.069435 0.569695 0.752089
O O3 0.950551 0.640386 0.742605
O O4 0.020602 0.631423 0.000000
O O5 0.955469 0.071410 0.500000
O O6 0.924208 0.163599 0.277881
O O7 0.039625 0.097527 0.261818
O O8 0.923645 0.033599 0.210430
O O9 0.395969 0.562862 0.500000
O O10 0.332691 0.558145 0.775884
O O11 0.768464 0.872266 0.500000
O O12 0.703375 0.918963 0.246755
O O13 0.794290 0.814230 0.230092
O O14 0.625790 0.124482 0.500000
O O15 0.680723 0.178603 0.242068
O O16 0.645801 0.045245 0.248252
O O17 0.113047 0.746270 0.500000
O O18 0.190326 0.770862 0.247460
O O19 0.143859 0.532666 0.000000
O O20 0.767500 0.727839 0.000000
#
# Coordination Sequence:
#
# PCOD8236657 Si02
#       8
#     8   8   8   8   8   8   8   8
#     4  10  19  35  59  88 114 146 193 243 291 343
#     4  10  21  39  61  87 115 153 197 240 293 350
#     4  11  23  39  59  86 117 152 194 245 294 343
#     4  11  22  37  59  84 117 157 194 237 285 348
#     4   9  19  34  59  88 113 143 189 245 292 340
#     4  10  22  37  57  82 118 158 191 234 288 349
#     4   9  18  34  58  86 114 147 191 242 293 342
#     4  10  21  38  57  83 116 153 193 237 289 345
#
# _framework density 20.333155000000001
#
# number of rings (size 3 to 8) (size 9 to 14) (size 15 to 20)
#    0.000    2.000    1.250    3.000    3.500    2.500 
#    0.000    0.000    0.000    3.750    0.000    0.000 
#    0.000    0.000    0.000    0.000    0.000    0.000 
#
# Total GULP energy -793586.134099 kJ/mol
# GULP energy per Si atom -12399.783345 kJ/mol
# Density = 2.028688 g / cm^3
# Si number density = 20.333155 Si / 1000 Ang^3
#
#
#
# Elastic Constant Matrix: (Units=GPa)
#
#
# Indices 1 2 3 4 5 6 
#
# 1 142.8478 72.9640 15.6212 0.0000 0.0000 0.0000
# 2 72.9640 124.0231 8.3897 0.0000 0.0000 0.0000
# 3 15.6212 8.3897 15.1860 0.0000 0.0000 0.0000
# 4 0.0000 0.0000 0.0000 26.4967 0.0000 0.0000
# 5 0.0000 0.0000 0.0000 0.0000 17.7800 0.0000
# 6 0.0000 0.0000 0.0000 0.0000 0.0000 41.0030
#
#
#
# Elastic Compliance Matrix: (Units=1/GPa)
#
#
# Indices 1 2 3 4 5 6 
#
# 1 0.010856 -0.005850 -0.007936 0.000000 0.000000 0.000000
# 2 -0.005850 0.011528 -0.000351 0.000000 0.000000 0.000000
# 3 -0.007936 -0.000351 0.074207 0.000000 0.000000 0.000000
# 4 0.000000 0.000000 0.000000 0.037740 0.000000 0.000000
# 5 0.000000 0.000000 0.000000 0.000000 0.056243 0.000000
# 6 0.000000 0.000000 0.000000 0.000000 0.000000 0.024388
#
#
# Mechanical properties :
#
#
# Convention : Reuss Voigt Hill
#
# Bulk Modulus (GPa) = 14.63741 52.88963 33.76352
# Shear Modulus (GPa) = 18.79626 29.39475 24.09551
#
# Velocity S-wave (km/s) = 3.04372 3.80630 3.44617
# Velocity P-wave (km/s) = 4.42343 6.73686 5.69877
#
# Compressibility (1/GPa) = 0.06831811
#
# Stress axis : x y z
#
# Youngs Moduli (GPa) = 92.11183 86.74198 13.47580
#
# Poissons Ratio (x) = 0.50745 0.10694
# Poissons Ratio (y) = 0.53886 0.00473
# Poissons Ratio (z) = 0.73095 0.03047
#
# Static dielectric constant tensor:
#      x y z
#    x 4.072460 0.000000 0.000000 
#    y 0.000000 3.770160 0.000000 
#    z 0.000000 0.000000 3.308250 
# 
# 
# High freq. dielectric constant tensor:
#      x y z
#    x 1.810290 0.000000 0.000000 
#    y 0.000000 1.801270 0.000000 
#    z 0.000000 0.000000 1.759120 
# 
# From -- ./inp_files/9238.got.cif
#   From: 2010.06.25/outbox.cif.g09.slc.cpg/sg58_5_cif.got.tgz:9238.got - 2010.06.26 21:38:00.
