data_PCOD8236575
_publ_section_title
;
Structure prediction by ZEFSAII (Michael W. Deem and Ramdas Pophale) SiO2 
 PCOD8236575
Probable space group: P N N M
;
_chemical_formula_sum "Si O2"
_cell_formula_units_Z 64
_cell_length_a 19.591215
_cell_length_b 20.653181
_cell_length_c 8.548199
_cell_angle_alpha 90.000000
_cell_angle_beta 90.000000
_cell_angle_gamma 90.000000
_cell_volume 3458.780053
_symmetry_space_group_name_H-M "P N N M"
_symmetry_group_IT_number 58
_symmetry_cell_setting 'orthorhombic'
loop_
_space_group_symop_operation_xyz
x,y,z
-x,-y,z
1/2+x,1/2-y,1/2-z
1/2-x,1/2+y,1/2-z
-x,-y,-z
x,y,-z
1/2-x,1/2+y,1/2+z
1/2+x,1/2-y,1/2+z
loop_
_atom_site_type_symbol
_atom_site_label
_atom_site_fract_x
_atom_site_fract_y
_atom_site_fract_z
Si Si1 0.296232 0.566937 0.317006
Si Si2 0.705580 0.565885 0.181630
Si Si3 0.578720 0.756915 0.180562
Si Si4 0.571859 0.619423 0.318974
Si Si5 0.070489 0.118611 0.316524
Si Si6 0.707684 0.179050 0.816412
Si Si7 0.222844 0.696792 0.681402
Si Si8 0.569872 0.234945 0.816343
O O1 0.286213 0.556376 0.500000
O O2 0.265653 0.504774 0.227244
O O3 0.375885 0.574596 0.275781
O O4 0.254202 0.629579 0.258081
O O5 0.636050 0.575022 0.277792
O O6 0.761929 0.619218 0.222440
O O7 0.688599 0.570633 0.000000
O O8 0.592589 0.693098 0.281221
O O9 0.640710 0.806852 0.205398
O O10 0.506298 0.790173 0.229752
O O11 0.573547 0.734179 0.000000
O O12 0.554424 0.612486 0.500000
O O13 0.506188 0.595363 0.221539
O O14 0.084514 0.112083 0.500000
O O15 0.079002 0.192028 0.252659
O O16 0.748467 0.244921 0.784441
O O17 0.629737 0.188358 0.752629
O O18 0.711385 0.163462 0.000000
O O19 0.241278 0.709247 0.500000
O O20 0.579540 0.238025 0.000000
#
# Coordination Sequence:
#
# PCOD8236575 Si02
#       8
#     8   8   8   8   8   8   8   8
#     4  11  23  38  55  82 113 146 187 234 278 329
#     4  12  25  40  55  76 108 151 191 230 279 333
#     4   9  17  33  55  82 112 144 179 220 273 334
#     4  11  21  34  53  81 111 145 184 230 272 322
#     4  10  19  35  55  79 111 151 186 221 269 331
#     4  11  20  34  57  84 111 143 184 230 275 325
#     4  10  20  34  57  84 113 145 180 227 279 331
#     4   8  16  30  53  82 111 141 177 220 267 322
#
# _framework density 18.503633000000001
#
# number of rings (size 3 to 8) (size 9 to 14) (size 15 to 20)
#    0.000    1.750    2.500    4.125    0.000    1.000 
#    0.000    3.125    0.000    0.750    0.000    5.250 
#    0.000    0.000    0.000    0.000    0.000    0.000 
#
# Total GULP energy -793599.786672 kJ/mol
# GULP energy per Si atom -12399.996667 kJ/mol
# Density = 1.846152 g / cm^3
# Si number density = 18.503633 Si / 1000 Ang^3
#
#
#
# Elastic Constant Matrix: (Units=GPa)
#
#
# Indices 1 2 3 4 5 6 
#
# 1 109.5175 46.3556 14.7966 0.0000 0.0000 0.0000
# 2 46.3556 92.1322 17.9611 0.0000 0.0000 0.0000
# 3 14.7966 17.9611 56.0358 0.0000 0.0000 0.0000
# 4 0.0000 0.0000 0.0000 25.9630 0.0000 0.0000
# 5 0.0000 0.0000 0.0000 0.0000 23.4863 0.0000
# 6 0.0000 0.0000 0.0000 0.0000 0.0000 22.9162
#
#
#
# Elastic Compliance Matrix: (Units=1/GPa)
#
#
# Indices 1 2 3 4 5 6 
#
# 1 0.011687 -0.005631 -0.001281 0.000000 0.000000 0.000000
# 2 -0.005631 0.014290 -0.003094 0.000000 0.000000 0.000000
# 3 -0.001281 -0.003094 0.019176 0.000000 0.000000 0.000000
# 4 0.000000 0.000000 0.000000 0.038516 0.000000 0.000000
# 5 0.000000 0.000000 0.000000 0.000000 0.042578 0.000000
# 6 0.000000 0.000000 0.000000 0.000000 0.000000 0.043637
#
#
# Mechanical properties :
#
#
# Convention : Reuss Voigt Hill
#
# Bulk Modulus (GPa) = 39.77408 46.21247 42.99327
# Shear Modulus (GPa) = 25.21731 26.37791 25.79761
#
# Velocity S-wave (km/s) = 3.69566 3.77975 3.73794
# Velocity P-wave (km/s) = 6.30496 6.63910 6.47418
#
# Compressibility (1/GPa) = 0.02514200
#
# Stress axis : x y z
#
# Youngs Moduli (GPa) = 85.56253 69.97869 52.14945
#
# Poissons Ratio (x) = 0.39402 0.06682
# Poissons Ratio (y) = 0.48177 0.16133
# Poissons Ratio (z) = 0.10964 0.21648
#
# Static dielectric constant tensor:
#      x y z
#    x 3.727960 0.000000 0.000000 
#    y 0.000000 3.280940 0.000000 
#    z 0.000000 0.000000 3.287630 
# 
# 
# High freq. dielectric constant tensor:
#      x y z
#    x 1.723330 0.000000 0.000000 
#    y 0.000000 1.688830 0.000000 
#    z 0.000000 0.000000 1.713600 
# 
# From -- ./inp_files/9320.got.cif
#   From: 2010.06.25/outbox.cif.g09.slc.cpg/sg58_5_cif.got.tgz:9320.got - 2010.06.26 21:38:00.
