data_PCOD8236060
_publ_section_title
;
Structure prediction by ZEFSAII (Michael W. Deem and Ramdas Pophale) SiO2 
 PCOD8236060
Probable space group: P N N M
;
_chemical_formula_sum "Si O2"
_cell_formula_units_Z 48
_cell_length_a 8.457760
_cell_length_b 29.640799
_cell_length_c 10.432089
_cell_angle_alpha 90.000000
_cell_angle_beta 90.000000
_cell_angle_gamma 90.000000
_cell_volume 2615.270091
_symmetry_space_group_name_H-M "P N N M"
_symmetry_group_IT_number 58
_symmetry_cell_setting 'orthorhombic'
loop_
_space_group_symop_operation_xyz
x,y,z
-x,-y,z
1/2+x,1/2-y,1/2-z
1/2-x,1/2+y,1/2-z
-x,-y,-z
x,y,-z
1/2-x,1/2+y,1/2+z
1/2+x,1/2-y,1/2+z
loop_
_atom_site_type_symbol
_atom_site_label
_atom_site_fract_x
_atom_site_fract_y
_atom_site_fract_z
Si Si1 0.482640 0.051978 0.644991
Si Si2 0.455098 0.810528 0.229566
Si Si3 0.652515 0.738119 0.642820
Si Si4 0.746210 0.620343 0.857828
Si Si5 0.340222 0.111482 0.142032
Si Si6 0.491917 0.355513 0.353307
O O1 0.414255 0.057949 0.500000
O O2 0.654272 0.074561 0.654235
O O3 0.365796 0.074149 0.748745
O O4 0.500000 0.000000 0.681265
O O5 0.605059 0.780960 0.272345
O O6 0.333540 0.777599 0.157754
O O7 0.359584 0.835718 0.343274
O O8 0.524900 0.849926 0.139957
O O9 0.628353 0.755290 0.500000
O O10 0.533243 0.697301 0.673906
O O11 0.614530 0.616728 0.747188
O O12 0.669124 0.623583 0.000000
O O13 0.173078 0.134012 0.172413
O O14 0.341117 0.089188 0.000000
O O15 0.440830 0.367390 0.500000
#
# Coordination Sequence:
#
# PCOD8236060 Si02
#       6
#     8   8   8   8   8   8
#     4   9  19  36  57  80 104 130 163 205 252 304
#     4  10  19  32  49  73 101 133 170 213 254 294
#     4  10  19  32  49  70  99 135 173 210 251 295
#     4   9  18  33  53  75 100 131 167 205 250 303
#     4  10  20  35  54  76 102 133 170 209 253 302
#     4   9  19  34  51  73 103 137 171 211 253 295
#
# _framework density 18.353743999999999
#
# number of rings (size 3 to 8) (size 9 to 14) (size 15 to 20)
#    0.000    2.500    0.000    2.000    0.000    5.667 
#    0.000   11.667    0.000    5.000    0.000    0.000 
#    0.000    0.000    0.000    0.000    0.000    0.000 
#
# Total GULP energy -594959.134339 kJ/mol
# GULP energy per Si atom -12394.981965 kJ/mol
# Density = 1.831197 g / cm^3
# Si number density = 18.353744 Si / 1000 Ang^3
#
#
#
# Elastic Constant Matrix: (Units=GPa)
#
#
# Indices 1 2 3 4 5 6 
#
# 1 83.5589 30.4422 40.0901 0.0000 0.0000 0.0000
# 2 30.4422 84.1736 42.2926 0.0000 0.0000 0.0000
# 3 40.0901 42.2926 110.8029 0.0000 0.0000 0.0000
# 4 0.0000 0.0000 0.0000 20.7860 0.0000 0.0000
# 5 0.0000 0.0000 0.0000 0.0000 28.2571 0.0000
# 6 0.0000 0.0000 0.0000 0.0000 0.0000 20.7979
#
#
#
# Elastic Compliance Matrix: (Units=1/GPa)
#
#
# Indices 1 2 3 4 5 6 
#
# 1 0.015224 -0.003388 -0.004215 0.000000 0.000000 0.000000
# 2 -0.003388 0.015453 -0.004672 0.000000 0.000000 0.000000
# 3 -0.004215 -0.004672 0.012334 0.000000 0.000000 0.000000
# 4 0.000000 0.000000 0.000000 0.048109 0.000000 0.000000
# 5 0.000000 0.000000 0.000000 0.000000 0.035389 0.000000
# 6 0.000000 0.000000 0.000000 0.000000 0.000000 0.048082
#
#
# Mechanical properties :
#
#
# Convention : Reuss Voigt Hill
#
# Bulk Modulus (GPa) = 54.17246 56.02058 55.09652
# Shear Modulus (GPa) = 24.35503 25.01556 24.68530
#
# Velocity S-wave (km/s) = 3.64672 3.69584 3.67137
# Velocity P-wave (km/s) = 6.87832 6.98579 6.93227
#
# Compressibility (1/GPa) = 0.01845956
#
# Stress axis : x y z
#
# Youngs Moduli (GPa) = 65.68432 64.71136 81.07938
#
# Poissons Ratio (x) = 0.21925 0.34176
# Poissons Ratio (y) = 0.22255 0.37884
# Poissons Ratio (z) = 0.27687 0.30236
#
# Static dielectric constant tensor:
#      x y z
#    x 3.270430 0.000000 0.000000 
#    y 0.000000 3.198090 0.000000 
#    z 0.000000 0.000000 3.514260 
# 
# 
# High freq. dielectric constant tensor:
#      x y z
#    x 1.703230 0.000000 0.000000 
#    y 0.000000 1.693470 0.000000 
#    z 0.000000 0.000000 1.718470 
# 
# From -- ./inp_files/2876.got.cif
#   From: 2010.06.25/outbox.cif.g09.slc.cpg/sg58_2_cif.got.tgz:2876.got - 2010.06.26 21:38:00.
