data_PCOD8236925
_publ_section_title
;
Structure prediction by ZEFSAII (Michael W. Deem and Ramdas Pophale) SiO2 
 PCOD8236925
Probable space group: P N N M
;
_chemical_formula_sum "Si O2"
_cell_formula_units_Z 48
_cell_length_a 30.934708
_cell_length_b 9.462968
_cell_length_c 9.067560
_cell_angle_alpha 90.000000
_cell_angle_beta 90.000000
_cell_angle_gamma 90.000000
_cell_volume 2654.384486
_symmetry_space_group_name_H-M "P N N M"
_symmetry_group_IT_number 58
_symmetry_cell_setting 'orthorhombic'
loop_
_space_group_symop_operation_xyz
x,y,z
-x,-y,z
1/2+x,1/2-y,1/2-z
1/2-x,1/2+y,1/2-z
-x,-y,-z
x,y,-z
1/2-x,1/2+y,1/2+z
1/2+x,1/2-y,1/2+z
loop_
_atom_site_type_symbol
_atom_site_label
_atom_site_fract_x
_atom_site_fract_y
_atom_site_fract_z
Si Si1 0.214570 0.600918 0.170629
Si Si2 0.963459 0.390773 0.672697
Si Si3 0.868922 0.405881 0.337022
Si Si4 0.459115 0.402385 0.329020
Si Si5 0.625387 0.570545 0.165212
Si Si6 0.289125 0.431838 0.328101
O O1 0.167143 0.545800 0.220093
O O2 0.249516 0.519805 0.265841
O O3 0.219209 0.766894 0.203111
O O4 0.220917 0.564135 0.000000
O O5 0.966401 0.351992 0.500000
O O6 0.916590 0.462478 0.707284
O O7 0.000000 0.500000 0.721947
O O8 0.970680 0.250185 0.765431
O O9 0.855468 0.460516 0.500000
O O10 0.873044 0.238196 0.338894
O O11 0.500000 0.500000 0.301154
O O12 0.447424 0.386220 0.500000
O O13 0.418177 0.475521 0.249093
O O14 0.667434 0.512430 0.249743
O O15 0.625010 0.507077 0.000000
O O16 0.294012 0.462205 0.500000
#
# Coordination Sequence:
#
# PCOD8236925 Si02
#       6
#     8   8   8   8   8   8
#     4  10  20  33  51  75 100 130 168 204 244 296
#     4   9  18  33  53  76 100 129 167 209 252 297
#     4   8  15  29  49  71  96 128 164 202 245 293
#     4  10  20  33  50  74 103 134 168 205 246 293
#     4   9  17  31  52  74  97 130 169 204 243 295
#     4  10  20  34  53  76 102 131 164 205 250 294
#
# _framework density 18.083289000000001
#
# number of rings (size 3 to 8) (size 9 to 14) (size 15 to 20)
#    0.000    2.667    0.000    3.000    0.000    7.667 
#    0.000    1.667    0.000    6.000    0.000    0.000 
#    0.000    0.000    0.000    0.000    0.000    0.000 
#
# Total GULP energy -595137.538296 kJ/mol
# GULP energy per Si atom -12398.698715 kJ/mol
# Density = 1.804213 g / cm^3
# Si number density = 18.083289 Si / 1000 Ang^3
#
#
#
# Elastic Constant Matrix: (Units=GPa)
#
#
# Indices 1 2 3 4 5 6 
#
# 1 156.4261 47.3499 83.6760 0.0000 0.0000 0.0000
# 2 47.3499 39.6562 43.5057 0.0000 0.0000 0.0000
# 3 83.6760 43.5057 127.3945 0.0000 0.0000 0.0000
# 4 0.0000 0.0000 0.0000 21.6280 0.0000 0.0000
# 5 0.0000 0.0000 0.0000 0.0000 49.1573 0.0000
# 6 0.0000 0.0000 0.0000 0.0000 0.0000 24.7478
#
#
#
# Elastic Compliance Matrix: (Units=1/GPa)
#
#
# Indices 1 2 3 4 5 6 
#
# 1 0.011461 -0.008677 -0.004565 0.000000 0.000000 0.000000
# 2 -0.008677 0.046893 -0.010315 0.000000 0.000000 0.000000
# 3 -0.004565 -0.010315 0.014371 0.000000 0.000000 0.000000
# 4 0.000000 0.000000 0.000000 0.046236 0.000000 0.000000
# 5 0.000000 0.000000 0.000000 0.000000 0.020343 0.000000
# 6 0.000000 0.000000 0.000000 0.000000 0.000000 0.040408
#
#
# Mechanical properties :
#
#
# Convention : Reuss Voigt Hill
#
# Bulk Modulus (GPa) = 39.04478 74.72667 56.88573
# Shear Modulus (GPa) = 21.24385 29.03629 25.14007
#
# Velocity S-wave (km/s) = 3.43122 4.01146 3.73263
# Velocity P-wave (km/s) = 6.11034 7.92900 7.07832
#
# Compressibility (1/GPa) = 0.02561162
#
# Stress axis : x y z
#
# Youngs Moduli (GPa) = 87.25228 21.32501 69.58663
#
# Poissons Ratio (x) = 0.18503 0.31765
# Poissons Ratio (y) = 0.75706 0.71780
# Poissons Ratio (z) = 0.39829 0.21997
#
# Static dielectric constant tensor:
#      x y z
#    x 3.751160 0.000000 0.000000 
#    y 0.000000 2.913290 0.000000 
#    z 0.000000 0.000000 3.510990 
# 
# 
# High freq. dielectric constant tensor:
#      x y z
#    x 1.719810 0.000000 0.000000 
#    y 0.000000 1.652710 0.000000 
#    z 0.000000 0.000000 1.711830 
# 
# From -- ./inp_files/4507.got.cif
#   From: 2010.06.25/outbox.cif.g09.slc.cpg/sg58_3_cif.got.tgz:4507.got - 2010.06.26 21:38:00.
