data_PCOD8236668
_publ_section_title
;
Structure prediction by ZEFSAII (Michael W. Deem and Ramdas Pophale) SiO2 
 PCOD8236668
Probable space group: P N N M
;
_chemical_formula_sum "Si O2"
_cell_formula_units_Z 40
_cell_length_a 26.628372
_cell_length_b 10.208608
_cell_length_c 7.743575
_cell_angle_alpha 90.000000
_cell_angle_beta 90.000000
_cell_angle_gamma 90.000000
_cell_volume 2105.002675
_symmetry_space_group_name_H-M "P N N M"
_symmetry_group_IT_number 58
_symmetry_cell_setting 'orthorhombic'
loop_
_space_group_symop_operation_xyz
x,y,z
-x,-y,z
1/2+x,1/2-y,1/2-z
1/2-x,1/2+y,1/2-z
-x,-y,-z
x,y,-z
1/2-x,1/2+y,1/2+z
1/2+x,1/2-y,1/2+z
loop_
_atom_site_type_symbol
_atom_site_label
_atom_site_fract_x
_atom_site_fract_y
_atom_site_fract_z
Si Si1 0.603129 0.478327 0.198914
Si Si2 0.530024 0.867563 0.500000
Si Si3 0.294762 0.202260 0.697674
Si Si4 0.405338 0.220395 0.808163
Si Si5 0.961497 0.882225 0.000000
Si Si6 0.217108 0.986920 0.702982
O O1 0.584956 0.626834 0.230162
O O2 0.572077 0.385680 0.326641
O O3 0.661323 0.465171 0.250953
O O4 0.593829 0.435815 0.000000
O O5 0.564783 0.864563 0.669558
O O6 0.489780 0.753498 0.500000
O O7 0.500000 0.000000 0.500000
O O8 0.307072 0.170916 0.500000
O O9 0.345981 0.191813 0.804407
O O10 0.255848 0.095567 0.773123
O O11 0.270655 0.347047 0.711063
O O12 0.424536 0.184021 0.000000
O O13 0.000000 0.000000 0.000000
O O14 0.221597 0.967907 0.500000
#
# Coordination Sequence:
#
# PCOD8236668 Si02
#       6
#     8   4   8   8   4   8
#     4   9  19  37  61  89 118 145 197 255 291 347
#     4  12  26  44  60  88 124 156 204 250 298 362
#     4  10  19  35  60  86 119 157 195 242 290 353
#     4  10  20  39  64  86 118 159 197 240 302 360
#     4  12  22  38  66  90 108 156 206 240 300 344
#     4   9  20  36  54  85 121 154 193 241 294 351
#
# _framework density 19.002351000000001
#
# number of rings (size 3 to 8) (size 9 to 14) (size 15 to 20)
#    0.000    2.000    3.000    1.800    4.200    3.200 
#    3.600    0.000    0.000    0.000    0.000    0.000 
#    0.000    0.000    0.000    0.000    0.000    0.000 
#
# Total GULP energy -496062.222701 kJ/mol
# GULP energy per Si atom -12401.555568 kJ/mol
# Density = 1.895910 g / cm^3
# Si number density = 19.002351 Si / 1000 Ang^3
#
#
#
# Elastic Constant Matrix: (Units=GPa)
#
#
# Indices 1 2 3 4 5 6 
#
# 1 94.1850 69.0100 48.3167 0.0000 0.0000 0.0000
# 2 69.0100 109.6400 39.3035 0.0000 0.0000 0.0000
# 3 48.3167 39.3035 102.3224 0.0000 0.0000 0.0000
# 4 0.0000 0.0000 0.0000 18.4119 0.0000 0.0000
# 5 0.0000 0.0000 0.0000 0.0000 28.5776 0.0000
# 6 0.0000 0.0000 0.0000 0.0000 0.0000 40.4136
#
#
#
# Elastic Compliance Matrix: (Units=1/GPa)
#
#
# Indices 1 2 3 4 5 6 
#
# 1 0.022498 -0.012006 -0.006012 0.000000 0.000000 0.000000
# 2 -0.012006 0.016984 -0.000855 0.000000 0.000000 0.000000
# 3 -0.006012 -0.000855 0.012940 0.000000 0.000000 0.000000
# 4 0.000000 0.000000 0.000000 0.054313 0.000000 0.000000
# 5 0.000000 0.000000 0.000000 0.000000 0.034992 0.000000
# 6 0.000000 0.000000 0.000000 0.000000 0.000000 0.024744
#
#
# Mechanical properties :
#
#
# Convention : Reuss Voigt Hill
#
# Bulk Modulus (GPa) = 68.13208 68.82311 68.47759
# Shear Modulus (GPa) = 23.91097 27.44843 25.67970
#
# Velocity S-wave (km/s) = 3.55112 3.80475 3.68012
# Velocity P-wave (km/s) = 7.26267 7.45643 7.36019
#
# Compressibility (1/GPa) = 0.01467737
#
# Stress axis : x y z
#
# Youngs Moduli (GPa) = 44.44774 58.87959 77.27833
#
# Poissons Ratio (x) = 0.70689 0.46461
# Poissons Ratio (y) = 0.53363 0.06604
# Poissons Ratio (z) = 0.26723 0.05032
#
# Static dielectric constant tensor:
#      x y z
#    x 3.530370 0.000000 0.000000 
#    y 0.000000 3.211480 0.000000 
#    z 0.000000 0.000000 3.558310 
# 
# 
# High freq. dielectric constant tensor:
#      x y z
#    x 1.738460 0.000000 0.000000 
#    y 0.000000 1.709210 0.000000 
#    z 0.000000 0.000000 1.751400 
# 
# From -- ./inp_files/10282.got.cif
#   From: 2010.06.25/outbox.cif.g09.slc.cpg/sg58_6_cif.got.tgz:10282.got - 2010.06.26 21:38:00.
