data_PCOD8236118
_publ_section_title
;
Structure prediction by ZEFSAII (Michael W. Deem and Ramdas Pophale) SiO2 
 PCOD8236118
Probable space group: P N N M
;
_chemical_formula_sum "Si O2"
_cell_formula_units_Z 56
_cell_length_a 14.859259
_cell_length_b 21.024821
_cell_length_c 9.178543
_cell_angle_alpha 90.000000
_cell_angle_beta 90.000000
_cell_angle_gamma 90.000000
_cell_volume 2867.498547
_symmetry_space_group_name_H-M "P N N M"
_symmetry_group_IT_number 58
_symmetry_cell_setting 'orthorhombic'
loop_
_space_group_symop_operation_xyz
x,y,z
-x,-y,z
1/2+x,1/2-y,1/2-z
1/2-x,1/2+y,1/2-z
-x,-y,-z
x,y,-z
1/2-x,1/2+y,1/2+z
1/2+x,1/2-y,1/2+z
loop_
_atom_site_type_symbol
_atom_site_label
_atom_site_fract_x
_atom_site_fract_y
_atom_site_fract_z
Si Si1 0.744283 0.960187 0.669319
Si Si2 0.521886 0.773196 0.331296
Si Si3 0.237659 0.900066 0.669440
Si Si4 0.072431 0.864753 0.162585
Si Si5 0.080157 0.049545 0.837714
Si Si6 0.182177 0.268544 0.173022
Si Si7 0.824561 0.338641 0.673299
O O1 0.731972 0.942352 0.500000
O O2 0.849158 0.959272 0.709707
O O3 0.693915 0.909568 0.769515
O O4 0.710091 0.033035 0.700197
O O5 0.519242 0.795276 0.500000
O O6 0.580666 0.709914 0.310481
O O7 0.420636 0.761607 0.272042
O O8 0.576082 0.823770 0.234852
O O9 0.224824 0.890230 0.500000
O O10 0.137705 0.904761 0.734398
O O11 0.287115 0.837805 0.734640
O O12 0.967315 0.882083 0.185532
O O13 0.102328 0.883412 0.000000
O O14 0.125038 0.046486 0.000000
O O15 0.000000 0.000000 0.823959
O O16 0.247323 0.211215 0.229465
O O17 0.185104 0.267492 0.000000
O O18 0.828224 0.339124 0.500000
#
# Coordination Sequence:
#
# PCOD8236118 Si02
#       7
#     8   8   8   8   8   8   8
#     4  11  23  36  54  82 117 152 192 243 291 339
#     4  10  20  36  59  85 112 143 189 242 287 335
#     4  10  20  36  57  81 111 149 193 235 280 337
#     4  10  19  32  53  81 113 147 181 229 287 344
#     4  10  19  32  52  79 113 152 189 224 281 355
#     4   9  19  38  62  84 111 151 194 235 284 344
#     4  11  22  39  62  85 116 154 191 235 291 350
#
# _framework density 19.529216999999999
#
# number of rings (size 3 to 8) (size 9 to 14) (size 15 to 20)
#    0.000    1.857    2.857    1.714    0.000    3.714 
#    0.000    4.286    0.000    4.286    0.000    0.000 
#    0.000    0.000    0.000    0.000    0.000    0.000 
#
# Total GULP energy -694012.959776 kJ/mol
# GULP energy per Si atom -12393.088567 kJ/mol
# Density = 1.948477 g / cm^3
# Si number density = 19.529217 Si / 1000 Ang^3
#
#
#
# Elastic Constant Matrix: (Units=GPa)
#
#
# Indices 1 2 3 4 5 6 
#
# 1 65.6092 20.3053 20.5275 0.0000 0.0000 0.0000
# 2 20.3053 103.2505 34.4444 0.0000 0.0000 0.0000
# 3 20.5275 34.4444 51.6854 0.0000 0.0000 0.0000
# 4 0.0000 0.0000 0.0000 27.7896 0.0000 0.0000
# 5 0.0000 0.0000 0.0000 0.0000 26.5322 0.0000
# 6 0.0000 0.0000 0.0000 0.0000 0.0000 23.4809
#
#
#
# Elastic Compliance Matrix: (Units=1/GPa)
#
#
# Indices 1 2 3 4 5 6 
#
# 1 0.017572 -0.001450 -0.006013 0.000000 0.000000 0.000000
# 2 -0.001450 0.012574 -0.007803 0.000000 0.000000 0.000000
# 3 -0.006013 -0.007803 0.026936 0.000000 0.000000 0.000000
# 4 0.000000 0.000000 0.000000 0.035985 0.000000 0.000000
# 5 0.000000 0.000000 0.000000 0.000000 0.037690 0.000000
# 6 0.000000 0.000000 0.000000 0.000000 0.000000 0.042588
#
#
# Mechanical properties :
#
#
# Convention : Reuss Voigt Hill
#
# Bulk Modulus (GPa) = 37.66537 41.23327 39.44932
# Shear Modulus (GPa) = 23.50445 25.24508 24.37476
#
# Velocity S-wave (km/s) = 3.47299 3.59929 3.53670
# Velocity P-wave (km/s) = 5.95069 6.19941 6.07632
#
# Compressibility (1/GPa) = 0.02654959
#
# Stress axis : x y z
#
# Youngs Moduli (GPa) = 56.90975 79.53200 37.12467
#
# Poissons Ratio (x) = 0.11531 0.22322
# Poissons Ratio (y) = 0.08251 0.28970
# Poissons Ratio (z) = 0.34218 0.62063
#
# Static dielectric constant tensor:
#      x y z
#    x 3.497940 0.000000 0.000000 
#    y 0.000000 4.031410 0.000000 
#    z 0.000000 0.000000 3.345350 
# 
# 
# High freq. dielectric constant tensor:
#      x y z
#    x 1.737990 0.000000 0.000000 
#    y 0.000000 1.777010 0.000000 
#    z 0.000000 0.000000 1.738760 
# 
# From -- ./inp_files/6300.got.cif
#   From: 2010.06.25/outbox.cif.g09.slc.cpg/sg58_4_cif.got.tgz:6300.got - 2010.06.26 21:38:00.
