data_PCOD8236360
_publ_section_title
;
Structure prediction by ZEFSAII (Michael W. Deem and Ramdas Pophale) SiO2 
 PCOD8236360
Probable space group: P N N M
;
_chemical_formula_sum "Si O2"
_cell_formula_units_Z 48
_cell_length_a 12.478125
_cell_length_b 21.819446
_cell_length_c 8.876310
_cell_angle_alpha 90.000000
_cell_angle_beta 90.000000
_cell_angle_gamma 90.000000
_cell_volume 2416.715418
_symmetry_space_group_name_H-M "P N N M"
_symmetry_group_IT_number 58
_symmetry_cell_setting 'orthorhombic'
loop_
_space_group_symop_operation_xyz
x,y,z
-x,-y,z
1/2+x,1/2-y,1/2-z
1/2-x,1/2+y,1/2-z
-x,-y,-z
x,y,-z
1/2-x,1/2+y,1/2+z
1/2+x,1/2-y,1/2+z
loop_
_atom_site_type_symbol
_atom_site_label
_atom_site_fract_x
_atom_site_fract_y
_atom_site_fract_z
Si Si1 0.873062 0.854288 0.173511
Si Si2 0.857251 0.326075 0.678255
Si Si3 0.247443 0.396094 0.321094
Si Si4 0.086889 0.807804 0.677344
Si Si5 0.884277 0.993171 0.173662
Si Si6 0.012827 0.430500 0.320454
O O1 0.766203 0.820782 0.234633
O O2 0.840991 0.925123 0.193644
O O3 0.976349 0.837958 0.270356
O O4 0.899775 0.838757 0.000000
O O5 0.853911 0.333876 0.500000
O O6 0.916477 0.263531 0.725673
O O7 0.920246 0.385298 0.744375
O O8 0.254415 0.390214 0.500000
O O9 0.308502 0.338291 0.250856
O O10 0.301674 0.458267 0.256822
O O11 0.124513 0.399898 0.267649
O O12 0.097215 0.815443 0.500000
O O13 0.897486 0.011553 0.000000
O O14 0.000000 0.000000 0.253763
O O15 0.008158 0.433573 0.500000
O O16 0.000000 0.500000 0.256520
#
# Coordination Sequence:
#
# PCOD8236360 Si02
#       6
#     8   8   8   8   8   8
#     4  10  19  36  59  77 102 140 182 220 267 322
#     4   9  20  35  52  77 109 142 175 222 274 321
#     4  10  19  33  57  83 109 143 182 223 273 329
#     4  11  23  36  50  78 117 147 177 219 268 319
#     4   9  15  27  50  81 105 125 171 229 262 295
#     4   9  17  32  57  87 110 133 178 238 287 320
#
# _framework density 19.861668000000002
#
# number of rings (size 3 to 8) (size 9 to 14) (size 15 to 20)
#    0.000    2.333    1.667    1.500    2.333    4.000 
#    0.000    2.500    0.000    1.500    0.000    0.000 
#    0.000    0.000    0.000    0.000    0.000    0.000 
#
# Total GULP energy -594948.241155 kJ/mol
# GULP energy per Si atom -12394.755024 kJ/mol
# Density = 1.981646 g / cm^3
# Si number density = 19.861668 Si / 1000 Ang^3
#
#
#
# Elastic Constant Matrix: (Units=GPa)
#
#
# Indices 1 2 3 4 5 6 
#
# 1 138.4263 55.4186 23.5235 0.0000 0.0000 0.0000
# 2 55.4186 108.3428 23.4013 0.0000 0.0000 0.0000
# 3 23.5235 23.4013 29.1832 0.0000 0.0000 0.0000
# 4 0.0000 0.0000 0.0000 16.5619 0.0000 0.0000
# 5 0.0000 0.0000 0.0000 0.0000 10.9242 0.0000
# 6 0.0000 0.0000 0.0000 0.0000 0.0000 32.4349
#
#
#
# Elastic Compliance Matrix: (Units=1/GPa)
#
#
# Indices 1 2 3 4 5 6 
#
# 1 0.009565 -0.003903 -0.004580 0.000000 0.000000 0.000000
# 2 -0.003903 0.012756 -0.007083 0.000000 0.000000 0.000000
# 3 -0.004580 -0.007083 0.043637 0.000000 0.000000 0.000000
# 4 0.000000 0.000000 0.000000 0.060380 0.000000 0.000000
# 5 0.000000 0.000000 0.000000 0.000000 0.091540 0.000000
# 6 0.000000 0.000000 0.000000 0.000000 0.000000 0.030831
#
#
# Mechanical properties :
#
#
# Convention : Reuss Voigt Hill
#
# Bulk Modulus (GPa) = 28.71353 53.40434 41.05894
# Shear Modulus (GPa) = 17.15557 23.55812 20.35685
#
# Velocity S-wave (km/s) = 2.94216 3.44773 3.20493
# Velocity P-wave (km/s) = 5.10195 6.54184 5.86624
#
# Compressibility (1/GPa) = 0.03482678
#
# Stress axis : x y z
#
# Youngs Moduli (GPa) = 104.54696 78.39209 22.91612
#
# Poissons Ratio (x) = 0.30600 0.10496
# Poissons Ratio (y) = 0.40809 0.16231
# Poissons Ratio (z) = 0.47883 0.55522
#
# Static dielectric constant tensor:
#      x y z
#    x 3.840070 0.000000 0.000000 
#    y 0.000000 3.775130 0.000000 
#    z 0.000000 0.000000 3.022670 
# 
# 
# High freq. dielectric constant tensor:
#      x y z
#    x 1.791670 0.000000 0.000000 
#    y 0.000000 1.785450 0.000000 
#    z 0.000000 0.000000 1.705600 
# 
# From -- ./inp_files/4209.got.cif
#   From: 2010.06.25/outbox.cif.g09.slc.cpg/sg58_3_cif.got.tgz:4209.got - 2010.06.26 21:38:00.
