data_PCOD8236313
_publ_section_title
;
Structure prediction by ZEFSAII (Michael W. Deem and Ramdas Pophale) SiO2 
 PCOD8236313
Probable space group: P N N M
;
_chemical_formula_sum "Si O2"
_cell_formula_units_Z 56
_cell_length_a 13.908305
_cell_length_b 22.797153
_cell_length_c 8.897969
_cell_angle_alpha 90.000000
_cell_angle_beta 90.000000
_cell_angle_gamma 90.000000
_cell_volume 2821.276869
_symmetry_space_group_name_H-M "P N N M"
_symmetry_group_IT_number 58
_symmetry_cell_setting 'orthorhombic'
loop_
_space_group_symop_operation_xyz
x,y,z
-x,-y,z
1/2+x,1/2-y,1/2-z
1/2-x,1/2+y,1/2-z
-x,-y,-z
x,y,-z
1/2-x,1/2+y,1/2+z
1/2+x,1/2-y,1/2+z
loop_
_atom_site_type_symbol
_atom_site_label
_atom_site_fract_x
_atom_site_fract_y
_atom_site_fract_z
Si Si1 0.310407 0.172486 0.175144
Si Si2 0.598918 0.124344 0.326561
Si Si3 0.377424 0.661186 0.173849
Si Si4 0.503864 0.230306 0.171962
Si Si5 0.100915 0.027357 0.677438
Si Si6 0.601219 0.936103 0.673650
Si Si7 0.716038 0.032634 0.822798
O O1 0.205833 0.193330 0.229097
O O2 0.391361 0.221222 0.212548
O O3 0.328211 0.115013 0.273921
O O4 0.310099 0.156134 0.000000
O O5 0.626992 0.128861 0.500000
O O6 0.573047 0.189107 0.269848
O O7 0.508476 0.081474 0.299884
O O8 0.690547 0.097918 0.237620
O O9 0.471801 0.701413 0.200436
O O10 0.398174 0.595271 0.230374
O O11 0.347218 0.661266 0.000000
O O12 0.522069 0.212128 0.000000
O O13 0.115154 0.022343 0.500000
O O14 0.184659 0.990545 0.755131
O O15 0.000000 0.000000 0.728990
O O16 0.622232 0.950557 0.500000
O O17 0.626479 0.992624 0.771758
O O18 0.725415 0.033898 0.000000
#
# Coordination Sequence:
#
# PCOD8236313 Si02
#       7
#     8   8   8   8   8   8   8
#     4  10  19  33  56  85 115 150 193 242 293 355
#     4  10  21  36  56  84 118 153 190 237 288 349
#     4  10  20  38  63  84 114 156 193 241 294 348
#     4   9  20  38  57  83 119 154 193 241 299 354
#     4  10  22  41  63  86 114 154 203 246 291 349
#     4  10  19  33  55  83 114 149 192 235 284 348
#     4  12  23  35  56  85 119 155 190 236 294 348
#
# _framework density 19.849167999999999
#
# number of rings (size 3 to 8) (size 9 to 14) (size 15 to 20)
#    0.000    1.857    1.429    3.000    0.000    4.857 
#    2.571    0.000    0.000    0.000    0.000    0.000 
#    0.000    0.000    0.000    0.000    0.000    0.000 
#
# Total GULP energy -694386.753151 kJ/mol
# GULP energy per Si atom -12399.763449 kJ/mol
# Density = 1.980399 g / cm^3
# Si number density = 19.849168 Si / 1000 Ang^3
#
#
#
# Elastic Constant Matrix: (Units=GPa)
#
#
# Indices 1 2 3 4 5 6 
#
# 1 88.3732 67.0225 41.2309 0.0000 0.0000 0.0000
# 2 67.0225 81.0736 33.7285 0.0000 0.0000 0.0000
# 3 41.2309 33.7285 71.5154 0.0000 0.0000 0.0000
# 4 0.0000 0.0000 0.0000 24.1432 0.0000 0.0000
# 5 0.0000 0.0000 0.0000 0.0000 26.7879 0.0000
# 6 0.0000 0.0000 0.0000 0.0000 0.0000 29.6309
#
#
#
# Elastic Compliance Matrix: (Units=1/GPa)
#
#
# Indices 1 2 3 4 5 6 
#
# 1 0.033482 -0.024444 -0.007775 0.000000 0.000000 0.000000
# 2 -0.024444 0.033192 -0.001561 0.000000 0.000000 0.000000
# 3 -0.007775 -0.001561 0.019202 0.000000 0.000000 0.000000
# 4 0.000000 0.000000 0.000000 0.041419 0.000000 0.000000
# 5 0.000000 0.000000 0.000000 0.000000 0.037330 0.000000
# 6 0.000000 0.000000 0.000000 0.000000 0.000000 0.033749
#
#
# Mechanical properties :
#
#
# Convention : Reuss Voigt Hill
#
# Bulk Modulus (GPa) = 54.60088 58.32511 56.46300
# Shear Modulus (GPa) = 18.37975 22.71111 20.54543
#
# Velocity S-wave (km/s) = 3.04628 3.38625 3.22075
# Velocity P-wave (km/s) = 6.31986 6.68856 6.50683
#
# Compressibility (1/GPa) = 0.01831472
#
# Stress axis : x y z
#
# Youngs Moduli (GPa) = 29.86710 30.12788 52.07908
#
# Poissons Ratio (x) = 0.73646 0.40490
# Poissons Ratio (y) = 0.73008 0.08130
# Poissons Ratio (z) = 0.23221 0.04703
#
# Static dielectric constant tensor:
#      x y z
#    x 3.624340 0.000000 0.000000 
#    y 0.000000 3.583150 0.000000 
#    z 0.000000 0.000000 3.556590 
# 
# 
# High freq. dielectric constant tensor:
#      x y z
#    x 1.769830 0.000000 0.000000 
#    y 0.000000 1.763870 0.000000 
#    z 0.000000 0.000000 1.772960 
# 
# From -- ./inp_files/6316.got.cif
#   From: 2010.06.25/outbox.cif.g09.slc.cpg/sg58_4_cif.got.tgz:6316.got - 2010.06.26 21:38:00.
