data_PCOD8236741
_publ_section_title
;
Structure prediction by ZEFSAII (Michael W. Deem and Ramdas Pophale) SiO2 
 PCOD8236741
Probable space group: P N N M
;
_chemical_formula_sum "Si O2"
_cell_formula_units_Z 52
_cell_length_a 13.775667
_cell_length_b 9.161292
_cell_length_c 19.704812
_cell_angle_alpha 90.000000
_cell_angle_beta 90.000000
_cell_angle_gamma 90.000000
_cell_volume 2486.804574
_symmetry_space_group_name_H-M "P N N M"
_symmetry_group_IT_number 58
_symmetry_cell_setting 'orthorhombic'
loop_
_space_group_symop_operation_xyz
x,y,z
-x,-y,z
1/2+x,1/2-y,1/2-z
1/2-x,1/2+y,1/2-z
-x,-y,-z
x,y,-z
1/2-x,1/2+y,1/2+z
1/2+x,1/2-y,1/2+z
loop_
_atom_site_type_symbol
_atom_site_label
_atom_site_fract_x
_atom_site_fract_y
_atom_site_fract_z
Si Si1 0.891409 0.060669 0.500000
Si Si2 0.134319 0.385730 0.604283
Si Si3 0.029631 0.331122 0.854240
Si Si4 0.749273 0.287421 0.000000
Si Si5 0.873024 0.270182 0.752825
Si Si6 0.979327 0.331467 0.000000
Si Si7 0.187690 0.407105 0.244520
Si Si8 0.424051 0.201301 0.102907
O O1 0.875569 0.160202 0.433355
O O2 0.807146 0.940897 0.500000
O O3 0.000000 0.000000 0.500000
O O4 0.222379 0.303152 0.567506
O O5 0.137318 0.363412 0.684945
O O6 0.139099 0.557329 0.585748
O O7 0.033949 0.318363 0.576298
O O8 0.134326 0.320452 0.817314
O O9 0.000000 0.500000 0.853229
O O10 0.950359 0.239061 0.812103
O O11 0.029231 0.266745 0.931331
O O12 0.863960 0.309197 0.000000
O O13 0.815189 0.419752 0.767685
O O14 0.799652 0.135951 0.747766
O O15 0.931349 0.277746 0.683065
O O16 0.000000 0.500000 0.000000
#
# Coordination Sequence:
#
# PCOD8236741 Si02
#       8
#     4   8   8   4   8   4   8   8
#     4  12  23  35  51  90 131 146 180 245 318 360
#     4  10  19  36  60  82 116 164 208 234 289 375
#     4   9  18  36  58  80 114 152 195 238 282 352
#     4  12  23  36  61  91 120 157 201 250 299 367
#     4  10  20  36  57  86 115 154 200 246 293 350
#     4  10  22  37  57  85 115 156 201 243 296 350
#     4  10  20  36  60  86 115 155 202 243 291 347
#     4  10  20  36  55  81 121 164 191 241 307 366
#
# _framework density 20.91037
#
# number of rings (size 3 to 8) (size 9 to 14) (size 15 to 20)
#    0.000    1.846    3.077    1.385    0.000    6.154 
#    0.000    0.769    0.000    0.000    0.000   16.154 
#    0.000    0.000    0.000    0.000    0.000    0.000 
#
# Total GULP energy -644682.240995 kJ/mol
# GULP energy per Si atom -12397.735404 kJ/mol
# Density = 2.086278 g / cm^3
# Si number density = 20.910370 Si / 1000 Ang^3
#
#
#
# Elastic Constant Matrix: (Units=GPa)
#
#
# Indices 1 2 3 4 5 6 
#
# 1 50.3738 10.9932 18.3818 0.0000 0.0000 0.0000
# 2 10.9932 57.9568 26.5417 0.0000 0.0000 0.0000
# 3 18.3818 26.5417 136.6892 0.0000 0.0000 0.0000
# 4 0.0000 0.0000 0.0000 19.6967 0.0000 0.0000
# 5 0.0000 0.0000 0.0000 0.0000 23.2484 0.0000
# 6 0.0000 0.0000 0.0000 0.0000 0.0000 32.0437
#
#
#
# Elastic Compliance Matrix: (Units=1/GPa)
#
#
# Indices 1 2 3 4 5 6 
#
# 1 0.021341 -0.003000 -0.002287 0.000000 0.000000 0.000000
# 2 -0.003000 0.019360 -0.003356 0.000000 0.000000 0.000000
# 3 -0.002287 -0.003356 0.008275 0.000000 0.000000 0.000000
# 4 0.000000 0.000000 0.000000 0.050770 0.000000 0.000000
# 5 0.000000 0.000000 0.000000 0.000000 0.043014 0.000000
# 6 0.000000 0.000000 0.000000 0.000000 0.000000 0.031207
#
#
# Mechanical properties :
#
#
# Convention : Reuss Voigt Hill
#
# Bulk Modulus (GPa) = 31.55652 39.65036 35.60344
# Shear Modulus (GPa) = 24.77488 27.60464 26.18976
#
# Velocity S-wave (km/s) = 3.44585 3.63732 3.54287
# Velocity P-wave (km/s) = 5.56380 6.05337 5.81374
#
# Compressibility (1/GPa) = 0.03168917
#
# Stress axis : x y z
#
# Youngs Moduli (GPa) = 46.85809 51.65246 120.84495
#
# Poissons Ratio (x) = 0.15498 0.27641
# Poissons Ratio (y) = 0.14060 0.40553
# Poissons Ratio (z) = 0.10718 0.17333
#
# Static dielectric constant tensor:
#      x y z
#    x 3.313160 0.000000 0.000000 
#    y 0.000000 4.087750 0.000000 
#    z 0.000000 0.000000 4.291670 
# 
# 
# High freq. dielectric constant tensor:
#      x y z
#    x 1.801600 0.000000 0.000000 
#    y 0.000000 1.790080 0.000000 
#    z 0.000000 0.000000 1.836540 
# 
# From -- ./inp_files/29986.got.cif
#   From: 2010.06.25/outbox.cif.g09.slc.cpg/sg58_15_cif.got.tgz:29986.got - 2010.06.26 21:38:00.
