data_PCOD8236574
_publ_section_title
;
Structure prediction by ZEFSAII (Michael W. Deem and Ramdas Pophale) SiO2 
 PCOD8236574
Probable space group: P N N M
;
_chemical_formula_sum "Si O2"
_cell_formula_units_Z 56
_cell_length_a 20.889068
_cell_length_b 14.795515
_cell_length_c 8.941315
_cell_angle_alpha 90.000000
_cell_angle_beta 90.000000
_cell_angle_gamma 90.000000
_cell_volume 2763.443219
_symmetry_space_group_name_H-M "P N N M"
_symmetry_group_IT_number 58
_symmetry_cell_setting 'orthorhombic'
loop_
_space_group_symop_operation_xyz
x,y,z
-x,-y,z
1/2+x,1/2-y,1/2-z
1/2-x,1/2+y,1/2-z
-x,-y,-z
x,y,-z
1/2-x,1/2+y,1/2+z
1/2+x,1/2-y,1/2+z
loop_
_atom_site_type_symbol
_atom_site_label
_atom_site_fract_x
_atom_site_fract_y
_atom_site_fract_z
Si Si1 0.659130 0.182402 0.171007
Si Si2 0.365949 0.429797 0.173163
Si Si3 0.263693 0.188154 0.176596
Si Si4 0.606878 0.745402 0.324644
Si Si5 0.058764 0.066614 0.167137
Si Si6 0.253958 0.979176 0.829643
Si Si7 0.966334 0.730637 0.826599
O O1 0.705122 0.254343 0.255091
O O2 0.680725 0.077814 0.185221
O O3 0.586753 0.177670 0.232786
O O4 0.658542 0.214203 0.000000
O O5 0.405038 0.357338 0.271354
O O6 0.387949 0.530670 0.218056
O O7 0.291695 0.424356 0.216854
O O8 0.376512 0.409690 0.000000
O O9 0.333337 0.216627 0.234274
O O10 0.259715 0.082810 0.221107
O O11 0.261755 0.202696 0.000000
O O12 0.622627 0.746541 0.500000
O O13 0.540095 0.799315 0.291759
O O14 0.038788 0.165034 0.219375
O O15 0.088056 0.069101 0.000000
O O16 0.000000 0.000000 0.176286
O O17 0.228091 0.973845 0.000000
O O18 0.951239 0.715061 0.000000
#
# Coordination Sequence:
#
# PCOD8236574 Si02
#       7
#     8   8   8   8   8   8   8
#     4  11  23  40  63  90 123 163 201 249 309 366
#     4  12  23  34  56  89 120 153 198 252 301 355
#     4  11  23  41  65  93 121 159 208 255 303 361
#     4  11  22  40  62  86 120 162 201 245 308 366
#     4  10  19  35  55  78 114 160 196 231 295 370
#     4  10  23  42  62  85 121 163 200 245 308 371
#     4  10  22  39  60  85 119 162 204 250 306 365
#
# _framework density 20.264572999999999
#
# number of rings (size 3 to 8) (size 9 to 14) (size 15 to 20)
#    0.000    1.286    2.857    3.429    0.000    7.143 
#    0.000    0.714    0.000    4.286    0.000    0.000 
#    0.000    0.000    0.000    0.000    0.000    0.000 
#
# Total GULP energy -694176.650169 kJ/mol
# GULP energy per Si atom -12396.011610 kJ/mol
# Density = 2.021845 g / cm^3
# Si number density = 20.264573 Si / 1000 Ang^3
#
#
#
# Elastic Constant Matrix: (Units=GPa)
#
#
# Indices 1 2 3 4 5 6 
#
# 1 110.0825 10.8028 41.2837 0.0000 0.0000 0.0000
# 2 10.8028 55.6822 19.0789 0.0000 0.0000 0.0000
# 3 41.2837 19.0789 78.2256 0.0000 0.0000 0.0000
# 4 0.0000 0.0000 0.0000 17.6300 0.0000 0.0000
# 5 0.0000 0.0000 0.0000 0.0000 24.6552 0.0000
# 6 0.0000 0.0000 0.0000 0.0000 0.0000 29.9674
#
#
#
# Elastic Compliance Matrix: (Units=1/GPa)
#
#
# Indices 1 2 3 4 5 6 
#
# 1 0.011327 -0.000163 -0.005938 0.000000 0.000000 0.000000
# 2 -0.000163 0.019599 -0.004694 0.000000 0.000000 0.000000
# 3 -0.005938 -0.004694 0.017062 0.000000 0.000000 0.000000
# 4 0.000000 0.000000 0.000000 0.056722 0.000000 0.000000
# 5 0.000000 0.000000 0.000000 0.000000 0.040559 0.000000
# 6 0.000000 0.000000 0.000000 0.000000 0.000000 0.033370
#
#
# Mechanical properties :
#
#
# Convention : Reuss Voigt Hill
#
# Bulk Modulus (GPa) = 37.88165 42.92456 40.40311
# Shear Modulus (GPa) = 23.92017 25.97218 24.94618
#
# Velocity S-wave (km/s) = 3.43941 3.58390 3.51240
# Velocity P-wave (km/s) = 5.87425 6.19305 6.03576
#
# Compressibility (1/GPa) = 0.02639801
#
# Stress axis : x y z
#
# Youngs Moduli (GPa) = 88.28447 51.02279 58.60881
#
# Poissons Ratio (x) = 0.00831 0.34803
# Poissons Ratio (y) = 0.01438 0.27512
# Poissons Ratio (z) = 0.52424 0.23951
#
# Static dielectric constant tensor:
#      x y z
#    x 3.822710 0.000000 0.000000 
#    y 0.000000 3.690400 0.000000 
#    z 0.000000 0.000000 3.616470 
# 
# 
# High freq. dielectric constant tensor:
#      x y z
#    x 1.799770 0.000000 0.000000 
#    y 0.000000 1.775410 0.000000 
#    z 0.000000 0.000000 1.789340 
# 
# From -- ./inp_files/6419.got.cif
#   From: 2010.06.25/outbox.cif.g09.slc.cpg/sg58_4_cif.got.tgz:6419.got - 2010.06.26 21:38:00.
