data_PCOD8236620
_publ_section_title
;
Structure prediction by ZEFSAII (Michael W. Deem and Ramdas Pophale) SiO2 
 PCOD8236620
Probable space group: P N N M
;
_chemical_formula_sum "Si O2"
_cell_formula_units_Z 48
_cell_length_a 10.131187
_cell_length_b 28.226740
_cell_length_c 9.211634
_cell_angle_alpha 90.000000
_cell_angle_beta 90.000000
_cell_angle_gamma 90.000000
_cell_volume 2634.254488
_symmetry_space_group_name_H-M "P N N M"
_symmetry_group_IT_number 58
_symmetry_cell_setting 'orthorhombic'
loop_
_space_group_symop_operation_xyz
x,y,z
-x,-y,z
1/2+x,1/2-y,1/2-z
1/2-x,1/2+y,1/2-z
-x,-y,-z
x,y,-z
1/2-x,1/2+y,1/2+z
1/2+x,1/2-y,1/2+z
loop_
_atom_site_type_symbol
_atom_site_label
_atom_site_fract_x
_atom_site_fract_y
_atom_site_fract_z
Si Si1 0.279527 0.354962 0.830651
Si Si2 0.014867 0.193284 0.169345
Si Si3 0.486682 0.801705 0.669156
Si Si4 0.647348 0.051234 0.671227
Si Si5 0.785087 0.356415 0.670816
Si Si6 0.847943 0.446360 0.171527
O O1 0.410049 0.338842 0.750529
O O2 0.161855 0.318356 0.798904
O O3 0.240893 0.407074 0.768541
O O4 0.312127 0.357269 0.000000
O O5 0.001450 0.247499 0.219440
O O6 0.160522 0.175892 0.210508
O O7 0.987923 0.188083 0.000000
O O8 0.521260 0.808606 0.500000
O O9 0.585547 0.832762 0.762735
O O10 0.637593 0.055873 0.500000
O O11 0.498430 0.058319 0.727820
O O12 0.703341 0.999262 0.712652
O O13 0.804330 0.361892 0.500000
O O14 0.761601 0.408107 0.741520
O O15 0.835037 0.437052 0.000000
#
# Coordination Sequence:
#
# PCOD8236620 Si02
#       6
#     8   8   8   8   8   8
#     4  10  19  35  58  82 105 136 179 225 267 309
#     4  10  23  38  51  75 112 147 176 214 266 321
#     4  10  20  37  59  78 101 138 185 227 262 308
#     4   8  15  30  56  83 104 132 176 224 264 306
#     4  11  22  36  54  80 112 142 175 217 266 319
#     4   9  16  32  57  81 105 136 175 221 266 310
#
# _framework density 18.221473
#
# number of rings (size 3 to 8) (size 9 to 14) (size 15 to 20)
#    0.000    2.333    1.667    2.500    0.000    4.000 
#    0.000    3.333    0.000    5.000    0.000    0.000 
#    0.000    0.000    0.000    0.000    0.000    0.000 
#
# Total GULP energy -595158.994073 kJ/mol
# GULP energy per Si atom -12399.145710 kJ/mol
# Density = 1.818000 g / cm^3
# Si number density = 18.221473 Si / 1000 Ang^3
#
#
#
# Elastic Constant Matrix: (Units=GPa)
#
#
# Indices 1 2 3 4 5 6 
#
# 1 48.5610 21.6225 30.4291 0.0000 0.0000 0.0000
# 2 21.6225 131.8055 37.1535 0.0000 0.0000 0.0000
# 3 30.4291 37.1535 45.4156 0.0000 0.0000 0.0000
# 4 0.0000 0.0000 0.0000 27.4893 0.0000 0.0000
# 5 0.0000 0.0000 0.0000 0.0000 29.1786 0.0000
# 6 0.0000 0.0000 0.0000 0.0000 0.0000 18.2231
#
#
#
# Elastic Compliance Matrix: (Units=1/GPa)
#
#
# Indices 1 2 3 4 5 6 
#
# 1 0.035628 0.001149 -0.024811 0.000000 0.000000 0.000000
# 2 0.001149 0.009898 -0.008867 0.000000 0.000000 0.000000
# 3 -0.024811 -0.008867 0.045897 0.000000 0.000000 0.000000
# 4 0.000000 0.000000 0.000000 0.036378 0.000000 0.000000
# 5 0.000000 0.000000 0.000000 0.000000 0.034272 0.000000
# 6 0.000000 0.000000 0.000000 0.000000 0.000000 0.054875
#
#
# Mechanical properties :
#
#
# Convention : Reuss Voigt Hill
#
# Bulk Modulus (GPa) = 37.93051 44.91026 41.42039
# Shear Modulus (GPa) = 17.19425 24.08334 20.63880
#
# Velocity S-wave (km/s) = 3.07518 3.63946 3.36916
# Velocity P-wave (km/s) = 5.78537 6.50856 6.15759
#
# Compressibility (1/GPa) = 0.02636400
#
# Stress axis : x y z
#
# Youngs Moduli (GPa) = 28.06767 101.03134 21.78798
#
# Poissons Ratio (x) = -0.11610 0.54059
# Poissons Ratio (y) = -0.03225 0.19320
# Poissons Ratio (z) = 0.69640 0.89586
#
# Static dielectric constant tensor:
#      x y z
#    x 3.172630 0.000000 0.000000 
#    y 0.000000 3.891320 0.000000 
#    z 0.000000 0.000000 3.129230 
# 
# 
# High freq. dielectric constant tensor:
#      x y z
#    x 1.687860 0.000000 0.000000 
#    y 0.000000 1.728870 0.000000 
#    z 0.000000 0.000000 1.682160 
# 
# From -- ./inp_files/2928.got.cif
#   From: 2010.06.25/outbox.cif.g09.slc.cpg/sg58_2_cif.got.tgz:2928.got - 2010.06.26 21:38:00.
