data_PCOD8236402
_publ_section_title
;
Structure prediction by ZEFSAII (Michael W. Deem and Ramdas Pophale) SiO2 
 PCOD8236402
Probable space group: P N N M
;
_chemical_formula_sum "Si O2"
_cell_formula_units_Z 40
_cell_length_a 12.778702
_cell_length_b 12.400459
_cell_length_c 13.896910
_cell_angle_alpha 90.000000
_cell_angle_beta 90.000000
_cell_angle_gamma 90.000000
_cell_volume 2202.128959
_symmetry_space_group_name_H-M "P N N M"
_symmetry_group_IT_number 58
_symmetry_cell_setting 'orthorhombic'
loop_
_space_group_symop_operation_xyz
x,y,z
-x,-y,z
1/2+x,1/2-y,1/2-z
1/2-x,1/2+y,1/2-z
-x,-y,-z
x,y,-z
1/2-x,1/2+y,1/2+z
1/2+x,1/2-y,1/2+z
loop_
_atom_site_type_symbol
_atom_site_label
_atom_site_fract_x
_atom_site_fract_y
_atom_site_fract_z
Si Si1 0.636210 0.655702 0.609532
Si Si2 0.248705 0.358876 0.890599
Si Si3 0.928035 0.784722 0.809666
Si Si4 0.226064 0.029837 0.771106
Si Si5 0.879930 0.296344 0.281057
O O1 0.667372 0.682624 0.500000
O O2 0.490742 0.348584 0.620502
O O3 0.689607 0.542737 0.639151
O O4 0.676732 0.747965 0.683583
O O5 0.137902 0.302078 0.869486
O O6 0.267830 0.464531 0.827333
O O7 0.341944 0.273827 0.871988
O O8 0.251114 0.397330 0.000000
O O9 0.855104 0.871809 0.757289
O O10 0.994484 0.716298 0.729549
O O11 0.341075 0.080513 0.793301
#
# Coordination Sequence:
#
# PCOD8236402 Si02
#       5
#     8   8   8   8   8
#     4   9  18  32  56  82 104 136 181 226 270 318
#     4  10  20  34  56  85 110 143 183 224 270 327
#     4   9  19  36  54  76 115 137 178 221 277 314
#     4  10  19  34  53  80 110 144 179 223 269 328
#     4   8  20  35  50  77 119 143 173 225 281 312
#
# _framework density 18.164239999999999
#
# number of rings (size 3 to 8) (size 9 to 14) (size 15 to 20)
#    1.200    1.600    0.000    1.200    0.000    6.400 
#    0.000    3.000    0.000    4.800    0.000   18.200 
#    0.000    0.000    0.000    0.000    0.000    0.000 
#
# Total GULP energy -495549.191004 kJ/mol
# GULP energy per Si atom -12388.729775 kJ/mol
# Density = 1.812290 g / cm^3
# Si number density = 18.164240 Si / 1000 Ang^3
#
#
#
# Elastic Constant Matrix: (Units=GPa)
#
#
# Indices 1 2 3 4 5 6 
#
# 1 46.8771 13.6465 29.3807 0.0000 0.0000 0.0000
# 2 13.6465 64.7652 43.3878 0.0000 0.0000 0.0000
# 3 29.3807 43.3878 70.2760 0.0000 0.0000 0.0000
# 4 0.0000 0.0000 0.0000 14.5747 0.0000 0.0000
# 5 0.0000 0.0000 0.0000 0.0000 18.1429 0.0000
# 6 0.0000 0.0000 0.0000 0.0000 0.0000 37.2976
#
#
#
# Elastic Compliance Matrix: (Units=1/GPa)
#
#
# Indices 1 2 3 4 5 6 
#
# 1 0.029358 0.003473 -0.014418 0.000000 0.000000 0.000000
# 2 0.003473 0.026742 -0.017962 0.000000 0.000000 0.000000
# 3 -0.014418 -0.017962 0.031347 0.000000 0.000000 0.000000
# 4 0.000000 0.000000 0.000000 0.068612 0.000000 0.000000
# 5 0.000000 0.000000 0.000000 0.000000 0.055118 0.000000
# 6 0.000000 0.000000 0.000000 0.000000 0.000000 0.026811
#
#
# Mechanical properties :
#
#
# Convention : Reuss Voigt Hill
#
# Bulk Modulus (GPa) = 33.74658 39.41646 36.58152
# Shear Modulus (GPa) = 16.35693 20.36992 18.36343
#
# Velocity S-wave (km/s) = 3.00409 3.35241 3.18302
# Velocity P-wave (km/s) = 5.53639 6.06069 5.80447
#
# Compressibility (1/GPa) = 0.02963263
#
# Stress axis : x y z
#
# Youngs Moduli (GPa) = 34.06217 37.39442 31.90069
#
# Poissons Ratio (x) = -0.12988 0.45995
# Poissons Ratio (y) = -0.11830 0.57301
# Poissons Ratio (z) = 0.49112 0.67169
#
# Static dielectric constant tensor:
#      x y z
#    x 3.329840 0.000000 0.000000 
#    y 0.000000 3.292510 0.000000 
#    z 0.000000 0.000000 3.000760 
# 
# 
# High freq. dielectric constant tensor:
#      x y z
#    x 1.696290 0.000000 0.000000 
#    y 0.000000 1.700590 0.000000 
#    z 0.000000 0.000000 1.676060 
# 
# From -- ./inp_files/21963.got.cif
#   From: 2010.06.25/outbox.cif.g09.slc.cpg/sg58_11_cif.got.tgz:21963.got - 2010.06.26 21:38:00.
