data_PCOD8236161
_publ_section_title
;
Structure prediction by ZEFSAII (Michael W. Deem and Ramdas Pophale) SiO2 
 PCOD8236161
Probable space group: P N N M
;
_chemical_formula_sum "Si O2"
_cell_formula_units_Z 56
_cell_length_a 16.812022
_cell_length_b 19.713079
_cell_length_c 8.974694
_cell_angle_alpha 90.000000
_cell_angle_beta 90.000000
_cell_angle_gamma 90.000000
_cell_volume 2974.363629
_symmetry_space_group_name_H-M "P N N M"
_symmetry_group_IT_number 58
_symmetry_cell_setting 'orthorhombic'
loop_
_space_group_symop_operation_xyz
x,y,z
-x,-y,z
1/2+x,1/2-y,1/2-z
1/2-x,1/2+y,1/2-z
-x,-y,-z
x,y,-z
1/2-x,1/2+y,1/2+z
1/2+x,1/2-y,1/2+z
loop_
_atom_site_type_symbol
_atom_site_label
_atom_site_fract_x
_atom_site_fract_y
_atom_site_fract_z
Si Si1 0.757799 0.257062 0.827524
Si Si2 0.067889 0.547630 0.325692
Si Si3 0.743542 0.976687 0.176925
Si Si4 0.087845 0.697997 0.329094
Si Si5 0.326037 0.386220 0.326133
Si Si6 0.646201 0.354057 0.323688
Si Si7 0.982694 0.160488 0.326721
O O1 0.835902 0.297098 0.775782
O O2 0.767978 0.177230 0.795810
O O3 0.681227 0.283321 0.737730
O O4 0.743393 0.272035 0.000000
O O5 0.071701 0.531673 0.500000
O O6 0.154609 0.530992 0.256254
O O7 0.045018 0.626323 0.296221
O O8 0.000000 0.500000 0.251545
O O9 0.798356 0.915269 0.234645
O O10 0.780372 0.047491 0.231782
O O11 0.740039 0.974079 0.000000
O O12 0.118388 0.700772 0.500000
O O13 0.026588 0.758805 0.296900
O O14 0.348817 0.390859 0.500000
O O15 0.406419 0.379724 0.232551
O O16 0.641438 0.350868 0.500000
O O17 0.558604 0.366625 0.260850
O O18 0.993155 0.144629 0.500000
#
# Coordination Sequence:
#
# PCOD8236161 Si02
#       7
#     8   8   8   8   8   8   8
#     4  10  19  32  54  80 106 139 178 224 273 323
#     4   9  16  28  52  83 107 132 174 226 269 308
#     4   9  18  33  54  79 106 142 186 227 266 319
#     4   9  17  33  54  76 104 138 177 219 267 322
#     4   9  19  36  56  78 108 144 183 227 274 323
#     4  11  21  35  56  79 108 145 188 227 268 326
#     4  10  21  35  53  80 110 141 182 230 277 323
#
# _framework density 18.827556000000001
#
# number of rings (size 3 to 8) (size 9 to 14) (size 15 to 20)
#    0.000    2.429    1.429    1.286    0.000    2.857 
#    0.000    8.571    0.000    0.429    0.000    0.000 
#    0.000    0.000    0.000    0.000    0.000    0.000 
#
# Total GULP energy -694417.930114 kJ/mol
# GULP energy per Si atom -12400.320181 kJ/mol
# Density = 1.878470 g / cm^3
# Si number density = 18.827556 Si / 1000 Ang^3
#
#
#
# Elastic Constant Matrix: (Units=GPa)
#
#
# Indices 1 2 3 4 5 6 
#
# 1 126.4514 71.9265 37.1624 0.0000 0.0000 0.0000
# 2 71.9265 117.6996 30.4482 0.0000 0.0000 0.0000
# 3 37.1624 30.4482 56.5261 0.0000 0.0000 0.0000
# 4 0.0000 0.0000 0.0000 21.7380 0.0000 0.0000
# 5 0.0000 0.0000 0.0000 0.0000 29.1734 0.0000
# 6 0.0000 0.0000 0.0000 0.0000 0.0000 30.3909
#
#
#
# Elastic Compliance Matrix: (Units=1/GPa)
#
#
# Indices 1 2 3 4 5 6 
#
# 1 0.013259 -0.006794 -0.005057 0.000000 0.000000 0.000000
# 2 -0.006794 0.013354 -0.002726 0.000000 0.000000 0.000000
# 3 -0.005057 -0.002726 0.022484 0.000000 0.000000 0.000000
# 4 0.000000 0.000000 0.000000 0.046002 0.000000 0.000000
# 5 0.000000 0.000000 0.000000 0.000000 0.034278 0.000000
# 6 0.000000 0.000000 0.000000 0.000000 0.000000 0.032905
#
#
# Mechanical properties :
#
#
# Convention : Reuss Voigt Hill
#
# Bulk Modulus (GPa) = 50.14679 64.41680 57.28180
# Shear Modulus (GPa) = 25.24179 27.00311 26.12245
#
# Velocity S-wave (km/s) = 3.66551 3.79124 3.72890
# Velocity P-wave (km/s) = 6.67886 7.31116 7.00215
#
# Compressibility (1/GPa) = 0.01994145
#
# Stress axis : x y z
#
# Youngs Moduli (GPa) = 75.41964 74.88668 44.47581
#
# Poissons Ratio (x) = 0.50881 0.22492
# Poissons Ratio (y) = 0.51243 0.12124
# Poissons Ratio (z) = 0.38141 0.20414
#
# Static dielectric constant tensor:
#      x y z
#    x 3.478080 0.000000 0.000000 
#    y 0.000000 3.609310 0.000000 
#    z 0.000000 0.000000 3.202250 
# 
# 
# High freq. dielectric constant tensor:
#      x y z
#    x 1.727860 0.000000 0.000000 
#    y 0.000000 1.737440 0.000000 
#    z 0.000000 0.000000 1.703470 
# 
# From -- ./inp_files/6274.got.cif
#   From: 2010.06.25/outbox.cif.g09.slc.cpg/sg58_4_cif.got.tgz:6274.got - 2010.06.26 21:38:00.
