data_PCOD8236472
_publ_section_title
;
Structure prediction by ZEFSAII (Michael W. Deem and Ramdas Pophale) SiO2 
 PCOD8236472
Probable space group: P N N M
;
_chemical_formula_sum "Si O2"
_cell_formula_units_Z 48
_cell_length_a 18.836330
_cell_length_b 14.809837
_cell_length_c 9.272075
_cell_angle_alpha 90.000000
_cell_angle_beta 90.000000
_cell_angle_gamma 90.000000
_cell_volume 2586.565645
_symmetry_space_group_name_H-M "P N N M"
_symmetry_group_IT_number 58
_symmetry_cell_setting 'orthorhombic'
loop_
_space_group_symop_operation_xyz
x,y,z
-x,-y,z
1/2+x,1/2-y,1/2-z
1/2-x,1/2+y,1/2-z
-x,-y,-z
x,y,-z
1/2-x,1/2+y,1/2+z
1/2+x,1/2-y,1/2+z
loop_
_atom_site_type_symbol
_atom_site_label
_atom_site_fract_x
_atom_site_fract_y
_atom_site_fract_z
Si Si1 0.915324 0.242620 0.671302
Si Si2 0.784326 0.525986 0.333910
Si Si3 0.432324 0.053162 0.828722
Si Si4 0.272906 0.280896 0.665593
Si Si5 0.812962 0.894115 0.329544
Si Si6 0.526989 0.404281 0.828715
O O1 0.907409 0.239379 0.500000
O O2 0.933569 0.343497 0.725385
O O3 0.842111 0.207971 0.737644
O O4 0.977118 0.176495 0.727867
O O5 0.776179 0.496373 0.500000
O O6 0.860691 0.494927 0.272767
O O7 0.778235 0.633241 0.315453
O O8 0.721842 0.480691 0.243632
O O9 0.500000 0.000000 0.763286
O O10 0.435573 0.049203 0.000000
O O11 0.296584 0.269383 0.500000
O O12 0.228403 0.195180 0.719659
O O13 0.810614 0.908230 0.500000
O O14 0.893523 0.885926 0.273647
O O15 0.500000 0.500000 0.766139
O O16 0.524677 0.406355 0.000000
#
# Coordination Sequence:
#
# PCOD8236472 Si02
#       6
#     8   8   8   8   8   8
#     4  10  19  34  57  79 102 136 179 220 256 309
#     4  10  20  35  54  78 106 138 177 217 262 318
#     4   9  18  31  51  78 104 133 173 220 261 302
#     4  10  21  34  52  77 108 140 169 212 270 320
#     4  10  20  35  54  78 108 138 171 216 266 314
#     4   9  18  31  50  77 103 129 168 216 259 300
#
# _framework density 18.557424999999999
#
# number of rings (size 3 to 8) (size 9 to 14) (size 15 to 20)
#    0.000    2.333    1.667    1.000    2.333    2.000 
#    0.000    0.833    0.000    5.000    0.000    0.000 
#    0.000    0.000    0.000    0.000    0.000    0.000 
#
# Total GULP energy -595293.689810 kJ/mol
# GULP energy per Si atom -12401.951871 kJ/mol
# Density = 1.851519 g / cm^3
# Si number density = 18.557425 Si / 1000 Ang^3
#
#
#
# Elastic Constant Matrix: (Units=GPa)
#
#
# Indices 1 2 3 4 5 6 
#
# 1 144.5486 44.3412 22.1655 0.0000 0.0000 0.0000
# 2 44.3412 102.0181 14.8571 0.0000 0.0000 0.0000
# 3 22.1655 14.8571 19.7828 0.0000 0.0000 0.0000
# 4 0.0000 0.0000 0.0000 19.8654 0.0000 0.0000
# 5 0.0000 0.0000 0.0000 0.0000 23.1202 0.0000
# 6 0.0000 0.0000 0.0000 0.0000 0.0000 41.5491
#
#
#
# Elastic Compliance Matrix: (Units=1/GPa)
#
#
# Indices 1 2 3 4 5 6 
#
# 1 0.008987 -0.002739 -0.008012 0.000000 0.000000 0.000000
# 2 -0.002739 0.011841 -0.005823 0.000000 0.000000 0.000000
# 3 -0.008012 -0.005823 0.063900 0.000000 0.000000 0.000000
# 4 0.000000 0.000000 0.000000 0.050339 0.000000 0.000000
# 5 0.000000 0.000000 0.000000 0.000000 0.043252 0.000000
# 6 0.000000 0.000000 0.000000 0.000000 0.000000 0.024068
#
#
# Mechanical properties :
#
#
# Convention : Reuss Voigt Hill
#
# Bulk Modulus (GPa) = 19.38825 47.67523 33.53174
# Shear Modulus (GPa) = 19.78407 29.23933 24.51170
#
# Velocity S-wave (km/s) = 3.26866 3.97371 3.63830
# Velocity P-wave (km/s) = 4.97151 6.84107 5.97980
#
# Compressibility (1/GPa) = 0.05157764
#
# Stress axis : x y z
#
# Youngs Moduli (GPa) = 111.27201 84.45332 15.64957
#
# Poissons Ratio (x) = 0.23134 0.12539
# Poissons Ratio (y) = 0.30480 0.09113
# Poissons Ratio (z) = 0.89153 0.49181
#
# Static dielectric constant tensor:
#      x y z
#    x 3.611450 0.000000 0.000000 
#    y 0.000000 3.594800 0.000000 
#    z 0.000000 0.000000 2.985810 
# 
# 
# High freq. dielectric constant tensor:
#      x y z
#    x 1.731410 0.000000 0.000000 
#    y 0.000000 1.736330 0.000000 
#    z 0.000000 0.000000 1.672570 
# 
# From -- ./inp_files/5810.got.cif
#   From: 2010.06.25/outbox.cif.g09.slc.cpg/sg58_3_cif.got.tgz:5810.got - 2010.06.26 21:38:00.
