data_PCOD8236396
_publ_section_title
;
Structure prediction by ZEFSAII (Michael W. Deem and Ramdas Pophale) SiO2 
 PCOD8236396
Probable space group: P N N M
;
_chemical_formula_sum "Si O2"
_cell_formula_units_Z 56
_cell_length_a 19.203685
_cell_length_b 19.347486
_cell_length_c 8.474007
_cell_angle_alpha 90.000000
_cell_angle_beta 90.000000
_cell_angle_gamma 90.000000
_cell_volume 3148.458209
_symmetry_space_group_name_H-M "P N N M"
_symmetry_group_IT_number 58
_symmetry_cell_setting 'orthorhombic'
loop_
_space_group_symop_operation_xyz
x,y,z
-x,-y,z
1/2+x,1/2-y,1/2-z
1/2-x,1/2+y,1/2-z
-x,-y,-z
x,y,-z
1/2-x,1/2+y,1/2+z
1/2+x,1/2-y,1/2+z
loop_
_atom_site_type_symbol
_atom_site_label
_atom_site_fract_x
_atom_site_fract_y
_atom_site_fract_z
Si Si1 0.941515 0.445947 0.816942
Si Si2 0.475744 0.199585 0.182637
Si Si3 0.294424 0.016363 0.815041
Si Si4 0.270556 0.652099 0.313387
Si Si5 0.665255 0.732772 0.815030
Si Si6 0.618457 0.242273 0.315242
Si Si7 0.271560 0.863586 0.814406
O O1 0.873256 0.461818 0.717129
O O2 0.000000 0.500000 0.762474
O O3 0.969756 0.369243 0.785760
O O4 0.923681 0.454805 0.000000
O O5 0.415342 0.254362 0.227075
O O6 0.548312 0.237132 0.215816
O O7 0.469921 0.178442 0.000000
O O8 0.275701 0.941416 0.745126
O O9 0.242040 0.075054 0.743368
O O10 0.283296 0.012672 0.000000
O O11 0.265587 0.648965 0.500000
O O12 0.207978 0.700772 0.252824
O O13 0.344607 0.685387 0.263783
O O14 0.694458 0.665733 0.722988
O O15 0.677154 0.720455 0.000000
O O16 0.600859 0.241019 0.500000
O O17 0.670055 0.179396 0.277844
O O18 0.287392 0.860503 0.000000
#
# Coordination Sequence:
#
# PCOD8236396 Si02
#       7
#     8   8   8   8   8   8   8
#     4  11  23  34  47  74 110 142 170 206 257 314
#     4  11  21  35  54  75 101 137 177 214 259 310
#     4  10  19  34  53  74 101 136 175 210 254 307
#     4   8  15  32  53  71  94 131 172 207 251 303
#     4   9  18  34  54  72  98 136 172 213 260 308
#     4  10  20  34  52  74 104 136 170 214 260 309
#     4  10  20  32  52  79 105 133 171 217 254 306
#
# _framework density 17.786483
#
# number of rings (size 3 to 8) (size 9 to 14) (size 15 to 20)
#    0.000    2.143    1.429    3.429    0.000    5.714 
#    0.000    0.714    0.000    0.857    0.000    6.000 
#    0.000    0.000    0.000    0.000    0.000    0.000 
#
# Total GULP energy -694296.780890 kJ/mol
# GULP energy per Si atom -12398.156802 kJ/mol
# Density = 1.774600 g / cm^3
# Si number density = 17.786483 Si / 1000 Ang^3
#
#
#
# Elastic Constant Matrix: (Units=GPa)
#
#
# Indices 1 2 3 4 5 6 
#
# 1 106.4738 63.1441 5.3944 0.0000 0.0000 0.0000
# 2 63.1441 97.0882 5.7499 0.0000 0.0000 0.0000
# 3 5.3944 5.7499 20.1717 0.0000 0.0000 0.0000
# 4 0.0000 0.0000 0.0000 19.9153 0.0000 0.0000
# 5 0.0000 0.0000 0.0000 0.0000 27.0042 0.0000
# 6 0.0000 0.0000 0.0000 0.0000 0.0000 28.4704
#
#
#
# Elastic Compliance Matrix: (Units=1/GPa)
#
#
# Indices 1 2 3 4 5 6 
#
# 1 0.015321 -0.009889 -0.001278 0.000000 0.000000 0.000000
# 2 -0.009889 0.016860 -0.002161 0.000000 0.000000 0.000000
# 3 -0.001278 -0.002161 0.050532 0.000000 0.000000 0.000000
# 4 0.000000 0.000000 0.000000 0.050213 0.000000 0.000000
# 5 0.000000 0.000000 0.000000 0.000000 0.037031 0.000000
# 6 0.000000 0.000000 0.000000 0.000000 0.000000 0.035124
#
#
# Mechanical properties :
#
#
# Convention : Reuss Voigt Hill
#
# Bulk Modulus (GPa) = 17.83937 41.36785 29.60361
# Shear Modulus (GPa) = 19.96613 25.04099 22.50356
#
# Velocity S-wave (km/s) = 3.35408 3.75623 3.56083
# Velocity P-wave (km/s) = 5.00512 6.49006 5.79535
#
# Compressibility (1/GPa) = 0.05605578
#
# Stress axis : x y z
#
# Youngs Moduli (GPa) = 65.26809 59.31369 19.78934
#
# Poissons Ratio (x) = 0.58655 0.02530
# Poissons Ratio (y) = 0.64544 0.04277
# Poissons Ratio (z) = 0.08345 0.12819
#
# Static dielectric constant tensor:
#      x y z
#    x 3.305700 0.000000 0.000000 
#    y 0.000000 3.650080 0.000000 
#    z 0.000000 0.000000 3.118470 
# 
# 
# High freq. dielectric constant tensor:
#      x y z
#    x 1.678890 0.000000 0.000000 
#    y 0.000000 1.682500 0.000000 
#    z 0.000000 0.000000 1.678520 
# 
# From -- ./inp_files/8167.got.cif
#   From: 2010.06.25/outbox.cif.g09.slc.cpg/sg58_5_cif.got.tgz:8167.got - 2010.06.26 21:38:00.
