data_PCOD8236573
_publ_section_title
;
Structure prediction by ZEFSAII (Michael W. Deem and Ramdas Pophale) SiO2 
 PCOD8236573
Probable space group: P N N M
;
_chemical_formula_sum "Si O2"
_cell_formula_units_Z 64
_cell_length_a 13.830487
_cell_length_b 7.882036
_cell_length_c 31.490849
_cell_angle_alpha 90.000000
_cell_angle_beta 90.000000
_cell_angle_gamma 90.000000
_cell_volume 3432.892915
_symmetry_space_group_name_H-M "P N N M"
_symmetry_group_IT_number 58
_symmetry_cell_setting 'orthorhombic'
loop_
_space_group_symop_operation_xyz
x,y,z
-x,-y,z
1/2+x,1/2-y,1/2-z
1/2-x,1/2+y,1/2-z
-x,-y,-z
x,y,-z
1/2-x,1/2+y,1/2+z
1/2+x,1/2-y,1/2+z
loop_
_atom_site_type_symbol
_atom_site_label
_atom_site_fract_x
_atom_site_fract_y
_atom_site_fract_z
Si Si1 0.387969 0.695724 0.742279
Si Si2 0.889584 0.004903 0.050338
Si Si3 0.263192 0.302435 0.820696
Si Si4 0.756805 0.810317 0.681384
Si Si5 0.779213 0.323689 0.414081
Si Si6 0.226174 0.310271 0.411086
Si Si7 0.106303 0.794326 0.756040
Si Si8 0.111094 0.997304 0.550006
O O1 0.342035 0.776151 0.700027
O O2 0.333590 0.761232 0.784440
O O3 0.496138 0.762720 0.746033
O O4 0.380607 0.494386 0.738630
O O5 0.834218 0.173969 0.068164
O O6 0.830390 0.837199 0.066623
O O7 0.888284 0.010118 0.000000
O O8 0.000000 0.000000 0.067342
O O9 0.280774 0.498182 0.831602
O O10 0.272431 0.201912 0.864011
O O11 0.342893 0.233275 0.787443
O O12 0.761662 0.698939 0.639389
O O13 0.651666 0.797715 0.703047
O O14 0.828720 0.510277 0.421253
O O15 0.841166 0.180605 0.437234
O O16 0.167558 0.152581 0.429036
O O17 0.117096 0.020221 0.500000
O O18 0.000000 0.000000 0.565771
#
# Coordination Sequence:
#
# PCOD8236573 Si02
#       8
#     8   8   8   8   8   8   8   8
#     4   9  19  34  54  77 111 157 196 240 298 353
#     4   9  20  40  65  90 119 158 203 248 300 365
#     4  10  19  35  54  83 117 151 197 249 295 350
#     4  10  19  35  54  83 117 151 197 249 295 350
#     4  10  22  39  64  90 124 164 198 251 304 362
#     4  10  22  39  64  90 124 164 198 251 304 362
#     4   9  19  34  54  77 111 157 196 240 298 353
#     4  11  24  42  65  94 125 158 201 252 306 367
#
# _framework density 18.643167999999999
#
# number of rings (size 3 to 8) (size 9 to 14) (size 15 to 20)
#    0.750    1.500    1.250    1.500    0.000    4.000 
#    0.000    1.875    0.000    2.250    0.000    0.000 
#    0.000    0.000    0.000    0.000    0.000    0.000 
#
# Total GULP energy -793232.406905 kJ/mol
# GULP energy per Si atom -12394.256358 kJ/mol
# Density = 1.860074 g / cm^3
# Si number density = 18.643168 Si / 1000 Ang^3
#
#
#
# Elastic Constant Matrix: (Units=GPa)
#
#
# Indices 1 2 3 4 5 6 
#
# 1 120.2343 11.2808 17.6472 0.0000 0.0000 0.0000
# 2 11.2808 52.7375 -0.3987 0.0000 0.0000 0.0000
# 3 17.6472 -0.3987 65.1963 0.0000 0.0000 0.0000
# 4 0.0000 0.0000 0.0000 25.2997 0.0000 0.0000
# 5 0.0000 0.0000 0.0000 0.0000 13.1756 0.0000
# 6 0.0000 0.0000 0.0000 0.0000 0.0000 29.1868
#
#
#
# Elastic Compliance Matrix: (Units=1/GPa)
#
#
# Indices 1 2 3 4 5 6 
#
# 1 0.008850 -0.001911 -0.002407 0.000000 0.000000 0.000000
# 2 -0.001911 0.019375 0.000636 0.000000 0.000000 0.000000
# 3 -0.002407 0.000636 0.015994 0.000000 0.000000 0.000000
# 4 0.000000 0.000000 0.000000 0.039526 0.000000 0.000000
# 5 0.000000 0.000000 0.000000 0.000000 0.075898 0.000000
# 6 0.000000 0.000000 0.000000 0.000000 0.000000 0.034262
#
#
# Mechanical properties :
#
#
# Convention : Reuss Voigt Hill
#
# Bulk Modulus (GPa) = 27.13417 32.80296 29.96856
# Shear Modulus (GPa) = 23.41319 27.50833 25.46076
#
# Velocity S-wave (km/s) = 3.54765 3.84541 3.69953
# Velocity P-wave (km/s) = 5.60064 6.11144 5.86161
#
# Compressibility (1/GPa) = 0.03685391
#
# Stress axis : x y z
#
# Youngs Moduli (GPa) = 112.99811 51.61170 62.52450
#
# Poissons Ratio (x) = 0.09864 0.15050
# Poissons Ratio (y) = 0.21596 -0.03975
# Poissons Ratio (z) = 0.27200 -0.03281
#
# Static dielectric constant tensor:
#      x y z
#    x 3.372340 0.000000 0.000000 
#    y 0.000000 3.346220 0.000000 
#    z 0.000000 0.000000 3.426230 
# 
# 
# High freq. dielectric constant tensor:
#      x y z
#    x 1.714170 0.000000 0.000000 
#    y 0.000000 1.720210 0.000000 
#    z 0.000000 0.000000 1.731240 
# 
# From -- ./inp_files/35089.got.cif
#   From: 2010.06.25/outbox.cif.g09.slc.cpg/sg58_18_cif.got.tgz:35089.got - 2010.06.26 21:38:00.
