data_PCOD8236340
_publ_section_title
;
Structure prediction by ZEFSAII (Michael W. Deem and Ramdas Pophale) SiO2 
 PCOD8236340
Probable space group: P N N M
;
_chemical_formula_sum "Si O2"
_cell_formula_units_Z 64
_cell_length_a 16.629273
_cell_length_b 21.662078
_cell_length_c 8.921761
_cell_angle_alpha 90.000000
_cell_angle_beta 90.000000
_cell_angle_gamma 90.000000
_cell_volume 3213.837866
_symmetry_space_group_name_H-M "P N N M"
_symmetry_group_IT_number 58
_symmetry_cell_setting 'orthorhombic'
loop_
_space_group_symop_operation_xyz
x,y,z
-x,-y,z
1/2+x,1/2-y,1/2-z
1/2-x,1/2+y,1/2-z
-x,-y,-z
x,y,-z
1/2-x,1/2+y,1/2+z
1/2+x,1/2-y,1/2+z
loop_
_atom_site_type_symbol
_atom_site_label
_atom_site_fract_x
_atom_site_fract_y
_atom_site_fract_z
Si Si1 0.318987 0.279917 0.667691
Si Si2 0.882052 0.335008 0.671708
Si Si3 0.448999 0.383359 0.666566
Si Si4 0.586497 0.318204 0.823689
Si Si5 0.042054 0.310543 0.171369
Si Si6 0.205912 0.371249 0.172242
Si Si7 0.719953 0.391584 0.673136
Si Si8 0.192668 0.969444 0.823120
O O1 0.299287 0.255199 0.500000
O O2 0.334879 0.226620 0.785501
O O3 0.398139 0.321134 0.661534
O O4 0.243478 0.317542 0.727512
O O5 0.909486 0.331624 0.500000
O O6 0.816546 0.389120 0.699359
O O7 0.961314 0.343719 0.770851
O O8 0.481326 0.399557 0.500000
O O9 0.524608 0.372120 0.774067
O O10 0.392419 0.439056 0.726467
O O11 0.563038 0.251811 0.758827
O O12 0.674822 0.339122 0.769457
O O13 0.585541 0.312383 0.000000
O O14 0.110258 0.362851 0.187408
O O15 0.029054 0.290808 0.000000
O O16 0.233309 0.437410 0.236151
O O17 0.233985 0.365074 0.000000
O O18 0.699693 0.378488 0.500000
O O19 0.690365 0.459194 0.722289
O O20 0.206462 0.959081 0.000000
#
# Coordination Sequence:
#
# PCOD8236340 Si02
#       8
#     8   8   8   8   8   8   8   8
#     4  10  19  33  56  83 114 151 185 224 286 351
#     4  11  22  36  58  85 113 147 189 241 291 337
#     4   9  18  34  57  83 113 152 188 229 281 336
#     4  12  24  36  57  89 121 152 190 237 288 342
#     4  11  23  39  58  84 119 155 188 232 292 351
#     4  10  21  36  58  85 113 147 190 241 286 330
#     4  10  23  42  60  82 115 154 194 238 290 345
#     4   9  20  40  63  83 110 154 201 237 281 344
#
# _framework density 19.913886999999999
#
# number of rings (size 3 to 8) (size 9 to 14) (size 15 to 20)
#    0.000    1.750    1.250    4.125    0.000    9.000 
#    0.000    3.125    0.000    3.750    0.000    0.000 
#    0.000    0.000    0.000    0.000    0.000    0.000 
#
# Total GULP energy -793659.380974 kJ/mol
# GULP energy per Si atom -12400.927828 kJ/mol
# Density = 1.986856 g / cm^3
# Si number density = 19.913887 Si / 1000 Ang^3
#
#
#
# Elastic Constant Matrix: (Units=GPa)
#
#
# Indices 1 2 3 4 5 6 
#
# 1 108.6073 19.5240 53.2979 0.0000 0.0000 0.0000
# 2 19.5240 31.7442 18.0567 0.0000 0.0000 0.0000
# 3 53.2979 18.0567 112.0061 0.0000 0.0000 0.0000
# 4 0.0000 0.0000 0.0000 13.3402 0.0000 0.0000
# 5 0.0000 0.0000 0.0000 0.0000 33.7604 0.0000
# 6 0.0000 0.0000 0.0000 0.0000 0.0000 18.1661
#
#
#
# Elastic Compliance Matrix: (Units=1/GPa)
#
#
# Indices 1 2 3 4 5 6 
#
# 1 0.012642 -0.004793 -0.005243 0.000000 0.000000 0.000000
# 2 -0.004793 0.036499 -0.003603 0.000000 0.000000 0.000000
# 3 -0.005243 -0.003603 0.012004 0.000000 0.000000 0.000000
# 4 0.000000 0.000000 0.000000 0.074962 0.000000 0.000000
# 5 0.000000 0.000000 0.000000 0.000000 0.029620 0.000000
# 6 0.000000 0.000000 0.000000 0.000000 0.000000 0.055048
#
#
# Mechanical properties :
#
#
# Convention : Reuss Voigt Hill
#
# Bulk Modulus (GPa) = 29.52775 48.23497 38.88136
# Shear Modulus (GPa) = 19.27951 23.81861 21.54906
#
# Velocity S-wave (km/s) = 3.11488 3.46219 3.29312
# Velocity P-wave (km/s) = 5.27224 6.34482 5.83323
#
# Compressibility (1/GPa) = 0.03386644
#
# Stress axis : x y z
#
# Youngs Moduli (GPa) = 79.10094 27.39774 83.30653
#
# Poissons Ratio (x) = 0.13132 0.43678
# Poissons Ratio (y) = 0.37914 0.30018
# Poissons Ratio (z) = 0.41473 0.09872
#
# Static dielectric constant tensor:
#      x y z
#    x 3.779380 0.000000 0.000000 
#    y 0.000000 3.475490 0.000000 
#    z 0.000000 0.000000 3.679700 
# 
# 
# High freq. dielectric constant tensor:
#      x y z
#    x 1.783040 0.000000 0.000000 
#    y 0.000000 1.754490 0.000000 
#    z 0.000000 0.000000 1.778880 
# 
# From -- ./inp_files/6850.got.cif
#   From: 2010.06.25/outbox.cif.g09.slc.cpg/sg58_4_cif.got.tgz:6850.got - 2010.06.26 21:38:00.
