data_PCOD8236070
_publ_section_title
;
Structure prediction by ZEFSAII (Michael W. Deem and Ramdas Pophale) SiO2 
 PCOD8236070
Probable space group: P N N M
;
_chemical_formula_sum "Si O2"
_cell_formula_units_Z 64
_cell_length_a 30.014469
_cell_length_b 14.389659
_cell_length_c 8.798536
_cell_angle_alpha 90.000000
_cell_angle_beta 90.000000
_cell_angle_gamma 90.000000
_cell_volume 3800.069872
_symmetry_space_group_name_H-M "P N N M"
_symmetry_group_IT_number 58
_symmetry_cell_setting 'orthorhombic'
loop_
_space_group_symop_operation_xyz
x,y,z
-x,-y,z
1/2+x,1/2-y,1/2-z
1/2-x,1/2+y,1/2-z
-x,-y,-z
x,y,-z
1/2-x,1/2+y,1/2+z
1/2+x,1/2-y,1/2+z
loop_
_atom_site_type_symbol
_atom_site_label
_atom_site_fract_x
_atom_site_fract_y
_atom_site_fract_z
Si Si1 0.300910 0.162489 0.821741
Si Si2 0.316099 0.485071 0.672128
Si Si3 0.042427 0.099818 0.324347
Si Si4 0.638358 0.353067 0.823883
Si Si5 0.866256 0.204394 0.828155
Si Si6 0.775375 0.519939 0.177473
Si Si7 0.212217 0.270365 0.819103
Si Si8 0.453291 0.399944 0.679980
O O1 0.346219 0.214884 0.775796
O O2 0.305419 0.058431 0.756659
O O3 0.256422 0.215722 0.760887
O O4 0.298605 0.156731 0.000000
O O5 0.302215 0.511477 0.500000
O O6 0.354525 0.552860 0.729352
O O7 0.332377 0.380716 0.682113
O O8 0.275381 0.502711 0.783977
O O9 0.028474 0.093485 0.500000
O O10 0.085470 0.166801 0.304419
O O11 0.001265 0.142373 0.228005
O O12 0.053889 0.996587 0.266258
O O13 0.667738 0.270631 0.755115
O O14 0.650674 0.367479 0.000000
O O15 0.914993 0.172849 0.770041
O O16 0.869348 0.241485 0.000000
O O17 0.786501 0.623107 0.237556
O O18 0.783329 0.512797 0.000000
O O19 0.208961 0.264224 0.000000
O O20 0.450752 0.418181 0.500000
#
# Coordination Sequence:
#
# PCOD8236070 Si02
#       8
#     8   8   8   8   8   8   8   8
#     4  11  22  35  52  76 102 133 173 210 251 303
#     4  11  20  31  49  72 102 136 172 211 248 293
#     4  10  20  32  47  73 104 134 168 208 256 304
#     4  11  22  33  50  74 102 138 174 208 253 303
#     4  10  21  34  50  74 102 137 175 210 250 299
#     4  11  22  37  52  71 101 135 172 214 253 294
#     4  10  22  36  51  73 101 133 173 212 249 298
#     4  10  19  32  50  73 100 135 173 207 251 302
#
# _framework density 16.841795000000001
#
# number of rings (size 3 to 8) (size 9 to 14) (size 15 to 20)
#    0.000    1.500    3.750    3.000    0.000    4.500 
#    0.000    0.000    0.000    0.000    0.000    0.875 
#    0.000    7.000    0.000    0.000    0.000    0.000 
#
# Total GULP energy -793527.385309 kJ/mol
# GULP energy per Si atom -12398.865395 kJ/mol
# Density = 1.680346 g / cm^3
# Si number density = 16.841795 Si / 1000 Ang^3
#
#
#
# Elastic Constant Matrix: (Units=GPa)
#
#
# Indices 1 2 3 4 5 6 
#
# 1 90.1024 24.3294 20.5810 0.0000 0.0000 0.0000
# 2 24.3294 71.6520 26.2208 0.0000 0.0000 0.0000
# 3 20.5810 26.2208 50.2333 0.0000 0.0000 0.0000
# 4 0.0000 0.0000 0.0000 24.8339 0.0000 0.0000
# 5 0.0000 0.0000 0.0000 0.0000 27.9165 0.0000
# 6 0.0000 0.0000 0.0000 0.0000 0.0000 24.7204
#
#
#
# Elastic Compliance Matrix: (Units=1/GPa)
#
#
# Indices 1 2 3 4 5 6 
#
# 1 0.012741 -0.002986 -0.003661 0.000000 0.000000 0.000000
# 2 -0.002986 0.017952 -0.008147 0.000000 0.000000 0.000000
# 3 -0.003661 -0.008147 0.025660 0.000000 0.000000 0.000000
# 4 0.000000 0.000000 0.000000 0.040268 0.000000 0.000000
# 5 0.000000 0.000000 0.000000 0.000000 0.035821 0.000000
# 6 0.000000 0.000000 0.000000 0.000000 0.000000 0.040452
#
#
# Mechanical properties :
#
#
# Convention : Reuss Voigt Hill
#
# Bulk Modulus (GPa) = 37.36452 39.36112 38.36282
# Shear Modulus (GPa) = 23.65141 24.88460 24.26800
#
# Velocity S-wave (km/s) = 3.75150 3.84806 3.80009
# Velocity P-wave (km/s) = 6.40303 6.57003 6.48707
#
# Compressibility (1/GPa) = 0.02676336
#
# Stress axis : x y z
#
# Youngs Moduli (GPa) = 78.48560 55.70512 38.97167
#
# Poissons Ratio (x) = 0.16636 0.14269
# Poissons Ratio (y) = 0.23439 0.31750
# Poissons Ratio (z) = 0.28736 0.45382
#
# Static dielectric constant tensor:
#      x y z
#    x 3.247990 0.000000 0.000000 
#    y 0.000000 3.046390 0.000000 
#    z 0.000000 0.000000 3.208760 
# 
# 
# High freq. dielectric constant tensor:
#      x y z
#    x 1.642330 0.000000 0.000000 
#    y 0.000000 1.620090 0.000000 
#    z 0.000000 0.000000 1.660600 
# 
# From -- ./inp_files/11128.got.cif
#   From: 2010.06.25/outbox.cif.g09.slc.cpg/sg58_6_cif.got.tgz:11128.got - 2010.06.26 21:38:00.
