data_PCOD8236317
_publ_section_title
;
Structure prediction by ZEFSAII (Michael W. Deem and Ramdas Pophale) SiO2 
 PCOD8236317
Probable space group: P N N M
;
_chemical_formula_sum "Si O2"
_cell_formula_units_Z 64
_cell_length_a 15.177117
_cell_length_b 24.269011
_cell_length_c 8.902968
_cell_angle_alpha 90.000000
_cell_angle_beta 90.000000
_cell_angle_gamma 90.000000
_cell_volume 3279.262427
_symmetry_space_group_name_H-M "P N N M"
_symmetry_group_IT_number 58
_symmetry_cell_setting 'orthorhombic'
loop_
_space_group_symop_operation_xyz
x,y,z
-x,-y,z
1/2+x,1/2-y,1/2-z
1/2-x,1/2+y,1/2-z
-x,-y,-z
x,y,-z
1/2-x,1/2+y,1/2+z
1/2+x,1/2-y,1/2+z
loop_
_atom_site_type_symbol
_atom_site_label
_atom_site_fract_x
_atom_site_fract_y
_atom_site_fract_z
Si Si1 0.813876 0.360309 0.174603
Si Si2 0.280358 0.264591 0.675351
Si Si3 0.960422 0.217760 0.323580
Si Si4 0.671784 0.569653 0.172270
Si Si5 0.163487 0.056998 0.326595
Si Si6 0.002516 0.110983 0.823393
Si Si7 0.830696 0.648948 0.824011
Si Si8 0.506826 0.842480 0.823519
O O1 0.772856 0.300305 0.207566
O O2 0.743448 0.404947 0.230582
O O3 0.902889 0.370091 0.267975
O O4 0.836972 0.367432 0.000000
O O5 0.291759 0.276934 0.500000
O O6 0.361775 0.291405 0.763648
O O7 0.193457 0.294202 0.738577
O O8 0.960362 0.208785 0.500000
O O9 0.021562 0.171148 0.248578
O O10 0.994371 0.277970 0.278536
O O11 0.692260 0.505645 0.198824
O O12 0.592803 0.588651 0.277583
O O13 0.760661 0.601654 0.215588
O O14 0.644476 0.581273 0.000000
O O15 0.142312 0.069763 0.500000
O O16 0.076082 0.068460 0.231843
O O17 0.007581 0.116497 0.000000
O O18 0.925112 0.629065 0.761076
O O19 0.837156 0.660454 0.000000
O O20 0.497999 0.851534 0.000000
#
# Coordination Sequence:
#
# PCOD8236317 Si02
#       8
#     8   8   8   8   8   8   8   8
#     4   9  20  39  61  85 115 150 193 242 292 347
#     4  10  19  33  55  85 117 149 186 235 292 345
#     4  10  20  36  56  81 115 155 193 231 284 348
#     4  10  22  41  62  84 114 155 201 242 285 342
#     4  10  22  41  63  84 112 155 200 243 288 345
#     4  12  24  36  56  88 121 154 191 239 294 349
#     4  11  22  36  58  86 117 156 198 239 287 347
#     4  10  22  38  59  85 118 155 193 242 294 346
#
# _framework density 19.516584000000002
#
# number of rings (size 3 to 8) (size 9 to 14) (size 15 to 20)
#    0.000    1.750    1.250    3.000    1.750    5.000 
#    0.000    0.625    0.000    3.750    0.000    0.000 
#    0.000    0.000    0.000    0.000    0.000    0.000 
#
# Total GULP energy -793930.908835 kJ/mol
# GULP energy per Si atom -12405.170451 kJ/mol
# Density = 1.947216 g / cm^3
# Si number density = 19.516584 Si / 1000 Ang^3
#
#
#
# Elastic Constant Matrix: (Units=GPa)
#
#
# Indices 1 2 3 4 5 6 
#
# 1 114.3704 50.7325 49.5104 0.0000 0.0000 0.0000
# 2 50.7325 86.4041 37.3729 0.0000 0.0000 0.0000
# 3 49.5104 37.3729 92.2808 0.0000 0.0000 0.0000
# 4 0.0000 0.0000 0.0000 22.1565 0.0000 0.0000
# 5 0.0000 0.0000 0.0000 0.0000 31.9947 0.0000
# 6 0.0000 0.0000 0.0000 0.0000 0.0000 25.6135
#
#
#
# Elastic Compliance Matrix: (Units=1/GPa)
#
#
# Indices 1 2 3 4 5 6 
#
# 1 0.013405 -0.005771 -0.004855 0.000000 0.000000 0.000000
# 2 -0.005771 0.016516 -0.003593 0.000000 0.000000 0.000000
# 3 -0.004855 -0.003593 0.014896 0.000000 0.000000 0.000000
# 4 0.000000 0.000000 0.000000 0.045134 0.000000 0.000000
# 5 0.000000 0.000000 0.000000 0.000000 0.031255 0.000000
# 6 0.000000 0.000000 0.000000 0.000000 0.000000 0.039042
#
#
# Mechanical properties :
#
#
# Convention : Reuss Voigt Hill
#
# Bulk Modulus (GPa) = 61.04878 63.14300 62.09589
# Shear Modulus (GPa) = 25.75399 26.31556 26.03477
#
# Velocity S-wave (km/s) = 3.63656 3.67600 3.65633
# Velocity P-wave (km/s) = 6.99866 7.10218 7.05061
#
# Compressibility (1/GPa) = 0.01638034
#
# Stress axis : x y z
#
# Youngs Moduli (GPa) = 74.59873 60.54791 67.13122
#
# Poissons Ratio (x) = 0.34942 0.32592
# Poissons Ratio (y) = 0.43050 0.24117
# Poissons Ratio (z) = 0.36217 0.21752
#
# Static dielectric constant tensor:
#      x y z
#    x 3.518040 0.000000 0.000000 
#    y 0.000000 3.587980 0.000000 
#    z 0.000000 0.000000 3.507300 
# 
# 
# High freq. dielectric constant tensor:
#      x y z
#    x 1.759050 0.000000 0.000000 
#    y 0.000000 1.752350 0.000000 
#    z 0.000000 0.000000 1.762090 
# 
# From -- ./inp_files/6824.got.cif
#   From: 2010.06.25/outbox.cif.g09.slc.cpg/sg58_4_cif.got.tgz:6824.got - 2010.06.26 21:38:00.
