data_PCOD8236640
_publ_section_title
;
Structure prediction by ZEFSAII (Michael W. Deem and Ramdas Pophale) SiO2 
 PCOD8236640
Probable space group: P N N M
;
_chemical_formula_sum "Si O2"
_cell_formula_units_Z 48
_cell_length_a 14.945029
_cell_length_b 18.879389
_cell_length_c 9.103466
_cell_angle_alpha 90.000000
_cell_angle_beta 90.000000
_cell_angle_gamma 90.000000
_cell_volume 2568.570389
_symmetry_space_group_name_H-M "P N N M"
_symmetry_group_IT_number 58
_symmetry_cell_setting 'orthorhombic'
loop_
_space_group_symop_operation_xyz
x,y,z
-x,-y,z
1/2+x,1/2-y,1/2-z
1/2-x,1/2+y,1/2-z
-x,-y,-z
x,y,-z
1/2-x,1/2+y,1/2+z
1/2+x,1/2-y,1/2+z
loop_
_atom_site_type_symbol
_atom_site_label
_atom_site_fract_x
_atom_site_fract_y
_atom_site_fract_z
Si Si1 0.706332 0.240052 0.826707
Si Si2 0.617519 0.818337 0.325807
Si Si3 0.739889 0.078708 0.826531
Si Si4 0.098972 0.522516 0.173988
Si Si5 0.442806 0.433955 0.674581
Si Si6 0.969241 0.788498 0.174562
O O1 0.794516 0.279234 0.767577
O O2 0.712875 0.158125 0.781861
O O3 0.626437 0.279325 0.746429
O O4 0.694872 0.248775 0.000000
O O5 0.616756 0.817509 0.500000
O O6 0.531136 0.775789 0.268916
O O7 0.614518 0.898189 0.266442
O O8 0.672158 0.026709 0.747497
O O9 0.840360 0.062088 0.769813
O O10 0.733125 0.067502 0.000000
O O11 0.000000 0.500000 0.223314
O O12 0.110335 0.516858 0.000000
O O13 0.500000 0.500000 0.737176
O O14 0.442702 0.434357 0.500000
O O15 0.488166 0.361864 0.731253
O O16 0.959132 0.788506 0.000000
#
# Coordination Sequence:
#
# PCOD8236640 Si02
#       6
#     8   8   8   8   8   8
#     4  10  20  35  54  77 107 142 173 212 271 323
#     4   9  18  35  55  75 106 143 175 210 264 324
#     4  10  20  36  57  80 109 143 176 217 271 321
#     4  10  21  36  55  79 107 141 180 221 263 312
#     4   9  18  33  54  80 109 140 176 219 267 318
#     4  10  19  35  59  81 102 138 184 222 258 312
#
# _framework density 18.687438
#
# number of rings (size 3 to 8) (size 9 to 14) (size 15 to 20)
#    0.000    2.333    1.667    1.000    2.333    2.333 
#    0.000    2.500    0.000    1.000    0.000    0.000 
#    0.000    0.000    0.000    0.000    0.000    0.000 
#
# Total GULP energy -595232.533498 kJ/mol
# GULP energy per Si atom -12400.677781 kJ/mol
# Density = 1.864490 g / cm^3
# Si number density = 18.687438 Si / 1000 Ang^3
#
#
#
# Elastic Constant Matrix: (Units=GPa)
#
#
# Indices 1 2 3 4 5 6 
#
# 1 114.8674 48.7555 20.4061 0.0000 0.0000 0.0000
# 2 48.7555 143.6308 22.1438 0.0000 0.0000 0.0000
# 3 20.4061 22.1438 17.2457 0.0000 0.0000 0.0000
# 4 0.0000 0.0000 0.0000 11.9174 0.0000 0.0000
# 5 0.0000 0.0000 0.0000 0.0000 24.3491 0.0000
# 6 0.0000 0.0000 0.0000 0.0000 0.0000 44.7819
#
#
#
# Elastic Compliance Matrix: (Units=1/GPa)
#
#
# Indices 1 2 3 4 5 6 
#
# 1 0.011587 -0.002268 -0.010797 0.000000 0.000000 0.000000
# 2 -0.002268 0.009125 -0.009032 0.000000 0.000000 0.000000
# 3 -0.010797 -0.009032 0.082359 0.000000 0.000000 0.000000
# 4 0.000000 0.000000 0.000000 0.083911 0.000000 0.000000
# 5 0.000000 0.000000 0.000000 0.000000 0.041069 0.000000
# 6 0.000000 0.000000 0.000000 0.000000 0.000000 0.022330
#
#
# Mechanical properties :
#
#
# Convention : Reuss Voigt Hill
#
# Bulk Modulus (GPa) = 16.98534 50.92829 33.95681
# Shear Modulus (GPa) = 15.91334 28.50557 22.20945
#
# Velocity S-wave (km/s) = 2.92130 3.90986 3.45116
# Velocity P-wave (km/s) = 4.52632 6.90612 5.83875
#
# Compressibility (1/GPa) = 0.05887431
#
# Stress axis : x y z
#
# Youngs Moduli (GPa) = 86.30615 109.59096 12.14201
#
# Poissons Ratio (x) = 0.24860 0.13110
# Poissons Ratio (y) = 0.19578 0.10967
# Poissons Ratio (z) = 0.93187 0.98985
#
# Static dielectric constant tensor:
#      x y z
#    x 3.620430 0.000000 0.000000 
#    y 0.000000 3.744910 0.000000 
#    z 0.000000 0.000000 2.964320 
# 
# 
# High freq. dielectric constant tensor:
#      x y z
#    x 1.743450 0.000000 0.000000 
#    y 0.000000 1.743380 0.000000 
#    z 0.000000 0.000000 1.678830 
# 
# From -- ./inp_files/5757.got.cif
#   From: 2010.06.25/outbox.cif.g09.slc.cpg/sg58_3_cif.got.tgz:5757.got - 2010.06.26 21:38:00.
