data_PCOD8236885
_publ_section_title
;
Structure prediction by ZEFSAII (Michael W. Deem and Ramdas Pophale) SiO2 
 PCOD8236885
Probable space group: P N N M
;
_chemical_formula_sum "Si O2"
_cell_formula_units_Z 48
_cell_length_a 16.767189
_cell_length_b 18.125834
_cell_length_c 8.842689
_cell_angle_alpha 90.000000
_cell_angle_beta 90.000000
_cell_angle_gamma 90.000000
_cell_volume 2687.463714
_symmetry_space_group_name_H-M "P N N M"
_symmetry_group_IT_number 58
_symmetry_cell_setting 'orthorhombic'
loop_
_space_group_symop_operation_xyz
x,y,z
-x,-y,z
1/2+x,1/2-y,1/2-z
1/2-x,1/2+y,1/2-z
-x,-y,-z
x,y,-z
1/2-x,1/2+y,1/2+z
1/2+x,1/2-y,1/2+z
loop_
_atom_site_type_symbol
_atom_site_label
_atom_site_fract_x
_atom_site_fract_y
_atom_site_fract_z
Si Si1 0.665226 0.163415 0.822101
Si Si2 0.238908 0.553079 0.828217
Si Si3 0.086033 0.473147 0.180380
Si Si4 0.184529 0.898427 0.672240
Si Si5 0.858066 0.829033 0.319203
Si Si6 0.991213 0.082081 0.320342
O O1 0.603155 0.108409 0.742427
O O2 0.756485 0.145888 0.780992
O O3 0.646302 0.245370 0.762140
O O4 0.653418 0.156924 0.000000
O O5 0.153786 0.529494 0.754214
O O6 0.300901 0.485874 0.816286
O O7 0.282005 0.624363 0.753552
O O8 0.219749 0.573054 0.000000
O O9 0.000000 0.500000 0.237858
O O10 0.090616 0.468907 0.000000
O O11 0.199064 0.872063 0.500000
O O12 0.094217 0.883307 0.726251
O O13 0.856660 0.833470 0.500000
O O14 0.939678 0.864825 0.256030
O O15 0.996619 0.076889 0.500000
O O16 0.000000 0.000000 0.251191
#
# Coordination Sequence:
#
# PCOD8236885 Si02
#       6
#     8   8   8   8   8   8
#     4  10  20  32  47  69 103 136 157 189 245 304
#     4   8  13  25  47  70  91 118 155 197 236 276
#     4   9  18  34  55  75  92 121 171 217 242 270
#     4   9  16  29  51  73  92 121 163 203 235 275
#     4   9  16  27  44  71 101 126 156 196 245 293
#     4   9  14  24  48  78  97 117 158 208 242 274
#
# _framework density 17.860704999999999
#
# number of rings (size 3 to 8) (size 9 to 14) (size 15 to 20)
#    0.000    3.000    1.667    1.500    0.000    0.333 
#    3.000    0.000    0.000    9.500    0.000    0.000 
#    0.000    0.000    0.000    0.000    0.000    0.000 
#
# Total GULP energy -594872.468257 kJ/mol
# GULP energy per Si atom -12393.176422 kJ/mol
# Density = 1.782005 g / cm^3
# Si number density = 17.860705 Si / 1000 Ang^3
#
#
#
# Elastic Constant Matrix: (Units=GPa)
#
#
# Indices 1 2 3 4 5 6 
#
# 1 156.3162 86.2827 14.9118 0.0000 0.0000 0.0000
# 2 86.2827 139.3220 18.4775 0.0000 0.0000 0.0000
# 3 14.9118 18.4775 16.5898 0.0000 0.0000 0.0000
# 4 0.0000 0.0000 0.0000 18.0360 0.0000 0.0000
# 5 0.0000 0.0000 0.0000 0.0000 16.2220 0.0000
# 6 0.0000 0.0000 0.0000 0.0000 0.0000 24.3758
#
#
#
# Elastic Compliance Matrix: (Units=1/GPa)
#
#
# Indices 1 2 3 4 5 6 
#
# 1 0.009801 -0.005751 -0.002404 0.000000 0.000000 0.000000
# 2 -0.005751 0.011796 -0.007969 0.000000 0.000000 0.000000
# 3 -0.002404 -0.007969 0.071315 0.000000 0.000000 0.000000
# 4 0.000000 0.000000 0.000000 0.055445 0.000000 0.000000
# 5 0.000000 0.000000 0.000000 0.000000 0.061645 0.000000
# 6 0.000000 0.000000 0.000000 0.000000 0.000000 0.041024
#
#
# Mechanical properties :
#
#
# Convention : Reuss Voigt Hill
#
# Bulk Modulus (GPa) = 16.48439 61.28579 38.88509
# Shear Modulus (GPa) = 16.47469 24.56382 20.51925
#
# Velocity S-wave (km/s) = 3.04040 3.71253 3.39314
# Velocity P-wave (km/s) = 4.64487 7.26394 6.09670
#
# Compressibility (1/GPa) = 0.06066346
#
# Stress axis : x y z
#
# Youngs Moduli (GPa) = 102.03008 84.77376 14.02226
#
# Poissons Ratio (x) = 0.48753 0.03371
# Poissons Ratio (y) = 0.58677 0.11175
# Poissons Ratio (z) = 0.24532 0.67557
#
# Static dielectric constant tensor:
#      x y z
#    x 3.569940 0.000000 0.000000 
#    y 0.000000 3.325640 0.000000 
#    z 0.000000 0.000000 2.766540 
# 
# 
# High freq. dielectric constant tensor:
#      x y z
#    x 1.703250 0.000000 0.000000 
#    y 0.000000 1.680990 0.000000 
#    z 0.000000 0.000000 1.634530 
# 
# From -- ./inp_files/7874.got.cif
#   From: 2010.06.25/outbox.cif.g09.slc.cpg/sg58_4_cif.got.tgz:7874.got - 2010.06.26 21:38:00.
