data_PCOD8236147
_publ_section_title
;
Structure prediction by ZEFSAII (Michael W. Deem and Ramdas Pophale) SiO2 
 PCOD8236147
Probable space group: P N N M
;
_chemical_formula_sum "Si O2"
_cell_formula_units_Z 56
_cell_length_a 14.279715
_cell_length_b 22.749043
_cell_length_c 8.807512
_cell_angle_alpha 90.000000
_cell_angle_beta 90.000000
_cell_angle_gamma 90.000000
_cell_volume 2861.118957
_symmetry_space_group_name_H-M "P N N M"
_symmetry_group_IT_number 58
_symmetry_cell_setting 'orthorhombic'
loop_
_space_group_symop_operation_xyz
x,y,z
-x,-y,z
1/2+x,1/2-y,1/2-z
1/2-x,1/2+y,1/2-z
-x,-y,-z
x,y,-z
1/2-x,1/2+y,1/2+z
1/2+x,1/2-y,1/2+z
loop_
_atom_site_type_symbol
_atom_site_label
_atom_site_fract_x
_atom_site_fract_y
_atom_site_fract_z
Si Si1 0.389775 0.218471 0.326974
Si Si2 0.288086 0.114086 0.822636
Si Si3 0.788088 0.607428 0.176675
Si Si4 0.098782 0.840255 0.675457
Si Si5 0.894627 0.720662 0.174948
Si Si6 0.606912 0.994130 0.319711
Si Si7 0.389013 0.655340 0.176902
O O1 0.356123 0.210063 0.500000
O O2 0.328834 0.177758 0.217987
O O3 0.373434 0.285415 0.278855
O O4 0.497996 0.201311 0.309321
O O5 0.350448 0.065494 0.742200
O O6 0.180496 0.111625 0.765706
O O7 0.290889 0.103057 0.000000
O O8 0.675860 0.608807 0.205662
O O9 0.834213 0.666866 0.242809
O O10 0.833403 0.548899 0.248777
O O11 0.812817 0.606562 0.000000
O O12 0.100646 0.819815 0.500000
O O13 0.995480 0.864044 0.717603
O O14 0.871728 0.777395 0.275151
O O15 0.869363 0.735354 0.000000
O O16 0.612664 0.991677 0.500000
O O17 0.500000 0.000000 0.264340
O O18 0.368138 0.649042 0.000000
#
# Coordination Sequence:
#
# PCOD8236147 Si02
#       7
#     8   8   8   8   8   8   8
#     4  10  19  32  53  82 113 145 180 218 266 324
#     4  12  24  37  54  76 106 145 186 229 274 315
#     4   9  17  32  55  79 104 137 174 213 263 322
#     4   9  18  33  54  82 113 142 174 217 269 324
#     4   9  17  31  54  84 115 143 171 210 265 325
#     4  10  21  39  61  82 105 136 176 221 269 326
#     4  10  20  34  53  79 110 143 180 220 264 318
#
# _framework density 19.572762000000001
#
# number of rings (size 3 to 8) (size 9 to 14) (size 15 to 20)
#    0.000    2.143    0.000    3.857    0.000    4.857 
#    0.000    2.143    0.000    4.286    0.000    0.000 
#    0.000    0.000    0.000    0.000    0.000    0.000 
#
# Total GULP energy -694447.082498 kJ/mol
# GULP energy per Si atom -12400.840759 kJ/mol
# Density = 1.952821 g / cm^3
# Si number density = 19.572762 Si / 1000 Ang^3
#
#
#
# Elastic Constant Matrix: (Units=GPa)
#
#
# Indices 1 2 3 4 5 6 
#
# 1 144.0487 63.2903 31.0176 0.0000 0.0000 0.0000
# 2 63.2903 61.8556 19.0686 0.0000 0.0000 0.0000
# 3 31.0176 19.0686 26.6918 0.0000 0.0000 0.0000
# 4 0.0000 0.0000 0.0000 23.2062 0.0000 0.0000
# 5 0.0000 0.0000 0.0000 0.0000 20.8142 0.0000
# 6 0.0000 0.0000 0.0000 0.0000 0.0000 35.4193
#
#
#
# Elastic Compliance Matrix: (Units=1/GPa)
#
#
# Indices 1 2 3 4 5 6 
#
# 1 0.013712 -0.011693 -0.007581 0.000000 0.000000 0.000000
# 2 -0.011693 0.030704 -0.008347 0.000000 0.000000 0.000000
# 3 -0.007581 -0.008347 0.052237 0.000000 0.000000 0.000000
# 4 0.000000 0.000000 0.000000 0.043092 0.000000 0.000000
# 5 0.000000 0.000000 0.000000 0.000000 0.048044 0.000000
# 6 0.000000 0.000000 0.000000 0.000000 0.000000 0.028233
#
#
# Mechanical properties :
#
#
# Convention : Reuss Voigt Hill
#
# Bulk Modulus (GPa) = 24.14772 51.03880 37.59326
# Shear Modulus (GPa) = 17.53969 23.83591 20.68780
#
# Velocity S-wave (km/s) = 2.99679 3.49350 3.25463
# Velocity P-wave (km/s) = 4.93341 6.51197 5.77686
#
# Compressibility (1/GPa) = 0.04141178
#
# Stress axis : x y z
#
# Youngs Moduli (GPa) = 72.92898 32.56893 19.14348
#
# Poissons Ratio (x) = 0.38083 0.14512
# Poissons Ratio (y) = 0.85276 0.15979
# Poissons Ratio (z) = 0.55285 0.27185
#
# Static dielectric constant tensor:
#      x y z
#    x 3.922130 0.000000 0.000000 
#    y 0.000000 3.398210 0.000000 
#    z 0.000000 0.000000 3.391270 
# 
# 
# High freq. dielectric constant tensor:
#      x y z
#    x 1.783300 0.000000 0.000000 
#    y 0.000000 1.737890 0.000000 
#    z 0.000000 0.000000 1.742920 
# 
# From -- ./inp_files/6305.got.cif
#   From: 2010.06.25/outbox.cif.g09.slc.cpg/sg58_4_cif.got.tgz:6305.got - 2010.06.26 21:38:00.
