data_PCOD8236323
_publ_section_title
;
Structure prediction by ZEFSAII (Michael W. Deem and Ramdas Pophale) SiO2 
 PCOD8236323
Probable space group: P N N M
;
_chemical_formula_sum "Si O2"
_cell_formula_units_Z 48
_cell_length_a 28.883119
_cell_length_b 10.169637
_cell_length_c 9.204883
_cell_angle_alpha 90.000000
_cell_angle_beta 90.000000
_cell_angle_gamma 90.000000
_cell_volume 2703.757976
_symmetry_space_group_name_H-M "P N N M"
_symmetry_group_IT_number 58
_symmetry_cell_setting 'orthorhombic'
loop_
_space_group_symop_operation_xyz
x,y,z
-x,-y,z
1/2+x,1/2-y,1/2-z
1/2-x,1/2+y,1/2-z
-x,-y,-z
x,y,-z
1/2-x,1/2+y,1/2+z
1/2+x,1/2-y,1/2+z
loop_
_atom_site_type_symbol
_atom_site_label
_atom_site_fract_x
_atom_site_fract_y
_atom_site_fract_z
Si Si1 0.776700 0.001005 0.166080
Si Si2 0.473148 0.371226 0.666439
Si Si3 0.118558 0.268092 0.330198
Si Si4 0.018884 0.363230 0.330440
Si Si5 0.788898 0.698748 0.171218
Si Si6 0.881159 0.993160 0.164374
O O1 0.746617 0.090397 0.271762
O O2 0.829575 0.048288 0.188379
O O3 0.771969 0.846842 0.209299
O O4 0.760647 0.022411 0.000000
O O5 0.500000 0.500000 0.722271
O O6 0.486222 0.343875 0.500000
O O7 0.488585 0.249039 0.759080
O O8 0.417943 0.390297 0.687855
O O9 0.130441 0.265289 0.500000
O O10 0.073407 0.354900 0.295528
O O11 0.161681 0.329931 0.244566
O O12 0.107538 0.121306 0.277442
O O13 0.009647 0.350851 0.500000
O O14 0.000000 0.500000 0.267797
O O15 0.794554 0.682069 0.000000
O O16 0.885229 0.935608 0.000000
#
# Coordination Sequence:
#
# PCOD8236323 Si02
#       6
#     8   8   8   8   8   8
#     4   9  19  36  56  78 109 141 175 219 265 318
#     4  10  19  33  57  83 108 139 178 223 266 313
#     4  10  19  33  56  79 105 143 183 218 265 321
#     4  10  22  38  53  76 112 147 180 222 268 318
#     4  10  21  37  58  82 108 139 177 222 270 319
#     4   9  18  34  55  81 111 139 176 225 270 314
#
# _framework density 17.753070000000001
#
# number of rings (size 3 to 8) (size 9 to 14) (size 15 to 20)
#    0.000    2.333    1.667    2.000    0.000    5.333 
#    3.000    0.000    0.000    0.000    0.000    0.000 
#    0.000    0.000    0.000    0.000    0.000    0.000 
#
# Total GULP energy -595210.315525 kJ/mol
# GULP energy per Si atom -12400.214907 kJ/mol
# Density = 1.771266 g / cm^3
# Si number density = 17.753070 Si / 1000 Ang^3
#
#
#
# Elastic Constant Matrix: (Units=GPa)
#
#
# Indices 1 2 3 4 5 6 
#
# 1 131.7260 79.5050 69.1182 0.0000 0.0000 0.0000
# 2 79.5050 113.7983 55.5921 0.0000 0.0000 0.0000
# 3 69.1182 55.5921 81.0034 0.0000 0.0000 0.0000
# 4 0.0000 0.0000 0.0000 32.9505 0.0000 0.0000
# 5 0.0000 0.0000 0.0000 0.0000 65.1136 0.0000
# 6 0.0000 0.0000 0.0000 0.0000 0.0000 30.0927
#
#
#
# Elastic Compliance Matrix: (Units=1/GPa)
#
#
# Indices 1 2 3 4 5 6 
#
# 1 0.016905 -0.007167 -0.009506 0.000000 0.000000 0.000000
# 2 -0.007167 0.016258 -0.005042 0.000000 0.000000 0.000000
# 3 -0.009506 -0.005042 0.023917 0.000000 0.000000 0.000000
# 4 0.000000 0.000000 0.000000 0.030349 0.000000 0.000000
# 5 0.000000 0.000000 0.000000 0.000000 0.015358 0.000000
# 6 0.000000 0.000000 0.000000 0.000000 0.000000 0.033231
#
#
# Mechanical properties :
#
#
# Convention : Reuss Voigt Hill
#
# Bulk Modulus (GPa) = 73.26383 81.66205 77.46294
# Shear Modulus (GPa) = 27.17425 33.78553 30.47989
#
# Velocity S-wave (km/s) = 3.91663 4.36716 4.14802
# Velocity P-wave (km/s) = 7.86201 8.45743 8.16515
#
# Compressibility (1/GPa) = 0.01364930
#
# Stress axis : x y z
#
# Youngs Moduli (GPa) = 59.15342 61.50873 41.81104
#
# Poissons Ratio (x) = 0.44082 0.39747
# Poissons Ratio (y) = 0.42394 0.21083
# Poissons Ratio (z) = 0.56233 0.31015
#
# Static dielectric constant tensor:
#      x y z
#    x 3.475830 0.000000 0.000000 
#    y 0.000000 3.171820 0.000000 
#    z 0.000000 0.000000 3.299700 
# 
# 
# High freq. dielectric constant tensor:
#      x y z
#    x 1.698530 0.000000 0.000000 
#    y 0.000000 1.665720 0.000000 
#    z 0.000000 0.000000 1.690510 
# 
# From -- ./inp_files/10747.got.cif
#   From: 2010.06.25/outbox.cif.g09.slc.cpg/sg58_6_cif.got.tgz:10747.got - 2010.06.26 21:38:00.
