data_PCOD8236919
_publ_section_title
;
Structure prediction by ZEFSAII (Michael W. Deem and Ramdas Pophale) SiO2 
 PCOD8236919
Probable space group: P N N M
;
_chemical_formula_sum "Si O2"
_cell_formula_units_Z 64
_cell_length_a 35.871186
_cell_length_b 5.059037
_cell_length_c 17.907030
_cell_angle_alpha 90.000000
_cell_angle_beta 90.000000
_cell_angle_gamma 90.000000
_cell_volume 3249.654224
_symmetry_space_group_name_H-M "P N N M"
_symmetry_group_IT_number 58
_symmetry_cell_setting 'orthorhombic'
loop_
_space_group_symop_operation_xyz
x,y,z
-x,-y,z
1/2+x,1/2-y,1/2-z
1/2-x,1/2+y,1/2-z
-x,-y,-z
x,y,-z
1/2-x,1/2+y,1/2+z
1/2+x,1/2-y,1/2+z
loop_
_atom_site_type_symbol
_atom_site_label
_atom_site_fract_x
_atom_site_fract_y
_atom_site_fract_z
Si Si1 0.542298 0.438493 0.291449
Si Si2 0.221300 0.704150 0.830111
Si Si3 0.363739 0.067592 0.347002
Si Si4 0.616400 0.102771 0.916537
Si Si5 0.575438 0.944686 0.224265
Si Si6 0.737820 0.786365 0.158270
Si Si7 0.396893 0.563732 0.585829
Si Si8 0.335356 0.404627 0.918094
O O1 0.500000 0.500000 0.311489
O O2 0.558271 0.650923 0.231257
O O3 0.564584 0.431255 0.369019
O O4 0.545393 0.146276 0.257849
O O5 0.176987 0.684013 0.831434
O O6 0.236526 0.448383 0.872560
O O7 0.236695 0.700985 0.746823
O O8 0.240888 0.952305 0.872029
O O9 0.385186 0.059062 0.268009
O O10 0.381323 0.268882 0.406234
O O11 0.366550 0.774990 0.382560
O O12 0.645544 0.326622 0.885294
O O13 0.582405 0.052964 0.859520
O O14 0.633713 0.816221 0.923900
O O15 0.602493 0.191434 0.000000
O O16 0.696249 0.727854 0.131816
O O17 0.405586 0.625667 0.500000
O O18 0.319050 0.472959 0.000000
#
# Coordination Sequence:
#
# PCOD8236919 Si02
#       8
#     8   8   8   8   8   8   8   8
#     4  10  21  37  59  85 112 143 175 212 263 318
#     4  10  20  33  50  72  99 134 179 224 269 323
#     4  10  20  35  55  78 104 139 182 223 271 316
#     4  10  20  34  56  82 107 139 176 220 268 312
#     4  10  20  35  58  84 110 140 177 222 262 314
#     4  10  20  33  50  72 100 135 176 226 274 318
#     4  10  21  37  56  80 109 139 177 223 265 314
#     4  10  20  34  51  74 104 136 175 221 272 319
#
# _framework density 19.694403999999999
#
# number of rings (size 3 to 8) (size 9 to 14) (size 15 to 20)
#    0.000    2.000    0.000    3.750    0.000    4.250 
#    0.000    3.750    0.000    6.750    0.000    0.000 
#    0.000    0.000    0.000    0.000    0.000    0.000 
#
# Total GULP energy -793073.094512 kJ/mol
# GULP energy per Si atom -12391.767102 kJ/mol
# Density = 1.964958 g / cm^3
# Si number density = 19.694404 Si / 1000 Ang^3
#
#
#
# Elastic Constant Matrix: (Units=GPa)
#
#
# Indices 1 2 3 4 5 6 
#
# 1 77.6840 32.4688 22.1285 0.0000 0.0000 0.0000
# 2 32.4688 117.2818 32.5508 0.0000 0.0000 0.0000
# 3 22.1285 32.5508 50.5120 0.0000 0.0000 0.0000
# 4 0.0000 0.0000 0.0000 17.6824 0.0000 0.0000
# 5 0.0000 0.0000 0.0000 0.0000 12.0724 0.0000
# 6 0.0000 0.0000 0.0000 0.0000 0.0000 28.5577
#
#
#
# Elastic Compliance Matrix: (Units=1/GPa)
#
#
# Indices 1 2 3 4 5 6 
#
# 1 0.015493 -0.002929 -0.004899 0.000000 0.000000 0.000000
# 2 -0.002929 0.010937 -0.005765 0.000000 0.000000 0.000000
# 3 -0.004899 -0.005765 0.025659 0.000000 0.000000 0.000000
# 4 0.000000 0.000000 0.000000 0.056553 0.000000 0.000000
# 5 0.000000 0.000000 0.000000 0.000000 0.082833 0.000000
# 6 0.000000 0.000000 0.000000 0.000000 0.000000 0.035017
#
#
# Mechanical properties :
#
#
# Convention : Reuss Voigt Hill
#
# Bulk Modulus (GPa) = 40.15838 46.64155 43.39996
# Shear Modulus (GPa) = 19.08541 22.21781 20.65161
#
# Velocity S-wave (km/s) = 3.11638 3.36241 3.24173
# Velocity P-wave (km/s) = 5.77790 6.22964 6.00802
#
# Compressibility (1/GPa) = 0.02490141
#
# Stress axis : x y z
#
# Youngs Moduli (GPa) = 64.54703 91.42892 38.97310
#
# Poissons Ratio (x) = 0.26782 0.19095
# Poissons Ratio (y) = 0.18907 0.22468
# Poissons Ratio (z) = 0.31624 0.52709
#
# Static dielectric constant tensor:
#      x y z
#    x 3.287770 0.000000 0.000000 
#    y 0.000000 4.031070 0.000000 
#    z 0.000000 0.000000 3.582570 
# 
# 
# High freq. dielectric constant tensor:
#      x y z
#    x 1.744250 0.000000 0.000000 
#    y 0.000000 1.796000 0.000000 
#    z 0.000000 0.000000 1.744840 
# 
# From -- ./inp_files/27787.got.cif
#   From: 2010.06.25/outbox.cif.g09.slc.cpg/sg58_14_cif.got.tgz:27787.got - 2010.06.26 21:38:00.
