data_PCOD8236585
_publ_section_title
;
Structure prediction by ZEFSAII (Michael W. Deem and Ramdas Pophale) SiO2 
 PCOD8236585
Probable space group: P N N M
;
_chemical_formula_sum "Si O2"
_cell_formula_units_Z 48
_cell_length_a 10.090446
_cell_length_b 27.365058
_cell_length_c 9.018497
_cell_angle_alpha 90.000000
_cell_angle_beta 90.000000
_cell_angle_gamma 90.000000
_cell_volume 2490.238256
_symmetry_space_group_name_H-M "P N N M"
_symmetry_group_IT_number 58
_symmetry_cell_setting 'orthorhombic'
loop_
_space_group_symop_operation_xyz
x,y,z
-x,-y,z
1/2+x,1/2-y,1/2-z
1/2-x,1/2+y,1/2-z
-x,-y,-z
x,y,-z
1/2-x,1/2+y,1/2+z
1/2+x,1/2-y,1/2+z
loop_
_atom_site_type_symbol
_atom_site_label
_atom_site_fract_x
_atom_site_fract_y
_atom_site_fract_z
Si Si1 0.024888 0.858492 0.675992
Si Si2 0.611804 0.038580 0.824999
Si Si3 0.974559 0.637530 0.827189
Si Si4 0.250261 0.182303 0.675335
Si Si5 0.116286 0.963259 0.324763
Si Si6 0.248945 0.785891 0.672520
O O1 0.027018 0.860963 0.500000
O O2 0.877349 0.847298 0.734365
O O3 0.074083 0.910335 0.737858
O O4 0.123612 0.816498 0.732492
O O5 0.574155 0.091782 0.766044
O O6 0.748843 0.020021 0.753872
O O7 0.500000 0.000000 0.777326
O O8 0.628502 0.041327 0.000000
O O9 0.881759 0.683849 0.795328
O O10 0.121102 0.652272 0.773203
O O11 0.969888 0.623096 0.000000
O O12 0.248554 0.187805 0.500000
O O13 0.246882 0.236117 0.739452
O O14 0.141696 0.962762 0.500000
O O15 0.000000 0.000000 0.280543
O O16 0.233616 0.773872 0.500000
#
# Coordination Sequence:
#
# PCOD8236585 Si02
#       6
#     8   8   8   8   8   8
#     4   9  18  35  55  82 116 144 180 235 285 329
#     4  11  25  42  60  86 121 156 192 239 300 359
#     4  10  21  38  60  85 115 151 198 245 284 340
#     4  10  21  34  55  86 116 149 191 236 282 339
#     4  10  21  39  66  92 113 147 195 240 291 351
#     4  10  19  35  56  79 115 154 190 236 284 337
#
# _framework density 19.275265000000001
#
# number of rings (size 3 to 8) (size 9 to 14) (size 15 to 20)
#    0.000    2.000    1.667    1.500    2.333    3.000 
#    0.000    0.833    0.000    0.000    0.000    0.000 
#    0.000    0.000    0.000    0.000    0.000    0.000 
#
# Total GULP energy -595340.870975 kJ/mol
# GULP energy per Si atom -12402.934812 kJ/mol
# Density = 1.923139 g / cm^3
# Si number density = 19.275265 Si / 1000 Ang^3
#
#
#
# Elastic Constant Matrix: (Units=GPa)
#
#
# Indices 1 2 3 4 5 6 
#
# 1 182.1823 54.5049 41.2900 0.0000 0.0000 0.0000
# 2 54.5049 96.0225 32.5960 0.0000 0.0000 0.0000
# 3 41.2900 32.5960 39.5651 0.0000 0.0000 0.0000
# 4 0.0000 0.0000 0.0000 26.7144 0.0000 0.0000
# 5 0.0000 0.0000 0.0000 0.0000 7.6193 0.0000
# 6 0.0000 0.0000 0.0000 0.0000 0.0000 34.8038
#
#
#
# Elastic Compliance Matrix: (Units=1/GPa)
#
#
# Indices 1 2 3 4 5 6 
#
# 1 0.007517 -0.002227 -0.006011 0.000000 0.000000 0.000000
# 2 -0.002227 0.015117 -0.010131 0.000000 0.000000 0.000000
# 3 -0.006011 -0.010131 0.039894 0.000000 0.000000 0.000000
# 4 0.000000 0.000000 0.000000 0.037433 0.000000 0.000000
# 5 0.000000 0.000000 0.000000 0.000000 0.131245 0.000000
# 6 0.000000 0.000000 0.000000 0.000000 0.000000 0.028732
#
#
# Mechanical properties :
#
#
# Convention : Reuss Voigt Hill
#
# Bulk Modulus (GPa) = 38.77122 63.83908 51.30515
# Shear Modulus (GPa) = 16.37882 26.45278 21.41580
#
# Velocity S-wave (km/s) = 2.91818 3.70857 3.33686
# Velocity P-wave (km/s) = 5.61360 7.17841 6.44368
#
# Compressibility (1/GPa) = 0.02579232
#
# Stress axis : x y z
#
# Youngs Moduli (GPa) = 133.02361 66.15028 25.06659
#
# Poissons Ratio (x) = 0.14730 0.15067
# Poissons Ratio (y) = 0.29620 0.25394
# Poissons Ratio (z) = 0.79957 0.67014
#
# Static dielectric constant tensor:
#      x y z
#    x 4.021630 0.000000 0.000000 
#    y 0.000000 3.531250 0.000000 
#    z 0.000000 0.000000 3.240970 
# 
# 
# High freq. dielectric constant tensor:
#      x y z
#    x 1.772850 0.000000 0.000000 
#    y 0.000000 1.757410 0.000000 
#    z 0.000000 0.000000 1.721150 
# 
# From -- ./inp_files/2880.got.cif
#   From: 2010.06.25/outbox.cif.g09.slc.cpg/sg58_2_cif.got.tgz:2880.got - 2010.06.26 21:38:00.
