data_PCOD8236347
_publ_section_title
;
Structure prediction by ZEFSAII (Michael W. Deem and Ramdas Pophale) SiO2 
 PCOD8236347
Probable space group: P N N M
;
_chemical_formula_sum "Si O2"
_cell_formula_units_Z 64
_cell_length_a 19.894329
_cell_length_b 19.314761
_cell_length_c 8.812533
_cell_angle_alpha 90.000000
_cell_angle_beta 90.000000
_cell_angle_gamma 90.000000
_cell_volume 3386.252905
_symmetry_space_group_name_H-M "P N N M"
_symmetry_group_IT_number 58
_symmetry_cell_setting 'orthorhombic'
loop_
_space_group_symop_operation_xyz
x,y,z
-x,-y,z
1/2+x,1/2-y,1/2-z
1/2-x,1/2+y,1/2-z
-x,-y,-z
x,y,-z
1/2-x,1/2+y,1/2+z
1/2+x,1/2-y,1/2+z
loop_
_atom_site_type_symbol
_atom_site_label
_atom_site_fract_x
_atom_site_fract_y
_atom_site_fract_z
Si Si1 0.014765 0.711984 0.674193
Si Si2 0.959380 0.565855 0.680487
Si Si3 0.189191 0.407611 0.319536
Si Si4 0.638078 0.713556 0.322305
Si Si5 0.405052 0.671156 0.174475
Si Si6 0.928404 0.969068 0.823839
Si Si7 0.283945 0.755388 0.177552
Si Si8 0.325968 0.430582 0.178664
O O1 0.038111 0.706994 0.500000
O O2 0.076327 0.740116 0.771491
O O3 0.993695 0.636728 0.738942
O O4 0.951738 0.762110 0.691527
O O5 0.960874 0.566830 0.500000
O O6 0.881744 0.559954 0.734353
O O7 0.000000 0.500000 0.746102
O O8 0.197723 0.411226 0.500000
O O9 0.192294 0.329163 0.256717
O O10 0.252036 0.447257 0.244944
O O11 0.633414 0.698195 0.500000
O O12 0.705758 0.756885 0.282285
O O13 0.639798 0.639140 0.242134
O O14 0.432037 0.611635 0.283293
O O15 0.331022 0.693211 0.237285
O O16 0.403545 0.645318 0.000000
O O17 0.871719 0.004674 0.722744
O O18 0.911581 0.979669 0.000000
O O19 0.000000 0.000000 0.780371
O O20 0.296875 0.759180 0.000000
O O21 0.321291 0.423792 0.000000
#
# Coordination Sequence:
#
# PCOD8236347 Si02
#       8
#     8   8   8   8   8   8   8   8
#     4  10  19  33  56  85 115 146 187 231 276 330
#     4   9  17  32  57  86 115 149 188 231 278 331
#     4   9  16  33  59  82 111 149 188 227 274 328
#     4  10  20  35  57  82 113 150 184 225 279 332
#     4  10  19  34  57  80 106 145 188 231 275 326
#     4  11  24  40  56  79 112 146 184 231 284 341
#     4   8  15  31  54  76 101 141 184 220 265 324
#     4  11  22  37  58  84 113 148 190 233 277 334
#
# _framework density 18.899947000000001
#
# number of rings (size 3 to 8) (size 9 to 14) (size 15 to 20)
#    0.000    2.250    1.250    3.375    0.000    3.500 
#    2.250    3.750    0.000    0.750    0.000    0.000 
#    0.000    0.000    0.000    0.000    0.000    0.000 
#
# Total GULP energy -793508.860608 kJ/mol
# GULP energy per Si atom -12398.575947 kJ/mol
# Density = 1.885693 g / cm^3
# Si number density = 18.899947 Si / 1000 Ang^3
#
#
#
# Elastic Constant Matrix: (Units=GPa)
#
#
# Indices 1 2 3 4 5 6 
#
# 1 121.4905 45.8037 37.1021 0.0000 0.0000 0.0000
# 2 45.8037 95.4675 24.3357 0.0000 0.0000 0.0000
# 3 37.1021 24.3357 58.8110 0.0000 0.0000 0.0000
# 4 0.0000 0.0000 0.0000 17.7578 0.0000 0.0000
# 5 0.0000 0.0000 0.0000 0.0000 21.7727 0.0000
# 6 0.0000 0.0000 0.0000 0.0000 0.0000 33.3679
#
#
#
# Elastic Compliance Matrix: (Units=1/GPa)
#
#
# Indices 1 2 3 4 5 6 
#
# 1 0.011465 -0.004088 -0.005541 0.000000 0.000000 0.000000
# 2 -0.004088 0.013168 -0.002870 0.000000 0.000000 0.000000
# 3 -0.005541 -0.002870 0.021687 0.000000 0.000000 0.000000
# 4 0.000000 0.000000 0.000000 0.056313 0.000000 0.000000
# 5 0.000000 0.000000 0.000000 0.000000 0.045929 0.000000
# 6 0.000000 0.000000 0.000000 0.000000 0.000000 0.029969
#
#
# Mechanical properties :
#
#
# Convention : Reuss Voigt Hill
#
# Bulk Modulus (GPa) = 46.90115 54.47246 50.68680
# Shear Modulus (GPa) = 23.73775 25.81483 24.77629
#
# Velocity S-wave (km/s) = 3.54781 3.69977 3.62459
# Velocity P-wave (km/s) = 6.45383 6.86551 6.66285
#
# Compressibility (1/GPa) = 0.02132144
#
# Stress axis : x y z
#
# Youngs Moduli (GPa) = 87.22562 75.94368 46.11114
#
# Poissons Ratio (x) = 0.31046 0.25550
# Poissons Ratio (y) = 0.35658 0.13232
# Poissons Ratio (z) = 0.48332 0.21793
#
# Static dielectric constant tensor:
#      x y z
#    x 3.606120 0.000000 0.000000 
#    y 0.000000 3.426130 0.000000 
#    z 0.000000 0.000000 3.189470 
# 
# 
# High freq. dielectric constant tensor:
#      x y z
#    x 1.750240 0.000000 0.000000 
#    y 0.000000 1.722600 0.000000 
#    z 0.000000 0.000000 1.706740 
# 
# From -- ./inp_files/9273.got.cif
#   From: 2010.06.25/outbox.cif.g09.slc.cpg/sg58_5_cif.got.tgz:9273.got - 2010.06.26 21:38:00.
