data_PCOD8236582
_publ_section_title
;
Structure prediction by ZEFSAII (Michael W. Deem and Ramdas Pophale) SiO2 
 PCOD8236582
Probable space group: P N N M
;
_chemical_formula_sum "Si O2"
_cell_formula_units_Z 56
_cell_length_a 12.846759
_cell_length_b 16.150416
_cell_length_c 14.269613
_cell_angle_alpha 90.000000
_cell_angle_beta 90.000000
_cell_angle_gamma 90.000000
_cell_volume 2960.666470
_symmetry_space_group_name_H-M "P N N M"
_symmetry_group_IT_number 58
_symmetry_cell_setting 'orthorhombic'
loop_
_space_group_symop_operation_xyz
x,y,z
-x,-y,z
1/2+x,1/2-y,1/2-z
1/2-x,1/2+y,1/2-z
-x,-y,-z
x,y,-z
1/2-x,1/2+y,1/2+z
1/2+x,1/2-y,1/2+z
loop_
_atom_site_type_symbol
_atom_site_label
_atom_site_fract_x
_atom_site_fract_y
_atom_site_fract_z
Si Si1 0.194660 0.813945 0.394132
Si Si2 0.484019 0.362490 0.609174
Si Si3 0.093776 0.948220 0.283808
Si Si4 0.102654 0.683576 0.106713
Si Si5 0.396272 0.918459 0.606620
Si Si6 0.729149 0.365788 0.392689
Si Si7 0.205292 0.552296 0.782573
O O1 0.158370 0.827809 0.500000
O O2 0.107003 0.857543 0.330201
O O3 0.307150 0.852215 0.375214
O O4 0.206762 0.717517 0.371758
O O5 0.468618 0.385799 0.500000
O O6 0.429347 0.433174 0.672727
O O7 0.425411 0.277150 0.634412
O O8 0.606965 0.355654 0.633721
O O9 0.190898 0.004603 0.311495
O O10 0.000000 0.000000 0.329018
O O11 0.195275 0.643475 0.169338
O O12 0.002361 0.628086 0.124717
O O13 0.140173 0.680391 0.000000
O O14 0.390737 0.954022 0.500000
O O15 0.388908 0.994394 0.680576
O O16 0.740364 0.393323 0.500000
O O17 0.786525 0.435237 0.329589
#
# Coordination Sequence:
#
# PCOD8236582 Si02
#       7
#     8   8   8   8   8   8   8
#     4   9  18  34  55  76 103 142 181 215 257 312
#     4  10  20  36  58  79 104 138 178 227 267 303
#     4  11  22  35  50  80 117 143 173 208 263 326
#     4  10  19  35  60  85 105 132 176 227 275 313
#     4   9  17  32  55  83 109 130 167 224 278 314
#     4  10  19  35  56  76 102 144 188 220 257 308
#     4  11  21  31  51  82 111 140 170 217 270 320
#
# _framework density 18.914660000000001
#
# number of rings (size 3 to 8) (size 9 to 14) (size 15 to 20)
#    0.000    2.000    2.857    1.714    0.000    2.857 
#    0.000    0.000    0.000    1.714    0.000    0.000 
#    0.000    0.000    0.000    0.000    0.000    0.000 
#
# Total GULP energy -693958.645617 kJ/mol
# GULP energy per Si atom -12392.118672 kJ/mol
# Density = 1.887161 g / cm^3
# Si number density = 18.914660 Si / 1000 Ang^3
#
#
#
# Elastic Constant Matrix: (Units=GPa)
#
#
# Indices 1 2 3 4 5 6 
#
# 1 54.3263 24.2901 25.9961 0.0000 0.0000 0.0000
# 2 24.2901 50.4130 26.3908 0.0000 0.0000 0.0000
# 3 25.9961 26.3908 68.8645 0.0000 0.0000 0.0000
# 4 0.0000 0.0000 0.0000 40.8038 0.0000 0.0000
# 5 0.0000 0.0000 0.0000 0.0000 22.7855 0.0000
# 6 0.0000 0.0000 0.0000 0.0000 0.0000 25.8728
#
#
#
# Elastic Compliance Matrix: (Units=1/GPa)
#
#
# Indices 1 2 3 4 5 6 
#
# 1 0.025369 -0.009019 -0.006120 0.000000 0.000000 0.000000
# 2 -0.009019 0.028021 -0.007334 0.000000 0.000000 0.000000
# 3 -0.006120 -0.007334 0.019642 0.000000 0.000000 0.000000
# 4 0.000000 0.000000 0.000000 0.024508 0.000000 0.000000
# 5 0.000000 0.000000 0.000000 0.000000 0.043888 0.000000
# 6 0.000000 0.000000 0.000000 0.000000 0.000000 0.038651
#
#
# Mechanical properties :
#
#
# Convention : Reuss Voigt Hill
#
# Bulk Modulus (GPa) = 35.60562 36.32864 35.96713
# Shear Modulus (GPa) = 21.33240 24.35421 22.84331
#
# Velocity S-wave (km/s) = 3.36195 3.59218 3.47897
# Velocity P-wave (km/s) = 5.82542 6.03766 5.93249
#
# Compressibility (1/GPa) = 0.02808545
#
# Stress axis : x y z
#
# Youngs Moduli (GPa) = 39.41890 35.68754 50.91123
#
# Poissons Ratio (x) = 0.32188 0.31158
# Poissons Ratio (y) = 0.35553 0.37337
# Poissons Ratio (z) = 0.24125 0.26172
#
# Static dielectric constant tensor:
#      x y z
#    x 3.367740 0.000000 0.000000 
#    y 0.000000 3.928210 0.000000 
#    z 0.000000 0.000000 3.466150 
# 
# 
# High freq. dielectric constant tensor:
#      x y z
#    x 1.713960 0.000000 0.000000 
#    y 0.000000 1.746190 0.000000 
#    z 0.000000 0.000000 1.725010 
# 
# From -- ./inp_files/21263.got.cif
#   From: 2010.06.25/outbox.cif.g09.slc.cpg/sg58_11_cif.got.tgz:21263.got - 2010.06.26 21:38:00.
