data_PCOD8236466
_publ_section_title
;
Structure prediction by ZEFSAII (Michael W. Deem and Ramdas Pophale) SiO2 
 PCOD8236466
Probable space group: P N N M
;
_chemical_formula_sum "Si O2"
_cell_formula_units_Z 40
_cell_length_a 27.934939
_cell_length_b 9.254393
_cell_length_c 7.654050
_cell_angle_alpha 90.000000
_cell_angle_beta 90.000000
_cell_angle_gamma 90.000000
_cell_volume 1978.731925
_symmetry_space_group_name_H-M "P N N M"
_symmetry_group_IT_number 58
_symmetry_cell_setting 'orthorhombic'
loop_
_space_group_symop_operation_xyz
x,y,z
-x,-y,z
1/2+x,1/2-y,1/2-z
1/2-x,1/2+y,1/2-z
-x,-y,-z
x,y,-z
1/2-x,1/2+y,1/2+z
1/2+x,1/2-y,1/2+z
loop_
_atom_site_type_symbol
_atom_site_label
_atom_site_fract_x
_atom_site_fract_y
_atom_site_fract_z
Si Si1 0.044809 0.803412 0.000000
Si Si2 0.884521 0.694807 0.298419
Si Si3 0.592710 0.867158 0.194659
Si Si4 0.720101 0.108633 0.795546
Si Si5 0.066009 0.130557 0.000000
Si Si6 0.694424 0.802973 0.303645
O O1 0.058477 0.714814 0.172492
O O2 0.988415 0.820164 0.000000
O O3 0.071104 0.957680 0.000000
O O4 0.895762 0.733296 0.500000
O O5 0.904257 0.535269 0.251993
O O6 0.827800 0.701608 0.260698
O O7 0.909325 0.811683 0.175386
O O8 0.646148 0.800049 0.190831
O O9 0.571304 0.849553 0.000000
O O10 0.766405 0.193696 0.724961
O O11 0.718378 0.960230 0.690855
O O12 0.723945 0.073648 0.000000
O O13 0.680355 0.758508 0.500000
#
# Coordination Sequence:
#
# PCOD8236466 Si02
#       6
#     4   8   8   8   4   8
#     4  11  25  43  59  91 121 153 203 245 314 367
#     4   9  20  40  62  87 118 156 200 247 300 352
#     4  10  21  40  64  87 120 157 198 253 298 353
#     4   9  20  35  52  83 120 153 196 240 285 346
#     4  11  25  41  63  87 121 157 195 257 302 365
#     4  10  19  34  56  84 119 156 197 240 286 346
#
# _framework density 20.214966
#
# number of rings (size 3 to 8) (size 9 to 14) (size 15 to 20)
#    0.000    2.200    1.000    2.400    4.200    6.400 
#    0.000    6.000    0.000    0.000    0.000    0.000 
#    0.000    0.000    0.000    0.000    0.000    0.000 
#
# Total GULP energy -496031.450702 kJ/mol
# GULP energy per Si atom -12400.786268 kJ/mol
# Density = 2.016896 g / cm^3
# Si number density = 20.214966 Si / 1000 Ang^3
#
#
#
# Elastic Constant Matrix: (Units=GPa)
#
#
# Indices 1 2 3 4 5 6 
#
# 1 19.9549 -8.6197 1.8755 0.0000 0.0000 0.0000
# 2 -8.6197 20.7669 14.1523 0.0000 0.0000 0.0000
# 3 1.8755 14.1523 79.7078 0.0000 0.0000 0.0000
# 4 0.0000 0.0000 0.0000 15.8736 0.0000 0.0000
# 5 0.0000 0.0000 0.0000 0.0000 29.8868 0.0000
# 6 0.0000 0.0000 0.0000 0.0000 0.0000 37.1870
#
#
#
# Elastic Compliance Matrix: (Units=1/GPa)
#
#
# Indices 1 2 3 4 5 6 
#
# 1 0.064433 0.031601 -0.007127 0.000000 0.000000 0.000000
# 2 0.031601 0.070281 -0.013222 0.000000 0.000000 0.000000
# 3 -0.007127 -0.013222 0.015061 0.000000 0.000000 0.000000
# 4 0.000000 0.000000 0.000000 0.062998 0.000000 0.000000
# 5 0.000000 0.000000 0.000000 0.000000 0.033460 0.000000
# 6 0.000000 0.000000 0.000000 0.000000 0.000000 0.026891
#
#
# Mechanical properties :
#
#
# Convention : Reuss Voigt Hill
#
# Bulk Modulus (GPa) = 5.80450 15.02729 10.41590
# Shear Modulus (GPa) = 16.23134 24.12425 20.17779
#
# Velocity S-wave (km/s) = 2.83669 3.45829 3.16280
# Velocity P-wave (km/s) = 3.68872 4.83697 4.30133
#
# Compressibility (1/GPa) = 0.17227999
#
# Stress axis : x y z
#
# Youngs Moduli (GPa) = 15.51991 14.22860 66.39611
#
# Poissons Ratio (x) = -0.44964 0.47320
# Poissons Ratio (y) = -0.49045 0.87789
# Poissons Ratio (z) = 0.11061 0.18813
#
# Static dielectric constant tensor:
#      x y z
#    x 3.627830 0.000000 0.000000 
#    y 0.000000 3.607710 0.000000 
#    z 0.000000 0.000000 3.618930 
# 
# 
# High freq. dielectric constant tensor:
#      x y z
#    x 1.785100 0.000000 0.000000 
#    y 0.000000 1.777270 0.000000 
#    z 0.000000 0.000000 1.795770 
# 
# From -- ./inp_files/10291.got.cif
#   From: 2010.06.25/outbox.cif.g09.slc.cpg/sg58_6_cif.got.tgz:10291.got - 2010.06.26 21:38:00.
