data_PCOD8236227
_publ_section_title
;
Structure prediction by ZEFSAII (Michael W. Deem and Ramdas Pophale) SiO2 
 PCOD8236227
Probable space group: P N N M
;
_chemical_formula_sum "Si O2"
_cell_formula_units_Z 40
_cell_length_a 25.704331
_cell_length_b 9.614922
_cell_length_c 8.815913
_cell_angle_alpha 90.000000
_cell_angle_beta 90.000000
_cell_angle_gamma 90.000000
_cell_volume 2178.810032
_symmetry_space_group_name_H-M "P N N M"
_symmetry_group_IT_number 58
_symmetry_cell_setting 'orthorhombic'
loop_
_space_group_symop_operation_xyz
x,y,z
-x,-y,z
1/2+x,1/2-y,1/2-z
1/2-x,1/2+y,1/2-z
-x,-y,-z
x,y,-z
1/2-x,1/2+y,1/2+z
1/2+x,1/2-y,1/2+z
loop_
_atom_site_type_symbol
_atom_site_label
_atom_site_fract_x
_atom_site_fract_y
_atom_site_fract_z
Si Si1 0.217569 0.001039 0.322351
Si Si2 0.858169 0.204199 0.820819
Si Si3 0.171059 0.522202 0.321004
Si Si4 0.942265 0.980031 0.821187
Si Si5 0.368123 0.723850 0.175539
O O1 0.217214 0.965736 0.500000
O O2 0.195264 0.869159 0.231124
O O3 0.275076 0.033047 0.267504
O O4 0.183528 0.136920 0.284336
O O5 0.864624 0.350088 0.733928
O O6 0.906886 0.109931 0.769360
O O7 0.856427 0.229060 0.000000
O O8 0.181473 0.527539 0.500000
O O9 0.141125 0.382054 0.273720
O O10 0.918062 0.835847 0.762765
O O11 0.944492 0.970437 0.000000
O O12 0.000000 0.000000 0.752975
O O13 0.381409 0.713043 0.000000
#
# Coordination Sequence:
#
# PCOD8236227 Si02
#       5
#     8   8   8   8   8
#     4  10  19  33  53  76 104 139 176 210 251 301
#     4  10  20  34  52  76 105 136 172 211 255 307
#     4  11  21  33  50  76 110 141 172 210 252 301
#     4   9  19  37  59  78  96 125 169 217 261 308
#     4   9  20  35  51  75 104 134 170 210 251 303
#
# _framework density 18.358644999999999
#
# number of rings (size 3 to 8) (size 9 to 14) (size 15 to 20)
#    0.000    2.200    0.000    3.000    0.000    5.200 
#    0.000    1.000    0.000    6.000    0.000    0.000 
#    0.000    0.000    0.000    0.000    0.000    0.000 
#
# Total GULP energy -496140.271841 kJ/mol
# GULP energy per Si atom -12403.506796 kJ/mol
# Density = 1.831686 g / cm^3
# Si number density = 18.358645 Si / 1000 Ang^3
#
#
#
# Elastic Constant Matrix: (Units=GPa)
#
#
# Indices 1 2 3 4 5 6 
#
# 1 107.4883 46.7995 22.5499 0.0000 0.0000 0.0000
# 2 46.7995 141.8131 30.7136 0.0000 0.0000 0.0000
# 3 22.5499 30.7136 37.0785 0.0000 0.0000 0.0000
# 4 0.0000 0.0000 0.0000 31.4303 0.0000 0.0000
# 5 0.0000 0.0000 0.0000 0.0000 25.0819 0.0000
# 6 0.0000 0.0000 0.0000 0.0000 0.0000 11.7159
#
#
#
# Elastic Compliance Matrix: (Units=1/GPa)
#
#
# Indices 1 2 3 4 5 6 
#
# 1 0.011497 -0.002778 -0.004691 0.000000 0.000000 0.000000
# 2 -0.002778 0.009264 -0.005985 0.000000 0.000000 0.000000
# 3 -0.004691 -0.005985 0.034780 0.000000 0.000000 0.000000
# 4 0.000000 0.000000 0.000000 0.031816 0.000000 0.000000
# 5 0.000000 0.000000 0.000000 0.000000 0.039869 0.000000
# 6 0.000000 0.000000 0.000000 0.000000 0.000000 0.085354
#
#
# Mechanical properties :
#
#
# Convention : Reuss Voigt Hill
#
# Bulk Modulus (GPa) = 34.92319 54.05620 44.48969
# Shear Modulus (GPa) = 20.07768 26.06676 23.07222
#
# Velocity S-wave (km/s) = 3.31060 3.77219 3.54891
# Velocity P-wave (km/s) = 5.80323 6.96284 6.40931
#
# Compressibility (1/GPa) = 0.02863427
#
# Stress axis : x y z
#
# Youngs Moduli (GPa) = 86.97911 107.93917 28.75227
#
# Poissons Ratio (x) = 0.29987 0.13487
# Poissons Ratio (y) = 0.24164 0.17207
# Poissons Ratio (z) = 0.40800 0.64597
#
# Static dielectric constant tensor:
#      x y z
#    x 3.362670 0.000000 0.000000 
#    y 0.000000 3.582270 0.000000 
#    z 0.000000 0.000000 3.358590 
# 
# 
# High freq. dielectric constant tensor:
#      x y z
#    x 1.693760 0.000000 0.000000 
#    y 0.000000 1.718280 0.000000 
#    z 0.000000 0.000000 1.716230 
# 
# From -- ./inp_files/2420.got.cif
#   From: 2010.06.25/outbox.cif.g09.slc.cpg/sg58_2_cif.got.tgz:2420.got - 2010.06.26 21:38:00.
