data_PCOD8236943
_publ_section_title
;
Structure prediction by ZEFSAII (Michael W. Deem and Ramdas Pophale) SiO2 
 PCOD8236943
Probable space group: P N N M
;
_chemical_formula_sum "Si O2"
_cell_formula_units_Z 48
_cell_length_a 9.071028
_cell_length_b 30.799283
_cell_length_c 8.855311
_cell_angle_alpha 90.000000
_cell_angle_beta 90.000000
_cell_angle_gamma 90.000000
_cell_volume 2474.007046
_symmetry_space_group_name_H-M "P N N M"
_symmetry_group_IT_number 58
_symmetry_cell_setting 'orthorhombic'
loop_
_space_group_symop_operation_xyz
x,y,z
-x,-y,z
1/2+x,1/2-y,1/2-z
1/2-x,1/2+y,1/2-z
-x,-y,-z
x,y,-z
1/2-x,1/2+y,1/2+z
1/2+x,1/2-y,1/2+z
loop_
_atom_site_type_symbol
_atom_site_label
_atom_site_fract_x
_atom_site_fract_y
_atom_site_fract_z
Si Si1 0.758119 0.127582 0.174092
Si Si2 0.139508 0.046885 0.674056
Si Si3 0.594310 0.201572 0.321864
Si Si4 0.830015 0.034254 0.826045
Si Si5 0.429099 0.640243 0.823297
Si Si6 0.265871 0.221361 0.321587
O O1 0.922133 0.139573 0.227482
O O2 0.635579 0.153267 0.268064
O O3 0.724137 0.075965 0.196627
O O4 0.745892 0.141019 0.000000
O O5 0.164817 0.035806 0.500000
O O6 0.173662 0.097627 0.707860
O O7 0.969165 0.041202 0.718228
O O8 0.238823 0.012362 0.771807
O O9 0.602875 0.203460 0.500000
O O10 0.431188 0.212776 0.263583
O O11 0.712402 0.234693 0.254723
O O12 0.879456 0.031169 0.000000
O O13 0.336067 0.681542 0.769361
O O14 0.471009 0.642525 0.000000
O O15 0.261169 0.227144 0.500000
#
# Coordination Sequence:
#
# PCOD8236943 Si02
#       6
#     8   8   8   8   8   8
#     4  10  20  33  51  76 105 136 171 210 252 299
#     4   9  15  24  43  71 100 131 167 205 246 290
#     4  11  23  37  55  77 100 130 167 206 251 302
#     4   9  16  26  42  67 100 134 166 204 248 290
#     4   9  18  33  53  77 106 137 169 209 253 297
#     4  10  22  39  56  76 103 132 165 206 251 302
#
# _framework density 19.401723
#
# number of rings (size 3 to 8) (size 9 to 14) (size 15 to 20)
#    0.000    2.333    0.000    4.000    0.000    7.333 
#    0.000    0.000    0.000    1.000    0.000    7.000 
#    0.000    0.000    0.000    0.000    0.000    0.000 
#
# Total GULP energy -594911.041520 kJ/mol
# GULP energy per Si atom -12393.980032 kJ/mol
# Density = 1.935756 g / cm^3
# Si number density = 19.401723 Si / 1000 Ang^3
#
#
#
# Elastic Constant Matrix: (Units=GPa)
#
#
# Indices 1 2 3 4 5 6 
#
# 1 38.9799 -13.0229 9.9117 0.0000 0.0000 0.0000
# 2 -13.0229 57.1666 10.3192 0.0000 0.0000 0.0000
# 3 9.9117 10.3192 33.4499 0.0000 0.0000 0.0000
# 4 0.0000 0.0000 0.0000 34.5177 0.0000 0.0000
# 5 0.0000 0.0000 0.0000 0.0000 19.0968 0.0000
# 6 0.0000 0.0000 0.0000 0.0000 0.0000 22.4458
#
#
#
# Elastic Compliance Matrix: (Units=1/GPa)
#
#
# Indices 1 2 3 4 5 6 
#
# 1 0.031997 0.009531 -0.012422 0.000000 0.000000 0.000000
# 2 0.009531 0.021364 -0.009415 0.000000 0.000000 0.000000
# 3 -0.012422 -0.009415 0.036481 0.000000 0.000000 0.000000
# 4 0.000000 0.000000 0.000000 0.028971 0.000000 0.000000
# 5 0.000000 0.000000 0.000000 0.000000 0.052365 0.000000
# 6 0.000000 0.000000 0.000000 0.000000 0.000000 0.044552
#
#
# Mechanical properties :
#
#
# Convention : Reuss Voigt Hill
#
# Bulk Modulus (GPa) = 15.33009 16.00135 15.66572
# Shear Modulus (GPa) = 19.07798 23.37130 21.22464
#
# Velocity S-wave (km/s) = 3.13919 3.47450 3.31109
# Velocity P-wave (km/s) = 4.58889 4.93573 4.76547
#
# Compressibility (1/GPa) = 0.06523118
#
# Stress axis : x y z
#
# Youngs Moduli (GPa) = 31.25277 46.80874 27.41180
#
# Poissons Ratio (x) = -0.44615 0.34050
# Poissons Ratio (y) = -0.29788 0.25808
# Poissons Ratio (z) = 0.38821 0.44070
#
# Static dielectric constant tensor:
#      x y z
#    x 3.124740 0.000000 0.000000 
#    y 0.000000 4.400890 0.000000 
#    z 0.000000 0.000000 3.504660 
# 
# 
# High freq. dielectric constant tensor:
#      x y z
#    x 1.697780 0.000000 0.000000 
#    y 0.000000 1.785100 0.000000 
#    z 0.000000 0.000000 1.760080 
# 
# From -- ./inp_files/2883.got.cif
#   From: 2010.06.25/outbox.cif.g09.slc.cpg/sg58_2_cif.got.tgz:2883.got - 2010.06.26 21:38:00.
