data_PCOD8236352
_publ_section_title
;
Structure prediction by ZEFSAII (Michael W. Deem and Ramdas Pophale) SiO2 
 PCOD8236352
Probable space group: P N N M
;
_chemical_formula_sum "Si O2"
_cell_formula_units_Z 64
_cell_length_a 9.340214
_cell_length_b 30.777445
_cell_length_c 10.909801
_cell_angle_alpha 90.000000
_cell_angle_beta 90.000000
_cell_angle_gamma 90.000000
_cell_volume 3136.217830
_symmetry_space_group_name_H-M "P N N M"
_symmetry_group_IT_number 58
_symmetry_cell_setting 'orthorhombic'
loop_
_space_group_symop_operation_xyz
x,y,z
-x,-y,z
1/2+x,1/2-y,1/2-z
1/2-x,1/2+y,1/2-z
-x,-y,-z
x,y,-z
1/2-x,1/2+y,1/2+z
1/2+x,1/2-y,1/2+z
loop_
_atom_site_type_symbol
_atom_site_label
_atom_site_fract_x
_atom_site_fract_y
_atom_site_fract_z
Si Si1 0.762350 0.058781 0.860471
Si Si2 0.542729 0.925638 0.860078
Si Si3 0.368756 0.353755 0.260357
Si Si4 0.164323 0.650800 0.785176
Si Si5 0.339824 0.532930 0.356700
Si Si6 0.610169 0.293786 0.642455
Si Si7 0.909641 0.906313 0.634144
Si Si8 0.887301 0.695303 0.137449
O O1 0.605467 0.058672 0.793902
O O2 0.837560 0.105034 0.846769
O O3 0.865150 0.017985 0.819178
O O4 0.734607 0.047481 0.000000
O O5 0.586950 0.878504 0.814642
O O6 0.668869 0.960514 0.842902
O O7 0.505204 0.918001 0.000000
O O8 0.461715 0.318725 0.333946
O O9 0.458766 0.372374 0.145206
O O10 0.221387 0.331732 0.220697
O O11 0.259557 0.686077 0.716496
O O12 0.261723 0.620309 0.870697
O O13 0.044511 0.674360 0.865395
O O14 0.387960 0.543909 0.500000
O O15 0.417158 0.562505 0.253844
O O16 0.646928 0.296700 0.500000
O O17 0.596411 0.244207 0.687661
O O18 0.923679 0.929810 0.500000
O O19 0.826174 0.695526 0.000000
#
# Coordination Sequence:
#
# PCOD8236352 Si02
#       8
#     8   8   8   8   8   8   8   8
#     4  10  19  33  56  87 118 148 190 242 291 346
#     4   9  16  30  55  84 113 143 185 238 288 338
#     4  11  22  38  58  84 118 153 191 237 298 351
#     4  10  19  36  60  81 111 150 196 235 294 347
#     4   9  19  35  59  86 116 155 195 238 292 345
#     4  10  22  38  58  85 116 149 188 243 300 360
#     4  10  22  39  59  83 118 159 199 239 288 352
#     4  11  22  38  58  82 113 150 197 244 294 351
#
# _framework density 20.406744
#
# number of rings (size 3 to 8) (size 9 to 14) (size 15 to 20)
#    0.000    2.000    1.250    2.625    0.000    5.500 
#    0.000    3.125    0.000    7.500    0.000    0.000 
#    0.000    0.000    0.000    0.000    0.000    0.000 
#
# Total GULP energy -793110.032164 kJ/mol
# GULP energy per Si atom -12392.344253 kJ/mol
# Density = 2.036030 g / cm^3
# Si number density = 20.406744 Si / 1000 Ang^3
#
#
#
# Elastic Constant Matrix: (Units=GPa)
#
#
# Indices 1 2 3 4 5 6 
#
# 1 70.8392 31.5626 24.1547 0.0000 0.0000 0.0000
# 2 31.5626 139.2145 40.9444 0.0000 0.0000 0.0000
# 3 24.1547 40.9444 82.5921 0.0000 0.0000 0.0000
# 4 0.0000 0.0000 0.0000 24.7835 0.0000 0.0000
# 5 0.0000 0.0000 0.0000 0.0000 11.4385 0.0000
# 6 0.0000 0.0000 0.0000 0.0000 0.0000 39.6315
#
#
#
# Elastic Compliance Matrix: (Units=1/GPa)
#
#
# Indices 1 2 3 4 5 6 
#
# 1 0.016516 -0.002720 -0.003481 0.000000 0.000000 0.000000
# 2 -0.002720 0.008857 -0.003595 0.000000 0.000000 0.000000
# 3 -0.003481 -0.003595 0.014908 0.000000 0.000000 0.000000
# 4 0.000000 0.000000 0.000000 0.040349 0.000000 0.000000
# 5 0.000000 0.000000 0.000000 0.000000 0.087424 0.000000
# 6 0.000000 0.000000 0.000000 0.000000 0.000000 0.025232
#
#
# Mechanical properties :
#
#
# Convention : Reuss Voigt Hill
#
# Bulk Modulus (GPa) = 48.34024 53.99657 51.16840
# Shear Modulus (GPa) = 22.75029 28.23632 25.49330
#
# Velocity S-wave (km/s) = 3.34255 3.72381 3.53832
# Velocity P-wave (km/s) = 6.21584 6.70870 6.46697
#
# Compressibility (1/GPa) = 0.02068670
#
# Stress axis : x y z
#
# Youngs Moduli (GPa) = 60.54838 112.90022 67.07697
#
# Poissons Ratio (x) = 0.30714 0.23353
# Poissons Ratio (y) = 0.16472 0.24117
# Poissons Ratio (z) = 0.21080 0.40592
#
# Static dielectric constant tensor:
#      x y z
#    x 3.910390 0.000000 0.000000 
#    y 0.000000 3.820480 0.000000 
#    z 0.000000 0.000000 3.347980 
# 
# 
# High freq. dielectric constant tensor:
#      x y z
#    x 1.819800 0.000000 0.000000 
#    y 0.000000 1.804060 0.000000 
#    z 0.000000 0.000000 1.766100 
# 
# From -- ./inp_files/13442.got.cif
#   From: 2010.06.25/outbox.cif.g09.slc.cpg/sg58_7_cif.got.tgz:13442.got - 2010.06.26 21:38:00.
