data_PCOD8236144
_publ_section_title
;
Structure prediction by ZEFSAII (Michael W. Deem and Ramdas Pophale) SiO2 
 PCOD8236144
Probable space group: P N N M
;
_chemical_formula_sum "Si O2"
_cell_formula_units_Z 64
_cell_length_a 16.700108
_cell_length_b 21.537922
_cell_length_c 9.086573
_cell_angle_alpha 90.000000
_cell_angle_beta 90.000000
_cell_angle_gamma 90.000000
_cell_volume 3268.309675
_symmetry_space_group_name_H-M "P N N M"
_symmetry_group_IT_number 58
_symmetry_cell_setting 'orthorhombic'
loop_
_space_group_symop_operation_xyz
x,y,z
-x,-y,z
1/2+x,1/2-y,1/2-z
1/2-x,1/2+y,1/2-z
-x,-y,-z
x,y,-z
1/2-x,1/2+y,1/2+z
1/2+x,1/2-y,1/2+z
loop_
_atom_site_type_symbol
_atom_site_label
_atom_site_fract_x
_atom_site_fract_y
_atom_site_fract_z
Si Si1 0.169341 0.527232 0.672937
Si Si2 0.296544 0.632520 0.671064
Si Si3 0.581821 0.184782 0.172509
Si Si4 0.728034 0.103641 0.827128
Si Si5 0.947314 0.826040 0.325505
Si Si6 0.390712 0.340632 0.326172
Si Si7 0.319157 0.211491 0.662747
Si Si8 0.950860 0.393274 0.835980
O O1 0.151304 0.526404 0.500000
O O2 0.244042 0.572140 0.708306
O O3 0.192206 0.459892 0.739235
O O4 0.087091 0.547759 0.751843
O O5 0.316154 0.638219 0.500000
O O6 0.378938 0.629136 0.761047
O O7 0.250306 0.694462 0.723013
O O8 0.672713 0.163488 0.210290
O O9 0.566399 0.254855 0.229639
O O10 0.525642 0.134475 0.249716
O O11 0.563727 0.181026 0.000000
O O12 0.818949 0.114325 0.771816
O O13 0.731847 0.094434 0.000000
O O14 0.946757 0.829908 0.500000
O O15 0.029418 0.854956 0.264083
O O16 0.407802 0.346606 0.500000
O O17 0.364229 0.271873 0.280959
O O18 0.280813 0.222933 0.500000
O O19 0.382890 0.157660 0.654337
O O20 0.977855 0.413203 0.000000
#
# Coordination Sequence:
#
# PCOD8236144 Si02
#       8
#     8   8   8   8   8   8   8   8
#     4   9  19  37  57  78 105 141 189 229 261 311
#     4  10  20  33  54  79 104 137 179 223 266 316
#     4  10  20  35  56  81 110 141 177 219 266 324
#     4   9  19  36  58  79 102 141 187 229 266 311
#     4  11  22  35  54  82 113 140 174 220 275 330
#     4  10  19  35  57  79 107 141 179 223 274 325
#     4   9  17  31  52  77 107 138 171 213 269 323
#     4  10  19  32  53  81 112 145 174 214 268 318
#
# _framework density 19.581987000000002
#
# number of rings (size 3 to 8) (size 9 to 14) (size 15 to 20)
#    0.000    2.250    1.250    1.875    0.000    4.500 
#    0.000    5.000    0.000    3.750    0.000    0.000 
#    0.000    0.000    0.000    0.000    0.000    0.000 
#
# Total GULP energy -793502.376212 kJ/mol
# GULP energy per Si atom -12398.474628 kJ/mol
# Density = 1.953742 g / cm^3
# Si number density = 19.581987 Si / 1000 Ang^3
#
#
#
# Elastic Constant Matrix: (Units=GPa)
#
#
# Indices 1 2 3 4 5 6 
#
# 1 98.8344 1.5170 38.5989 0.0000 0.0000 0.0000
# 2 1.5170 37.7014 16.7789 0.0000 0.0000 0.0000
# 3 38.5989 16.7789 60.7881 0.0000 0.0000 0.0000
# 4 0.0000 0.0000 0.0000 17.8485 0.0000 0.0000
# 5 0.0000 0.0000 0.0000 0.0000 34.3477 0.0000
# 6 0.0000 0.0000 0.0000 0.0000 0.0000 19.2190
#
#
#
# Elastic Compliance Matrix: (Units=1/GPa)
#
#
# Indices 1 2 3 4 5 6 
#
# 1 0.013927 0.003848 -0.009906 0.000000 0.000000 0.000000
# 2 0.003848 0.031302 -0.011084 0.000000 0.000000 0.000000
# 3 -0.009906 -0.011084 0.025800 0.000000 0.000000 0.000000
# 4 0.000000 0.000000 0.000000 0.056027 0.000000 0.000000
# 5 0.000000 0.000000 0.000000 0.000000 0.029114 0.000000
# 6 0.000000 0.000000 0.000000 0.000000 0.000000 0.052032
#
#
# Mechanical properties :
#
#
# Convention : Reuss Voigt Hill
#
# Bulk Modulus (GPa) = 27.21311 34.56816 30.89063
# Shear Modulus (GPa) = 19.62834 23.64499 21.63666
#
# Velocity S-wave (km/s) = 3.16945 3.47866 3.32765
# Velocity P-wave (km/s) = 5.22696 5.81602 5.52934
#
# Compressibility (1/GPa) = 0.03674699
#
# Stress axis : x y z
#
# Youngs Moduli (GPa) = 71.80053 31.94677 38.75997
#
# Poissons Ratio (x) = -0.12294 0.38395
# Poissons Ratio (y) = -0.27630 0.42960
# Poissons Ratio (z) = 0.71124 0.35408
#
# Static dielectric constant tensor:
#      x y z
#    x 3.697180 0.000000 0.000000 
#    y 0.000000 3.616000 0.000000 
#    z 0.000000 0.000000 3.508800 
# 
# 
# High freq. dielectric constant tensor:
#      x y z
#    x 1.769810 0.000000 0.000000 
#    y 0.000000 1.748470 0.000000 
#    z 0.000000 0.000000 1.745130 
# 
# From -- ./inp_files/6871.got.cif
#   From: 2010.06.25/outbox.cif.g09.slc.cpg/sg58_4_cif.got.tgz:6871.got - 2010.06.26 21:38:00.
