data_PCOD8236655
_publ_section_title
;
Structure prediction by ZEFSAII (Michael W. Deem and Ramdas Pophale) SiO2 
 PCOD8236655
Probable space group: P N N M
;
_chemical_formula_sum "Si O2"
_cell_formula_units_Z 64
_cell_length_a 24.332595
_cell_length_b 14.563926
_cell_length_c 9.179134
_cell_angle_alpha 90.000000
_cell_angle_beta 90.000000
_cell_angle_gamma 90.000000
_cell_volume 3252.884186
_symmetry_space_group_name_H-M "P N N M"
_symmetry_group_IT_number 58
_symmetry_cell_setting 'orthorhombic'
loop_
_space_group_symop_operation_xyz
x,y,z
-x,-y,z
1/2+x,1/2-y,1/2-z
1/2-x,1/2+y,1/2-z
-x,-y,-z
x,y,-z
1/2-x,1/2+y,1/2+z
1/2+x,1/2-y,1/2+z
loop_
_atom_site_type_symbol
_atom_site_label
_atom_site_fract_x
_atom_site_fract_y
_atom_site_fract_z
Si Si1 0.264455 0.677204 0.164044
Si Si2 0.562262 0.743457 0.170137
Si Si3 0.664540 0.495539 0.827069
Si Si4 0.358503 0.142472 0.662566
Si Si5 0.477209 0.902996 0.169957
Si Si6 0.055618 0.944724 0.829437
Si Si7 0.626237 0.061356 0.669174
Si Si8 0.241581 0.365766 0.827500
O O1 0.310221 0.603781 0.214575
O O2 0.206426 0.625260 0.169777
O O3 0.259695 0.762757 0.270053
O O4 0.277172 0.711221 0.000000
O O5 0.621545 0.780456 0.223525
O O6 0.518135 0.821004 0.208417
O O7 0.545855 0.653621 0.257433
O O8 0.566157 0.720486 0.000000
O O9 0.606722 0.503745 0.745331
O O10 0.705389 0.576794 0.772328
O O11 0.655260 0.503040 0.000000
O O12 0.375601 0.174438 0.500000
O O13 0.386152 0.045407 0.700683
O O14 0.419682 0.879616 0.247580
O O15 0.500000 0.000000 0.229238
O O16 0.465648 0.909565 0.000000
O O17 0.068062 0.933973 0.000000
O O18 0.000000 0.000000 0.800511
O O19 0.622296 0.085509 0.500000
O O20 0.686237 0.086255 0.730351
O O21 0.242710 0.363130 0.000000
#
# Coordination Sequence:
#
# PCOD8236655 Si02
#       8
#     8   8   8   8   8   8   8   8
#     4  10  21  37  59  88 121 158 196 241 294 350
#     4  11  23  39  62  89 119 158 201 247 298 351
#     4  10  21  41  66  89 120 158 199 244 296 355
#     4  10  19  35  59  86 119 156 198 242 289 348
#     4  10  21  37  55  83 122 155 191 241 289 342
#     4  11  26  46  65  87 117 152 198 254 301 347
#     4  10  20  35  57  83 116 158 195 235 290 348
#     4  10  21  38  58  87 123 157 195 242 292 348
#
# _framework density 19.674847
#
# number of rings (size 3 to 8) (size 9 to 14) (size 15 to 20)
#    0.000    1.750    2.500    1.500    0.000    7.250 
#    0.000    5.000    0.000    0.000    0.000    0.000 
#    0.000    0.000    0.000    0.000    0.000    0.000 
#
# Total GULP energy -793660.144373 kJ/mol
# GULP energy per Si atom -12400.939756 kJ/mol
# Density = 1.963007 g / cm^3
# Si number density = 19.674847 Si / 1000 Ang^3
#
#
#
# Elastic Constant Matrix: (Units=GPa)
#
#
# Indices 1 2 3 4 5 6 
#
# 1 127.6012 51.0892 52.9735 0.0000 0.0000 0.0000
# 2 51.0892 95.2474 39.1412 0.0000 0.0000 0.0000
# 3 52.9735 39.1412 55.7231 0.0000 0.0000 0.0000
# 4 0.0000 0.0000 0.0000 26.4293 0.0000 0.0000
# 5 0.0000 0.0000 0.0000 0.0000 29.1258 0.0000
# 6 0.0000 0.0000 0.0000 0.0000 0.0000 30.3806
#
#
#
# Elastic Compliance Matrix: (Units=1/GPa)
#
#
# Indices 1 2 3 4 5 6 
#
# 1 0.013441 -0.002753 -0.010844 0.000000 0.000000 0.000000
# 2 -0.002753 0.015323 -0.008146 0.000000 0.000000 0.000000
# 3 -0.010844 -0.008146 0.033977 0.000000 0.000000 0.000000
# 4 0.000000 0.000000 0.000000 0.037837 0.000000 0.000000
# 5 0.000000 0.000000 0.000000 0.000000 0.034334 0.000000
# 6 0.000000 0.000000 0.000000 0.000000 0.000000 0.032916
#
#
# Mechanical properties :
#
#
# Convention : Reuss Voigt Hill
#
# Bulk Modulus (GPa) = 51.93552 62.77554 57.35553
# Shear Modulus (GPa) = 22.96400 26.21165 24.58783
#
# Velocity S-wave (km/s) = 3.42010 3.65395 3.53896
# Velocity P-wave (km/s) = 6.48462 7.05532 6.77598
#
# Compressibility (1/GPa) = 0.01925464
#
# Stress axis : x y z
#
# Youngs Moduli (GPa) = 74.39842 65.25977 29.43208
#
# Poissons Ratio (x) = 0.17969 0.31916
# Poissons Ratio (y) = 0.20485 0.23975
# Poissons Ratio (z) = 0.80676 0.53160
#
# Static dielectric constant tensor:
#      x y z
#    x 3.659640 0.000000 0.000000 
#    y 0.000000 3.543940 0.000000 
#    z 0.000000 0.000000 3.486750 
# 
# 
# High freq. dielectric constant tensor:
#      x y z
#    x 1.775280 0.000000 0.000000 
#    y 0.000000 1.767170 0.000000 
#    z 0.000000 0.000000 1.758360 
# 
# From -- ./inp_files/9921.got.cif
#   From: 2010.06.25/outbox.cif.g09.slc.cpg/sg58_5_cif.got.tgz:9921.got - 2010.06.26 21:38:00.
