data_PCOD8236454
_publ_section_title
;
Structure prediction by ZEFSAII (Michael W. Deem and Ramdas Pophale) SiO2 
 PCOD8236454
Probable space group: P N N M
;
_chemical_formula_sum "Si O2"
_cell_formula_units_Z 64
_cell_length_a 19.575835
_cell_length_b 20.467956
_cell_length_c 8.814515
_cell_angle_alpha 90.000000
_cell_angle_beta 90.000000
_cell_angle_gamma 90.000000
_cell_volume 3531.776331
_symmetry_space_group_name_H-M "P N N M"
_symmetry_group_IT_number 58
_symmetry_cell_setting 'orthorhombic'
loop_
_space_group_symop_operation_xyz
x,y,z
-x,-y,z
1/2+x,1/2-y,1/2-z
1/2-x,1/2+y,1/2-z
-x,-y,-z
x,y,-z
1/2-x,1/2+y,1/2+z
1/2+x,1/2-y,1/2+z
loop_
_atom_site_type_symbol
_atom_site_label
_atom_site_fract_x
_atom_site_fract_y
_atom_site_fract_z
Si Si1 0.086493 0.769313 0.820593
Si Si2 0.199577 0.424154 0.678766
Si Si3 0.415759 0.121677 0.678896
Si Si4 0.797634 0.826999 0.178247
Si Si5 0.779803 0.443877 0.179674
Si Si6 0.566593 0.117851 0.320472
Si Si7 0.564167 0.265421 0.678893
Si Si8 0.220703 0.805704 0.322651
O O1 0.092899 0.695223 0.760009
O O2 0.142552 0.812214 0.733016
O O3 0.010199 0.794479 0.775846
O O4 0.099297 0.775114 0.000000
O O5 0.203563 0.426374 0.500000
O O6 0.239048 0.487008 0.745387
O O7 0.121054 0.426995 0.734299
O O8 0.234254 0.358629 0.737517
O O9 0.410116 0.126053 0.500000
O O10 0.354789 0.077015 0.742643
O O11 0.490213 0.092905 0.722571
O O12 0.775141 0.890195 0.270989
O O13 0.874786 0.811782 0.235565
O O14 0.749330 0.765843 0.218583
O O15 0.795309 0.842381 0.000000
O O16 0.778433 0.451144 0.000000
O O17 0.579864 0.112134 0.500000
O O18 0.574465 0.192000 0.259331
O O19 0.567714 0.258122 0.500000
O O20 0.225814 0.819970 0.500000
#
# Coordination Sequence:
#
# PCOD8236454 Si02
#       8
#     8   8   8   8   8   8   8   8
#     4   9  16  31  55  83 110 139 180 222 262 315
#     4  12  25  38  52  76 109 146 186 230 273 319
#     4   8  16  30  53  79 107 144 184 217 256 321
#     4  10  19  34  56  82 109 141 180 222 269 318
#     4  11  22  37  55  78 108 146 185 224 271 322
#     4   9  16  33  55  77 106 145 186 219 259 317
#     4   8  15  30  55  81 109 143 177 216 264 322
#     4  11  21  35  57  82 110 144 180 223 273 321
#
# _framework density 18.121192000000001
#
# number of rings (size 3 to 8) (size 9 to 14) (size 15 to 20)
#    0.000    2.250    2.500    3.375    0.000    1.000 
#    0.000    6.875    0.000    0.750    0.000    5.250 
#    0.000    0.000    0.000    0.000    0.000    0.000 
#
# Total GULP energy -793417.873612 kJ/mol
# GULP energy per Si atom -12397.154275 kJ/mol
# Density = 1.807995 g / cm^3
# Si number density = 18.121192 Si / 1000 Ang^3
#
#
#
# Elastic Constant Matrix: (Units=GPa)
#
#
# Indices 1 2 3 4 5 6 
#
# 1 97.5727 12.2851 26.2421 0.0000 0.0000 0.0000
# 2 12.2851 42.9030 22.7323 0.0000 0.0000 0.0000
# 3 26.2421 22.7323 67.0606 0.0000 0.0000 0.0000
# 4 0.0000 0.0000 0.0000 23.6092 0.0000 0.0000
# 5 0.0000 0.0000 0.0000 0.0000 26.6798 0.0000
# 6 0.0000 0.0000 0.0000 0.0000 0.0000 18.3865
#
#
#
# Elastic Compliance Matrix: (Units=1/GPa)
#
#
# Indices 1 2 3 4 5 6 
#
# 1 0.011497 -0.001107 -0.004124 0.000000 0.000000 0.000000
# 2 -0.001107 0.028518 -0.009234 0.000000 0.000000 0.000000
# 3 -0.004124 -0.009234 0.019656 0.000000 0.000000 0.000000
# 4 0.000000 0.000000 0.000000 0.042356 0.000000 0.000000
# 5 0.000000 0.000000 0.000000 0.000000 0.037481 0.000000
# 6 0.000000 0.000000 0.000000 0.000000 0.000000 0.054388
#
#
# Mechanical properties :
#
#
# Convention : Reuss Voigt Hill
#
# Bulk Modulus (GPa) = 32.52945 36.67283 34.60114
# Shear Modulus (GPa) = 21.45249 23.48689 22.46969
#
# Velocity S-wave (km/s) = 3.44442 3.60405 3.52514
# Velocity P-wave (km/s) = 5.81453 6.13191 5.97533
#
# Compressibility (1/GPa) = 0.03074137
#
# Stress axis : x y z
#
# Youngs Moduli (GPa) = 86.97726 35.06561 50.87584
#
# Poissons Ratio (x) = 0.03882 0.20980
# Poissons Ratio (y) = 0.09630 0.46978
# Poissons Ratio (z) = 0.35868 0.32379
#
# Static dielectric constant tensor:
#      x y z
#    x 3.747560 0.000000 0.000000 
#    y 0.000000 3.174370 0.000000 
#    z 0.000000 0.000000 3.048480 
# 
# 
# High freq. dielectric constant tensor:
#      x y z
#    x 1.709810 0.000000 0.000000 
#    y 0.000000 1.677280 0.000000 
#    z 0.000000 0.000000 1.677460 
# 
# From -- ./inp_files/8368.got.cif
#   From: 2010.06.25/outbox.cif.g09.slc.cpg/sg58_5_cif.got.tgz:8368.got - 2010.06.26 21:38:00.
