data_PCOD8236804
_publ_section_title
;
Structure prediction by ZEFSAII (Michael W. Deem and Ramdas Pophale) SiO2 
 PCOD8236804
Probable space group: P N N M
;
_chemical_formula_sum "Si O2"
_cell_formula_units_Z 64
_cell_length_a 23.963789
_cell_length_b 15.582763
_cell_length_c 8.985941
_cell_angle_alpha 90.000000
_cell_angle_beta 90.000000
_cell_angle_gamma 90.000000
_cell_volume 3355.548461
_symmetry_space_group_name_H-M "P N N M"
_symmetry_group_IT_number 58
_symmetry_cell_setting 'orthorhombic'
loop_
_space_group_symop_operation_xyz
x,y,z
-x,-y,z
1/2+x,1/2-y,1/2-z
1/2-x,1/2+y,1/2-z
-x,-y,-z
x,y,-z
1/2-x,1/2+y,1/2+z
1/2+x,1/2-y,1/2+z
loop_
_atom_site_type_symbol
_atom_site_label
_atom_site_fract_x
_atom_site_fract_y
_atom_site_fract_z
Si Si1 0.087135 0.013029 0.323773
Si Si2 0.287633 0.506846 0.177200
Si Si3 0.268817 0.831824 0.676145
Si Si4 0.613415 0.105245 0.322940
Si Si5 0.500142 0.186439 0.327555
Si Si6 0.215895 0.655250 0.677157
Si Si7 0.111437 0.588986 0.827005
Si Si8 0.991856 0.135887 0.676014
O O1 0.088650 0.007728 0.500000
O O2 0.149657 0.019889 0.261467
O O3 0.051565 0.096195 0.273764
O O4 0.057285 0.926559 0.265335
O O5 0.268035 0.412581 0.228546
O O6 0.249387 0.576432 0.255030
O O7 0.282880 0.517998 0.000000
O O8 0.269512 0.828602 0.500000
O O9 0.332405 0.842696 0.734584
O O10 0.242577 0.743922 0.738535
O O11 0.609883 0.102953 0.500000
O O12 0.557826 0.150169 0.258613
O O13 0.617546 0.007663 0.265714
O O14 0.507965 0.207481 0.500000
O O15 0.452229 0.116538 0.300964
O O16 0.482207 0.272655 0.247144
O O17 0.217567 0.651247 0.500000
O O18 0.152243 0.650566 0.733334
O O19 0.128235 0.595324 0.000000
O O20 0.989310 0.145247 0.500000
#
# Coordination Sequence:
#
# PCOD8236804 Si02
#       8
#     8   8   8   8   8   8   8   8
#     4   8  17  33  56  78 103 143 191 220 251 320
#     4  10  19  37  61  81 105 148 192 224 265 331
#     4   9  19  34  56  81 107 143 184 218 268 334
#     4   9  17  35  58  77 101 138 181 220 258 319
#     4  10  21  33  55  85 106 133 181 232 271 314
#     4  11  23  36  55  87 115 140 179 232 282 324
#     4  10  20  38  59  78 104 143 186 222 265 328
#     4   9  18  35  54  78 109 144 180 222 267 320
#
# _framework density 19.072887999999999
#
# number of rings (size 3 to 8) (size 9 to 14) (size 15 to 20)
#    0.000    2.500    1.250    1.500    3.500    2.000 
#    0.000    3.750    0.000    1.500    0.000    0.000 
#    0.000    0.000    0.000    0.000    0.000    0.000 
#
# Total GULP energy -793538.473023 kJ/mol
# GULP energy per Si atom -12399.038641 kJ/mol
# Density = 1.902948 g / cm^3
# Si number density = 19.072888 Si / 1000 Ang^3
#
#
#
# Elastic Constant Matrix: (Units=GPa)
#
#
# Indices 1 2 3 4 5 6 
#
# 1 109.4162 21.9843 21.4877 0.0000 0.0000 0.0000
# 2 21.9843 106.2211 25.1909 0.0000 0.0000 0.0000
# 3 21.4877 25.1909 29.9437 0.0000 0.0000 0.0000
# 4 0.0000 0.0000 0.0000 26.6123 0.0000 0.0000
# 5 0.0000 0.0000 0.0000 0.0000 -206.7362 0.0000
# 6 0.0000 0.0000 0.0000 0.0000 0.0000 29.8369
#
#
#
# Elastic Compliance Matrix: (Units=1/GPa)
#
#
# Indices 1 2 3 4 5 6 
#
# 1 0.010659 -0.000490 -0.007237 0.000000 0.000000 0.000000
# 2 -0.000490 0.011783 -0.009561 0.000000 0.000000 0.000000
# 3 -0.007237 -0.009561 0.046633 0.000000 0.000000 0.000000
# 4 0.000000 0.000000 0.000000 0.037577 0.000000 0.000000
# 5 0.000000 0.000000 0.000000 0.000000 -0.004837 0.000000
# 6 0.000000 0.000000 0.000000 0.000000 0.000000 0.033516
#
#
# Mechanical properties :
#
#
# Convention : Reuss Voigt Hill
#
# Bulk Modulus (GPa) = 28.98632 42.54519 35.76575
# Shear Modulus (GPa) = 27.56241 -18.26287 4.64977
#
# Velocity S-wave (km/s) = 3.80558 -3.09776 1.56307
# Velocity P-wave (km/s) = 5.87713 3.09197 4.69579
#
# Compressibility (1/GPa) = 0.03449903
#
# Stress axis : x y z
#
# Youngs Moduli (GPa) = 93.81702 84.86621 21.44400
#
# Poissons Ratio (x) = 0.04157 0.15519
# Poissons Ratio (y) = 0.04595 0.20504
# Poissons Ratio (z) = 0.67894 0.81145
#
# Static dielectric constant tensor:
#      x y z
#    x 3.901650 0.000000 0.000000 
#    y 0.000000 3.616410 0.000000 
#    z 0.000000 0.000000 3.036330 
# 
# 
# High freq. dielectric constant tensor:
#      x y z
#    x 1.759740 0.000000 0.000000 
#    y 0.000000 1.749220 0.000000 
#    z 0.000000 0.000000 1.692510 
# 
# From -- ./inp_files/10011.got.cif
#   From: 2010.06.25/outbox.cif.g09.slc.cpg/sg58_6_cif.got.tgz:10011.got - 2010.06.26 21:38:00.
