data_PCOD8236093
_publ_section_title
;
Structure prediction by ZEFSAII (Michael W. Deem and Ramdas Pophale) SiO2 
 PCOD8236093
Probable space group: P N N M
;
_chemical_formula_sum "Si O2"
_cell_formula_units_Z 64
_cell_length_a 18.026068
_cell_length_b 20.666282
_cell_length_c 9.291587
_cell_angle_alpha 90.000000
_cell_angle_beta 90.000000
_cell_angle_gamma 90.000000
_cell_volume 3461.411673
_symmetry_space_group_name_H-M "P N N M"
_symmetry_group_IT_number 58
_symmetry_cell_setting 'orthorhombic'
loop_
_space_group_symop_operation_xyz
x,y,z
-x,-y,z
1/2+x,1/2-y,1/2-z
1/2-x,1/2+y,1/2-z
-x,-y,-z
x,y,-z
1/2-x,1/2+y,1/2+z
1/2+x,1/2-y,1/2+z
loop_
_atom_site_type_symbol
_atom_site_label
_atom_site_fract_x
_atom_site_fract_y
_atom_site_fract_z
Si Si1 0.176092 0.876681 0.671272
Si Si2 0.095440 0.249792 0.330129
Si Si3 0.675655 0.481555 0.839236
Si Si4 0.344376 0.868644 0.329572
Si Si5 0.851834 0.487056 0.158263
Si Si6 0.180952 0.140805 0.834683
Si Si7 0.143382 0.633435 0.663752
Si Si8 0.426422 0.263532 0.830823
O O1 0.175316 0.878367 0.500000
O O2 0.259249 0.859666 0.721917
O O3 0.119617 0.823605 0.736206
O O4 0.150337 0.948413 0.723069
O O5 0.111092 0.252043 0.500000
O O6 0.105177 0.320534 0.262366
O O7 0.151845 0.201390 0.254394
O O8 0.012373 0.226216 0.295788
O O9 0.763769 0.482022 0.847477
O O10 0.647662 0.425227 0.732804
O O11 0.643320 0.468781 0.000000
O O12 0.351950 0.854964 0.500000
O O13 0.373063 0.940740 0.289999
O O14 0.885401 0.431834 0.260149
O O15 0.884955 0.474874 0.000000
O O16 0.269050 0.142552 0.821131
O O17 0.155229 0.145699 0.000000
O O18 0.118661 0.625743 0.500000
O O19 0.103415 0.695836 0.734702
O O20 0.410665 0.261868 0.000000
#
# Coordination Sequence:
#
# PCOD8236093 Si02
#       8
#     8   8   8   8   8   8   8   8
#     4   8  14  29  54  76  94 123 162 200 236 279
#     4  11  22  33  47  69  98 129 161 201 240 277
#     4   8  14  27  50  77  98 117 151 199 241 278
#     4   9  17  32  54  75  96 125 159 196 241 290
#     4   8  15  28  48  75 101 121 148 193 244 288
#     4  10  19  32  52  74  97 126 157 193 240 291
#     4   9  17  31  53  75  94 123 162 199 234 278
#     4   9  18  32  48  69  96 126 164 203 236 274
#
# _framework density 18.489567000000001
#
# number of rings (size 3 to 8) (size 9 to 14) (size 15 to 20)
#    0.000    3.000    0.000    3.000    0.000    3.000 
#    0.000    4.375    0.000   11.250    0.000    0.000 
#    0.000    0.000    0.000    0.000    0.000    0.000 
#
# Total GULP energy -793324.830802 kJ/mol
# GULP energy per Si atom -12395.700481 kJ/mol
# Density = 1.844748 g / cm^3
# Si number density = 18.489567 Si / 1000 Ang^3
#
#
#
# Elastic Constant Matrix: (Units=GPa)
#
#
# Indices 1 2 3 4 5 6 
#
# 1 19.6435 9.0417 15.6757 0.0000 0.0000 0.0000
# 2 9.0417 125.2806 46.9880 0.0000 0.0000 0.0000
# 3 15.6757 46.9880 69.8113 0.0000 0.0000 0.0000
# 4 0.0000 0.0000 0.0000 32.8830 0.0000 0.0000
# 5 0.0000 0.0000 0.0000 0.0000 15.1245 0.0000
# 6 0.0000 0.0000 0.0000 0.0000 0.0000 7.6880
#
#
#
# Elastic Compliance Matrix: (Units=1/GPa)
#
#
# Indices 1 2 3 4 5 6 
#
# 1 0.062114 0.001001 -0.014621 0.000000 0.000000 0.000000
# 2 0.001001 0.010694 -0.007422 0.000000 0.000000 0.000000
# 3 -0.014621 -0.007422 0.022603 0.000000 0.000000 0.000000
# 4 0.000000 0.000000 0.000000 0.030411 0.000000 0.000000
# 5 0.000000 0.000000 0.000000 0.000000 0.066118 0.000000
# 6 0.000000 0.000000 0.000000 0.000000 0.000000 0.130073
#
#
# Mechanical properties :
#
#
# Convention : Reuss Voigt Hill
#
# Bulk Modulus (GPa) = 18.75252 39.79404 29.27328
# Shear Modulus (GPa) = 13.09334 20.67441 16.88388
#
# Velocity S-wave (km/s) = 2.66399 3.34753 3.02513
# Velocity P-wave (km/s) = 4.43020 6.04238 5.29798
#
# Compressibility (1/GPa) = 0.05332616
#
# Stress axis : x y z
#
# Youngs Moduli (GPa) = 16.09932 93.51299 44.24147
#
# Poissons Ratio (x) = -0.09360 0.64686
# Poissons Ratio (y) = -0.01611 0.32838
# Poissons Ratio (z) = 0.23539 0.69409
#
# Static dielectric constant tensor:
#      x y z
#    x 3.054210 0.000000 0.000000 
#    y 0.000000 3.835820 0.000000 
#    z 0.000000 0.000000 3.270880 
# 
# 
# High freq. dielectric constant tensor:
#      x y z
#    x 1.682300 0.000000 0.000000 
#    y 0.000000 1.737890 0.000000 
#    z 0.000000 0.000000 1.688150 
# 
# From -- ./inp_files/8264.got.cif
#   From: 2010.06.25/outbox.cif.g09.slc.cpg/sg58_5_cif.got.tgz:8264.got - 2010.06.26 21:38:00.
