data_PCOD8236400
_publ_section_title
;
Structure prediction by ZEFSAII (Michael W. Deem and Ramdas Pophale) SiO2 
 PCOD8236400
Probable space group: P N N M
;
_chemical_formula_sum "Si O2"
_cell_formula_units_Z 52
_cell_length_a 9.327410
_cell_length_b 12.552139
_cell_length_c 25.198993
_cell_angle_alpha 90.000000
_cell_angle_beta 90.000000
_cell_angle_gamma 90.000000
_cell_volume 2950.271562
_symmetry_space_group_name_H-M "P N N M"
_symmetry_group_IT_number 58
_symmetry_cell_setting 'orthorhombic'
loop_
_space_group_symop_operation_xyz
x,y,z
-x,-y,z
1/2+x,1/2-y,1/2-z
1/2-x,1/2+y,1/2-z
-x,-y,-z
x,y,-z
1/2-x,1/2+y,1/2+z
1/2+x,1/2-y,1/2+z
loop_
_atom_site_type_symbol
_atom_site_label
_atom_site_fract_x
_atom_site_fract_y
_atom_site_fract_z
Si Si1 0.910369 0.893463 0.058051
Si Si2 0.075065 0.603797 0.559975
Si Si3 0.563266 0.724702 0.143352
Si Si4 0.862326 0.812892 0.165911
Si Si5 0.000000 0.000000 0.675524
Si Si6 0.533788 0.165095 0.754105
Si Si7 0.740988 0.974548 0.755951
O O1 0.743066 0.918881 0.064582
O O2 0.951831 0.825788 0.110593
O O3 0.935649 0.836368 0.000000
O O4 0.000000 0.000000 0.058689
O O5 0.022570 0.619706 0.500000
O O6 0.000000 0.500000 0.585597
O O7 0.025130 0.710011 0.590334
O O8 0.730957 0.734566 0.154966
O O9 0.526168 0.600301 0.136785
O O10 0.472280 0.772541 0.191146
O O11 0.959987 0.753820 0.208461
O O12 0.809151 0.928067 0.189126
O O13 0.138327 0.023225 0.711314
O O14 0.390503 0.101187 0.739578
O O15 0.675841 0.092778 0.761185
#
# Coordination Sequence:
#
# PCOD8236400 Si02
#       7
#     8   8   8   8   4   8   8
#     4   9  19  34  52  78 104 133 171 215 263 311
#     4   9  19  37  57  77 104 138 174 216 268 317
#     4  10  21  32  53  78 107 138 177 218 261 310
#     4  10  19  34  53  77 104 143 174 210 268 321
#     4  12  20  36  49  76 111 138 178 216 252 318
#     4  10  20  36  50  76 107 141 178 215 263 321
#     4  10  22  33  51  74 109 140 175 218 264 313
#
# _framework density 17.625495999999998
#
# number of rings (size 3 to 8) (size 9 to 14) (size 15 to 20)
#    0.000    2.154    3.077    0.000    7.538    0.000 
#    2.769    0.385    0.000    0.000    0.000    3.231 
#    0.000    0.000    0.000    0.000    0.000    0.000 
#
# Total GULP energy -644429.042929 kJ/mol
# GULP energy per Si atom -12392.866210 kJ/mol
# Density = 1.758538 g / cm^3
# Si number density = 17.625496 Si / 1000 Ang^3
#
#
#
# Elastic Constant Matrix: (Units=GPa)
#
#
# Indices 1 2 3 4 5 6 
#
# 1 42.9444 32.7118 30.4208 0.0000 0.0000 0.0000
# 2 32.7118 116.0340 61.4890 0.0000 0.0000 0.0000
# 3 30.4208 61.4890 123.8128 0.0000 0.0000 0.0000
# 4 0.0000 0.0000 0.0000 21.3117 0.0000 0.0000
# 5 0.0000 0.0000 0.0000 0.0000 15.7144 0.0000
# 6 0.0000 0.0000 0.0000 0.0000 0.0000 17.2433
#
#
#
# Elastic Compliance Matrix: (Units=1/GPa)
#
#
# Indices 1 2 3 4 5 6 
#
# 1 0.031402 -0.006466 -0.004504 0.000000 0.000000 0.000000
# 2 -0.006466 0.013028 -0.004881 0.000000 0.000000 0.000000
# 3 -0.004504 -0.004881 0.011608 0.000000 0.000000 0.000000
# 4 0.000000 0.000000 0.000000 0.046922 0.000000 0.000000
# 5 0.000000 0.000000 0.000000 0.000000 0.063636 0.000000
# 6 0.000000 0.000000 0.000000 0.000000 0.000000 0.057993
#
#
# Mechanical properties :
#
#
# Convention : Reuss Voigt Hill
#
# Bulk Modulus (GPa) = 41.09418 59.11495 50.10456
# Shear Modulus (GPa) = 18.91055 21.39855 20.15455
#
# Velocity S-wave (km/s) = 3.27908 3.48813 3.38522
# Velocity P-wave (km/s) = 6.14022 7.05939 6.61579
#
# Compressibility (1/GPa) = 0.02433434
#
# Stress axis : x y z
#
# Youngs Moduli (GPa) = 31.84537 76.75985 86.15035
#
# Poissons Ratio (x) = 0.49631 0.38805
# Poissons Ratio (y) = 0.20590 0.42052
# Poissons Ratio (z) = 0.14344 0.37469
#
# Static dielectric constant tensor:
#      x y z
#    x 3.267990 0.000000 0.000000 
#    y 0.000000 3.385570 0.000000 
#    z 0.000000 0.000000 3.554310 
# 
# 
# High freq. dielectric constant tensor:
#      x y z
#    x 1.680420 0.000000 0.000000 
#    y 0.000000 1.670120 0.000000 
#    z 0.000000 0.000000 1.674480 
# 
# From -- ./inp_files/33278.got.cif
#   From: 2010.06.25/outbox.cif.g09.slc.cpg/sg58_17_cif.got.tgz:33278.got - 2010.06.26 21:38:00.
