data_PCOD8236616
_publ_section_title
;
Structure prediction by ZEFSAII (Michael W. Deem and Ramdas Pophale) SiO2 
 PCOD8236616
Probable space group: P N N M
;
_chemical_formula_sum "Si O2"
_cell_formula_units_Z 48
_cell_length_a 28.046299
_cell_length_b 10.207465
_cell_length_c 9.164825
_cell_angle_alpha 90.000000
_cell_angle_beta 90.000000
_cell_angle_gamma 90.000000
_cell_volume 2623.720906
_symmetry_space_group_name_H-M "P N N M"
_symmetry_group_IT_number 58
_symmetry_cell_setting 'orthorhombic'
loop_
_space_group_symop_operation_xyz
x,y,z
-x,-y,z
1/2+x,1/2-y,1/2-z
1/2-x,1/2+y,1/2-z
-x,-y,-z
x,y,-z
1/2-x,1/2+y,1/2+z
1/2+x,1/2-y,1/2+z
loop_
_atom_site_type_symbol
_atom_site_label
_atom_site_fract_x
_atom_site_fract_y
_atom_site_fract_z
Si Si1 0.355300 0.271733 0.327425
Si Si2 0.697801 0.465932 0.667707
Si Si3 0.191756 0.535873 0.331751
Si Si4 0.147710 0.264083 0.327599
Si Si5 0.053987 0.848061 0.327179
Si Si6 0.551114 0.355262 0.827709
O O1 0.359214 0.259958 0.500000
O O2 0.331630 0.408231 0.277726
O O3 0.322308 0.156063 0.269405
O O4 0.407686 0.259149 0.256469
O O5 0.686304 0.435724 0.500000
O O6 0.753087 0.497491 0.691819
O O7 0.684016 0.339266 0.759655
O O8 0.180812 0.570450 0.500000
O O9 0.161803 0.409705 0.279699
O O10 0.151628 0.246966 0.500000
O O11 0.093627 0.237918 0.271016
O O12 0.061976 0.833427 0.500000
O O13 0.000781 0.801003 0.279126
O O14 0.060131 0.997373 0.271581
O O15 0.550724 0.363335 0.000000
#
# Coordination Sequence:
#
# PCOD8236616 Si02
#       6
#     8   8   8   8   8   8
#     4  11  22  36  54  80 111 141 175 216 265 319
#     4  10  21  36  53  77 106 137 176 219 261 312
#     4  10  22  37  53  75 106 141 177 216 261 314
#     4  10  19  35  58  81 104 137 179 222 265 309
#     4   9  16  31  55  81 106 135 175 222 265 310
#     4   8  15  29  54  83 105 131 176 225 263 306
#
# _framework density 18.294629
#
# number of rings (size 3 to 8) (size 9 to 14) (size 15 to 20)
#    0.000    2.333    1.667    2.500    0.000    3.333 
#    0.000    3.333    0.000    5.000    0.000    0.000 
#    0.000    0.000    0.000    0.000    0.000    0.000 
#
# Total GULP energy -595181.303032 kJ/mol
# GULP energy per Si atom -12399.610480 kJ/mol
# Density = 1.825299 g / cm^3
# Si number density = 18.294629 Si / 1000 Ang^3
#
#
#
# Elastic Constant Matrix: (Units=GPa)
#
#
# Indices 1 2 3 4 5 6 
#
# 1 107.1722 30.6952 31.0317 0.0000 0.0000 0.0000
# 2 30.6952 76.2568 34.5531 0.0000 0.0000 0.0000
# 3 31.0317 34.5531 48.9713 0.0000 0.0000 0.0000
# 4 0.0000 0.0000 0.0000 22.5145 0.0000 0.0000
# 5 0.0000 0.0000 0.0000 0.0000 25.0318 0.0000
# 6 0.0000 0.0000 0.0000 0.0000 0.0000 22.2949
#
#
#
# Elastic Compliance Matrix: (Units=1/GPa)
#
#
# Indices 1 2 3 4 5 6 
#
# 1 0.011626 -0.001972 -0.005975 0.000000 0.000000 0.000000
# 2 -0.001972 0.019611 -0.012587 0.000000 0.000000 0.000000
# 3 -0.005975 -0.012587 0.033088 0.000000 0.000000 0.000000
# 4 0.000000 0.000000 0.000000 0.044416 0.000000 0.000000
# 5 0.000000 0.000000 0.000000 0.000000 0.039949 0.000000
# 6 0.000000 0.000000 0.000000 0.000000 0.000000 0.044853
#
#
# Mechanical properties :
#
#
# Convention : Reuss Voigt Hill
#
# Bulk Modulus (GPa) = 43.00184 47.21782 45.10983
# Shear Modulus (GPa) = 20.63010 23.04295 21.83652
#
# Velocity S-wave (km/s) = 3.36171 3.55286 3.45860
# Velocity P-wave (km/s) = 6.21484 6.53423 6.37654
#
# Compressibility (1/GPa) = 0.02325482
#
# Stress axis : x y z
#
# Youngs Moduli (GPa) = 86.01560 50.99204 30.22249
#
# Poissons Ratio (x) = 0.10056 0.18059
# Poissons Ratio (y) = 0.16963 0.38042
# Poissons Ratio (z) = 0.51398 0.64185
#
# Static dielectric constant tensor:
#      x y z
#    x 3.761690 0.000000 0.000000 
#    y 0.000000 3.240720 0.000000 
#    z 0.000000 0.000000 3.126730 
# 
# 
# High freq. dielectric constant tensor:
#      x y z
#    x 1.727640 0.000000 0.000000 
#    y 0.000000 1.691640 0.000000 
#    z 0.000000 0.000000 1.686120 
# 
# From -- ./inp_files/2926.got.cif
#   From: 2010.06.25/outbox.cif.g09.slc.cpg/sg58_2_cif.got.tgz:2926.got - 2010.06.26 21:38:00.
