data_PCOD8236297
_publ_section_title
;
Structure prediction by ZEFSAII (Michael W. Deem and Ramdas Pophale) SiO2 
 PCOD8236297
Probable space group: P N N M
;
_chemical_formula_sum "Si O2"
_cell_formula_units_Z 40
_cell_length_a 19.974144
_cell_length_b 4.905302
_cell_length_c 21.920327
_cell_angle_alpha 90.000000
_cell_angle_beta 90.000000
_cell_angle_gamma 90.000000
_cell_volume 2147.736290
_symmetry_space_group_name_H-M "P N N M"
_symmetry_group_IT_number 58
_symmetry_cell_setting 'orthorhombic'
loop_
_space_group_symop_operation_xyz
x,y,z
-x,-y,z
1/2+x,1/2-y,1/2-z
1/2-x,1/2+y,1/2-z
-x,-y,-z
x,y,-z
1/2-x,1/2+y,1/2+z
1/2+x,1/2-y,1/2+z
loop_
_atom_site_type_symbol
_atom_site_label
_atom_site_fract_x
_atom_site_fract_y
_atom_site_fract_z
Si Si1 0.794822 0.866366 0.319122
Si Si2 0.736518 0.095782 0.567711
Si Si3 0.543117 0.747824 0.666345
Si Si4 0.646728 0.587908 0.432003
Si Si5 0.340204 0.139382 0.248461
O O1 0.795071 0.971695 0.389095
O O2 0.717421 0.890945 0.299122
O O3 0.827195 0.570062 0.307617
O O4 0.840721 0.060024 0.278655
O O5 0.767795 0.136686 0.500000
O O6 0.674922 0.890228 0.564879
O O7 0.705253 0.382031 0.592364
O O8 0.500000 0.500000 0.695197
O O9 0.583867 0.595045 0.612829
O O10 0.589021 0.890766 0.718038
O O11 0.500000 0.000000 0.639738
O O12 0.624378 0.491300 0.500000
#
# Coordination Sequence:
#
# PCOD8236297 Si02
#       5
#     8   8   8   8   8
#     4  10  19  33  56  74 104 131 168 227 263 335
#     4  10  19  33  55  80 107 136 171 220 274 317
#     4  12  24  36  53  72 108 147 189 230 254 306
#     4  10  21  35  51  73 106 144 188 224 254 300
#     4  10  21  33  51  78  99 135 180 215 272 311
#
# _framework density 18.62426
#
# number of rings (size 3 to 8) (size 9 to 14) (size 15 to 20)
#    0.000    1.600    2.000    3.600    5.600    0.800 
#    0.000    0.000    0.000    0.000    0.000    0.000 
#    0.000   16.000    0.000    0.000    0.000    0.000 
#
# Total GULP energy -495851.619937 kJ/mol
# GULP energy per Si atom -12396.290498 kJ/mol
# Density = 1.858187 g / cm^3
# Si number density = 18.624260 Si / 1000 Ang^3
#
#
#
# Elastic Constant Matrix: (Units=GPa)
#
#
# Indices 1 2 3 4 5 6 
#
# 1 50.4662 16.4914 37.5608 0.0000 0.0000 0.0000
# 2 16.4914 77.2344 11.6899 0.0000 0.0000 0.0000
# 3 37.5608 11.6899 86.8793 0.0000 0.0000 0.0000
# 4 0.0000 0.0000 0.0000 14.6828 0.0000 0.0000
# 5 0.0000 0.0000 0.0000 0.0000 16.4055 0.0000
# 6 0.0000 0.0000 0.0000 0.0000 0.0000 22.3983
#
#
#
# Elastic Compliance Matrix: (Units=1/GPa)
#
#
# Indices 1 2 3 4 5 6 
#
# 1 0.030771 -0.004651 -0.012677 0.000000 0.000000 0.000000
# 2 -0.004651 0.013920 0.000138 0.000000 0.000000 0.000000
# 3 -0.012677 0.000138 0.016972 0.000000 0.000000 0.000000
# 4 0.000000 0.000000 0.000000 0.068107 0.000000 0.000000
# 5 0.000000 0.000000 0.000000 0.000000 0.060955 0.000000
# 6 0.000000 0.000000 0.000000 0.000000 0.000000 0.044646
#
#
# Mechanical properties :
#
#
# Convention : Reuss Voigt Hill
#
# Bulk Modulus (GPa) = 36.65488 38.45158 37.55323
# Shear Modulus (GPa) = 17.93101 20.61985 19.27543
#
# Velocity S-wave (km/s) = 3.10623 3.33100 3.22057
# Velocity P-wave (km/s) = 5.70867 5.95691 5.83411
#
# Compressibility (1/GPa) = 0.02728149
#
# Stress axis : x y z
#
# Youngs Moduli (GPa) = 32.49849 71.83957 58.91899
#
# Poissons Ratio (x) = 0.33416 0.74693
# Poissons Ratio (y) = 0.15117 -0.00813
# Poissons Ratio (z) = 0.41199 -0.00992
#
# Static dielectric constant tensor:
#      x y z
#    x 2.997100 0.000000 0.000000 
#    y 0.000000 3.570450 0.000000 
#    z 0.000000 0.000000 3.487160 
# 
# 
# High freq. dielectric constant tensor:
#      x y z
#    x 1.666570 0.000000 0.000000 
#    y 0.000000 1.750250 0.000000 
#    z 0.000000 0.000000 1.713550 
# 
# From -- ./inp_files/28079.got.cif
#   From: 2010.06.25/outbox.cif.g09.slc.cpg/sg58_15_cif.got.tgz:28079.got - 2010.06.26 21:38:00.
