data_PCOD8236048
_publ_section_title
;
Structure prediction by ZEFSAII (Michael W. Deem and Ramdas Pophale) SiO2 
 PCOD8236048
Probable space group: P N N M
;
_chemical_formula_sum "Si O2"
_cell_formula_units_Z 64
_cell_length_a 24.832219
_cell_length_b 14.489512
_cell_length_c 8.882562
_cell_angle_alpha 90.000000
_cell_angle_beta 90.000000
_cell_angle_gamma 90.000000
_cell_volume 3196.005633
_symmetry_space_group_name_H-M "P N N M"
_symmetry_group_IT_number 58
_symmetry_cell_setting 'orthorhombic'
loop_
_space_group_symop_operation_xyz
x,y,z
-x,-y,z
1/2+x,1/2-y,1/2-z
1/2-x,1/2+y,1/2-z
-x,-y,-z
x,y,-z
1/2-x,1/2+y,1/2+z
1/2+x,1/2-y,1/2+z
loop_
_atom_site_type_symbol
_atom_site_label
_atom_site_fract_x
_atom_site_fract_y
_atom_site_fract_z
Si Si1 0.553612 0.958758 0.175431
Si Si2 0.799617 0.284174 0.321611
Si Si3 0.404759 0.721611 0.323714
Si Si4 0.170094 0.513126 0.678596
Si Si5 0.479491 0.209064 0.333838
Si Si6 0.612799 0.658579 0.331144
Si Si7 0.198038 0.312058 0.321960
Si Si8 0.059491 0.021850 0.820952
O O1 0.551662 0.850372 0.209159
O O2 0.500000 0.000000 0.255012
O O3 0.609128 0.999020 0.242542
O O4 0.551873 0.978807 0.000000
O O5 0.796308 0.283793 0.500000
O O6 0.805210 0.390133 0.260251
O O7 0.849271 0.219754 0.273988
O O8 0.745100 0.243619 0.256481
O O9 0.389299 0.721254 0.500000
O O10 0.458264 0.780378 0.291802
O O11 0.358134 0.768137 0.227377
O O12 0.416544 0.618659 0.262992
O O13 0.167380 0.520957 0.500000
O O14 0.202212 0.420755 0.727343
O O15 0.474330 0.163728 0.500000
O O16 0.448966 0.306419 0.334201
O O17 0.637672 0.660600 0.500000
O O18 0.604653 0.554051 0.271930
O O19 0.203567 0.303463 0.500000
O O20 0.054329 0.024122 0.000000
O O21 0.000000 0.000000 0.752258
#
# Coordination Sequence:
#
# PCOD8236048 Si02
#       8
#     8   8   8   8   8   8   8   8
#     4  10  19  33  55  82 112 152 196 231 277 345
#     4  11  23  42  64  85 113 151 196 243 291 345
#     4  10  20  36  58  87 121 157 196 238 288 343
#     4   9  20  39  61  83 111 151 193 232 281 348
#     4  10  19  31  53  85 119 148 185 237 288 334
#     4  10  19  34  58  88 116 150 195 239 282 335
#     4  11  24  43  63  85 114 151 197 244 290 342
#     4   9  16  31  57  85 118 161 201 233 275 345
#
# _framework density 20.024996000000002
#
# number of rings (size 3 to 8) (size 9 to 14) (size 15 to 20)
#    0.000    2.000    2.500    1.500    0.000    2.750 
#    0.000    9.375    0.000    0.750    0.000    0.000 
#    0.000    0.000    0.000    0.000    0.000    0.000 
#
# Total GULP energy -793165.075834 kJ/mol
# GULP energy per Si atom -12393.204310 kJ/mol
# Density = 1.997942 g / cm^3
# Si number density = 20.024996 Si / 1000 Ang^3
#
#
#
# Elastic Constant Matrix: (Units=GPa)
#
#
# Indices 1 2 3 4 5 6 
#
# 1 108.9587 42.7279 25.9497 0.0000 0.0000 0.0000
# 2 42.7279 118.6435 21.0606 0.0000 0.0000 0.0000
# 3 25.9497 21.0606 39.5908 0.0000 0.0000 0.0000
# 4 0.0000 0.0000 0.0000 26.3239 0.0000 0.0000
# 5 0.0000 0.0000 0.0000 0.0000 28.7282 0.0000
# 6 0.0000 0.0000 0.0000 0.0000 0.0000 30.5871
#
#
#
# Elastic Compliance Matrix: (Units=1/GPa)
#
#
# Indices 1 2 3 4 5 6 
#
# 1 0.011882 -0.003199 -0.006086 0.000000 0.000000 0.000000
# 2 -0.003199 0.010169 -0.003313 0.000000 0.000000 0.000000
# 3 -0.006086 -0.003313 0.031010 0.000000 0.000000 0.000000
# 4 0.000000 0.000000 0.000000 0.037988 0.000000 0.000000
# 5 0.000000 0.000000 0.000000 0.000000 0.034809 0.000000
# 6 0.000000 0.000000 0.000000 0.000000 0.000000 0.032694
#
#
# Mechanical properties :
#
#
# Convention : Reuss Voigt Hill
#
# Bulk Modulus (GPa) = 35.88747 49.62992 42.75870
# Shear Modulus (GPa) = 25.90211 28.95815 27.43013
#
# Velocity S-wave (km/s) = 3.60041 3.80689 3.70509
# Velocity P-wave (km/s) = 5.93668 6.64537 6.30100
#
# Compressibility (1/GPa) = 0.02786488
#
# Stress axis : x y z
#
# Youngs Moduli (GPa) = 84.16351 98.34187 32.24780
#
# Poissons Ratio (x) = 0.31456 0.19627
# Poissons Ratio (y) = 0.26921 0.10683
# Poissons Ratio (z) = 0.51224 0.32578
#
# Static dielectric constant tensor:
#      x y z
#    x 3.701870 0.000000 0.000000 
#    y 0.000000 3.915950 0.000000 
#    z 0.000000 0.000000 3.268910 
# 
# 
# High freq. dielectric constant tensor:
#      x y z
#    x 1.783320 0.000000 0.000000 
#    y 0.000000 1.794750 0.000000 
#    z 0.000000 0.000000 1.743650 
# 
# From -- ./inp_files/10108.got.cif
#   From: 2010.06.25/outbox.cif.g09.slc.cpg/sg58_6_cif.got.tgz:10108.got - 2010.06.26 21:38:00.
