data_PCOD8236973
_publ_section_title
;
Structure prediction by ZEFSAII (Michael W. Deem and Ramdas Pophale) SiO2 
 PCOD8236973
Probable space group: P N N M
;
_chemical_formula_sum "Si O2"
_cell_formula_units_Z 64
_cell_length_a 24.437850
_cell_length_b 14.173982
_cell_length_c 9.280730
_cell_angle_alpha 90.000000
_cell_angle_beta 90.000000
_cell_angle_gamma 90.000000
_cell_volume 3214.674534
_symmetry_space_group_name_H-M "P N N M"
_symmetry_group_IT_number 58
_symmetry_cell_setting 'orthorhombic'
loop_
_space_group_symop_operation_xyz
x,y,z
-x,-y,z
1/2+x,1/2-y,1/2-z
1/2-x,1/2+y,1/2-z
-x,-y,-z
x,y,-z
1/2-x,1/2+y,1/2+z
1/2+x,1/2-y,1/2+z
loop_
_atom_site_type_symbol
_atom_site_label
_atom_site_fract_x
_atom_site_fract_y
_atom_site_fract_z
Si Si1 0.062649 0.021404 0.168606
Si Si2 0.412285 0.734976 0.667229
Si Si3 0.107202 0.855691 0.669110
Si Si4 0.664534 0.981379 0.334312
Si Si5 0.203909 0.316873 0.167615
Si Si6 0.512211 0.774797 0.159302
Si Si7 0.941661 0.468202 0.663124
Si Si8 0.195664 0.728585 0.828248
O O1 0.079489 0.126767 0.212406
O O2 0.105769 0.958746 0.259395
O O3 0.072028 0.001698 0.000000
O O4 0.000000 0.000000 0.211354
O O5 0.419667 0.750151 0.500000
O O6 0.354082 0.774297 0.717637
O O7 0.461119 0.794889 0.737868
O O8 0.123260 0.860290 0.500000
O O9 0.045147 0.820156 0.693968
O O10 0.148603 0.788461 0.752751
O O11 0.647901 0.974608 0.500000
O O12 0.608913 0.007415 0.252417
O O13 0.691097 0.882280 0.284079
O O14 0.705628 0.069438 0.308130
O O15 0.247147 0.267008 0.270230
O O16 0.215927 0.293172 0.000000
O O17 0.558678 0.855033 0.171234
O O18 0.486977 0.771759 0.000000
O O19 0.935723 0.506092 0.500000
O O20 0.000000 0.500000 0.728256
O O21 0.192329 0.741614 0.000000
#
# Coordination Sequence:
#
# PCOD8236973 Si02
#       8
#     8   8   8   8   8   8   8   8
#     4  10  20  35  56  85 123 161 201 248 296 353
#     4  10  21  37  59  86 119 161 201 245 301 356
#     4  11  22  37  59  86 117 156 199 244 295 350
#     4  10  22  40  62  88 118 151 194 244 294 351
#     4  10  23  43  63  87 119 154 197 246 297 353
#     4  10  20  33  53  84 119 153 194 241 292 351
#     4  10  20  34  55  86 122 158 196 240 292 351
#     4  11  24  42  64  88 115 153 200 247 297 352
#
# _framework density 19.908702999999999
#
# number of rings (size 3 to 8) (size 9 to 14) (size 15 to 20)
#    0.000    1.750    2.500    1.500    0.000    4.500 
#    0.000    2.500    0.000    0.000    0.000    0.000 
#    0.000    0.000    0.000    0.000    0.000    0.000 
#
# Total GULP energy -793511.766548 kJ/mol
# GULP energy per Si atom -12398.621352 kJ/mol
# Density = 1.986339 g / cm^3
# Si number density = 19.908703 Si / 1000 Ang^3
#
#
#
# Elastic Constant Matrix: (Units=GPa)
#
#
# Indices 1 2 3 4 5 6 
#
# 1 94.0743 49.8290 52.4633 0.0000 0.0000 0.0000
# 2 49.8290 84.5699 32.7434 0.0000 0.0000 0.0000
# 3 52.4633 32.7434 68.4741 0.0000 0.0000 0.0000
# 4 0.0000 0.0000 0.0000 17.6567 0.0000 0.0000
# 5 0.0000 0.0000 0.0000 0.0000 39.8017 0.0000
# 6 0.0000 0.0000 0.0000 0.0000 0.0000 28.3915
#
#
#
# Elastic Compliance Matrix: (Units=1/GPa)
#
#
# Indices 1 2 3 4 5 6 
#
# 1 0.022225 -0.007979 -0.013212 0.000000 0.000000 0.000000
# 2 -0.007979 0.017376 -0.002195 0.000000 0.000000 0.000000
# 3 -0.013212 -0.002195 0.025777 0.000000 0.000000 0.000000
# 4 0.000000 0.000000 0.000000 0.056636 0.000000 0.000000
# 5 0.000000 0.000000 0.000000 0.000000 0.025125 0.000000
# 6 0.000000 0.000000 0.000000 0.000000 0.000000 0.035222
#
#
# Mechanical properties :
#
#
# Convention : Reuss Voigt Hill
#
# Bulk Modulus (GPa) = 53.75391 57.46552 55.60971
# Shear Modulus (GPa) = 21.24633 24.64218 22.94425
#
# Velocity S-wave (km/s) = 3.27033 3.52200 3.39849
# Velocity P-wave (km/s) = 6.42798 6.74288 6.58731
#
# Compressibility (1/GPa) = 0.01860330
#
# Stress axis : x y z
#
# Youngs Moduli (GPa) = 44.99510 57.55064 38.79446
#
# Poissons Ratio (x) = 0.45922 0.51257
# Poissons Ratio (y) = 0.35903 0.08517
# Poissons Ratio (z) = 0.59449 0.12635
#
# Static dielectric constant tensor:
#      x y z
#    x 3.482410 0.000000 0.000000 
#    y 0.000000 3.896780 0.000000 
#    z 0.000000 0.000000 3.531190 
# 
# 
# High freq. dielectric constant tensor:
#      x y z
#    x 1.764400 0.000000 0.000000 
#    y 0.000000 1.792040 0.000000 
#    z 0.000000 0.000000 1.771480 
# 
# From -- ./inp_files/9958.got.cif
#   From: 2010.06.25/outbox.cif.g09.slc.cpg/sg58_5_cif.got.tgz:9958.got - 2010.06.26 21:38:00.
