data_PCOD8236856
_publ_section_title
;
Structure prediction by ZEFSAII (Michael W. Deem and Ramdas Pophale) SiO2 
 PCOD8236856
Probable space group: P N N M
;
_chemical_formula_sum "Si O2"
_cell_formula_units_Z 48
_cell_length_a 8.945700
_cell_length_b 9.223144
_cell_length_c 28.095151
_cell_angle_alpha 90.000000
_cell_angle_beta 90.000000
_cell_angle_gamma 90.000000
_cell_volume 2318.060089
_symmetry_space_group_name_H-M "P N N M"
_symmetry_group_IT_number 58
_symmetry_cell_setting 'orthorhombic'
loop_
_space_group_symop_operation_xyz
x,y,z
-x,-y,z
1/2+x,1/2-y,1/2-z
1/2-x,1/2+y,1/2-z
-x,-y,-z
x,y,-z
1/2-x,1/2+y,1/2+z
1/2+x,1/2-y,1/2+z
loop_
_atom_site_type_symbol
_atom_site_label
_atom_site_fract_x
_atom_site_fract_y
_atom_site_fract_z
Si Si1 0.672982 0.530855 0.385158
Si Si2 0.841276 0.573930 0.710419
Si Si3 0.312063 0.757967 0.052713
Si Si4 0.171456 0.987440 0.605892
Si Si5 0.160975 0.075343 0.706699
Si Si6 0.342091 0.201315 0.944573
O O1 0.500000 0.500000 0.382325
O O2 0.739108 0.520349 0.332937
O O3 0.697995 0.689328 0.406853
O O4 0.759563 0.438470 0.425086
O O5 0.851511 0.749685 0.714228
O O6 0.772264 0.501026 0.756775
O O7 0.000000 0.500000 0.701310
O O8 0.301630 0.585685 0.059399
O O9 0.480063 0.815804 0.061697
O O10 0.258277 0.799694 0.000000
O O11 0.221054 0.828674 0.589339
O O12 0.242706 0.039992 0.655936
O O13 0.000000 0.000000 0.619755
O O14 0.000000 0.000000 0.713365
O O15 0.302271 0.226741 0.000000
#
# Coordination Sequence:
#
# PCOD8236856 Si02
#       6
#     8   8   8   8   8   8
#     4  12  26  41  61  91 132 173 222 265 324 385
#     4  12  26  45  72  98 132 173 218 273 332 396
#     4  10  19  38  65  94 126 166 215 268 322 386
#     4   9  19  37  65  96 129 161 212 266 323 386
#     4  11  24  44  70 103 133 169 217 271 334 396
#     4  10  21  38  65  97 127 170 219 268 324 388
#
# _framework density 20.706969999999998
#
# number of rings (size 3 to 8) (size 9 to 14) (size 15 to 20)
#    0.000    1.333    1.667    4.000    7.000    4.667 
#    0.000    0.833    0.000    2.000    0.000    0.000 
#    0.000    0.000    0.000    0.000    0.000    0.000 
#
# Total GULP energy -594817.481313 kJ/mol
# GULP energy per Si atom -12392.030861 kJ/mol
# Density = 2.065984 g / cm^3
# Si number density = 20.706970 Si / 1000 Ang^3
#
#
#
# Elastic Constant Matrix: (Units=GPa)
#
#
# Indices 1 2 3 4 5 6 
#
# 1 90.1841 28.5466 48.3160 0.0000 0.0000 0.0000
# 2 28.5466 98.6171 44.9762 0.0000 0.0000 0.0000
# 3 48.3160 44.9762 146.9562 0.0000 0.0000 0.0000
# 4 0.0000 0.0000 0.0000 2.4902 0.0000 0.0000
# 5 0.0000 0.0000 0.0000 0.0000 -106.8606 0.0000
# 6 0.0000 0.0000 0.0000 0.0000 0.0000 18.9167
#
#
#
# Elastic Compliance Matrix: (Units=1/GPa)
#
#
# Indices 1 2 3 4 5 6 
#
# 1 0.013876 -0.002250 -0.003873 0.000000 0.000000 0.000000
# 2 -0.002250 0.012150 -0.002979 0.000000 0.000000 0.000000
# 3 -0.003873 -0.002979 0.008990 0.000000 0.000000 0.000000
# 4 0.000000 0.000000 0.000000 0.401582 0.000000 0.000000
# 5 0.000000 0.000000 0.000000 0.000000 -0.009358 0.000000
# 6 0.000000 0.000000 0.000000 0.000000 0.000000 0.052863
#
#
# Mechanical properties :
#
#
# Convention : Reuss Voigt Hill
#
# Bulk Modulus (GPa) = 59.48394 64.38167 61.93281
# Shear Modulus (GPa) = 9.92238 -2.82951 3.54644
#
# Velocity S-wave (km/s) = 2.19139 -1.17022 1.31011
# Velocity P-wave (km/s) = 5.93227 5.41603 5.68002
#
# Compressibility (1/GPa) = 0.01681126
#
# Stress axis : x y z
#
# Youngs Moduli (GPa) = 72.06771 82.30391 111.23583
#
# Poissons Ratio (x) = 0.18519 0.43086
# Poissons Ratio (y) = 0.16216 0.33135
# Poissons Ratio (z) = 0.27915 0.24517
#
# Static dielectric constant tensor:
#      x y z
#    x 3.542380 0.000000 0.000000 
#    y 0.000000 3.978820 0.000000 
#    z 0.000000 0.000000 3.909800 
# 
# 
# High freq. dielectric constant tensor:
#      x y z
#    x 1.774920 0.000000 0.000000 
#    y 0.000000 1.826240 0.000000 
#    z 0.000000 0.000000 1.833840 
# 
# From -- ./inp_files/34580.got.cif
#   From: 2010.06.25/outbox.cif.g09.slc.cpg/sg58_18_cif.got.tgz:34580.got - 2010.06.26 21:38:00.
