data_PCOD8236129
_publ_section_title
;
Structure prediction by ZEFSAII (Michael W. Deem and Ramdas Pophale) SiO2 
 PCOD8236129
Probable space group: P N N M
;
_chemical_formula_sum "Si O2"
_cell_formula_units_Z 64
_cell_length_a 20.525384
_cell_length_b 19.530367
_cell_length_c 9.198291
_cell_angle_alpha 90.000000
_cell_angle_beta 90.000000
_cell_angle_gamma 90.000000
_cell_volume 3687.303114
_symmetry_space_group_name_H-M "P N N M"
_symmetry_group_IT_number 58
_symmetry_cell_setting 'orthorhombic'
loop_
_space_group_symop_operation_xyz
x,y,z
-x,-y,z
1/2+x,1/2-y,1/2-z
1/2-x,1/2+y,1/2-z
-x,-y,-z
x,y,-z
1/2-x,1/2+y,1/2+z
1/2+x,1/2-y,1/2+z
loop_
_atom_site_type_symbol
_atom_site_label
_atom_site_fract_x
_atom_site_fract_y
_atom_site_fract_z
Si Si1 0.872251 0.567834 0.826954
Si Si2 0.305079 0.709206 0.171436
Si Si3 0.078091 0.305679 0.668637
Si Si4 0.676983 0.712417 0.331218
Si Si5 0.226322 0.079497 0.164421
Si Si6 0.762195 0.071531 0.831747
Si Si7 0.068076 0.711449 0.332983
Si Si8 0.878395 0.431899 0.667465
O O1 0.919444 0.626690 0.766919
O O2 0.799967 0.583226 0.769205
O O3 0.899049 0.495478 0.767824
O O4 0.872462 0.567163 0.000000
O O5 0.367606 0.752206 0.222963
O O6 0.239647 0.746301 0.229829
O O7 0.311343 0.632828 0.234212
O O8 0.303676 0.703441 0.000000
O O9 0.089192 0.325868 0.500000
O O10 0.007641 0.270826 0.690803
O O11 0.668867 0.728224 0.500000
O O12 0.686294 0.631556 0.301730
O O13 0.610826 0.734182 0.253899
O O14 0.303055 0.085708 0.191470
O O15 0.204151 0.001698 0.202298
O O16 0.208127 0.098177 0.000000
O O17 0.737995 0.072870 0.000000
O O18 0.089155 0.717493 0.500000
O O19 0.080873 0.633794 0.280022
O O20 0.892792 0.450935 0.500000
#
# Coordination Sequence:
#
# PCOD8236129 Si02
#       8
#     8   8   8   8   8   8   8   8
#     4  11  21  31  49  77 105 136 174 218 254 293
#     4  10  19  32  53  77 102 135 170 208 258 309
#     4  10  21  38  54  71 103 145 179 207 255 318
#     4  10  19  33  55  78 104 135 167 214 266 307
#     4   9  17  30  52  77 103 130 168 215 251 299
#     4   9  18  35  54  75 104 140 172 204 258 316
#     4  10  21  36  55  76 101 138 181 217 250 304
#     4   9  18  33  50  71 102 139 173 207 251 307
#
# _framework density 17.356859
#
# number of rings (size 3 to 8) (size 9 to 14) (size 15 to 20)
#    0.000    2.250    2.500    1.875    0.000    4.500 
#    0.000    2.500    0.000    0.750    0.000    5.250 
#    0.000    0.000    0.000    0.000    0.000    0.000 
#
# Total GULP energy -793650.433762 kJ/mol
# GULP energy per Si atom -12400.788028 kJ/mol
# Density = 1.731735 g / cm^3
# Si number density = 17.356859 Si / 1000 Ang^3
#
#
#
# Elastic Constant Matrix: (Units=GPa)
#
#
# Indices 1 2 3 4 5 6 
#
# 1 73.7916 47.1164 26.7366 0.0000 0.0000 0.0000
# 2 47.1164 116.6219 39.5803 0.0000 0.0000 0.0000
# 3 26.7366 39.5803 57.6737 0.0000 0.0000 0.0000
# 4 0.0000 0.0000 0.0000 30.9407 0.0000 0.0000
# 5 0.0000 0.0000 0.0000 0.0000 18.5780 0.0000
# 6 0.0000 0.0000 0.0000 0.0000 0.0000 23.9463
#
#
#
# Elastic Compliance Matrix: (Units=1/GPa)
#
#
# Indices 1 2 3 4 5 6 
#
# 1 0.019177 -0.006167 -0.004658 0.000000 0.000000 0.000000
# 2 -0.006167 0.013161 -0.006174 0.000000 0.000000 0.000000
# 3 -0.004658 -0.006174 0.023735 0.000000 0.000000 0.000000
# 4 0.000000 0.000000 0.000000 0.032320 0.000000 0.000000
# 5 0.000000 0.000000 0.000000 0.000000 0.053827 0.000000
# 6 0.000000 0.000000 0.000000 0.000000 0.000000 0.041760
#
#
# Mechanical properties :
#
#
# Convention : Reuss Voigt Hill
#
# Bulk Modulus (GPa) = 45.29658 52.77265 49.03462
# Shear Modulus (GPa) = 22.18908 23.66993 22.92950
#
# Velocity S-wave (km/s) = 3.57936 3.69687 3.63859
# Velocity P-wave (km/s) = 6.57543 6.97803 6.77972
#
# Compressibility (1/GPa) = 0.02207672
#
# Stress axis : x y z
#
# Youngs Moduli (GPa) = 52.14606 75.97963 42.13173
#
# Poissons Ratio (x) = 0.46855 0.19625
# Poissons Ratio (y) = 0.32157 0.26010
# Poissons Ratio (z) = 0.24289 0.46907
#
# Static dielectric constant tensor:
#      x y z
#    x 2.992610 0.000000 0.000000 
#    y 0.000000 3.347190 0.000000 
#    z 0.000000 0.000000 3.104280 
# 
# 
# High freq. dielectric constant tensor:
#      x y z
#    x 1.641640 0.000000 0.000000 
#    y 0.000000 1.675130 0.000000 
#    z 0.000000 0.000000 1.660870 
# 
# From -- ./inp_files/8267.got.cif
#   From: 2010.06.25/outbox.cif.g09.slc.cpg/sg58_5_cif.got.tgz:8267.got - 2010.06.26 21:38:00.
