data_PCOD8236405
_publ_section_title
;
Structure prediction by ZEFSAII (Michael W. Deem and Ramdas Pophale) SiO2 
 PCOD8236405
Probable space group: P N N M
;
_chemical_formula_sum "Si O2"
_cell_formula_units_Z 64
_cell_length_a 18.874264
_cell_length_b 23.041904
_cell_length_c 8.666566
_cell_angle_alpha 90.000000
_cell_angle_beta 90.000000
_cell_angle_gamma 90.000000
_cell_volume 3769.080706
_symmetry_space_group_name_H-M "P N N M"
_symmetry_group_IT_number 58
_symmetry_cell_setting 'orthorhombic'
loop_
_space_group_symop_operation_xyz
x,y,z
-x,-y,z
1/2+x,1/2-y,1/2-z
1/2-x,1/2+y,1/2-z
-x,-y,-z
x,y,-z
1/2-x,1/2+y,1/2+z
1/2+x,1/2-y,1/2+z
loop_
_atom_site_type_symbol
_atom_site_label
_atom_site_fract_x
_atom_site_fract_y
_atom_site_fract_z
Si Si1 0.860305 0.226121 0.178305
Si Si2 0.003274 0.253526 0.320335
Si Si3 0.771400 0.340174 0.179303
Si Si4 0.736591 0.164127 0.322068
Si Si5 0.499067 0.120688 0.680178
Si Si6 0.852496 0.775584 0.179322
Si Si7 0.363491 0.065205 0.820759
Si Si8 0.142586 0.443617 0.179559
O O1 0.823606 0.287154 0.218774
O O2 0.806888 0.174085 0.221132
O O3 0.931266 0.220016 0.277839
O O4 0.880521 0.222145 0.000000
O O5 0.018366 0.248247 0.500000
O O6 0.996388 0.320523 0.275707
O O7 0.066375 0.221625 0.230691
O O8 0.691810 0.323885 0.228181
O O9 0.796436 0.395263 0.277392
O O10 0.773080 0.356093 0.000000
O O11 0.758235 0.169628 0.500000
O O12 0.676577 0.211453 0.281457
O O13 0.705366 0.101304 0.282893
O O14 0.499742 0.137109 0.500000
O O15 0.430943 0.082167 0.718012
O O16 0.567809 0.084250 0.726771
O O17 0.846284 0.789986 0.000000
O O18 0.342874 0.999245 0.784113
O O19 0.381921 0.072383 0.000000
O O20 0.142255 0.460916 0.000000
#
# Coordination Sequence:
#
# PCOD8236405 Si02
#       8
#     8   8   8   8   8   8   8   8
#     4  10  20  33  52  75 102 135 170 212 262 309
#     4  12  22  32  51  78 107 139 174 212 258 312
#     4  10  20  35  53  74 101 136 175 215 259 308
#     4   9  18  34  53  74 100 133 172 213 259 307
#     4  11  21  36  52  71 101 141 182 217 257 304
#     4  10  19  34  54  76 104 134 169 214 262 312
#     4  12  24  35  50  75 104 139 179 220 259 301
#     4  10  21  37  54  72 100 141 179 214 257 307
#
# _framework density 16.980267999999999
#
# number of rings (size 3 to 8) (size 9 to 14) (size 15 to 20)
#    0.000    1.500    2.500    4.125    0.000    4.500 
#    0.000    0.000    0.000    0.000    0.000    0.875 
#    0.000    7.000    0.000    0.000    0.000    0.000 
#
# Total GULP energy -793971.211953 kJ/mol
# GULP energy per Si atom -12405.800187 kJ/mol
# Density = 1.694162 g / cm^3
# Si number density = 16.980268 Si / 1000 Ang^3
#
#
#
# Elastic Constant Matrix: (Units=GPa)
#
#
# Indices 1 2 3 4 5 6 
#
# 1 96.7328 38.6056 22.4009 0.0000 0.0000 0.0000
# 2 38.6056 66.1792 18.6256 0.0000 0.0000 0.0000
# 3 22.4009 18.6256 51.9464 0.0000 0.0000 0.0000
# 4 0.0000 0.0000 0.0000 26.4901 0.0000 0.0000
# 5 0.0000 0.0000 0.0000 0.0000 30.0439 0.0000
# 6 0.0000 0.0000 0.0000 0.0000 0.0000 21.6508
#
#
#
# Elastic Compliance Matrix: (Units=1/GPa)
#
#
# Indices 1 2 3 4 5 6 
#
# 1 0.014013 -0.007200 -0.003461 0.000000 0.000000 0.000000
# 2 -0.007200 0.020506 -0.004248 0.000000 0.000000 0.000000
# 3 -0.003461 -0.004248 0.022266 0.000000 0.000000 0.000000
# 4 0.000000 0.000000 0.000000 0.037750 0.000000 0.000000
# 5 0.000000 0.000000 0.000000 0.000000 0.033285 0.000000
# 6 0.000000 0.000000 0.000000 0.000000 0.000000 0.046188
#
#
# Mechanical properties :
#
#
# Convention : Reuss Voigt Hill
#
# Bulk Modulus (GPa) = 37.08201 41.56917 39.32559
# Shear Modulus (GPa) = 23.49463 24.65204 24.07333
#
# Velocity S-wave (km/s) = 3.72377 3.81439 3.76935
# Velocity P-wave (km/s) = 6.35408 6.62823 6.49260
#
# Compressibility (1/GPa) = 0.02696725
#
# Stress axis : x y z
#
# Youngs Moduli (GPa) = 71.36305 48.76566 44.91123
#
# Poissons Ratio (x) = 0.35113 0.15544
# Poissons Ratio (y) = 0.51383 0.19077
# Poissons Ratio (z) = 0.24699 0.20714
#
# Static dielectric constant tensor:
#      x y z
#    x 3.200580 0.000000 0.000000 
#    y 0.000000 2.989950 0.000000 
#    z 0.000000 0.000000 3.197950 
# 
# 
# High freq. dielectric constant tensor:
#      x y z
#    x 1.651660 0.000000 0.000000 
#    y 0.000000 1.625720 0.000000 
#    z 0.000000 0.000000 1.665760 
# 
# From -- ./inp_files/6944.got.cif
#   From: 2010.06.25/outbox.cif.g09.slc.cpg/sg58_4_cif.got.tgz:6944.got - 2010.06.26 21:38:00.
