data_PCOD8236359
_publ_section_title
;
Structure prediction by ZEFSAII (Michael W. Deem and Ramdas Pophale) SiO2 
 PCOD8236359
Probable space group: P N N M
;
_chemical_formula_sum "Si O2"
_cell_formula_units_Z 48
_cell_length_a 12.295083
_cell_length_b 21.713781
_cell_length_c 9.399661
_cell_angle_alpha 90.000000
_cell_angle_beta 90.000000
_cell_angle_gamma 90.000000
_cell_volume 2509.453249
_symmetry_space_group_name_H-M "P N N M"
_symmetry_group_IT_number 58
_symmetry_cell_setting 'orthorhombic'
loop_
_space_group_symop_operation_xyz
x,y,z
-x,-y,z
1/2+x,1/2-y,1/2-z
1/2-x,1/2+y,1/2-z
-x,-y,-z
x,y,-z
1/2-x,1/2+y,1/2+z
1/2+x,1/2-y,1/2+z
loop_
_atom_site_type_symbol
_atom_site_label
_atom_site_fract_x
_atom_site_fract_y
_atom_site_fract_z
Si Si1 0.346177 0.172094 0.335846
Si Si2 0.381630 0.506685 0.335715
Si Si3 0.858539 0.853506 0.164626
Si Si4 0.232685 0.398314 0.330656
Si Si5 0.980178 0.570731 0.167135
Si Si6 0.414226 0.305902 0.665512
O O1 0.312663 0.169608 0.500000
O O2 0.236695 0.180570 0.247166
O O3 0.413963 0.111326 0.293734
O O4 0.415424 0.233367 0.302138
O O5 0.500000 0.500000 0.261567
O O6 0.396067 0.488807 0.500000
O O7 0.336606 0.574549 0.312721
O O8 0.295035 0.458961 0.272571
O O9 0.975209 0.834424 0.231550
O O10 0.851692 0.834408 0.000000
O O11 0.211902 0.398687 0.500000
O O12 0.117544 0.397650 0.252379
O O13 0.304961 0.339849 0.278552
O O14 0.000000 0.500000 0.215173
O O15 0.954150 0.574379 0.000000
O O16 0.418596 0.321241 0.500000
#
# Coordination Sequence:
#
# PCOD8236359 Si02
#       6
#     8   8   8   8   8   8
#     4  10  22  38  54  74 108 147 178 215 267 316
#     4   9  15  28  52  81 107 131 163 212 269 314
#     4  10  19  34  58  82 104 133 176 219 260 315
#     4  10  19  33  57  83 108 137 175 222 269 318
#     4  10  22  39  56  76 109 150 184 217 265 322
#     4   9  19  35  54  79 108 140 173 216 273 320
#
# _framework density 19.127672
#
# number of rings (size 3 to 8) (size 9 to 14) (size 15 to 20)
#    0.000    2.333    1.667    1.000    2.333    1.000 
#    0.000    1.667    0.000    1.000    0.000    0.000 
#    0.000    0.000    0.000    0.000    0.000    0.000 
#
# Total GULP energy -595087.028287 kJ/mol
# GULP energy per Si atom -12397.646423 kJ/mol
# Density = 1.908414 g / cm^3
# Si number density = 19.127672 Si / 1000 Ang^3
#
#
#
# Elastic Constant Matrix: (Units=GPa)
#
#
# Indices 1 2 3 4 5 6 
#
# 1 129.6585 44.4656 42.8480 0.0000 0.0000 0.0000
# 2 44.4656 106.6090 25.7034 0.0000 0.0000 0.0000
# 3 42.8480 25.7034 35.2808 0.0000 0.0000 0.0000
# 4 0.0000 0.0000 0.0000 14.0830 0.0000 0.0000
# 5 0.0000 0.0000 0.0000 0.0000 25.4096 0.0000
# 6 0.0000 0.0000 0.0000 0.0000 0.0000 26.6907
#
#
#
# Elastic Compliance Matrix: (Units=1/GPa)
#
#
# Indices 1 2 3 4 5 6 
#
# 1 0.013224 -0.001994 -0.014607 0.000000 0.000000 0.000000
# 2 -0.001994 0.011679 -0.006088 0.000000 0.000000 0.000000
# 3 -0.014607 -0.006088 0.050520 0.000000 0.000000 0.000000
# 4 0.000000 0.000000 0.000000 0.071007 0.000000 0.000000
# 5 0.000000 0.000000 0.000000 0.000000 0.039355 0.000000
# 6 0.000000 0.000000 0.000000 0.000000 0.000000 0.037466
#
#
# Mechanical properties :
#
#
# Convention : Reuss Voigt Hill
#
# Bulk Modulus (GPa) = 33.28318 55.28692 44.28505
# Shear Modulus (GPa) = 17.94408 23.80543 20.87475
#
# Velocity S-wave (km/s) = 3.06620 3.53165 3.30712
# Velocity P-wave (km/s) = 5.47483 6.75255 6.14698
#
# Compressibility (1/GPa) = 0.03004520
#
# Stress axis : x y z
#
# Youngs Moduli (GPa) = 75.62283 85.62144 19.79428
#
# Poissons Ratio (x) = 0.17069 0.28914
# Poissons Ratio (y) = 0.15076 0.12050
# Poissons Ratio (z) = 1.10465 0.52124
#
# Static dielectric constant tensor:
#      x y z
#    x 3.532400 0.000000 0.000000 
#    y 0.000000 3.580300 0.000000 
#    z 0.000000 0.000000 3.049470 
# 
# 
# High freq. dielectric constant tensor:
#      x y z
#    x 1.752970 0.000000 0.000000 
#    y 0.000000 1.756050 0.000000 
#    z 0.000000 0.000000 1.693890 
# 
# From -- ./inp_files/4200.got.cif
#   From: 2010.06.25/outbox.cif.g09.slc.cpg/sg58_3_cif.got.tgz:4200.got - 2010.06.26 21:38:00.
