data_PCOD8236300
_publ_section_title
;
Structure prediction by ZEFSAII (Michael W. Deem and Ramdas Pophale) SiO2 
 PCOD8236300
Probable space group: P N N M
;
_chemical_formula_sum "Si O2"
_cell_formula_units_Z 48
_cell_length_a 14.388000
_cell_length_b 20.048052
_cell_length_c 9.205463
_cell_angle_alpha 90.000000
_cell_angle_beta 90.000000
_cell_angle_gamma 90.000000
_cell_volume 2655.328434
_symmetry_space_group_name_H-M "P N N M"
_symmetry_group_IT_number 58
_symmetry_cell_setting 'orthorhombic'
loop_
_space_group_symop_operation_xyz
x,y,z
-x,-y,z
1/2+x,1/2-y,1/2-z
1/2-x,1/2+y,1/2-z
-x,-y,-z
x,y,-z
1/2-x,1/2+y,1/2+z
1/2+x,1/2-y,1/2+z
loop_
_atom_site_type_symbol
_atom_site_label
_atom_site_fract_x
_atom_site_fract_y
_atom_site_fract_z
Si Si1 0.332180 0.929882 0.827961
Si Si2 0.004308 0.623565 0.831544
Si Si3 0.160563 0.178298 0.669697
Si Si4 0.987025 0.222842 0.828883
Si Si5 0.298425 0.061259 0.667309
Si Si6 0.218941 0.801193 0.827888
O O1 0.434682 0.921147 0.762278
O O2 0.266481 0.869477 0.776217
O O3 0.286629 0.997336 0.769029
O O4 0.340596 0.933210 0.000000
O O5 0.993519 0.700509 0.787647
O O6 0.108259 0.601239 0.794415
O O7 0.981135 0.611985 0.000000
O O8 0.142253 0.189214 0.500000
O O9 0.211550 0.108791 0.700338
O O10 0.222583 0.238805 0.733725
O O11 0.062295 0.176204 0.751198
O O12 0.886051 0.201692 0.767912
O O13 0.993441 0.211380 0.000000
O O14 0.299526 0.038410 0.500000
O O15 0.215547 0.794805 0.000000
#
# Coordination Sequence:
#
# PCOD8236300 Si02
#       6
#     8   8   8   8   8   8
#     4  11  22  35  54  80 112 144 176 222 272 317
#     4  10  19  33  55  81 108 140 176 217 267 325
#     4  10  19  36  58  79 106 142 180 222 268 311
#     4  10  19  34  57  83 106 135 180 224 263 318
#     4  10  21  37  56  77 109 149 182 214 264 328
#     4   9  18  35  56  77 106 143 178 214 266 322
#
# _framework density 18.076858999999999
#
# number of rings (size 3 to 8) (size 9 to 14) (size 15 to 20)
#    0.000    2.000    3.333    1.000    0.000    3.333 
#    0.000    3.333    0.000    5.000    0.000    0.000 
#    0.000    0.000    0.000    0.000    0.000    0.000 
#
# Total GULP energy -595369.249167 kJ/mol
# GULP energy per Si atom -12403.526024 kJ/mol
# Density = 1.803572 g / cm^3
# Si number density = 18.076859 Si / 1000 Ang^3
#
#
#
# Elastic Constant Matrix: (Units=GPa)
#
#
# Indices 1 2 3 4 5 6 
#
# 1 95.9294 15.3607 25.5192 0.0000 0.0000 0.0000
# 2 15.3607 66.9609 31.1134 0.0000 0.0000 0.0000
# 3 25.5192 31.1134 42.6424 0.0000 0.0000 0.0000
# 4 0.0000 0.0000 0.0000 17.8014 0.0000 0.0000
# 5 0.0000 0.0000 0.0000 0.0000 29.4943 0.0000
# 6 0.0000 0.0000 0.0000 0.0000 0.0000 27.6289
#
#
#
# Elastic Compliance Matrix: (Units=1/GPa)
#
#
# Indices 1 2 3 4 5 6 
#
# 1 0.012435 0.000916 -0.008110 0.000000 0.000000 0.000000
# 2 0.000916 0.022661 -0.017083 0.000000 0.000000 0.000000
# 3 -0.008110 -0.017083 0.040768 0.000000 0.000000 0.000000
# 4 0.000000 0.000000 0.000000 0.056175 0.000000 0.000000
# 5 0.000000 0.000000 0.000000 0.000000 0.033905 0.000000
# 6 0.000000 0.000000 0.000000 0.000000 0.000000 0.036194
#
#
# Mechanical properties :
#
#
# Convention : Reuss Voigt Hill
#
# Bulk Modulus (GPa) = 36.61495 38.83548 37.72521
# Shear Modulus (GPa) = 19.24586 23.88756 21.56671
#
# Velocity S-wave (km/s) = 3.26647 3.63911 3.45781
# Velocity P-wave (km/s) = 5.87584 6.26001 6.07096
#
# Compressibility (1/GPa) = 0.02731125
#
# Stress axis : x y z
#
# Youngs Moduli (GPa) = 80.41755 44.12778 24.52890
#
# Poissons Ratio (x) = -0.04041 0.19893
# Poissons Ratio (y) = -0.07363 0.41902
# Poissons Ratio (z) = 0.65217 0.75382
#
# Static dielectric constant tensor:
#      x y z
#    x 3.391580 0.000000 0.000000 
#    y 0.000000 3.353030 0.000000 
#    z 0.000000 0.000000 3.085240 
# 
# 
# High freq. dielectric constant tensor:
#      x y z
#    x 1.704100 0.000000 0.000000 
#    y 0.000000 1.699290 0.000000 
#    z 0.000000 0.000000 1.678970 
# 
# From -- ./inp_files/5753.got.cif
#   From: 2010.06.25/outbox.cif.g09.slc.cpg/sg58_3_cif.got.tgz:5753.got - 2010.06.26 21:38:00.
