data_PCOD8236977
_publ_section_title
;
Structure prediction by ZEFSAII (Michael W. Deem and Ramdas Pophale) SiO2 
 PCOD8236977
Probable space group: P N N M
;
_chemical_formula_sum "Si O2"
_cell_formula_units_Z 64
_cell_length_a 11.014662
_cell_length_b 32.661590
_cell_length_c 9.471509
_cell_angle_alpha 90.000000
_cell_angle_beta 90.000000
_cell_angle_gamma 90.000000
_cell_volume 3407.435736
_symmetry_space_group_name_H-M "P N N M"
_symmetry_group_IT_number 58
_symmetry_cell_setting 'orthorhombic'
loop_
_space_group_symop_operation_xyz
x,y,z
-x,-y,z
1/2+x,1/2-y,1/2-z
1/2-x,1/2+y,1/2-z
-x,-y,-z
x,y,-z
1/2-x,1/2+y,1/2+z
1/2+x,1/2-y,1/2+z
loop_
_atom_site_type_symbol
_atom_site_label
_atom_site_fract_x
_atom_site_fract_y
_atom_site_fract_z
Si Si1 0.538581 0.724313 0.832948
Si Si2 0.216304 0.827206 0.156048
Si Si3 0.006372 0.315296 0.655745
Si Si4 0.117442 0.149639 0.335504
Si Si5 0.876747 0.105856 0.661430
Si Si6 0.883307 0.474258 0.832534
Si Si7 0.868467 0.010874 0.337826
Si Si8 0.372933 0.119897 0.667632
O O1 0.652734 0.706816 0.750760
O O2 0.528456 0.770915 0.781893
O O3 0.421183 0.696010 0.792542
O O4 0.561111 0.721154 0.000000
O O5 0.351553 0.812957 0.137583
O O6 0.214791 0.870805 0.235346
O O7 0.155740 0.830720 0.000000
O O8 0.947642 0.322421 0.500000
O O9 0.973273 0.351348 0.762462
O O10 0.139417 0.146392 0.500000
O O11 0.244325 0.135393 0.267161
O O12 0.013497 0.117325 0.290447
O O13 0.856248 0.120326 0.500000
O O14 0.848316 0.058725 0.678536
O O15 0.752260 0.489757 0.770268
O O16 0.898247 0.426973 0.787978
O O17 0.000000 0.500000 0.773378
O O18 0.879216 0.479784 0.000000
O O19 0.876516 0.996439 0.500000
O O20 0.000000 0.000000 0.266185
O O21 0.382099 0.124648 0.500000
#
# Coordination Sequence:
#
# PCOD8236977 Si02
#       8
#     8   8   8   8   8   8   8   8
#     4   9  19  37  57  76 102 136 173 217 267 311
#     4  10  21  36  54  77 107 138 173 216 262 312
#     4  10  23  38  53  75 108 142 172 215 265 314
#     4   8  15  30  52  78 104 132 168 213 259 309
#     4   9  17  31  55  80 107 140 175 215 263 315
#     4   9  18  30  45  74 111 136 168 226 274 302
#     4   9  16  27  49  78 105 136 177 221 267 319
#     4  10  20  33  55  79 104 141 181 215 261 321
#
# _framework density 18.782454000000001
#
# number of rings (size 3 to 8) (size 9 to 14) (size 15 to 20)
#    0.000    2.750    0.000    1.875    3.500    4.500 
#    0.000    2.500    0.000    1.500    0.000    0.000 
#    0.000    0.000    0.000    0.000    0.000    0.000 
#
# Total GULP energy -793092.253995 kJ/mol
# GULP energy per Si atom -12392.066469 kJ/mol
# Density = 1.873970 g / cm^3
# Si number density = 18.782454 Si / 1000 Ang^3
#
#
#
# Elastic Constant Matrix: (Units=GPa)
#
#
# Indices 1 2 3 4 5 6 
#
# 1 101.4516 57.2154 25.3711 0.0000 0.0000 0.0000
# 2 57.2154 137.6978 40.6609 0.0000 0.0000 0.0000
# 3 25.3711 40.6609 43.5366 0.0000 0.0000 0.0000
# 4 0.0000 0.0000 0.0000 20.0094 0.0000 0.0000
# 5 0.0000 0.0000 0.0000 0.0000 16.7256 0.0000
# 6 0.0000 0.0000 0.0000 0.0000 0.0000 25.9981
#
#
#
# Elastic Compliance Matrix: (Units=1/GPa)
#
#
# Indices 1 2 3 4 5 6 
#
# 1 0.013263 -0.004458 -0.003565 0.000000 0.000000 0.000000
# 2 -0.004458 0.011526 -0.008167 0.000000 0.000000 0.000000
# 3 -0.003565 -0.008167 0.032674 0.000000 0.000000 0.000000
# 4 0.000000 0.000000 0.000000 0.049976 0.000000 0.000000
# 5 0.000000 0.000000 0.000000 0.000000 0.059788 0.000000
# 6 0.000000 0.000000 0.000000 0.000000 0.000000 0.038464
#
#
# Mechanical properties :
#
#
# Convention : Reuss Voigt Hill
#
# Bulk Modulus (GPa) = 39.86806 58.79786 49.33296
# Shear Modulus (GPa) = 20.28937 23.17588 21.73262
#
# Velocity S-wave (km/s) = 3.29025 3.51652 3.40526
# Velocity P-wave (km/s) = 5.97550 6.91813 6.46402
#
# Compressibility (1/GPa) = 0.02508273
#
# Stress axis : x y z
#
# Youngs Moduli (GPa) = 75.39932 86.75797 30.60492
#
# Poissons Ratio (x) = 0.38677 0.10912
# Poissons Ratio (y) = 0.33613 0.24995
# Poissons Ratio (z) = 0.26882 0.70856
#
# Static dielectric constant tensor:
#      x y z
#    x 3.576270 0.000000 0.000000 
#    y 0.000000 3.618060 0.000000 
#    z 0.000000 0.000000 3.129920 
# 
# 
# High freq. dielectric constant tensor:
#      x y z
#    x 1.732020 0.000000 0.000000 
#    y 0.000000 1.740060 0.000000 
#    z 0.000000 0.000000 1.678380 
# 
# From -- ./inp_files/4800.got.cif
#   From: 2010.06.25/outbox.cif.g09.slc.cpg/sg58_3_cif.got.tgz:4800.got - 2010.06.26 21:38:00.
