data_PCOD8236675
_publ_section_title
;
Structure prediction by ZEFSAII (Michael W. Deem and Ramdas Pophale) SiO2 
 PCOD8236675
Probable space group: P N N M
;
_chemical_formula_sum "Si O2"
_cell_formula_units_Z 48
_cell_length_a 14.609472
_cell_length_b 14.476712
_cell_length_c 12.174781
_cell_angle_alpha 90.000000
_cell_angle_beta 90.000000
_cell_angle_gamma 90.000000
_cell_volume 2574.931101
_symmetry_space_group_name_H-M "P N N M"
_symmetry_group_IT_number 58
_symmetry_cell_setting 'orthorhombic'
loop_
_space_group_symop_operation_xyz
x,y,z
-x,-y,z
1/2+x,1/2-y,1/2-z
1/2-x,1/2+y,1/2-z
-x,-y,-z
x,y,-z
1/2-x,1/2+y,1/2+z
1/2+x,1/2-y,1/2+z
loop_
_atom_site_type_symbol
_atom_site_label
_atom_site_fract_x
_atom_site_fract_y
_atom_site_fract_z
Si Si1 0.697950 0.360153 0.791059
Si Si2 0.145594 0.041134 0.500000
Si Si3 0.994955 0.769577 0.282110
Si Si4 0.940918 0.583661 0.623654
Si Si5 0.660682 0.707062 0.368623
Si Si6 0.452363 0.358287 0.000000
Si Si7 0.263003 0.485278 0.622502
O O1 0.592836 0.334679 0.764726
O O2 0.761858 0.270977 0.811341
O O3 0.733424 0.420651 0.690336
O O4 0.703727 0.427741 0.895243
O O5 0.049040 0.091573 0.500000
O O6 0.131334 0.930859 0.500000
O O7 0.956358 0.667459 0.294850
O O8 0.059907 0.768678 0.175596
O O9 0.054240 0.797484 0.389569
O O10 0.971745 0.611059 0.500000
O O11 0.836932 0.556097 0.624333
O O12 0.000000 0.500000 0.670301
O O13 0.666212 0.720926 0.500000
O O14 0.673884 0.599366 0.335432
O O15 0.292396 0.513495 0.500000
#
# Coordination Sequence:
#
# PCOD8236675 Si02
#       7
#     8   4   8   8   8   4   8
#     4  11  21  39  63  87 124 168 204 254 308 370
#     4   9  18  32  58  84 120 157 197 248 307 370
#     4  11  21  36  64  90 122 160 209 254 309 363
#     4  10  19  35  60  89 118 155 204 258 302 353
#     4  11  23  40  62  90 125 171 205 244 316 382
#     4   9  18  32  55  94 115 143 204 263 309 346
#     4  10  22  38  62  90 122 161 208 256 308 364
#
# _framework density 18.641275
#
# number of rings (size 3 to 8) (size 9 to 14) (size 15 to 20)
#    0.000    1.667    3.333    2.000    0.000    2.667 
#    1.500    1.667    1.833    1.500    0.000    0.000 
#    0.000    0.000    0.000    0.000    0.000    0.000 
#
# Total GULP energy -595150.405970 kJ/mol
# GULP energy per Si atom -12398.966791 kJ/mol
# Density = 1.859885 g / cm^3
# Si number density = 18.641275 Si / 1000 Ang^3
#
#
#
# Elastic Constant Matrix: (Units=GPa)
#
#
# Indices 1 2 3 4 5 6 
#
# 1 60.4304 16.3086 26.3996 0.0000 0.0000 0.0000
# 2 16.3086 91.8860 48.6545 0.0000 0.0000 0.0000
# 3 26.3996 48.6545 81.9792 0.0000 0.0000 0.0000
# 4 0.0000 0.0000 0.0000 46.8773 0.0000 0.0000
# 5 0.0000 0.0000 0.0000 0.0000 31.9364 0.0000
# 6 0.0000 0.0000 0.0000 0.0000 0.0000 28.1659
#
#
#
# Elastic Compliance Matrix: (Units=1/GPa)
#
#
# Indices 1 2 3 4 5 6 
#
# 1 0.019259 -0.000196 -0.006086 0.000000 0.000000 0.000000
# 2 -0.000196 0.015873 -0.009357 0.000000 0.000000 0.000000
# 3 -0.006086 -0.009357 0.019712 0.000000 0.000000 0.000000
# 4 0.000000 0.000000 0.000000 0.021332 0.000000 0.000000
# 5 0.000000 0.000000 0.000000 0.000000 0.031312 0.000000
# 6 0.000000 0.000000 0.000000 0.000000 0.000000 0.035504
#
#
# Mechanical properties :
#
#
# Convention : Reuss Voigt Hill
#
# Bulk Modulus (GPa) = 42.43458 46.33569 44.38513
# Shear Modulus (GPa) = 27.45364 30.92479 29.18922
#
# Velocity S-wave (km/s) = 3.84179 4.07743 3.96136
# Velocity P-wave (km/s) = 6.51861 6.86132 6.69216
#
# Compressibility (1/GPa) = 0.02356569
#
# Stress axis : x y z
#
# Youngs Moduli (GPa) = 51.92247 63.00175 50.73161
#
# Poissons Ratio (x) = 0.01233 0.30875
# Poissons Ratio (y) = 0.01017 0.47471
# Poissons Ratio (z) = 0.31600 0.58953
#
# Static dielectric constant tensor:
#      x y z
#    x 3.289240 0.000000 0.000000 
#    y 0.000000 3.382020 0.000000 
#    z 0.000000 0.000000 3.393490 
# 
# 
# High freq. dielectric constant tensor:
#      x y z
#    x 1.714260 0.000000 0.000000 
#    y 0.000000 1.733750 0.000000 
#    z 0.000000 0.000000 1.711650 
# 
# From -- ./inp_files/15615.got.cif
#   From: 2010.06.25/outbox.cif.g09.slc.cpg/sg58_8_cif.got.tgz:15615.got - 2010.06.26 21:38:00.
