data_PCOD8236893
_publ_section_title
;
Structure prediction by ZEFSAII (Michael W. Deem and Ramdas Pophale) SiO2 
 PCOD8236893
Probable space group: P N N M
;
_chemical_formula_sum "Si O2"
_cell_formula_units_Z 52
_cell_length_a 8.650505
_cell_length_b 12.516506
_cell_length_c 25.392098
_cell_angle_alpha 90.000000
_cell_angle_beta 90.000000
_cell_angle_gamma 90.000000
_cell_volume 2749.306501
_symmetry_space_group_name_H-M "P N N M"
_symmetry_group_IT_number 58
_symmetry_cell_setting 'orthorhombic'
loop_
_space_group_symop_operation_xyz
x,y,z
-x,-y,z
1/2+x,1/2-y,1/2-z
1/2-x,1/2+y,1/2-z
-x,-y,-z
x,y,-z
1/2-x,1/2+y,1/2+z
1/2+x,1/2-y,1/2+z
loop_
_atom_site_type_symbol
_atom_site_label
_atom_site_fract_x
_atom_site_fract_y
_atom_site_fract_z
Si Si1 0.522350 0.810020 0.253221
Si Si2 0.836137 0.949222 0.846165
Si Si3 0.908327 0.390373 0.058683
Si Si4 0.500000 0.000000 0.172452
Si Si5 0.369201 0.795716 0.363524
Si Si6 0.652312 0.388447 0.768671
Si Si7 0.833117 0.004372 0.376545
O O1 0.486392 0.896730 0.209095
O O2 0.426107 0.833598 0.306223
O O3 0.492886 0.692162 0.229508
O O4 0.700510 0.810544 0.269413
O O5 0.816976 0.826447 0.863282
O O6 0.850480 0.960895 0.783435
O O7 0.664516 0.999299 0.861300
O O8 0.000000 0.000000 0.869560
O O9 0.754138 0.414460 0.090527
O O10 0.000000 0.500000 0.055321
O O11 0.999058 0.301794 0.091959
O O12 0.874150 0.346015 0.000000
O O13 0.232903 0.875836 0.380655
O O14 0.654468 0.471278 0.815783
O O15 0.000000 0.000000 0.403033
#
# Coordination Sequence:
#
# PCOD8236893 Si02
#       7
#     8   8   8   4   8   8   8
#     4  10  20  32  49  74 107 150 187 225 265 326
#     4  10  22  36  53  78 111 154 190 228 271 330
#     4   9  19  37  59  80 106 143 185 234 286 337
#     4  10  22  32  50  74 114 148 184 234 266 326
#     4  10  20  37  54  79 107 143 191 226 274 342
#     4  10  21  32  50  76 111 151 187 225 271 334
#     4  11  22  32  54  83 114 145 180 231 288 343
#
# _framework density 18.913861000000001
#
# number of rings (size 3 to 8) (size 9 to 14) (size 15 to 20)
#    0.000    2.000    1.538    2.308   11.846    0.308 
#    0.000    0.000    0.000    0.462    0.000    0.538 
#    0.000    0.000    0.000    0.000    0.000    0.000 
#
# Total GULP energy -644259.645559 kJ/mol
# GULP energy per Si atom -12389.608568 kJ/mol
# Density = 1.887081 g / cm^3
# Si number density = 18.913861 Si / 1000 Ang^3
#
#
#
# Elastic Constant Matrix: (Units=GPa)
#
#
# Indices 1 2 3 4 5 6 
#
# 1 145.9832 43.8258 17.6561 0.0000 0.0000 0.0000
# 2 43.8258 71.7821 18.9243 0.0000 0.0000 0.0000
# 3 17.6561 18.9243 64.6698 0.0000 0.0000 0.0000
# 4 0.0000 0.0000 0.0000 12.7576 0.0000 0.0000
# 5 0.0000 0.0000 0.0000 0.0000 1.9939 0.0000
# 6 0.0000 0.0000 0.0000 0.0000 0.0000 29.7363
#
#
#
# Elastic Compliance Matrix: (Units=1/GPa)
#
#
# Indices 1 2 3 4 5 6 
#
# 1 0.008432 -0.004921 -0.000862 0.000000 0.000000 0.000000
# 2 -0.004921 0.017967 -0.003914 0.000000 0.000000 0.000000
# 3 -0.000862 -0.003914 0.016844 0.000000 0.000000 0.000000
# 4 0.000000 0.000000 0.000000 0.078385 0.000000 0.000000
# 5 0.000000 0.000000 0.000000 0.000000 0.501526 0.000000
# 6 0.000000 0.000000 0.000000 0.000000 0.000000 0.033629
#
#
# Mechanical properties :
#
#
# Convention : Reuss Voigt Hill
#
# Bulk Modulus (GPa) = 41.93076 49.24972 45.59024
# Shear Modulus (GPa) = 7.30860 22.36615 14.83738
#
# Velocity S-wave (km/s) = 1.96788 3.44252 2.80388
# Velocity P-wave (km/s) = 5.23267 6.47277 5.88547
#
# Compressibility (1/GPa) = 0.02384884
#
# Stress axis : x y z
#
# Youngs Moduli (GPa) = 118.60190 55.65701 59.36837
#
# Poissons Ratio (x) = 0.27386 0.05118
# Poissons Ratio (y) = 0.58358 0.23239
# Poissons Ratio (z) = 0.10225 0.21786
#
# Static dielectric constant tensor:
#      x y z
#    x 4.020810 0.000000 0.000000 
#    y 0.000000 3.359420 0.000000 
#    z 0.000000 0.000000 3.300000 
# 
# 
# High freq. dielectric constant tensor:
#      x y z
#    x 1.755440 0.000000 0.000000 
#    y 0.000000 1.724750 0.000000 
#    z 0.000000 0.000000 1.680650 
# 
# From -- ./inp_files/33292.got.cif
#   From: 2010.06.25/outbox.cif.g09.slc.cpg/sg58_17_cif.got.tgz:33292.got - 2010.06.26 21:38:00.
