data_PCOD8236273
_publ_section_title
;
Structure prediction by ZEFSAII (Michael W. Deem and Ramdas Pophale) SiO2 
 PCOD8236273
Probable space group: P N N M
;
_chemical_formula_sum "Si O2"
_cell_formula_units_Z 64
_cell_length_a 27.226882
_cell_length_b 12.956329
_cell_length_c 8.996824
_cell_angle_alpha 90.000000
_cell_angle_beta 90.000000
_cell_angle_gamma 90.000000
_cell_volume 3173.723600
_symmetry_space_group_name_H-M "P N N M"
_symmetry_group_IT_number 58
_symmetry_cell_setting 'orthorhombic'
loop_
_space_group_symop_operation_xyz
x,y,z
-x,-y,z
1/2+x,1/2-y,1/2-z
1/2-x,1/2+y,1/2-z
-x,-y,-z
x,y,-z
1/2-x,1/2+y,1/2+z
1/2+x,1/2-y,1/2+z
loop_
_atom_site_type_symbol
_atom_site_label
_atom_site_fract_x
_atom_site_fract_y
_atom_site_fract_z
Si Si1 0.447453 0.275363 0.174926
Si Si2 0.452577 0.703313 0.323747
Si Si3 0.731048 0.842604 0.166015
Si Si4 0.196066 0.039709 0.675697
Si Si5 0.375320 0.090314 0.176061
Si Si6 0.767504 0.626751 0.833144
Si Si7 0.587205 0.496048 0.824004
Si Si8 0.876635 0.621873 0.176475
O O1 0.496425 0.249882 0.265985
O O2 0.408182 0.188473 0.222039
O O3 0.428397 0.388812 0.221324
O O4 0.458451 0.271045 0.000000
O O5 0.453204 0.691798 0.500000
O O6 0.446687 0.589782 0.252587
O O7 0.410168 0.782399 0.269561
O O8 0.680376 0.887721 0.232569
O O9 0.728573 0.719539 0.163501
O O10 0.779987 0.854743 0.267823
O O11 0.739985 0.885829 0.000000
O O12 0.193548 0.030527 0.500000
O O13 0.236230 0.961606 0.749114
O O14 0.142040 0.021593 0.739598
O O15 0.395328 0.986262 0.253231
O O16 0.376229 0.075691 0.000000
O O17 0.821405 0.644932 0.761970
O O18 0.778994 0.589724 0.000000
O O19 0.583658 0.479794 0.000000
O O20 0.880428 0.612667 0.000000
#
# Coordination Sequence:
#
# PCOD8236273 Si02
#       8
#     8   8   8   8   8   8   8   8
#     4  10  22  41  62  85 114 152 196 244 300 352
#     4  11  24  40  60  87 115 151 196 245 301 352
#     4  10  19  33  54  81 113 148 186 230 277 330
#     4  10  19  33  55  82 110 145 186 221 267 334
#     4  10  21  37  59  86 116 151 196 245 289 340
#     4   9  17  32  54  77 108 149 183 217 271 335
#     4  10  21  38  61  88 117 151 193 240 290 353
#     4  10  21  38  58  81 116 157 194 234 288 351
#
# _framework density 20.165586999999999
#
# number of rings (size 3 to 8) (size 9 to 14) (size 15 to 20)
#    0.000    2.000    1.250    2.250    0.000    8.500 
#    0.000    3.750    0.000    3.000    0.000    0.000 
#    0.000    0.000    0.000    0.000    0.000    0.000 
#
# Total GULP energy -793254.996689 kJ/mol
# GULP energy per Si atom -12394.609323 kJ/mol
# Density = 2.011969 g / cm^3
# Si number density = 20.165587 Si / 1000 Ang^3
#
#
#
# Elastic Constant Matrix: (Units=GPa)
#
#
# Indices 1 2 3 4 5 6 
#
# 1 97.9144 21.3520 22.6222 0.0000 0.0000 0.0000
# 2 21.3520 99.6425 24.4412 0.0000 0.0000 0.0000
# 3 22.6222 24.4412 27.9291 0.0000 0.0000 0.0000
# 4 0.0000 0.0000 0.0000 26.5590 0.0000 0.0000
# 5 0.0000 0.0000 0.0000 0.0000 27.9801 0.0000
# 6 0.0000 0.0000 0.0000 0.0000 0.0000 36.8145
#
#
#
# Elastic Compliance Matrix: (Units=1/GPa)
#
#
# Indices 1 2 3 4 5 6 
#
# 1 0.012569 -0.000250 -0.009962 0.000000 0.000000 0.000000
# 2 -0.000250 0.012784 -0.010985 0.000000 0.000000 0.000000
# 3 -0.009962 -0.010985 0.053488 0.000000 0.000000 0.000000
# 4 0.000000 0.000000 0.000000 0.037652 0.000000 0.000000
# 5 0.000000 0.000000 0.000000 0.000000 0.035740 0.000000
# 6 0.000000 0.000000 0.000000 0.000000 0.000000 0.027163
#
#
# Mechanical properties :
#
#
# Convention : Reuss Voigt Hill
#
# Bulk Modulus (GPa) = 27.43763 40.25743 33.84753
# Shear Modulus (GPa) = 21.37311 28.74208 25.05760
#
# Velocity S-wave (km/s) = 3.25911 3.77941 3.52887
# Velocity P-wave (km/s) = 5.27239 6.24917 5.78144
#
# Compressibility (1/GPa) = 0.03644629
#
# Stress axis : x y z
#
# Youngs Moduli (GPa) = 79.55974 78.22317 18.69592
#
# Poissons Ratio (x) = 0.01954 0.18625
# Poissons Ratio (y) = 0.01987 0.20538
# Poissons Ratio (z) = 0.79260 0.85929
#
# Static dielectric constant tensor:
#      x y z
#    x 3.872550 0.000000 0.000000 
#    y 0.000000 3.684860 0.000000 
#    z 0.000000 0.000000 3.385460 
# 
# 
# High freq. dielectric constant tensor:
#      x y z
#    x 1.796720 0.000000 0.000000 
#    y 0.000000 1.796640 0.000000 
#    z 0.000000 0.000000 1.757440 
# 
# From -- ./inp_files/10019.got.cif
#   From: 2010.06.25/outbox.cif.g09.slc.cpg/sg58_6_cif.got.tgz:10019.got - 2010.06.26 21:38:00.
