data_PCOD8236907
_publ_section_title
;
Structure prediction by ZEFSAII (Michael W. Deem and Ramdas Pophale) SiO2 
 PCOD8236907
Probable space group: P N N M
;
_chemical_formula_sum "Si O2"
_cell_formula_units_Z 64
_cell_length_a 8.633462
_cell_length_b 16.620041
_cell_length_c 27.675822
_cell_angle_alpha 90.000000
_cell_angle_beta 90.000000
_cell_angle_gamma 90.000000
_cell_volume 3971.161975
_symmetry_space_group_name_H-M "P N N M"
_symmetry_group_IT_number 58
_symmetry_cell_setting 'orthorhombic'
loop_
_space_group_symop_operation_xyz
x,y,z
-x,-y,z
1/2+x,1/2-y,1/2-z
1/2-x,1/2+y,1/2-z
-x,-y,-z
x,y,-z
1/2-x,1/2+y,1/2+z
1/2+x,1/2-y,1/2+z
loop_
_atom_site_type_symbol
_atom_site_label
_atom_site_fract_x
_atom_site_fract_y
_atom_site_fract_z
Si Si1 0.094957 0.074737 0.797864
Si Si2 0.147749 0.359740 0.351876
Si Si3 0.202545 0.925163 0.055427
Si Si4 0.678188 0.189644 0.296357
Si Si5 0.122065 0.779549 0.210702
Si Si6 0.299546 0.187322 0.137102
Si Si7 0.144344 0.109611 0.054259
Si Si8 0.334541 0.967017 0.756926
O O1 0.201442 0.116805 0.837389
O O2 0.973558 0.138733 0.776086
O O3 0.205710 0.037408 0.756090
O O4 0.000000 0.000000 0.821894
O O5 0.174763 0.391504 0.406029
O O6 0.276592 0.292655 0.337988
O O7 0.157709 0.428275 0.310653
O O8 0.979411 0.320387 0.351600
O O9 0.034125 0.892757 0.071669
O O10 0.215082 0.020915 0.058408
O O11 0.240933 0.898144 0.000000
O O12 0.761903 0.242220 0.254357
O O13 0.493764 0.205175 0.295758
O O14 0.747716 0.222885 0.346575
O O15 0.709814 0.096472 0.285274
O O16 0.251690 0.174544 0.081726
O O17 0.148637 0.140670 0.000000
O O18 0.500000 0.000000 0.742263
#
# Coordination Sequence:
#
# PCOD8236907 Si02
#       8
#     8   8   8   8   8   8   8   8
#     4  11  19  31  47  67  86 126 154 197 229 282
#     4  11  20  31  45  66  94 126 162 200 232 275
#     4   9  18  31  47  68  92 123 162 203 236 269
#     4  10  20  33  46  66  89 123 156 201 233 288
#     4  10  21  31  47  64  93 121 164 193 243 275
#     4  11  22  31  48  65  94 123 162 193 238 280
#     4   9  19  32  47  66  92 124 161 199 238 278
#     4  11  21  33  47  70  93 120 164 198 241 275
#
# _framework density 16.116188999999999
#
# number of rings (size 3 to 8) (size 9 to 14) (size 15 to 20)
#    0.000    1.750    3.750    4.500    3.500    0.500 
#    0.000    1.250    0.000    0.000    0.000    0.000 
#    0.000    0.500    0.000    2.250    0.000    0.875 
#
# Total GULP energy -793194.833829 kJ/mol
# GULP energy per Si atom -12393.669279 kJ/mol
# Density = 1.607951 g / cm^3
# Si number density = 16.116189 Si / 1000 Ang^3
#
#
#
# Elastic Constant Matrix: (Units=GPa)
#
#
# Indices 1 2 3 4 5 6 
#
# 1 97.0425 20.8920 27.0827 0.0000 0.0000 0.0000
# 2 20.8920 40.3391 22.8924 0.0000 0.0000 0.0000
# 3 27.0827 22.8924 64.3191 0.0000 0.0000 0.0000
# 4 0.0000 0.0000 0.0000 25.6874 0.0000 0.0000
# 5 0.0000 0.0000 0.0000 0.0000 24.1086 0.0000
# 6 0.0000 0.0000 0.0000 0.0000 0.0000 24.6494
#
#
#
# Elastic Compliance Matrix: (Units=1/GPa)
#
#
# Indices 1 2 3 4 5 6 
#
# 1 0.012239 -0.004278 -0.003631 0.000000 0.000000 0.000000
# 2 -0.004278 0.032560 -0.009787 0.000000 0.000000 0.000000
# 3 -0.003631 -0.009787 0.020560 0.000000 0.000000 0.000000
# 4 0.000000 0.000000 0.000000 0.038930 0.000000 0.000000
# 5 0.000000 0.000000 0.000000 0.000000 0.041479 0.000000
# 6 0.000000 0.000000 0.000000 0.000000 0.000000 0.040569
#
#
# Mechanical properties :
#
#
# Convention : Reuss Voigt Hill
#
# Bulk Modulus (GPa) = 33.37100 38.15942 35.76521
# Shear Modulus (GPa) = 21.57803 23.61134 22.59468
#
# Velocity S-wave (km/s) = 3.66307 3.83178 3.74837
# Velocity P-wave (km/s) = 6.21629 6.58071 6.40109
#
# Compressibility (1/GPa) = 0.02996614
#
# Stress axis : x y z
#
# Youngs Moduli (GPa) = 81.70540 30.71274 48.63880
#
# Poissons Ratio (x) = 0.13140 0.17660
# Poissons Ratio (y) = 0.34956 0.47604
# Poissons Ratio (z) = 0.29665 0.30059
#
# Static dielectric constant tensor:
#      x y z
#    x 3.344990 0.000000 0.000000 
#    y 0.000000 2.843120 0.000000 
#    z 0.000000 0.000000 2.911360 
# 
# 
# High freq. dielectric constant tensor:
#      x y z
#    x 1.643700 0.000000 0.000000 
#    y 0.000000 1.580160 0.000000 
#    z 0.000000 0.000000 1.587590 
# 
# From -- ./inp_files/33409.got.cif
#   From: 2010.06.25/outbox.cif.g09.slc.cpg/sg58_17_cif.got.tgz:33409.got - 2010.06.26 21:38:00.
