data_PCOD8236149
_publ_section_title
;
Structure prediction by ZEFSAII (Michael W. Deem and Ramdas Pophale) SiO2 
 PCOD8236149
Probable space group: P N N M
;
_chemical_formula_sum "Si O2"
_cell_formula_units_Z 56
_cell_length_a 23.750987
_cell_length_b 13.340977
_cell_length_c 9.162583
_cell_angle_alpha 90.000000
_cell_angle_beta 90.000000
_cell_angle_gamma 90.000000
_cell_volume 2903.268614
_symmetry_space_group_name_H-M "P N N M"
_symmetry_group_IT_number 58
_symmetry_cell_setting 'orthorhombic'
loop_
_space_group_symop_operation_xyz
x,y,z
-x,-y,z
1/2+x,1/2-y,1/2-z
1/2-x,1/2+y,1/2-z
-x,-y,-z
x,y,-z
1/2-x,1/2+y,1/2+z
1/2+x,1/2-y,1/2+z
loop_
_atom_site_type_symbol
_atom_site_label
_atom_site_fract_x
_atom_site_fract_y
_atom_site_fract_z
Si Si1 0.550832 0.725470 0.169007
Si Si2 0.129792 0.386721 0.829214
Si Si3 0.939892 0.455084 0.329911
Si Si4 0.272539 0.780883 0.170734
Si Si5 0.939176 0.809854 0.829877
Si Si6 0.170569 0.862143 0.668135
Si Si7 0.657928 0.411656 0.831891
O O1 0.561878 0.839588 0.215748
O O2 0.500404 0.677456 0.260472
O O3 0.605947 0.661340 0.204611
O O4 0.533716 0.720320 0.000000
O O5 0.107870 0.490705 0.764266
O O6 0.188410 0.361028 0.752385
O O7 0.084048 0.300949 0.794835
O O8 0.141213 0.398892 0.000000
O O9 0.926664 0.471701 0.500000
O O10 0.000000 0.500000 0.287041
O O11 0.209595 0.792704 0.231353
O O12 0.293163 0.668115 0.205294
O O13 0.273898 0.804263 0.000000
O O14 0.897424 0.892183 0.763404
O O15 0.943779 0.830579 0.000000
O O16 0.183860 0.836825 0.500000
O O17 0.182038 0.978660 0.703831
O O18 0.639370 0.403272 0.000000
#
# Coordination Sequence:
#
# PCOD8236149 Si02
#       7
#     8   8   8   8   8   8   8
#     4  10  21  36  55  80 114 153 187 229 282 335
#     4  10  20  34  55  82 112 148 188 230 276 328
#     4  10  19  32  53  82 116 150 186 228 278 334
#     4  10  21  38  60  82 107 142 185 228 276 329
#     4  10  20  34  55  83 112 144 186 231 276 327
#     4  10  22  40  59  82 112 145 185 229 276 329
#     4   9  20  39  61  81 107 145 184 223 272 333
#
# _framework density 19.288605
#
# number of rings (size 3 to 8) (size 9 to 14) (size 15 to 20)
#    0.000    2.143    1.429    1.286    0.000    5.429 
#    0.000    5.714    0.000    0.000    0.000    0.000 
#    0.000    0.000    0.000    0.000    0.000    0.000 
#
# Total GULP energy -694699.396976 kJ/mol
# GULP energy per Si atom -12405.346375 kJ/mol
# Density = 1.924470 g / cm^3
# Si number density = 19.288605 Si / 1000 Ang^3
#
#
#
# Elastic Constant Matrix: (Units=GPa)
#
#
# Indices 1 2 3 4 5 6 
#
# 1 102.2493 39.5079 56.7484 0.0000 0.0000 0.0000
# 2 39.5079 83.1166 36.2266 0.0000 0.0000 0.0000
# 3 56.7484 36.2266 84.3714 0.0000 0.0000 0.0000
# 4 0.0000 0.0000 0.0000 23.3280 0.0000 0.0000
# 5 0.0000 0.0000 0.0000 0.0000 39.2367 0.0000
# 6 0.0000 0.0000 0.0000 0.0000 0.0000 24.5035
#
#
#
# Elastic Compliance Matrix: (Units=1/GPa)
#
#
# Indices 1 2 3 4 5 6 
#
# 1 0.016478 -0.003693 -0.009498 0.000000 0.000000 0.000000
# 2 -0.003693 0.015629 -0.004227 0.000000 0.000000 0.000000
# 3 -0.009498 -0.004227 0.020055 0.000000 0.000000 0.000000
# 4 0.000000 0.000000 0.000000 0.042867 0.000000 0.000000
# 5 0.000000 0.000000 0.000000 0.000000 0.025486 0.000000
# 6 0.000000 0.000000 0.000000 0.000000 0.000000 0.040811
#
#
# Mechanical properties :
#
#
# Convention : Reuss Voigt Hill
#
# Bulk Modulus (GPa) = 57.71074 59.41146 58.56110
# Shear Modulus (GPa) = 24.76028 26.56394 25.66211
#
# Velocity S-wave (km/s) = 3.58673 3.71507 3.65146
# Velocity P-wave (km/s) = 6.86567 7.01929 6.94291
#
# Compressibility (1/GPa) = 0.01732780
#
# Stress axis : x y z
#
# Youngs Moduli (GPa) = 60.68665 63.98401 49.86236
#
# Poissons Ratio (x) = 0.23629 0.47357
# Poissons Ratio (y) = 0.22412 0.21075
# Poissons Ratio (z) = 0.57637 0.27044
#
# Static dielectric constant tensor:
#      x y z
#    x 3.400420 0.000000 0.000000 
#    y 0.000000 3.485240 0.000000 
#    z 0.000000 0.000000 3.454590 
# 
# 
# High freq. dielectric constant tensor:
#      x y z
#    x 1.748140 0.000000 0.000000 
#    y 0.000000 1.746400 0.000000 
#    z 0.000000 0.000000 1.749670 
# 
# From -- ./inp_files/8973.got.cif
#   From: 2010.06.25/outbox.cif.g09.slc.cpg/sg58_5_cif.got.tgz:8973.got - 2010.06.26 21:38:00.
