data_PCOD8236371
_publ_section_title
;
Structure prediction by ZEFSAII (Michael W. Deem and Ramdas Pophale) SiO2 
 PCOD8236371
Probable space group: P N N M
;
_chemical_formula_sum "Si O2"
_cell_formula_units_Z 48
_cell_length_a 13.206091
_cell_length_b 17.874763
_cell_length_c 9.523958
_cell_angle_alpha 90.000000
_cell_angle_beta 90.000000
_cell_angle_gamma 90.000000
_cell_volume 2248.185018
_symmetry_space_group_name_H-M "P N N M"
_symmetry_group_IT_number 58
_symmetry_cell_setting 'orthorhombic'
loop_
_space_group_symop_operation_xyz
x,y,z
-x,-y,z
1/2+x,1/2-y,1/2-z
1/2-x,1/2+y,1/2-z
-x,-y,-z
x,y,-z
1/2-x,1/2+y,1/2+z
1/2+x,1/2-y,1/2+z
loop_
_atom_site_type_symbol
_atom_site_label
_atom_site_fract_x
_atom_site_fract_y
_atom_site_fract_z
Si Si1 0.070323 0.801396 0.745133
Si Si2 0.721392 0.966323 0.832949
Si Si3 0.273132 0.881457 0.662469
Si Si4 0.440820 0.566914 0.658537
Si Si5 0.627750 0.237721 0.153679
Si Si6 0.811923 0.336884 0.155714
O O1 0.159128 0.848164 0.668858
O O2 0.117183 0.736104 0.838633
O O3 0.003374 0.856610 0.840299
O O4 0.989277 0.763621 0.640608
O O5 0.827949 0.931048 0.782021
O O6 0.649862 0.901413 0.765357
O O7 0.710301 0.045783 0.758240
O O8 0.701775 0.973603 0.000000
O O9 0.298965 0.898337 0.500000
O O10 0.354280 0.822735 0.723766
O O11 0.500000 0.500000 0.739261
O O12 0.424192 0.540868 0.500000
O O13 0.697309 0.309548 0.187535
O O14 0.657896 0.204572 0.000000
O O15 0.819979 0.371222 0.000000
#
# Coordination Sequence:
#
# PCOD8236371 Si02
#       6
#     8   8   8   8   8   8
#     4  11  21  39  62  94 124 162 204 253 305 366
#     4  11  22  39  62  88 123 163 206 253 305 365
#     4  11  24  40  62  92 126 161 203 253 308 364
#     4  10  19  33  57  90 124 159 198 245 303 364
#     4  10  22  40  61  88 125 164 204 248 303 365
#     4  10  22  38  60  90 126 164 204 254 307 362
#
# _framework density 21.350556999999998
#
# number of rings (size 3 to 8) (size 9 to 14) (size 15 to 20)
#    0.000    1.500    3.333    2.000    0.000    6.000 
#    0.000    1.667    0.000    4.000    0.000    0.000 
#    0.000    0.000    0.000    0.000    0.000    0.000 
#
# Total GULP energy -594626.754102 kJ/mol
# GULP energy per Si atom -12388.057377 kJ/mol
# Density = 2.130196 g / cm^3
# Si number density = 21.350557 Si / 1000 Ang^3
#
#
#
# Elastic Constant Matrix: (Units=GPa)
#
#
# Indices 1 2 3 4 5 6 
#
# 1 35.7657 20.7445 0.8615 0.0000 0.0000 0.0000
# 2 20.7445 136.9575 72.9376 0.0000 0.0000 0.0000
# 3 0.8615 72.9376 135.9968 0.0000 0.0000 0.0000
# 4 0.0000 0.0000 0.0000 34.6073 0.0000 0.0000
# 5 0.0000 0.0000 0.0000 0.0000 11.1479 0.0000
# 6 0.0000 0.0000 0.0000 0.0000 0.0000 30.9744
#
#
#
# Elastic Compliance Matrix: (Units=1/GPa)
#
#
# Indices 1 2 3 4 5 6 
#
# 1 0.031690 -0.006569 0.003323 0.000000 0.000000 0.000000
# 2 -0.006569 0.011583 -0.006170 0.000000 0.000000 0.000000
# 3 0.003323 -0.006170 0.010641 0.000000 0.000000 0.000000
# 4 0.000000 0.000000 0.000000 0.028896 0.000000 0.000000
# 5 0.000000 0.000000 0.000000 0.000000 0.089703 0.000000
# 6 0.000000 0.000000 0.000000 0.000000 0.000000 0.032285
#
#
# Mechanical properties :
#
#
# Convention : Reuss Voigt Hill
#
# Bulk Modulus (GPa) = 28.50663 55.31191 41.90927
# Shear Modulus (GPa) = 21.24719 29.62435 25.43577
#
# Velocity S-wave (km/s) = 3.15804 3.72899 3.45532
# Velocity P-wave (km/s) = 5.16510 6.67107 5.96580
#
# Compressibility (1/GPa) = 0.03507956
#
# Stress axis : x y z
#
# Youngs Moduli (GPa) = 31.55565 86.33597 93.97301
#
# Poissons Ratio (x) = 0.56718 -0.31223
# Poissons Ratio (y) = 0.20730 0.57985
# Poissons Ratio (z) = -0.10485 0.53273
#
# Static dielectric constant tensor:
#      x y z
#    x 3.858740 0.000000 0.000000 
#    y 0.000000 3.799320 0.000000 
#    z 0.000000 0.000000 3.545750 
# 
# 
# High freq. dielectric constant tensor:
#      x y z
#    x 1.821660 0.000000 0.000000 
#    y 0.000000 1.845850 0.000000 
#    z 0.000000 0.000000 1.825520 
# 
# From -- ./inp_files/5862.got.cif
#   From: 2010.06.25/outbox.cif.g09.slc.cpg/sg58_3_cif.got.tgz:5862.got - 2010.06.26 21:38:00.
