data_PCOD8236809
_publ_section_title
;
Structure prediction by ZEFSAII (Michael W. Deem and Ramdas Pophale) SiO2 
 PCOD8236809
Probable space group: P N N M
;
_chemical_formula_sum "Si O2"
_cell_formula_units_Z 48
_cell_length_a 8.776213
_cell_length_b 9.953204
_cell_length_c 27.948163
_cell_angle_alpha 90.000000
_cell_angle_beta 90.000000
_cell_angle_gamma 90.000000
_cell_volume 2441.312237
_symmetry_space_group_name_H-M "P N N M"
_symmetry_group_IT_number 58
_symmetry_cell_setting 'orthorhombic'
loop_
_space_group_symop_operation_xyz
x,y,z
-x,-y,z
1/2+x,1/2-y,1/2-z
1/2-x,1/2+y,1/2-z
-x,-y,-z
x,y,-z
1/2-x,1/2+y,1/2+z
1/2+x,1/2-y,1/2+z
loop_
_atom_site_type_symbol
_atom_site_label
_atom_site_fract_x
_atom_site_fract_y
_atom_site_fract_z
Si Si1 0.132801 0.227991 0.388705
Si Si2 0.678807 0.026285 0.052415
Si Si3 0.279203 0.414917 0.779801
Si Si4 0.605148 0.298302 0.777599
Si Si5 0.681415 0.733603 0.943969
Si Si6 0.326036 0.971293 0.382584
O O1 0.217541 0.361289 0.408441
O O2 0.110611 0.245915 0.332493
O O3 0.973679 0.202836 0.415320
O O4 0.242981 0.105183 0.399798
O O5 0.500000 0.000000 0.049854
O O6 0.749735 0.882211 0.066754
O O7 0.737551 0.073349 0.000000
O O8 0.435222 0.343181 0.764519
O O9 0.283391 0.574212 0.766324
O O10 0.145628 0.333654 0.753178
O O11 0.255429 0.405469 0.836611
O O12 0.812237 0.632707 0.926332
O O13 0.647223 0.714788 0.000000
O O14 0.500000 0.000000 0.370013
#
# Coordination Sequence:
#
# PCOD8236809 Si02
#       6
#     8   8   8   8   8   8
#     4  10  19  37  61  87 115 157 199 246 298 358
#     4   8  16  32  57  88 115 141 189 250 292 336
#     4  10  23  41  60  86 120 154 200 249 298 359
#     4  10  22  39  61  89 118 155 199 245 298 359
#     4  10  20  38  63  90 119 154 202 256 300 357
#     4  11  24  39  57  84 125 161 198 249 302 359
#
# _framework density 19.661556000000001
#
# number of rings (size 3 to 8) (size 9 to 14) (size 15 to 20)
#    0.000    2.167    1.667    2.000    4.667    3.667 
#    3.000    0.833    0.000    2.000    0.000    0.000 
#    0.000    0.000    0.000    0.000    0.000    0.000 
#
# Total GULP energy -595082.455739 kJ/mol
# GULP energy per Si atom -12397.551161 kJ/mol
# Density = 1.961681 g / cm^3
# Si number density = 19.661556 Si / 1000 Ang^3
#
#
#
# Elastic Constant Matrix: (Units=GPa)
#
#
# Indices 1 2 3 4 5 6 
#
# 1 54.1935 32.9993 24.0216 0.0000 0.0000 0.0000
# 2 32.9993 118.0058 71.3476 0.0000 0.0000 0.0000
# 3 24.0216 71.3476 92.5612 0.0000 0.0000 0.0000
# 4 0.0000 0.0000 0.0000 33.8987 0.0000 0.0000
# 5 0.0000 0.0000 0.0000 0.0000 18.3220 0.0000
# 6 0.0000 0.0000 0.0000 0.0000 0.0000 27.5901
#
#
#
# Elastic Compliance Matrix: (Units=1/GPa)
#
#
# Indices 1 2 3 4 5 6 
#
# 1 0.022406 -0.005150 -0.001845 0.000000 0.000000 0.000000
# 2 -0.005150 0.017054 -0.011809 0.000000 0.000000 0.000000
# 3 -0.001845 -0.011809 0.020385 0.000000 0.000000 0.000000
# 4 0.000000 0.000000 0.000000 0.029500 0.000000 0.000000
# 5 0.000000 0.000000 0.000000 0.000000 0.054579 0.000000
# 6 0.000000 0.000000 0.000000 0.000000 0.000000 0.036245
#
#
# Mechanical properties :
#
#
# Convention : Reuss Voigt Hill
#
# Bulk Modulus (GPa) = 44.97018 57.94418 51.45718
# Shear Modulus (GPa) = 22.20342 25.05496 23.62919
#
# Velocity S-wave (km/s) = 3.36412 3.57362 3.47045
# Velocity P-wave (km/s) = 6.16535 6.82367 6.50285
#
# Compressibility (1/GPa) = 0.02223696
#
# Stress axis : x y z
#
# Youngs Moduli (GPa) = 44.63041 58.63627 49.05524
#
# Poissons Ratio (x) = 0.30199 0.09051
# Poissons Ratio (y) = 0.22985 0.57930
# Poissons Ratio (z) = 0.08235 0.69244
#
# Static dielectric constant tensor:
#      x y z
#    x 3.256980 0.000000 0.000000 
#    y 0.000000 4.081940 0.000000 
#    z 0.000000 0.000000 3.512920 
# 
# 
# High freq. dielectric constant tensor:
#      x y z
#    x 1.734500 0.000000 0.000000 
#    y 0.000000 1.781290 0.000000 
#    z 0.000000 0.000000 1.763870 
# 
# From -- ./inp_files/34553.got.cif
#   From: 2010.06.25/outbox.cif.g09.slc.cpg/sg58_18_cif.got.tgz:34553.got - 2010.06.26 21:38:00.
