data_PCOD8236980
_publ_section_title
;
Structure prediction by ZEFSAII (Michael W. Deem and Ramdas Pophale) SiO2 
 PCOD8236980
Probable space group: P N N M
;
_chemical_formula_sum "Si O2"
_cell_formula_units_Z 64
_cell_length_a 12.799572
_cell_length_b 27.702729
_cell_length_c 9.196326
_cell_angle_alpha 90.000000
_cell_angle_beta 90.000000
_cell_angle_gamma 90.000000
_cell_volume 3260.861547
_symmetry_space_group_name_H-M "P N N M"
_symmetry_group_IT_number 58
_symmetry_cell_setting 'orthorhombic'
loop_
_space_group_symop_operation_xyz
x,y,z
-x,-y,z
1/2+x,1/2-y,1/2-z
1/2-x,1/2+y,1/2-z
-x,-y,-z
x,y,-z
1/2-x,1/2+y,1/2+z
1/2+x,1/2-y,1/2+z
loop_
_atom_site_type_symbol
_atom_site_label
_atom_site_fract_x
_atom_site_fract_y
_atom_site_fract_z
Si Si1 0.147576 0.409637 0.156091
Si Si2 0.666066 0.612742 0.332710
Si Si3 0.535856 0.946200 0.840961
Si Si4 0.248538 0.093136 0.829676
Si Si5 0.031586 0.053226 0.827281
Si Si6 0.740015 0.720648 0.328893
Si Si7 0.858978 0.309593 0.673750
Si Si8 0.930376 0.692668 0.161502
O O1 0.247803 0.421021 0.254322
O O2 0.143142 0.352744 0.132420
O O3 0.038069 0.422654 0.224926
O O4 0.159667 0.435985 0.000000
O O5 0.682653 0.600797 0.500000
O O6 0.553188 0.593755 0.280259
O O7 0.681742 0.669479 0.302162
O O8 0.655160 0.941911 0.784870
O O9 0.500000 0.000000 0.861162
O O10 0.528089 0.919949 0.000000
O O11 0.141884 0.072077 0.758530
O O12 0.276834 0.148133 0.782705
O O13 0.230491 0.092377 0.000000
O O14 0.040067 0.049851 0.000000
O O15 0.000000 0.000000 0.766222
O O16 0.749171 0.731432 0.500000
O O17 0.669673 0.759565 0.248325
O O18 0.855554 0.726849 0.258442
O O19 0.867901 0.303783 0.500000
O O20 0.970355 0.323090 0.743096
O O21 0.959156 0.714752 0.000000
#
# Coordination Sequence:
#
# PCOD8236980 Si02
#       8
#     8   8   8   8   8   8   8   8
#     4  10  20  34  55  80 111 146 183 231 289 346
#     4   9  19  35  57  83 112 148 191 241 290 341
#     4  10  20  33  55  84 114 145 186 235 287 349
#     4   9  19  34  52  84 120 149 185 236 293 345
#     4   9  18  33  57  86 114 146 191 242 290 342
#     4  10  21  36  55  83 116 151 196 242 293 354
#     4  11  21  35  57  83 118 155 189 235 293 354
#     4  10  20  36  56  79 109 146 189 237 291 348
#
# _framework density 19.626714
#
# number of rings (size 3 to 8) (size 9 to 14) (size 15 to 20)
#    0.000    2.250    1.250    1.500    1.750    2.750 
#    0.000    2.500    0.000    2.625    0.000    0.000 
#    0.000    0.000    0.000    0.000    0.000    0.000 
#
# Total GULP energy -792974.657286 kJ/mol
# GULP energy per Si atom -12390.229020 kJ/mol
# Density = 1.958204 g / cm^3
# Si number density = 19.626714 Si / 1000 Ang^3
#
#
#
# Elastic Constant Matrix: (Units=GPa)
#
#
# Indices 1 2 3 4 5 6 
#
# 1 164.0088 55.5781 54.4000 0.0000 0.0000 0.0000
# 2 55.5781 79.2134 36.8311 0.0000 0.0000 0.0000
# 3 54.4000 36.8311 97.8403 0.0000 0.0000 0.0000
# 4 0.0000 0.0000 0.0000 18.1392 0.0000 0.0000
# 5 0.0000 0.0000 0.0000 0.0000 21.7524 0.0000
# 6 0.0000 0.0000 0.0000 0.0000 0.0000 25.3158
#
#
#
# Elastic Compliance Matrix: (Units=1/GPa)
#
#
# Indices 1 2 3 4 5 6 
#
# 1 0.008703 -0.004674 -0.003079 0.000000 0.000000 0.000000
# 2 -0.004674 0.017813 -0.004107 0.000000 0.000000 0.000000
# 3 -0.003079 -0.004107 0.013479 0.000000 0.000000 0.000000
# 4 0.000000 0.000000 0.000000 0.055129 0.000000 0.000000
# 5 0.000000 0.000000 0.000000 0.000000 0.045972 0.000000
# 6 0.000000 0.000000 0.000000 0.000000 0.000000 0.039501
#
#
# Mechanical properties :
#
#
# Convention : Reuss Voigt Hill
#
# Bulk Modulus (GPa) = 61.44666 70.52012 65.98339
# Shear Modulus (GPa) = 23.83888 25.99169 24.91529
#
# Velocity S-wave (km/s) = 3.48891 3.64304 3.56681
# Velocity P-wave (km/s) = 6.89968 7.32833 7.11723
#
# Compressibility (1/GPa) = 0.01627428
#
# Stress axis : x y z
#
# Youngs Moduli (GPa) = 114.90941 56.13839 74.19138
#
# Poissons Ratio (x) = 0.26240 0.22844
# Poissons Ratio (y) = 0.53711 0.30468
# Poissons Ratio (z) = 0.35382 0.23054
#
# Static dielectric constant tensor:
#      x y z
#    x 3.796830 0.000000 0.000000 
#    y 0.000000 3.055330 0.000000 
#    z 0.000000 0.000000 3.638230 
# 
# 
# High freq. dielectric constant tensor:
#      x y z
#    x 1.771260 0.000000 0.000000 
#    y 0.000000 1.751310 0.000000 
#    z 0.000000 0.000000 1.744570 
# 
# From -- ./inp_files/4761.got.cif
#   From: 2010.06.25/outbox.cif.g09.slc.cpg/sg58_3_cif.got.tgz:4761.got - 2010.06.26 21:38:00.
