data_PCOD8236832
_publ_section_title
;
Structure prediction by ZEFSAII (Michael W. Deem and Ramdas Pophale) SiO2 
 PCOD8236832
Probable space group: P N N M
;
_chemical_formula_sum "Si O2"
_cell_formula_units_Z 64
_cell_length_a 11.725962
_cell_length_b 19.126093
_cell_length_c 13.842821
_cell_angle_alpha 90.000000
_cell_angle_beta 90.000000
_cell_angle_gamma 90.000000
_cell_volume 3104.554933
_symmetry_space_group_name_H-M "P N N M"
_symmetry_group_IT_number 58
_symmetry_cell_setting 'orthorhombic'
loop_
_space_group_symop_operation_xyz
x,y,z
-x,-y,z
1/2+x,1/2-y,1/2-z
1/2-x,1/2+y,1/2-z
-x,-y,-z
x,y,-z
1/2-x,1/2+y,1/2+z
1/2+x,1/2-y,1/2+z
loop_
_atom_site_type_symbol
_atom_site_label
_atom_site_fract_x
_atom_site_fract_y
_atom_site_fract_z
Si Si1 0.779466 0.894879 0.612303
Si Si2 0.572813 0.369164 0.395344
Si Si3 0.372144 0.003915 0.259618
Si Si4 0.750482 0.633683 0.205995
Si Si5 0.486152 0.419918 0.798690
Si Si6 0.335502 0.220550 0.271715
Si Si7 0.676309 0.887106 0.110042
Si Si8 0.058357 0.287805 0.105589
O O1 0.750105 0.897594 0.500000
O O2 0.915369 0.899365 0.626918
O O3 0.749531 0.820532 0.658281
O O4 0.709631 0.956405 0.664555
O O5 0.514845 0.387128 0.500000
O O6 0.489159 0.383728 0.306941
O O7 0.691074 0.410744 0.383907
O O8 0.612940 0.288790 0.394790
O O9 0.315733 0.928250 0.235323
O O10 0.500000 0.000000 0.304414
O O11 0.388139 0.048825 0.161664
O O12 0.636276 0.601323 0.156405
O O13 0.711758 0.700088 0.270877
O O14 0.839995 0.657929 0.125371
O O15 0.500000 0.500000 0.775476
O O16 0.343375 0.186356 0.165372
O O17 0.461559 0.211912 0.313988
O O18 0.633566 0.878481 0.000000
O O19 0.006856 0.306480 0.000000
#
# Coordination Sequence:
#
# PCOD8236832 Si02
#       8
#     8   8   8   8   8   8   8   8
#     4  11  24  44  64  91 133 177 216 267 336 399
#     4  10  19  37  64  92 124 166 209 257 323 391
#     4  11  24  44  66  94 129 175 224 274 331 391
#     4  12  23  39  70  98 131 172 223 273 333 393
#     4  12  22  42  65  92 134 171 214 275 330 386
#     4  11  22  40  69  95 134 168 216 275 337 384
#     4  10  20  41  67  89 127 172 214 262 329 401
#     4  11  23  40  63  96 131 168 214 268 322 390
#
# _framework density 20.614871999999998
#
# number of rings (size 3 to 8) (size 9 to 14) (size 15 to 20)
#    0.000    1.000    6.250    1.875    0.000    2.000 
#    0.000    1.875    0.000    0.750    0.000    0.000 
#    0.000    0.000    0.000    0.000    0.000    0.000 
#
# Total GULP energy -793216.897187 kJ/mol
# GULP energy per Si atom -12394.014019 kJ/mol
# Density = 2.056795 g / cm^3
# Si number density = 20.614872 Si / 1000 Ang^3
#
#
#
# Elastic Constant Matrix: (Units=GPa)
#
#
# Indices 1 2 3 4 5 6 
#
# 1 125.1503 44.5645 30.3955 0.0000 0.0000 0.0000
# 2 44.5645 127.6448 45.3740 0.0000 0.0000 0.0000
# 3 30.3955 45.3740 131.1636 0.0000 0.0000 0.0000
# 4 0.0000 0.0000 0.0000 -476.8200 0.0000 0.0000
# 5 0.0000 0.0000 0.0000 0.0000 0.6735 0.0000
# 6 0.0000 0.0000 0.0000 0.0000 0.0000 37.2802
#
#
#
# Elastic Compliance Matrix: (Units=1/GPa)
#
#
# Indices 1 2 3 4 5 6 
#
# 1 0.009281 -0.002823 -0.001174 0.000000 0.000000 0.000000
# 2 -0.002823 0.009791 -0.002733 0.000000 0.000000 0.000000
# 3 -0.001174 -0.002733 0.008842 0.000000 0.000000 0.000000
# 4 0.000000 0.000000 0.000000 -0.002097 0.000000 0.000000
# 5 0.000000 0.000000 0.000000 0.000000 1.484675 0.000000
# 6 0.000000 0.000000 0.000000 0.000000 0.000000 0.026824
#
#
# Mechanical properties :
#
#
# Convention : Reuss Voigt Hill
#
# Bulk Modulus (GPa) = 69.18661 69.40296 69.29479
# Shear Modulus (GPa) = 3.21421 -70.19828 -33.49203
#
# Velocity S-wave (km/s) = 1.25002 -5.84176 -4.03507
# Velocity P-wave (km/s) = 5.97643 3.42958 3.46091
#
# Compressibility (1/GPa) = 0.01445366
#
# Stress axis : x y z
#
# Youngs Moduli (GPa) = 107.75013 102.13203 113.10162
#
# Poissons Ratio (x) = 0.28830 0.13280
# Poissons Ratio (y) = 0.30415 0.30910
# Poissons Ratio (z) = 0.12652 0.27913
#
# Static dielectric constant tensor:
#      x y z
#    x 3.936180 0.000000 0.000000 
#    y 0.000000 4.046350 0.000000 
#    z 0.000000 0.000000 3.706630 
# 
# 
# High freq. dielectric constant tensor:
#      x y z
#    x 1.810530 0.000000 0.000000 
#    y 0.000000 1.813610 0.000000 
#    z 0.000000 0.000000 1.785820 
# 
# From -- ./inp_files/21500.got.cif
#   From: 2010.06.25/outbox.cif.g09.slc.cpg/sg58_11_cif.got.tgz:21500.got - 2010.06.26 21:38:00.
