data_PCOD8236966
_publ_section_title
;
Structure prediction by ZEFSAII (Michael W. Deem and Ramdas Pophale) SiO2 
 PCOD8236966
Probable space group: P N N M
;
_chemical_formula_sum "Si O2"
_cell_formula_units_Z 56
_cell_length_a 21.510373
_cell_length_b 14.374367
_cell_length_c 9.288715
_cell_angle_alpha 90.000000
_cell_angle_beta 90.000000
_cell_angle_gamma 90.000000
_cell_volume 2872.052062
_symmetry_space_group_name_H-M "P N N M"
_symmetry_group_IT_number 58
_symmetry_cell_setting 'orthorhombic'
loop_
_space_group_symop_operation_xyz
x,y,z
-x,-y,z
1/2+x,1/2-y,1/2-z
1/2-x,1/2+y,1/2-z
-x,-y,-z
x,y,-z
1/2-x,1/2+y,1/2+z
1/2+x,1/2-y,1/2+z
loop_
_atom_site_type_symbol
_atom_site_label
_atom_site_fract_x
_atom_site_fract_y
_atom_site_fract_z
Si Si1 0.572018 0.510549 0.667994
Si Si2 0.712369 0.820481 0.668405
Si Si3 0.895375 0.462619 0.835583
Si Si4 0.667296 0.349050 0.337583
Si Si5 0.630803 0.681966 0.166140
Si Si6 0.592119 0.170995 0.337879
Si Si7 0.975188 0.333610 0.662509
O O1 0.500000 0.500000 0.718864
O O2 0.573520 0.538520 0.500000
O O3 0.608275 0.414358 0.698136
O O4 0.608888 0.587725 0.758146
O O5 0.717678 0.796273 0.500000
O O6 0.665718 0.904474 0.699945
O O7 0.776957 0.862131 0.726051
O O8 0.690239 0.727287 0.752541
O O9 0.881849 0.569473 0.796043
O O10 0.953064 0.426925 0.742008
O O11 0.915462 0.449881 0.000000
O O12 0.690716 0.369697 0.500000
O O13 0.648332 0.241936 0.321152
O O14 0.574410 0.752682 0.177314
O O15 0.648995 0.662071 0.000000
O O16 0.565586 0.172125 0.500000
O O17 0.537711 0.204198 0.233365
O O18 0.988810 0.361229 0.500000
#
# Coordination Sequence:
#
# PCOD8236966 Si02
#       7
#     8   8   8   8   8   8   8
#     4  10  21  38  60  86 116 152 194 238 288 345
#     4  10  21  38  58  81 110 145 187 230 276 334
#     4   9  19  35  55  78 105 141 181 216 258 321
#     4  10  22  38  56  81 113 146 183 231 280 327
#     4  10  21  37  58  82 111 148 188 233 283 334
#     4  10  20  35  55  78 107 144 179 213 262 324
#     4  10  20  33  52  82 114 140 172 219 271 319
#
# _framework density 19.498253999999999
#
# number of rings (size 3 to 8) (size 9 to 14) (size 15 to 20)
#    0.000    2.143    0.000    2.571    0.000    8.286 
#    0.000    1.429    0.000    0.000    0.000    0.000 
#    0.000    0.000    0.000    0.000    0.000    0.000 
#
# Total GULP energy -694471.945134 kJ/mol
# GULP energy per Si atom -12401.284735 kJ/mol
# Density = 1.945388 g / cm^3
# Si number density = 19.498254 Si / 1000 Ang^3
#
#
#
# Elastic Constant Matrix: (Units=GPa)
#
#
# Indices 1 2 3 4 5 6 
#
# 1 88.4730 18.0913 47.7387 0.0000 0.0000 0.0000
# 2 18.0913 88.4964 41.2250 0.0000 0.0000 0.0000
# 3 47.7387 41.2250 97.7525 0.0000 0.0000 0.0000
# 4 0.0000 0.0000 0.0000 21.7919 0.0000 0.0000
# 5 0.0000 0.0000 0.0000 0.0000 37.4353 0.0000
# 6 0.0000 0.0000 0.0000 0.0000 0.0000 23.2434
#
#
#
# Elastic Compliance Matrix: (Units=1/GPa)
#
#
# Indices 1 2 3 4 5 6 
#
# 1 0.015361 0.000441 -0.007688 0.000000 0.000000 0.000000
# 2 0.000441 0.014075 -0.006151 0.000000 0.000000 0.000000
# 3 -0.007688 -0.006151 0.016578 0.000000 0.000000 0.000000
# 4 0.000000 0.000000 0.000000 0.045889 0.000000 0.000000
# 5 0.000000 0.000000 0.000000 0.000000 0.026713 0.000000
# 6 0.000000 0.000000 0.000000 0.000000 0.000000 0.043023
#
#
# Mechanical properties :
#
#
# Convention : Reuss Voigt Hill
#
# Bulk Modulus (GPa) = 52.03280 54.31465 53.17372
# Shear Modulus (GPa) = 25.66194 27.67190 26.66692
#
# Velocity S-wave (km/s) = 3.63177 3.77131 3.70220
# Velocity P-wave (km/s) = 6.65809 6.84692 6.75316
#
# Compressibility (1/GPa) = 0.01921865
#
# Stress axis : x y z
#
# Youngs Moduli (GPa) = 65.10064 71.04664 60.31925
#
# Poissons Ratio (x) = -0.03133 0.46371
# Poissons Ratio (y) = -0.02871 0.37104
# Poissons Ratio (z) = 0.50047 0.43703
#
# Static dielectric constant tensor:
#      x y z
#    x 3.456020 0.000000 0.000000 
#    y 0.000000 3.633900 0.000000 
#    z 0.000000 0.000000 3.656400 
# 
# 
# High freq. dielectric constant tensor:
#      x y z
#    x 1.752810 0.000000 0.000000 
#    y 0.000000 1.762620 0.000000 
#    z 0.000000 0.000000 1.760570 
# 
# From -- ./inp_files/6241.got.cif
#   From: 2010.06.25/outbox.cif.g09.slc.cpg/sg58_4_cif.got.tgz:6241.got - 2010.06.26 21:38:00.
