data_PCOD8236135
_publ_section_title
;
Structure prediction by ZEFSAII (Michael W. Deem and Ramdas Pophale) SiO2 
 PCOD8236135
Probable space group: P N N M
;
_chemical_formula_sum "Si O2"
_cell_formula_units_Z 64
_cell_length_a 20.531103
_cell_length_b 19.476809
_cell_length_c 9.189489
_cell_angle_alpha 90.000000
_cell_angle_beta 90.000000
_cell_angle_gamma 90.000000
_cell_volume 3674.696277
_symmetry_space_group_name_H-M "P N N M"
_symmetry_group_IT_number 58
_symmetry_cell_setting 'orthorhombic'
loop_
_space_group_symop_operation_xyz
x,y,z
-x,-y,z
1/2+x,1/2-y,1/2-z
1/2-x,1/2+y,1/2-z
-x,-y,-z
x,y,-z
1/2-x,1/2+y,1/2+z
1/2+x,1/2-y,1/2+z
loop_
_atom_site_type_symbol
_atom_site_label
_atom_site_fract_x
_atom_site_fract_y
_atom_site_fract_z
Si Si1 0.421455 0.207903 0.332720
Si Si2 0.740439 0.566651 0.168092
Si Si3 0.121759 0.579448 0.336407
Si Si4 0.274635 0.566184 0.333591
Si Si5 0.814529 0.211452 0.667644
Si Si6 0.186606 0.212538 0.172574
Si Si7 0.374765 0.925348 0.170734
Si Si8 0.931729 0.696172 0.168438
O O1 0.400934 0.208487 0.500000
O O2 0.411831 0.130962 0.274526
O O3 0.378536 0.263942 0.250569
O O4 0.496896 0.228478 0.311446
O O5 0.706649 0.498834 0.234439
O O6 0.690439 0.629516 0.185807
O O7 0.805919 0.586432 0.251864
O O8 0.757813 0.553667 0.000000
O O9 0.101229 0.599853 0.500000
O O10 0.199073 0.584578 0.319131
O O11 0.098725 0.502134 0.300581
O O12 0.292069 0.547750 0.500000
O O13 0.314118 0.632936 0.277186
O O14 0.822726 0.232713 0.500000
O O15 0.750152 0.248005 0.734112
O O16 0.120911 0.249009 0.228746
O O17 0.189812 0.215813 0.000000
O O18 0.427069 0.873173 0.237284
O O19 0.364868 0.912338 0.000000
O O20 0.918004 0.677921 0.000000
#
# Coordination Sequence:
#
# PCOD8236135 Si02
#       8
#     8   8   8   8   8   8   8   8
#     4  11  23  34  50  78 108 136 172 223 262 296
#     4  10  19  32  53  79 106 136 167 209 264 312
#     4   9  18  33  50  71 104 141 177 206 247 314
#     4   9  17  31  53  78 101 130 170 215 254 300
#     4  10  19  35  57  75  99 141 177 205 254 315
#     4   9  16  33  57  75  97 136 177 208 251 313
#     4  10  20  33  51  76 103 137 178 215 249 298
#     4  10  21  37  53  74 106 141 175 212 264 313
#
# _framework density 17.416404
#
# number of rings (size 3 to 8) (size 9 to 14) (size 15 to 20)
#    0.000    2.250    2.500    1.875    0.000    5.000 
#    0.000    3.125    0.000    0.750    0.000    5.250 
#    0.000    0.000    0.000    0.000    0.000    0.000 
#
# Total GULP energy -793610.308012 kJ/mol
# GULP energy per Si atom -12400.161063 kJ/mol
# Density = 1.737676 g / cm^3
# Si number density = 17.416404 Si / 1000 Ang^3
#
#
#
# Elastic Constant Matrix: (Units=GPa)
#
#
# Indices 1 2 3 4 5 6 
#
# 1 80.3382 51.6545 40.3488 0.0000 0.0000 0.0000
# 2 51.6545 109.4873 50.3158 0.0000 0.0000 0.0000
# 3 40.3488 50.3158 84.2315 0.0000 0.0000 0.0000
# 4 0.0000 0.0000 0.0000 29.2260 0.0000 0.0000
# 5 0.0000 0.0000 0.0000 0.0000 18.5951 0.0000
# 6 0.0000 0.0000 0.0000 0.0000 0.0000 21.0132
#
#
#
# Elastic Compliance Matrix: (Units=1/GPa)
#
#
# Indices 1 2 3 4 5 6 
#
# 1 0.019435 -0.006741 -0.005283 0.000000 0.000000 0.000000
# 2 -0.006741 0.014928 -0.005688 0.000000 0.000000 0.000000
# 3 -0.005283 -0.005688 0.017800 0.000000 0.000000 0.000000
# 4 0.000000 0.000000 0.000000 0.034216 0.000000 0.000000
# 5 0.000000 0.000000 0.000000 0.000000 0.053778 0.000000
# 6 0.000000 0.000000 0.000000 0.000000 0.000000 0.047589
#
#
# Mechanical properties :
#
#
# Convention : Reuss Voigt Hill
#
# Bulk Modulus (GPa) = 59.74085 62.07725 60.90905
# Shear Modulus (GPa) = 21.85789 22.54939 22.20364
#
# Velocity S-wave (km/s) = 3.54647 3.60213 3.57440
# Velocity P-wave (km/s) = 7.15163 7.28154 7.21688
#
# Compressibility (1/GPa) = 0.01673896
#
# Stress axis : x y z
#
# Youngs Moduli (GPa) = 51.45325 66.98861 56.17873
#
# Poissons Ratio (x) = 0.45160 0.29678
# Poissons Ratio (y) = 0.34687 0.31954
# Poissons Ratio (z) = 0.27182 0.38102
#
# Static dielectric constant tensor:
#      x y z
#    x 3.037360 0.000000 0.000000 
#    y 0.000000 3.407200 0.000000 
#    z 0.000000 0.000000 3.189170 
# 
# 
# High freq. dielectric constant tensor:
#      x y z
#    x 1.645030 0.000000 0.000000 
#    y 0.000000 1.677350 0.000000 
#    z 0.000000 0.000000 1.665420 
# 
# From -- ./inp_files/9471.got.cif
#   From: 2010.06.25/outbox.cif.g09.slc.cpg/sg58_5_cif.got.tgz:9471.got - 2010.06.26 21:38:00.
