data_PCOD8236864
_publ_section_title
;
Structure prediction by ZEFSAII (Michael W. Deem and Ramdas Pophale) SiO2 
 PCOD8236864
Probable space group: P N N M
;
_chemical_formula_sum "Si O2"
_cell_formula_units_Z 36
_cell_length_a 8.615873
_cell_length_b 10.978341
_cell_length_c 20.020821
_cell_angle_alpha 90.000000
_cell_angle_beta 90.000000
_cell_angle_gamma 90.000000
_cell_volume 1893.729253
_symmetry_space_group_name_H-M "P N N M"
_symmetry_group_IT_number 58
_symmetry_cell_setting 'orthorhombic'
loop_
_space_group_symop_operation_xyz
x,y,z
-x,-y,z
1/2+x,1/2-y,1/2-z
1/2-x,1/2+y,1/2-z
-x,-y,-z
x,y,-z
1/2-x,1/2+y,1/2+z
1/2+x,1/2-y,1/2+z
loop_
_atom_site_type_symbol
_atom_site_label
_atom_site_fract_x
_atom_site_fract_y
_atom_site_fract_z
Si Si1 0.822860 0.773941 0.689955
Si Si2 0.500000 0.500000 0.853786
Si Si3 0.241103 0.831353 0.576423
Si Si4 0.522579 0.141777 0.689751
Si Si5 0.987110 0.638812 0.576480
O O1 0.640102 0.790710 0.692733
O O2 0.915982 0.901490 0.693575
O O3 0.866623 0.691287 0.752488
O O4 0.859304 0.706184 0.620738
O O5 0.629046 0.559399 0.901188
O O6 0.288587 0.853128 0.500000
O O7 0.398552 0.831402 0.618675
O O8 0.154597 0.702117 0.586029
O O9 0.500000 0.000000 0.701827
O O10 0.930777 0.647858 0.500000
O O11 0.000000 0.500000 0.600330
#
# Coordination Sequence:
#
# PCOD8236864 Si02
#       5
#     8   4   8   8   8
#     4  11  23  39  62  86 123 157 206 251 304 368
#     4  10  19  40  62  94 117 160 202 252 309 372
#     4  10  21  39  62  92 127 160 204 253 305 365
#     4  12  25  42  59  89 122 163 206 253 309 362
#     4   9  19  39  64  90 120 159 201 247 302 361
#
# _framework density 19.010110000000001
#
# number of rings (size 3 to 8) (size 9 to 14) (size 15 to 20)
#    0.000    1.556    2.222    3.667    0.000    2.222 
#    0.000    0.000    0.000    4.000    0.000    0.000 
#    0.000    0.000    0.000    0.000    0.000    0.000 
#
# Total GULP energy -446578.006504 kJ/mol
# GULP energy per Si atom -12404.944625 kJ/mol
# Density = 1.896684 g / cm^3
# Si number density = 19.010110 Si / 1000 Ang^3
#
#
#
# Elastic Constant Matrix: (Units=GPa)
#
#
# Indices 1 2 3 4 5 6 
#
# 1 140.2624 43.7062 64.4241 0.0000 0.0000 0.0000
# 2 43.7062 119.9789 43.3784 0.0000 0.0000 0.0000
# 3 64.4241 43.3784 114.9799 0.0000 0.0000 0.0000
# 4 0.0000 0.0000 0.0000 23.0343 0.0000 0.0000
# 5 0.0000 0.0000 0.0000 0.0000 36.4588 0.0000
# 6 0.0000 0.0000 0.0000 0.0000 0.0000 22.3575
#
#
#
# Elastic Compliance Matrix: (Units=1/GPa)
#
#
# Indices 1 2 3 4 5 6 
#
# 1 0.009947 -0.001863 -0.004871 0.000000 0.000000 0.000000
# 2 -0.001863 0.010000 -0.002729 0.000000 0.000000 0.000000
# 3 -0.004871 -0.002729 0.012456 0.000000 0.000000 0.000000
# 4 0.000000 0.000000 0.000000 0.043413 0.000000 0.000000
# 5 0.000000 0.000000 0.000000 0.000000 0.027428 0.000000
# 6 0.000000 0.000000 0.000000 0.000000 0.000000 0.044728
#
#
# Mechanical properties :
#
#
# Convention : Reuss Voigt Hill
#
# Bulk Modulus (GPa) = 74.19381 75.35981 74.77681
# Shear Modulus (GPa) = 29.17325 31.28427 30.22876
#
# Velocity S-wave (km/s) = 3.92167 4.06108 3.99198
# Velocity P-wave (km/s) = 7.72135 7.85607 7.78900
#
# Compressibility (1/GPa) = 0.01347821
#
# Stress axis : x y z
#
# Youngs Moduli (GPa) = 100.53237 100.00007 80.28331
#
# Poissons Ratio (x) = 0.18625 0.39104
# Poissons Ratio (y) = 0.18724 0.21910
# Poissons Ratio (z) = 0.48967 0.27291
#
# Static dielectric constant tensor:
#      x y z
#    x 2.029880 0.000000 0.000000 
#    y 0.000000 3.738250 0.000000 
#    z 0.000000 0.000000 3.558870 
# 
# 
# High freq. dielectric constant tensor:
#      x y z
#    x 1.733310 0.000000 0.000000 
#    y 0.000000 1.751730 0.000000 
#    z 0.000000 0.000000 1.745020 
# 
# From -- ./inp_files/28673.got.cif
#   From: 2010.06.25/outbox.cif.g09.slc.cpg/sg58_15_cif.got.tgz:28673.got - 2010.06.26 21:38:00.
