data_PCOD8236260
_publ_section_title
;
Structure prediction by ZEFSAII (Michael W. Deem and Ramdas Pophale) SiO2 
 PCOD8236260
Probable space group: P N N M
;
_chemical_formula_sum "Si O2"
_cell_formula_units_Z 64
_cell_length_a 19.911538
_cell_length_b 20.222445
_cell_length_c 8.755563
_cell_angle_alpha 90.000000
_cell_angle_beta 90.000000
_cell_angle_gamma 90.000000
_cell_volume 3525.514841
_symmetry_space_group_name_H-M "P N N M"
_symmetry_group_IT_number 58
_symmetry_cell_setting 'orthorhombic'
loop_
_space_group_symop_operation_xyz
x,y,z
-x,-y,z
1/2+x,1/2-y,1/2-z
1/2-x,1/2+y,1/2-z
-x,-y,-z
x,y,-z
1/2-x,1/2+y,1/2+z
1/2+x,1/2-y,1/2+z
loop_
_atom_site_type_symbol
_atom_site_label
_atom_site_fract_x
_atom_site_fract_y
_atom_site_fract_z
Si Si1 0.436011 0.267829 0.319858
Si Si2 0.076818 0.268069 0.320293
Si Si3 0.552677 0.086504 0.820644
Si Si4 0.818782 0.830207 0.180267
Si Si5 0.593952 0.946379 0.180748
Si Si6 0.823838 0.335702 0.179554
Si Si7 0.092082 0.052838 0.818510
Si Si8 0.445348 0.413885 0.679676
O O1 0.451664 0.261037 0.500000
O O2 0.501807 0.251755 0.223973
O O3 0.376706 0.219799 0.265777
O O4 0.413395 0.343058 0.277667
O O5 0.087562 0.256445 0.500000
O O6 0.087962 0.345086 0.274304
O O7 0.130598 0.227968 0.224108
O O8 0.476590 0.083018 0.755877
O O9 0.597280 0.023639 0.767545
O O10 0.543298 0.080618 0.000000
O O11 0.747853 0.815542 0.255657
O O12 0.848166 0.900324 0.243380
O O13 0.809825 0.831215 0.000000
O O14 0.654612 0.907595 0.260054
O O15 0.602283 0.938204 0.000000
O O16 0.818910 0.337687 0.000000
O O17 0.021246 0.081199 0.755201
O O18 0.099618 0.976303 0.760877
O O19 0.093395 0.057219 0.000000
O O20 0.450842 0.422147 0.500000
#
# Coordination Sequence:
#
# PCOD8236260 Si02
#       8
#     8   8   8   8   8   8   8   8
#     4  10  19  33  54  79 108 140 176 219 269 326
#     4  11  20  33  55  83 111 139 176 227 275 320
#     4   8  16  30  54  82 106 133 175 224 266 315
#     4  11  22  37  55  76 106 147 187 222 270 333
#     4   9  16  33  56  78 103 138 180 220 263 322
#     4  11  23  36  51  78 113 147 180 224 278 327
#     4   8  14  26  50  78  99 124 167 218 260 304
#     4   8  13  26  50  79 102 122 164 222 261 299
#
# _framework density 18.153376999999999
#
# number of rings (size 3 to 8) (size 9 to 14) (size 15 to 20)
#    0.000    2.500    2.500    2.625    0.000    0.500 
#    0.000    3.750    0.000    6.750    0.000    0.000 
#    0.000    0.000    0.000    0.000    0.000    0.000 
#
# Total GULP energy -793175.826450 kJ/mol
# GULP energy per Si atom -12393.372288 kJ/mol
# Density = 1.811206 g / cm^3
# Si number density = 18.153377 Si / 1000 Ang^3
#
#
#
# Elastic Constant Matrix: (Units=GPa)
#
#
# Indices 1 2 3 4 5 6 
#
# 1 101.8470 54.6357 22.0926 0.0000 0.0000 0.0000
# 2 54.6357 137.1923 22.6566 0.0000 0.0000 0.0000
# 3 22.0926 22.6566 31.5406 0.0000 0.0000 0.0000
# 4 0.0000 0.0000 0.0000 21.8058 0.0000 0.0000
# 5 0.0000 0.0000 0.0000 0.0000 26.1106 0.0000
# 6 0.0000 0.0000 0.0000 0.0000 0.0000 23.6677
#
#
#
# Elastic Compliance Matrix: (Units=1/GPa)
#
#
# Indices 1 2 3 4 5 6 
#
# 1 0.013524 -0.004336 -0.006358 0.000000 0.000000 0.000000
# 2 -0.004336 0.009660 -0.003902 0.000000 0.000000 0.000000
# 3 -0.006358 -0.003902 0.038962 0.000000 0.000000 0.000000
# 4 0.000000 0.000000 0.000000 0.045859 0.000000 0.000000
# 5 0.000000 0.000000 0.000000 0.000000 0.038299 0.000000
# 6 0.000000 0.000000 0.000000 0.000000 0.000000 0.042252
#
#
# Mechanical properties :
#
#
# Convention : Reuss Voigt Hill
#
# Bulk Modulus (GPa) = 30.34588 52.14995 41.24792
# Shear Modulus (GPa) = 21.85963 25.72983 23.79473
#
# Velocity S-wave (km/s) = 3.47387 3.76887 3.62437
# Velocity P-wave (km/s) = 5.73088 6.90861 6.34712
#
# Compressibility (1/GPa) = 0.03295340
#
# Stress axis : x y z
#
# Youngs Moduli (GPa) = 73.94401 103.51839 25.66614
#
# Poissons Ratio (x) = 0.44882 0.16319
# Poissons Ratio (y) = 0.32060 0.10015
# Poissons Ratio (z) = 0.47015 0.40395
#
# Static dielectric constant tensor:
#      x y z
#    x 3.222020 0.000000 0.000000 
#    y 0.000000 4.094310 0.000000 
#    z 0.000000 0.000000 3.006140 
# 
# 
# High freq. dielectric constant tensor:
#      x y z
#    x 1.674830 0.000000 0.000000 
#    y 0.000000 1.724290 0.000000 
#    z 0.000000 0.000000 1.670150 
# 
# From -- ./inp_files/8313.got.cif
#   From: 2010.06.25/outbox.cif.g09.slc.cpg/sg58_5_cif.got.tgz:8313.got - 2010.06.26 21:38:00.
