data_PCOD8236846
_publ_section_title
;
Structure prediction by ZEFSAII (Michael W. Deem and Ramdas Pophale) SiO2 
 PCOD8236846
Probable space group: P N N M
;
_chemical_formula_sum "Si O2"
_cell_formula_units_Z 48
_cell_length_a 11.166744
_cell_length_b 9.035105
_cell_length_c 22.253812
_cell_angle_alpha 90.000000
_cell_angle_beta 90.000000
_cell_angle_gamma 90.000000
_cell_volume 2245.247279
_symmetry_space_group_name_H-M "P N N M"
_symmetry_group_IT_number 58
_symmetry_cell_setting 'orthorhombic'
loop_
_space_group_symop_operation_xyz
x,y,z
-x,-y,z
1/2+x,1/2-y,1/2-z
1/2-x,1/2+y,1/2-z
-x,-y,-z
x,y,-z
1/2-x,1/2+y,1/2+z
1/2+x,1/2-y,1/2+z
loop_
_atom_site_type_symbol
_atom_site_label
_atom_site_fract_x
_atom_site_fract_y
_atom_site_fract_z
Si Si1 0.422572 0.363896 0.843703
Si Si2 0.485437 0.833976 0.385376
Si Si3 0.086773 0.298996 0.248854
Si Si4 0.281652 0.508012 0.258128
Si Si5 0.244526 0.690266 0.430711
Si Si6 0.874810 0.070809 0.118299
O O1 0.500000 0.500000 0.871652
O O2 0.501871 0.259885 0.800992
O O3 0.317833 0.441291 0.806003
O O4 0.366476 0.261354 0.895167
O O5 0.480843 0.817706 0.313598
O O6 0.366417 0.775830 0.416954
O O7 0.606799 0.741656 0.403231
O O8 0.500000 0.000000 0.407560
O O9 0.142934 0.458946 0.267959
O O10 0.200066 0.185081 0.240360
O O11 0.363648 0.437062 0.309848
O O12 0.210720 0.700347 0.500000
O O13 0.264256 0.516642 0.412653
O O14 0.000000 0.000000 0.098841
#
# Coordination Sequence:
#
# PCOD8236846 Si02
#       6
#     8   8   8   8   8   8
#     4  10  21  38  64  97 132 173 212 269 331 391
#     4  11  23  37  63 100 128 163 217 287 338 387
#     4  11  22  35  60  97 134 162 209 263 337 394
#     4  11  18  35  60  89 130 164 204 267 327 389
#     4  11  24  44  65  90 133 185 223 254 320 408
#     4  10  19  38  62  88 126 169 215 266 328 388
#
# _framework density 21.378489999999999
#
# number of rings (size 3 to 8) (size 9 to 14) (size 15 to 20)
#    0.000    1.333    6.667    0.500    2.333    5.000 
#    0.000    0.000    0.000    2.000    0.000    0.000 
#    0.000    0.000    0.000    0.000    0.000    0.000 
#
# Total GULP energy -594849.638477 kJ/mol
# GULP energy per Si atom -12392.700802 kJ/mol
# Density = 2.132983 g / cm^3
# Si number density = 21.378490 Si / 1000 Ang^3
#
#
#
# Elastic Constant Matrix: (Units=GPa)
#
#
# Indices 1 2 3 4 5 6 
#
# 1 61.2300 30.5575 26.0620 0.0000 0.0000 0.0000
# 2 30.5575 117.0078 34.4230 0.0000 0.0000 0.0000
# 3 26.0620 34.4230 93.4636 0.0000 0.0000 0.0000
# 4 0.0000 0.0000 0.0000 10.3256 0.0000 0.0000
# 5 0.0000 0.0000 0.0000 0.0000 10.5554 0.0000
# 6 0.0000 0.0000 0.0000 0.0000 0.0000 31.6644
#
#
#
# Elastic Compliance Matrix: (Units=1/GPa)
#
#
# Indices 1 2 3 4 5 6 
#
# 1 0.020100 -0.004038 -0.004118 0.000000 0.000000 0.000000
# 2 -0.004038 0.010396 -0.002703 0.000000 0.000000 0.000000
# 3 -0.004118 -0.002703 0.012843 0.000000 0.000000 0.000000
# 4 0.000000 0.000000 0.000000 0.096847 0.000000 0.000000
# 5 0.000000 0.000000 0.000000 0.000000 0.094738 0.000000
# 6 0.000000 0.000000 0.000000 0.000000 0.000000 0.031581
#
#
# Mechanical properties :
#
#
# Convention : Reuss Voigt Hill
#
# Bulk Modulus (GPa) = 46.24916 50.42073 48.33494
# Shear Modulus (GPa) = 16.92456 22.55302 19.73879
#
# Velocity S-wave (km/s) = 2.81670 3.25151 3.04188
# Velocity P-wave (km/s) = 5.67969 6.14267 5.91571
#
# Compressibility (1/GPa) = 0.02162202
#
# Stress axis : x y z
#
# Youngs Moduli (GPa) = 49.75233 96.18947 77.86313
#
# Poissons Ratio (x) = 0.38839 0.32061
# Poissons Ratio (y) = 0.20089 0.21047
# Poissons Ratio (z) = 0.20486 0.26000
#
# Static dielectric constant tensor:
#      x y z
#    x 3.704940 0.000000 0.000000 
#    y 0.000000 4.456450 0.000000 
#    z 0.000000 0.000000 3.512610 
# 
# 
# High freq. dielectric constant tensor:
#      x y z
#    x 1.821210 0.000000 0.000000 
#    y 0.000000 1.854740 0.000000 
#    z 0.000000 0.000000 1.798600 
# 
# From -- ./inp_files/31905.got.cif
#   From: 2010.06.25/outbox.cif.g09.slc.cpg/sg58_16_cif.got.tgz:31905.got - 2010.06.26 21:38:00.
