data_PCOD8236399
_publ_section_title
;
Structure prediction by ZEFSAII (Michael W. Deem and Ramdas Pophale) SiO2 
 PCOD8236399
Probable space group: P N N M
;
_chemical_formula_sum "Si O2"
_cell_formula_units_Z 56
_cell_length_a 25.095125
_cell_length_b 14.373583
_cell_length_c 8.766668
_cell_angle_alpha 90.000000
_cell_angle_beta 90.000000
_cell_angle_gamma 90.000000
_cell_volume 3162.197305
_symmetry_space_group_name_H-M "P N N M"
_symmetry_group_IT_number 58
_symmetry_cell_setting 'orthorhombic'
loop_
_space_group_symop_operation_xyz
x,y,z
-x,-y,z
1/2+x,1/2-y,1/2-z
1/2-x,1/2+y,1/2-z
-x,-y,-z
x,y,-z
1/2-x,1/2+y,1/2+z
1/2+x,1/2-y,1/2+z
loop_
_atom_site_type_symbol
_atom_site_label
_atom_site_fract_x
_atom_site_fract_y
_atom_site_fract_z
Si Si1 0.501765 0.892119 0.320621
Si Si2 0.892565 0.335958 0.326873
Si Si3 0.685137 0.316733 0.319539
Si Si4 0.100869 0.307520 0.318275
Si Si5 0.706234 0.715597 0.819047
Si Si6 0.333697 0.974792 0.171581
Si Si7 0.282691 0.480349 0.680272
O O1 0.493752 0.893586 0.500000
O O2 0.555680 0.836776 0.279394
O O3 0.457489 0.825473 0.246987
O O4 0.500000 0.000000 0.258909
O O5 0.907514 0.306335 0.500000
O O6 0.845350 0.272110 0.258671
O O7 0.872977 0.440407 0.323094
O O8 0.681609 0.303630 0.500000
O O9 0.629970 0.285181 0.241064
O O10 0.737993 0.260866 0.258161
O O11 0.686735 0.425643 0.274550
O O12 0.096804 0.306861 0.500000
O O13 0.137707 0.388967 0.246609
O O14 0.695392 0.610952 0.763569
O O15 0.707042 0.721652 0.000000
O O16 0.276896 0.997035 0.245542
O O17 0.321798 0.943399 0.000000
O O18 0.285598 0.464194 0.500000
#
# Coordination Sequence:
#
# PCOD8236399 Si02
#       7
#     8   8   8   8   8   8   8
#     4  11  23  36  52  79 112 141 175 222 272 319
#     4  10  19  35  55  76 107 146 183 216 261 319
#     4  10  20  34  53  78 111 146 177 219 271 315
#     4  11  21  34  55  79 107 144 184 221 260 318
#     4  10  20  33  53  80 109 141 179 224 267 309
#     4   9  16  28  50  78 106 139 179 213 248 312
#     4  10  19  34  53  76 110 149 182 214 262 322
#
# _framework density 17.709204
#
# number of rings (size 3 to 8) (size 9 to 14) (size 15 to 20)
#    0.000    1.857    4.286    0.857    0.000    1.714 
#    0.000    0.714    0.000    0.857    0.000    6.000 
#    0.000    0.000    0.000    0.000    0.000    0.000 
#
# Total GULP energy -693980.533591 kJ/mol
# GULP energy per Si atom -12392.509528 kJ/mol
# Density = 1.766890 g / cm^3
# Si number density = 17.709204 Si / 1000 Ang^3
#
#
#
# Elastic Constant Matrix: (Units=GPa)
#
#
# Indices 1 2 3 4 5 6 
#
# 1 104.1152 29.9620 26.2875 0.0000 0.0000 0.0000
# 2 29.9620 74.7064 16.2735 0.0000 0.0000 0.0000
# 3 26.2875 16.2735 38.1644 0.0000 0.0000 0.0000
# 4 0.0000 0.0000 0.0000 25.6554 0.0000 0.0000
# 5 0.0000 0.0000 0.0000 0.0000 19.5610 0.0000
# 6 0.0000 0.0000 0.0000 0.0000 0.0000 25.1337
#
#
#
# Elastic Compliance Matrix: (Units=1/GPa)
#
#
# Indices 1 2 3 4 5 6 
#
# 1 0.012373 -0.003424 -0.007063 0.000000 0.000000 0.000000
# 2 -0.003424 0.015704 -0.004338 0.000000 0.000000 0.000000
# 3 -0.007063 -0.004338 0.032917 0.000000 0.000000 0.000000
# 4 0.000000 0.000000 0.000000 0.038978 0.000000 0.000000
# 5 0.000000 0.000000 0.000000 0.000000 0.051122 0.000000
# 6 0.000000 0.000000 0.000000 0.000000 0.000000 0.039787
#
#
# Mechanical properties :
#
#
# Convention : Reuss Voigt Hill
#
# Bulk Modulus (GPa) = 31.90292 40.22580 36.06436
# Shear Modulus (GPa) = 21.64701 23.70089 22.67395
#
# Velocity S-wave (km/s) = 3.50002 3.66230 3.58208
# Velocity P-wave (km/s) = 5.86409 6.37551 6.12514
#
# Compressibility (1/GPa) = 0.03134509
#
# Stress axis : x y z
#
# Youngs Moduli (GPa) = 80.81907 63.67850 30.37959
#
# Poissons Ratio (x) = 0.21804 0.21456
# Poissons Ratio (y) = 0.27672 0.13178
# Poissons Ratio (z) = 0.57080 0.27622
#
# Static dielectric constant tensor:
#      x y z
#    x 3.336570 0.000000 0.000000 
#    y 0.000000 3.279400 0.000000 
#    z 0.000000 0.000000 3.071880 
# 
# 
# High freq. dielectric constant tensor:
#      x y z
#    x 1.680960 0.000000 0.000000 
#    y 0.000000 1.675230 0.000000 
#    z 0.000000 0.000000 1.665570 
# 
# From -- ./inp_files/8960.got.cif
#   From: 2010.06.25/outbox.cif.g09.slc.cpg/sg58_5_cif.got.tgz:8960.got - 2010.06.26 21:38:00.
