data_PCOD8236448
_publ_section_title
;
Structure prediction by ZEFSAII (Michael W. Deem and Ramdas Pophale) SiO2 
 PCOD8236448
Probable space group: P N N M
;
_chemical_formula_sum "Si O2"
_cell_formula_units_Z 56
_cell_length_a 14.428347
_cell_length_b 22.497468
_cell_length_c 8.443124
_cell_angle_alpha 90.000000
_cell_angle_beta 90.000000
_cell_angle_gamma 90.000000
_cell_volume 2740.648815
_symmetry_space_group_name_H-M "P N N M"
_symmetry_group_IT_number 58
_symmetry_cell_setting 'orthorhombic'
loop_
_space_group_symop_operation_xyz
x,y,z
-x,-y,z
1/2+x,1/2-y,1/2-z
1/2-x,1/2+y,1/2-z
-x,-y,-z
x,y,-z
1/2-x,1/2+y,1/2+z
1/2+x,1/2-y,1/2+z
loop_
_atom_site_type_symbol
_atom_site_label
_atom_site_fract_x
_atom_site_fract_y
_atom_site_fract_z
Si Si1 0.318590 0.176622 0.184637
Si Si2 0.577313 0.113849 0.186100
Si Si3 0.374485 0.660201 0.188560
Si Si4 0.499931 0.236959 0.184251
Si Si5 0.093675 0.027591 0.684769
Si Si6 0.597991 0.939370 0.681746
Si Si7 0.732312 0.031257 0.820149
O O1 0.215031 0.192651 0.236642
O O2 0.389691 0.231413 0.218744
O O3 0.351387 0.123097 0.294181
O O4 0.323323 0.158881 0.000000
O O5 0.556201 0.179840 0.253816
O O6 0.510321 0.066298 0.273850
O O7 0.684829 0.095476 0.218886
O O8 0.554054 0.110459 0.000000
O O9 0.460707 0.700533 0.250324
O O10 0.386341 0.593191 0.257233
O O11 0.365139 0.658732 0.000000
O O12 0.520895 0.237187 0.000000
O O13 0.078024 0.035672 0.500000
O O14 0.178979 0.982608 0.712150
O O15 0.000000 0.000000 0.760832
O O16 0.608799 0.959452 0.500000
O O17 0.649665 0.984951 0.795854
O O18 0.767177 0.028361 0.000000
#
# Coordination Sequence:
#
# PCOD8236448 Si02
#       7
#     8   8   8   8   8   8   8
#     4  10  19  34  56  81 110 145 185 231 276 334
#     4   9  19  35  53  78 113 148 180 222 276 335
#     4  10  19  36  61  81 105 147 188 229 278 331
#     4   8  17  35  56  78 108 145 185 223 273 332
#     4  10  22  39  57  80 110 146 190 234 280 333
#     4  11  20  31  52  82 112 143 180 223 274 333
#     4  11  21  34  55  80 109 146 184 225 278 331
#
# _framework density 20.433115999999998
#
# number of rings (size 3 to 8) (size 9 to 14) (size 15 to 20)
#    0.000    2.143    1.429    3.429    0.000    3.143 
#    2.571    3.571    0.000    0.000    0.000    0.000 
#    0.000    0.000    0.000    0.000    0.000    0.000 
#
# Total GULP energy -694070.729720 kJ/mol
# GULP energy per Si atom -12394.120174 kJ/mol
# Density = 2.038661 g / cm^3
# Si number density = 20.433116 Si / 1000 Ang^3
#
#
#
# Elastic Constant Matrix: (Units=GPa)
#
#
# Indices 1 2 3 4 5 6 
#
# 1 141.0777 62.9139 15.4181 0.0000 0.0000 0.0000
# 2 62.9139 70.1283 11.7181 0.0000 0.0000 0.0000
# 3 15.4181 11.7181 32.9356 0.0000 0.0000 0.0000
# 4 0.0000 0.0000 0.0000 15.2989 0.0000 0.0000
# 5 0.0000 0.0000 0.0000 0.0000 26.9296 0.0000
# 6 0.0000 0.0000 0.0000 0.0000 0.0000 33.4331
#
#
#
# Elastic Compliance Matrix: (Units=1/GPa)
#
#
# Indices 1 2 3 4 5 6 
#
# 1 0.011925 -0.010382 -0.001888 0.000000 0.000000 0.000000
# 2 -0.010382 0.024201 -0.003750 0.000000 0.000000 0.000000
# 3 -0.001888 -0.003750 0.032581 0.000000 0.000000 0.000000
# 4 0.000000 0.000000 0.000000 0.065364 0.000000 0.000000
# 5 0.000000 0.000000 0.000000 0.000000 0.037134 0.000000
# 6 0.000000 0.000000 0.000000 0.000000 0.000000 0.029910
#
#
# Mechanical properties :
#
#
# Convention : Reuss Voigt Hill
#
# Bulk Modulus (GPa) = 27.27452 47.13797 37.20624
# Shear Modulus (GPa) = 20.37678 25.40508 22.89093
#
# Velocity S-wave (km/s) = 3.16134 3.52991 3.35070
# Velocity P-wave (km/s) = 5.16746 6.30343 5.76350
#
# Compressibility (1/GPa) = 0.03666426
#
# Stress axis : x y z
#
# Youngs Moduli (GPa) = 83.85936 41.32144 30.69320
#
# Poissons Ratio (x) = 0.42902 0.05796
# Poissons Ratio (y) = 0.87066 0.11510
# Poissons Ratio (z) = 0.15836 0.15495
#
# Static dielectric constant tensor:
#      x y z
#    x 3.811420 0.000000 0.000000 
#    y 0.000000 3.936360 0.000000 
#    z 0.000000 0.000000 3.379420 
# 
# 
# High freq. dielectric constant tensor:
#      x y z
#    x 1.799230 0.000000 0.000000 
#    y 0.000000 1.782860 0.000000 
#    z 0.000000 0.000000 1.772730 
# 
# From -- ./inp_files/6315.got.cif
#   From: 2010.06.25/outbox.cif.g09.slc.cpg/sg58_4_cif.got.tgz:6315.got - 2010.06.26 21:38:00.
