data_PCOD8236388
_publ_section_title
;
Structure prediction by ZEFSAII (Michael W. Deem and Ramdas Pophale) SiO2 
 PCOD8236388
Probable space group: P N N M
;
_chemical_formula_sum "Si O2"
_cell_formula_units_Z 40
_cell_length_a 19.452511
_cell_length_b 9.037568
_cell_length_c 10.723627
_cell_angle_alpha 90.000000
_cell_angle_beta 90.000000
_cell_angle_gamma 90.000000
_cell_volume 1885.249990
_symmetry_space_group_name_H-M "P N N M"
_symmetry_group_IT_number 58
_symmetry_cell_setting 'orthorhombic'
loop_
_space_group_symop_operation_xyz
x,y,z
-x,-y,z
1/2+x,1/2-y,1/2-z
1/2-x,1/2+y,1/2-z
-x,-y,-z
x,y,-z
1/2-x,1/2+y,1/2+z
1/2+x,1/2-y,1/2+z
loop_
_atom_site_type_symbol
_atom_site_label
_atom_site_fract_x
_atom_site_fract_y
_atom_site_fract_z
Si Si1 0.094278 0.490665 0.000000
Si Si2 0.308806 0.420972 0.500000
Si Si3 0.451709 0.357156 0.137193
Si Si4 0.446478 0.760176 0.299558
Si Si5 0.254828 0.092495 0.500000
Si Si6 0.959774 0.178999 0.000000
Si Si7 0.665888 0.466353 0.243300
O O1 0.070639 0.408790 0.873794
O O2 0.175926 0.498667 0.000000
O O3 0.057801 0.647020 0.000000
O O4 0.270097 0.266317 0.500000
O O5 0.391607 0.416988 0.500000
O O6 0.290208 0.507323 0.371253
O O7 0.500000 0.500000 0.130866
O O8 0.498761 0.218764 0.185863
O O9 0.384585 0.392218 0.222064
O O10 0.424822 0.314885 0.000000
O O11 0.490567 0.643540 0.383598
O O12 0.375797 0.686527 0.254632
O O13 0.214911 0.049289 0.375140
#
# Coordination Sequence:
#
# PCOD8236388 Si02
#       7
#     4   4   8   8   4   4   8
#     4  10  23  40  59  86 126 173 206 245 311 393
#     4  11  23  40  64  91 122 160 215 266 296 371
#     4   9  17  31  55  92 122 144 184 255 323 358
#     4  10  19  33  64  91 116 151 203 260 316 353
#     4  11  27  43  58  86 131 182 203 243 320 386
#     4  10  19  37  61  93 119 151 198 262 316 364
#     4  11  22  39  62  91 126 160 210 264 309 375
#
# _framework density 21.217347
#
# number of rings (size 3 to 8) (size 9 to 14) (size 15 to 20)
#    0.000    1.800    3.000    2.400    4.200    0.800 
#    0.000    0.000    0.000    2.400    0.000    0.000 
#    0.000    0.000    0.000    0.000    0.000    0.000 
#
# Total GULP energy -495622.640260 kJ/mol
# GULP energy per Si atom -12390.566007 kJ/mol
# Density = 2.116906 g / cm^3
# Si number density = 21.217347 Si / 1000 Ang^3
#
#
#
# Elastic Constant Matrix: (Units=GPa)
#
#
# Indices 1 2 3 4 5 6 
#
# 1 101.0000 26.4125 44.9186 0.0000 0.0000 0.0000
# 2 26.4125 53.2755 25.2668 0.0000 0.0000 0.0000
# 3 44.9186 25.2668 161.5764 0.0000 0.0000 0.0000
# 4 0.0000 0.0000 0.0000 -1.3517 0.0000 0.0000
# 5 0.0000 0.0000 0.0000 0.0000 11.7174 0.0000
# 6 0.0000 0.0000 0.0000 0.0000 0.0000 24.6474
#
#
#
# Elastic Compliance Matrix: (Units=1/GPa)
#
#
# Indices 1 2 3 4 5 6 
#
# 1 0.012362 -0.004859 -0.002677 0.000000 0.000000 0.000000
# 2 -0.004859 0.022184 -0.002118 0.000000 0.000000 0.000000
# 3 -0.002677 -0.002118 0.007264 0.000000 0.000000 0.000000
# 4 0.000000 0.000000 0.000000 -0.739835 0.000000 0.000000
# 5 0.000000 0.000000 0.000000 0.000000 0.085343 0.000000
# 6 0.000000 0.000000 0.000000 0.000000 0.000000 0.040572
#
#
# Mechanical properties :
#
#
# Convention : Reuss Voigt Hill
#
# Bulk Modulus (GPa) = 44.44038 56.56085 50.50061
# Shear Modulus (GPa) = -9.16928 21.61956 6.22514
#
# Velocity S-wave (km/s) = -2.08110 3.19557 1.71475
# Velocity P-wave (km/s) = 3.90079 6.35069 5.27008
#
# Compressibility (1/GPa) = 0.02250206
#
# Stress axis : x y z
#
# Youngs Moduli (GPa) = 80.89142 45.07741 137.65719
#
# Poissons Ratio (x) = 0.21905 0.36849
# Poissons Ratio (y) = 0.39308 0.29158
# Poissons Ratio (z) = 0.21653 0.09548
#
# Static dielectric constant tensor:
#      x y z
#    x 3.890630 0.000000 0.000000 
#    y 0.000000 3.371640 0.000000 
#    z 0.000000 0.000000 4.356340 
# 
# 
# High freq. dielectric constant tensor:
#      x y z
#    x 1.826220 0.000000 0.000000 
#    y 0.000000 1.791950 0.000000 
#    z 0.000000 0.000000 1.852470 
# 
# From -- ./inp_files/16919.got.cif
#   From: 2010.06.25/outbox.cif.g09.slc.cpg/sg58_9_cif.got.tgz:16919.got - 2010.06.26 21:38:00.
