data_PCOD8236719
_publ_section_title
;
Structure prediction by ZEFSAII (Michael W. Deem and Ramdas Pophale) SiO2 
 PCOD8236719
Probable space group: P N N M
;
_chemical_formula_sum "Si O2"
_cell_formula_units_Z 48
_cell_length_a 16.540871
_cell_length_b 9.637176
_cell_length_c 16.408391
_cell_angle_alpha 90.000000
_cell_angle_beta 90.000000
_cell_angle_gamma 90.000000
_cell_volume 2615.617061
_symmetry_space_group_name_H-M "P N N M"
_symmetry_group_IT_number 58
_symmetry_cell_setting 'orthorhombic'
loop_
_space_group_symop_operation_xyz
x,y,z
-x,-y,z
1/2+x,1/2-y,1/2-z
1/2-x,1/2+y,1/2-z
-x,-y,-z
x,y,-z
1/2-x,1/2+y,1/2+z
1/2+x,1/2-y,1/2+z
loop_
_atom_site_type_symbol
_atom_site_label
_atom_site_fract_x
_atom_site_fract_y
_atom_site_fract_z
Si Si1 0.922798 0.598538 0.500000
Si Si2 0.089849 0.782304 0.329218
Si Si3 0.563758 0.271167 0.729643
Si Si4 0.330106 0.462210 0.705765
Si Si5 0.142841 0.472595 0.327017
Si Si6 0.458697 0.351551 0.590626
Si Si7 0.033475 0.847459 0.500000
O O1 0.869911 0.576289 0.419550
O O2 0.000000 0.500000 0.500000
O O3 0.953039 0.755350 0.500000
O O4 0.160607 0.872498 0.288183
O O5 0.101252 0.619884 0.312197
O O6 0.091776 0.814954 0.424461
O O7 0.002359 0.827254 0.294140
O O8 0.632232 0.386500 0.719101
O O9 0.603839 0.129818 0.760661
O O10 0.516093 0.248892 0.643702
O O11 0.237526 0.484237 0.685968
O O12 0.371880 0.373978 0.633217
O O13 0.500000 0.500000 0.585814
O O14 0.446942 0.288487 0.500000
O O15 0.000000 0.000000 0.500000
#
# Coordination Sequence:
#
# PCOD8236719 Si02
#       7
#     4   8   8   8   8   8   4
#     4  12  22  40  58  92 119 155 199 239 301 371
#     4  11  21  38  59  86 118 158 204 238 294 369
#     4  10  19  36  58  83 112 157 200 243 291 360
#     4  10  22  35  57  86 118 153 198 248 301 347
#     4  12  22  36  58  87 124 153 192 251 303 353
#     4   8  16  33  56  81 106 145 199 243 283 346
#     4  12  22  38  64  90 114 155 205 248 285 361
#
# _framework density 18.351310000000002
#
# number of rings (size 3 to 8) (size 9 to 14) (size 15 to 20)
#    0.000    1.500    3.333    4.000    1.167    0.000 
#    0.000    0.000    1.833    8.000    0.000    0.000 
#    0.000    0.000    0.000    0.000    0.000    0.000 
#
# Total GULP energy -595210.424012 kJ/mol
# GULP energy per Si atom -12400.217167 kJ/mol
# Density = 1.830954 g / cm^3
# Si number density = 18.351310 Si / 1000 Ang^3
#
#
#
# Elastic Constant Matrix: (Units=GPa)
#
#
# Indices 1 2 3 4 5 6 
#
# 1 108.5143 41.1104 59.6762 0.0000 0.0000 0.0000
# 2 41.1104 110.1094 48.5878 0.0000 0.0000 0.0000
# 3 59.6762 48.5878 156.1624 0.0000 0.0000 0.0000
# 4 0.0000 0.0000 0.0000 23.1734 0.0000 0.0000
# 5 0.0000 0.0000 0.0000 0.0000 26.2202 0.0000
# 6 0.0000 0.0000 0.0000 0.0000 0.0000 25.5653
#
#
#
# Elastic Compliance Matrix: (Units=1/GPa)
#
#
# Indices 1 2 3 4 5 6 
#
# 1 0.012444 -0.002953 -0.003837 0.000000 0.000000 0.000000
# 2 -0.002953 0.011228 -0.002365 0.000000 0.000000 0.000000
# 3 -0.003837 -0.002365 0.008606 0.000000 0.000000 0.000000
# 4 0.000000 0.000000 0.000000 0.043153 0.000000 0.000000
# 5 0.000000 0.000000 0.000000 0.000000 0.038139 0.000000
# 6 0.000000 0.000000 0.000000 0.000000 0.000000 0.039116
#
#
# Mechanical properties :
#
#
# Convention : Reuss Voigt Hill
#
# Bulk Modulus (GPa) = 71.59059 74.83723 73.21391
# Shear Modulus (GPa) = 28.46569 30.01921 29.24245
#
# Velocity S-wave (km/s) = 3.94274 4.04890 3.99617
# Velocity P-wave (km/s) = 7.73452 7.92004 7.82783
#
# Compressibility (1/GPa) = 0.01396832
#
# Stress axis : x y z
#
# Youngs Moduli (GPa) = 80.35968 89.06276 116.20455
#
# Poissons Ratio (x) = 0.26302 0.44583
# Poissons Ratio (y) = 0.23731 0.27482
# Poissons Ratio (z) = 0.30830 0.21063
#
# Static dielectric constant tensor:
#      x y z
#    x 4.794190 0.000000 0.000000 
#    y 0.000000 4.548840 0.000000 
#    z 0.000000 0.000000 4.170010 
# 
# 
# High freq. dielectric constant tensor:
#      x y z
#    x 1.702040 0.000000 0.000000 
#    y 0.000000 1.705030 0.000000 
#    z 0.000000 0.000000 1.720320 
# 
# From -- ./inp_files/26825.got.cif
#   From: 2010.06.25/outbox.cif.g09.slc.cpg/sg58_14_cif.got.tgz:26825.got - 2010.06.26 21:38:00.
