data_PCOD8236303
_publ_section_title
;
Structure prediction by ZEFSAII (Michael W. Deem and Ramdas Pophale) SiO2 
 PCOD8236303
Probable space group: P N N M
;
_chemical_formula_sum "Si O2"
_cell_formula_units_Z 48
_cell_length_a 9.904799
_cell_length_b 28.168464
_cell_length_c 8.720068
_cell_angle_alpha 90.000000
_cell_angle_beta 90.000000
_cell_angle_gamma 90.000000
_cell_volume 2432.924906
_symmetry_space_group_name_H-M "P N N M"
_symmetry_group_IT_number 58
_symmetry_cell_setting 'orthorhombic'
loop_
_space_group_symop_operation_xyz
x,y,z
-x,-y,z
1/2+x,1/2-y,1/2-z
1/2-x,1/2+y,1/2-z
-x,-y,-z
x,y,-z
1/2-x,1/2+y,1/2+z
1/2+x,1/2-y,1/2+z
loop_
_atom_site_type_symbol
_atom_site_label
_atom_site_fract_x
_atom_site_fract_y
_atom_site_fract_z
Si Si1 0.140329 0.293120 0.181874
Si Si2 0.232475 0.889082 0.675526
Si Si3 0.012709 0.449002 0.175806
Si Si4 0.484660 0.553636 0.818014
Si Si5 0.342661 0.209629 0.819688
Si Si6 0.774288 0.387040 0.181089
O O1 0.205666 0.341607 0.252111
O O2 0.244135 0.252227 0.231135
O O3 0.990829 0.284205 0.247111
O O4 0.122510 0.297300 0.000000
O O5 0.202600 0.875885 0.500000
O O6 0.335247 0.932417 0.691450
O O7 0.096414 0.909960 0.752202
O O8 0.000000 0.500000 0.259229
O O9 0.912022 0.410134 0.245992
O O10 0.966044 0.454935 0.000000
O O11 0.500000 0.500000 0.750816
O O12 0.342483 0.576280 0.771259
O O13 0.504429 0.550975 0.000000
O O14 0.262392 0.163067 0.765151
O O15 0.362346 0.208746 0.000000
O O16 0.775036 0.377119 0.000000
#
# Coordination Sequence:
#
# PCOD8236303 Si02
#       6
#     8   8   8   8   8   8
#     4  10  22  40  59  82 110 146 189 231 280 334
#     4   9  16  29  48  73 108 139 172 222 273 324
#     4   9  15  25  47  78 106 136 177 225 271 318
#     4   9  17  28  48  83 116 142 181 232 279 324
#     4  11  24  39  59  85 113 145 188 236 281 339
#     4  10  19  33  55  81 113 148 181 226 283 335
#
# _framework density 19.729337999999998
#
# number of rings (size 3 to 8) (size 9 to 14) (size 15 to 20)
#    0.000    2.333    1.667    1.500    2.333    5.333 
#    0.000    0.000    0.000    1.000    0.000    0.000 
#    0.000    0.000    0.000    0.000    0.000    0.000 
#
# Total GULP energy -594924.679629 kJ/mol
# GULP energy per Si atom -12394.264159 kJ/mol
# Density = 1.968443 g / cm^3
# Si number density = 19.729338 Si / 1000 Ang^3
#
#
#
# Elastic Constant Matrix: (Units=GPa)
#
#
# Indices 1 2 3 4 5 6 
#
# 1 111.5639 44.1202 18.9833 0.0000 0.0000 0.0000
# 2 44.1202 143.7002 22.4204 0.0000 0.0000 0.0000
# 3 18.9833 22.4204 20.4724 0.0000 0.0000 0.0000
# 4 0.0000 0.0000 0.0000 18.4862 0.0000 0.0000
# 5 0.0000 0.0000 0.0000 0.0000 15.8423 0.0000
# 6 0.0000 0.0000 0.0000 0.0000 0.0000 36.9052
#
#
#
# Elastic Compliance Matrix: (Units=1/GPa)
#
#
# Indices 1 2 3 4 5 6 
#
# 1 0.011187 -0.002190 -0.007974 0.000000 0.000000 0.000000
# 2 -0.002190 0.008822 -0.007630 0.000000 0.000000 0.000000
# 3 -0.007974 -0.007630 0.064597 0.000000 0.000000 0.000000
# 4 0.000000 0.000000 0.000000 0.054094 0.000000 0.000000
# 5 0.000000 0.000000 0.000000 0.000000 0.063122 0.000000
# 6 0.000000 0.000000 0.000000 0.000000 0.000000 0.027096
#
#
# Mechanical properties :
#
#
# Convention : Reuss Voigt Hill
#
# Bulk Modulus (GPa) = 20.40163 49.64270 35.02217
# Shear Modulus (GPa) = 17.80334 26.92756 22.36545
#
# Velocity S-wave (km/s) = 3.00722 3.69839 3.37057
# Velocity P-wave (km/s) = 4.73509 6.59196 5.73912
#
# Compressibility (1/GPa) = 0.04901568
#
# Stress axis : x y z
#
# Youngs Moduli (GPa) = 89.39285 113.35343 15.48070
#
# Poissons Ratio (x) = 0.24830 0.12344
# Poissons Ratio (y) = 0.19581 0.11812
# Poissons Ratio (z) = 0.71282 0.86491
#
# Static dielectric constant tensor:
#      x y z
#    x 3.677420 0.000000 0.000000 
#    y 0.000000 3.903310 0.000000 
#    z 0.000000 0.000000 2.989740 
# 
# 
# High freq. dielectric constant tensor:
#      x y z
#    x 1.784190 0.000000 0.000000 
#    y 0.000000 1.790380 0.000000 
#    z 0.000000 0.000000 1.696710 
# 
# From -- ./inp_files/2999.got.cif
#   From: 2010.06.25/outbox.cif.g09.slc.cpg/sg58_2_cif.got.tgz:2999.got - 2010.06.26 21:38:00.
