data_PCOD8236587
_publ_section_title
;
Structure prediction by ZEFSAII (Michael W. Deem and Ramdas Pophale) SiO2 
 PCOD8236587
Probable space group: P N N M
;
_chemical_formula_sum "Si O2"
_cell_formula_units_Z 64
_cell_length_a 9.103061
_cell_length_b 15.916466
_cell_length_c 23.171036
_cell_angle_alpha 90.000000
_cell_angle_beta 90.000000
_cell_angle_gamma 90.000000
_cell_volume 3357.218061
_symmetry_space_group_name_H-M "P N N M"
_symmetry_group_IT_number 58
_symmetry_cell_setting 'orthorhombic'
loop_
_space_group_symop_operation_xyz
x,y,z
-x,-y,z
1/2+x,1/2-y,1/2-z
1/2-x,1/2+y,1/2-z
-x,-y,-z
x,y,-z
1/2-x,1/2+y,1/2+z
1/2+x,1/2-y,1/2+z
loop_
_atom_site_type_symbol
_atom_site_label
_atom_site_fract_x
_atom_site_fract_y
_atom_site_fract_z
Si Si1 0.956083 0.762604 0.644634
Si Si2 0.035977 0.772553 0.065465
Si Si3 0.562655 0.308929 0.728158
Si Si4 0.732762 0.371413 0.066443
Si Si5 0.165465 0.017636 0.231984
Si Si6 0.327013 0.985802 0.349654
Si Si7 0.203216 0.861323 0.840404
Si Si8 0.214760 0.292103 0.139278
O O1 0.929109 0.813139 0.703319
O O2 0.903254 0.818114 0.590850
O O3 0.866656 0.675349 0.650803
O O4 0.127737 0.747072 0.636332
O O5 0.873760 0.752972 0.088140
O O6 0.123082 0.685451 0.073116
O O7 0.112305 0.848841 0.100298
O O8 0.028401 0.802956 0.000000
O O9 0.660990 0.388048 0.706445
O O10 0.391039 0.312956 0.709189
O O11 0.635039 0.225961 0.700680
O O12 0.750035 0.455978 0.102829
O O13 0.701727 0.394887 0.000000
O O14 0.275822 0.007839 0.285231
O O15 0.215046 0.958302 0.178664
O O16 0.000000 0.000000 0.254229
O O17 0.278527 0.892122 0.367103
O O18 0.500000 0.000000 0.352663
#
# Coordination Sequence:
#
# PCOD8236587 Si02
#       8
#     8   8   8   8   8   8   8   8
#     4  11  20  36  56  81 116 148 195 238 294 343
#     4   9  19  39  60  81 113 153 199 241 284 348
#     4  10  19  35  56  80 117 152 186 234 291 355
#     4  10  22  39  57  78 112 156 198 235 278 339
#     4  10  20  36  58  85 119 149 188 243 291 346
#     4  12  23  36  54  83 116 154 199 236 288 346
#     4   9  20  35  57  85 111 153 191 234 295 352
#     4  11  23  34  56  84 112 150 193 241 291 341
#
# _framework density 19.063403000000001
#
# number of rings (size 3 to 8) (size 9 to 14) (size 15 to 20)
#    0.000    1.750    2.500    3.000    0.000    3.250 
#    0.000    0.625    0.000    9.375    0.000    0.000 
#    0.000   20.500    0.000    0.000    0.000    0.000 
#
# Total GULP energy -793497.526096 kJ/mol
# GULP energy per Si atom -12398.398845 kJ/mol
# Density = 1.902001 g / cm^3
# Si number density = 19.063403 Si / 1000 Ang^3
#
#
#
# Elastic Constant Matrix: (Units=GPa)
#
#
# Indices 1 2 3 4 5 6 
#
# 1 82.4230 12.0233 17.5898 0.0000 0.0000 0.0000
# 2 12.0233 68.9802 44.6272 0.0000 0.0000 0.0000
# 3 17.5898 44.6272 122.0001 0.0000 0.0000 0.0000
# 4 0.0000 0.0000 0.0000 27.7967 0.0000 0.0000
# 5 0.0000 0.0000 0.0000 0.0000 19.3457 0.0000
# 6 0.0000 0.0000 0.0000 0.0000 0.0000 18.4741
#
#
#
# Elastic Compliance Matrix: (Units=1/GPa)
#
#
# Indices 1 2 3 4 5 6 
#
# 1 0.012611 -0.001339 -0.001329 0.000000 0.000000 0.000000
# 2 -0.001339 0.019133 -0.006806 0.000000 0.000000 0.000000
# 3 -0.001329 -0.006806 0.010878 0.000000 0.000000 0.000000
# 4 0.000000 0.000000 0.000000 0.035976 0.000000 0.000000
# 5 0.000000 0.000000 0.000000 0.000000 0.051691 0.000000
# 6 0.000000 0.000000 0.000000 0.000000 0.000000 0.054130
#
#
# Mechanical properties :
#
#
# Convention : Reuss Voigt Hill
#
# Bulk Modulus (GPa) = 42.23638 46.87599 44.55619
# Shear Modulus (GPa) = 23.66782 26.40084 25.03433
#
# Velocity S-wave (km/s) = 3.52736 3.72546 3.62776
# Velocity P-wave (km/s) = 6.22845 6.56873 6.40085
#
# Compressibility (1/GPa) = 0.02367627
#
# Stress axis : x y z
#
# Youngs Moduli (GPa) = 79.29370 52.26471 91.92984
#
# Poissons Ratio (x) = 0.06996 0.12214
# Poissons Ratio (y) = 0.10614 0.62567
# Poissons Ratio (z) = 0.10535 0.35571
#
# Static dielectric constant tensor:
#      x y z
#    x 3.503620 0.000000 0.000000 
#    y 0.000000 3.463490 0.000000 
#    z 0.000000 0.000000 3.473710 
# 
# 
# High freq. dielectric constant tensor:
#      x y z
#    x 1.742700 0.000000 0.000000 
#    y 0.000000 1.729090 0.000000 
#    z 0.000000 0.000000 1.730890 
# 
# From -- ./inp_files/31621.got.cif
#   From: 2010.06.25/outbox.cif.g09.slc.cpg/sg58_16_cif.got.tgz:31621.got - 2010.06.26 21:38:00.
