data_PCOD8236632
_publ_section_title
;
Structure prediction by ZEFSAII (Michael W. Deem and Ramdas Pophale) SiO2 
 PCOD8236632
Probable space group: P N N M
;
_chemical_formula_sum "Si O2"
_cell_formula_units_Z 64
_cell_length_a 24.210541
_cell_length_b 14.602732
_cell_length_c 9.270282
_cell_angle_alpha 90.000000
_cell_angle_beta 90.000000
_cell_angle_gamma 90.000000
_cell_volume 3277.415886
_symmetry_space_group_name_H-M "P N N M"
_symmetry_group_IT_number 58
_symmetry_cell_setting 'orthorhombic'
loop_
_space_group_symop_operation_xyz
x,y,z
-x,-y,z
1/2+x,1/2-y,1/2-z
1/2-x,1/2+y,1/2-z
-x,-y,-z
x,y,-z
1/2-x,1/2+y,1/2+z
1/2+x,1/2-y,1/2+z
loop_
_atom_site_type_symbol
_atom_site_label
_atom_site_fract_x
_atom_site_fract_y
_atom_site_fract_z
Si Si1 0.448792 0.245792 0.335217
Si Si2 0.483431 0.900496 0.163590
Si Si3 0.762614 0.821505 0.337708
Si Si4 0.165815 0.007427 0.329961
Si Si5 0.357443 0.109955 0.658553
Si Si6 0.759571 0.635533 0.171082
Si Si7 0.556981 0.548948 0.670227
Si Si8 0.861873 0.557648 0.337528
O O1 0.468673 0.248615 0.500000
O O2 0.491378 0.182026 0.252663
O O3 0.386549 0.207872 0.318357
O O4 0.448259 0.347627 0.270957
O O5 0.417629 0.883269 0.168669
O O6 0.500000 0.000000 0.229084
O O7 0.505679 0.895687 0.000000
O O8 0.773487 0.783592 0.500000
O O9 0.707936 0.882118 0.334080
O O10 0.754354 0.738406 0.228650
O O11 0.810900 0.891499 0.290833
O O12 0.156037 0.998502 0.500000
O O13 0.208233 0.927659 0.278105
O O14 0.107891 0.999810 0.248658
O O15 0.374114 0.071192 0.500000
O O16 0.378495 0.043812 0.784644
O O17 0.816710 0.596629 0.230094
O O18 0.763153 0.637883 0.000000
O O19 0.500000 0.500000 0.711549
O O20 0.568660 0.545892 0.500000
O O21 0.838360 0.553716 0.500000
#
# Coordination Sequence:
#
# PCOD8236632 Si02
#       8
#     8   8   8   8   8   8   8   8
#     4  10  21  36  60  89 116 157 203 246 302 355
#     4  10  21  37  55  82 119 154 193 243 293 350
#     4  10  21  39  61  88 124 160 195 242 299 355
#     4  10  22  41  64  89 121 158 198 245 299 357
#     4  10  19  35  58  84 119 156 194 243 296 352
#     4  11  23  40  60  89 123 156 199 246 294 354
#     4  10  23  43  64  88 119 154 201 254 298 347
#     4  11  22  36  57  84 118 158 196 239 297 353
#
# _framework density 19.52758
#
# number of rings (size 3 to 8) (size 9 to 14) (size 15 to 20)
#    0.000    1.750    2.500    1.500    0.000    6.000 
#    0.000    2.500    0.000    0.000    0.000    0.000 
#    0.000    0.000    0.000    0.000    0.000    0.000 
#
# Total GULP energy -793630.257835 kJ/mol
# GULP energy per Si atom -12400.472779 kJ/mol
# Density = 1.948313 g / cm^3
# Si number density = 19.527580 Si / 1000 Ang^3
#
#
#
# Elastic Constant Matrix: (Units=GPa)
#
#
# Indices 1 2 3 4 5 6 
#
# 1 112.9763 35.5984 40.4665 0.0000 0.0000 0.0000
# 2 35.5984 85.6547 34.7019 0.0000 0.0000 0.0000
# 3 40.4665 34.7019 69.3870 0.0000 0.0000 0.0000
# 4 0.0000 0.0000 0.0000 32.8080 0.0000 0.0000
# 5 0.0000 0.0000 0.0000 0.0000 33.7777 0.0000
# 6 0.0000 0.0000 0.0000 0.0000 0.0000 29.7939
#
#
#
# Elastic Compliance Matrix: (Units=1/GPa)
#
#
# Indices 1 2 3 4 5 6 
#
# 1 0.011639 -0.002617 -0.005479 0.000000 0.000000 0.000000
# 2 -0.002617 0.015230 -0.006090 0.000000 0.000000 0.000000
# 3 -0.005479 -0.006090 0.020653 0.000000 0.000000 0.000000
# 4 0.000000 0.000000 0.000000 0.030480 0.000000 0.000000
# 5 0.000000 0.000000 0.000000 0.000000 0.029605 0.000000
# 6 0.000000 0.000000 0.000000 0.000000 0.000000 0.033564
#
#
# Mechanical properties :
#
#
# Convention : Reuss Voigt Hill
#
# Bulk Modulus (GPa) = 52.22270 54.39464 53.30867
# Shear Modulus (GPa) = 28.42091 29.75932 29.09012
#
# Velocity S-wave (km/s) = 3.81914 3.90803 3.86384
# Velocity P-wave (km/s) = 6.80065 6.94834 6.87489
#
# Compressibility (1/GPa) = 0.01914876
#
# Stress axis : x y z
#
# Youngs Moduli (GPa) = 85.92169 65.65968 48.41924
#
# Poissons Ratio (x) = 0.17186 0.26527
# Poissons Ratio (y) = 0.22490 0.29489
# Poissons Ratio (z) = 0.47073 0.39989
#
# Static dielectric constant tensor:
#      x y z
#    x 3.541120 0.000000 0.000000 
#    y 0.000000 3.614250 0.000000 
#    z 0.000000 0.000000 3.571390 
# 
# 
# High freq. dielectric constant tensor:
#      x y z
#    x 1.765970 0.000000 0.000000 
#    y 0.000000 1.759040 0.000000 
#    z 0.000000 0.000000 1.755820 
# 
# From -- ./inp_files/6739.got.cif
#   From: 2010.06.25/outbox.cif.g09.slc.cpg/sg58_4_cif.got.tgz:6739.got - 2010.06.26 21:38:00.
