data_PCOD8236210
_publ_section_title
;
Structure prediction by ZEFSAII (Michael W. Deem and Ramdas Pophale) SiO2 
 PCOD8236210
Probable space group: P N N M
;
_chemical_formula_sum "Si O2"
_cell_formula_units_Z 56
_cell_length_a 14.045623
_cell_length_b 16.812667
_cell_length_c 13.174513
_cell_angle_alpha 90.000000
_cell_angle_beta 90.000000
_cell_angle_gamma 90.000000
_cell_volume 3111.087235
_symmetry_space_group_name_H-M "P N N M"
_symmetry_group_IT_number 58
_symmetry_cell_setting 'orthorhombic'
loop_
_space_group_symop_operation_xyz
x,y,z
-x,-y,z
1/2+x,1/2-y,1/2-z
1/2-x,1/2+y,1/2-z
-x,-y,-z
x,y,-z
1/2-x,1/2+y,1/2+z
1/2+x,1/2-y,1/2+z
loop_
_atom_site_type_symbol
_atom_site_label
_atom_site_fract_x
_atom_site_fract_y
_atom_site_fract_z
Si Si1 0.291328 0.671755 0.308547
Si Si2 0.281951 0.757553 0.115330
Si Si3 0.456623 0.579937 0.620805
Si Si4 0.611382 0.915777 0.879156
Si Si5 0.571199 0.725520 0.616655
Si Si6 0.391781 0.824977 0.613628
Si Si7 0.394989 0.906753 0.183424
O O1 0.322496 0.690993 0.191927
O O2 0.348872 0.593211 0.342423
O O3 0.181171 0.648825 0.327422
O O4 0.322288 0.748670 0.374935
O O5 0.175626 0.764387 0.162946
O O6 0.336325 0.841497 0.119673
O O7 0.284571 0.725439 0.000000
O O8 0.500000 0.500000 0.666895
O O9 0.457163 0.579011 0.500000
O O10 0.520399 0.650224 0.668055
O O11 0.505803 0.894838 0.841785
O O12 0.639591 0.005351 0.846075
O O13 0.617230 0.909137 0.000000
O O14 0.588466 0.704681 0.500000
O O15 0.502628 0.801290 0.629211
O O16 0.376409 0.859427 0.500000
O O17 0.372424 0.893109 0.696902
#
# Coordination Sequence:
#
# PCOD8236210 Si02
#       7
#     8   8   8   8   8   8   8
#     4  10  20  32  52  76  99 131 169 206 253 298
#     4  10  19  33  51  73 100 135 171 206 243 292
#     4   9  17  29  47  75 100 120 151 201 258 300
#     4  11  21  35  50  73 105 134 166 208 250 296
#     4   8  15  27  47  71  95 122 156 201 249 286
#     4   9  17  34  53  74 101 129 166 212 251 296
#     4  10  21  33  50  74 102 137 172 200 246 301
#
# _framework density 18.000139000000001
#
# number of rings (size 3 to 8) (size 9 to 14) (size 15 to 20)
#    0.000    2.429    0.000    4.714    2.000    0.000 
#    0.000    2.143    0.000    0.429    0.000    0.000 
#    0.000    0.000    0.000    0.000    0.000    0.000 
#
# Total GULP energy -694013.026737 kJ/mol
# GULP energy per Si atom -12393.089763 kJ/mol
# Density = 1.795917 g / cm^3
# Si number density = 18.000139 Si / 1000 Ang^3
#
#
#
# Elastic Constant Matrix: (Units=GPa)
#
#
# Indices 1 2 3 4 5 6 
#
# 1 67.3625 18.7925 11.5462 0.0000 0.0000 0.0000
# 2 18.7925 51.8537 32.1305 0.0000 0.0000 0.0000
# 3 11.5462 32.1305 107.8874 0.0000 0.0000 0.0000
# 4 0.0000 0.0000 0.0000 22.8117 0.0000 0.0000
# 5 0.0000 0.0000 0.0000 0.0000 21.1508 0.0000
# 6 0.0000 0.0000 0.0000 0.0000 0.0000 14.9226
#
#
#
# Elastic Compliance Matrix: (Units=1/GPa)
#
#
# Indices 1 2 3 4 5 6 
#
# 1 0.016515 -0.005997 0.000018 0.000000 0.000000 0.000000
# 2 -0.005997 0.025827 -0.007050 0.000000 0.000000 0.000000
# 3 0.000018 -0.007050 0.011366 0.000000 0.000000 0.000000
# 4 0.000000 0.000000 0.000000 0.043837 0.000000 0.000000
# 5 0.000000 0.000000 0.000000 0.000000 0.047279 0.000000
# 6 0.000000 0.000000 0.000000 0.000000 0.000000 0.067012
#
#
# Mechanical properties :
#
#
# Convention : Reuss Voigt Hill
#
# Bulk Modulus (GPa) = 36.16380 39.11579 37.63980
# Shear Modulus (GPa) = 20.23388 22.75264 21.49326
#
# Velocity S-wave (km/s) = 3.35639 3.55917 3.45927
# Velocity P-wave (km/s) = 5.92916 6.21838 6.07549
#
# Compressibility (1/GPa) = 0.02765196
#
# Stress axis : x y z
#
# Youngs Moduli (GPa) = 60.55177 38.71973 87.97790
#
# Poissons Ratio (x) = 0.23219 -0.00162
# Poissons Ratio (y) = 0.36311 0.62023
# Poissons Ratio (z) = -0.00112 0.27297
#
# Static dielectric constant tensor:
#      x y z
#    x 3.517620 0.000000 0.000000 
#    y 0.000000 3.211190 0.000000 
#    z 0.000000 0.000000 3.244790 
# 
# 
# High freq. dielectric constant tensor:
#      x y z
#    x 1.702670 0.000000 0.000000 
#    y 0.000000 1.674960 0.000000 
#    z 0.000000 0.000000 1.687250 
# 
# From -- ./inp_files/22394.got.cif
#   From: 2010.06.25/outbox.cif.g09.slc.cpg/sg58_12_cif.got.tgz:22394.got - 2010.06.26 21:38:00.
