data_PCOD8236242
_publ_section_title
;
Structure prediction by ZEFSAII (Michael W. Deem and Ramdas Pophale) SiO2 
 PCOD8236242
Probable space group: P N N M
;
_chemical_formula_sum "Si O2"
_cell_formula_units_Z 60
_cell_length_a 17.994135
_cell_length_b 14.882699
_cell_length_c 12.949756
_cell_angle_alpha 90.000000
_cell_angle_beta 90.000000
_cell_angle_gamma 90.000000
_cell_volume 3467.961426
_symmetry_space_group_name_H-M "P N N M"
_symmetry_group_IT_number 58
_symmetry_cell_setting 'orthorhombic'
loop_
_space_group_symop_operation_xyz
x,y,z
-x,-y,z
1/2+x,1/2-y,1/2-z
1/2-x,1/2+y,1/2-z
-x,-y,-z
x,y,-z
1/2-x,1/2+y,1/2+z
1/2+x,1/2-y,1/2+z
loop_
_atom_site_type_symbol
_atom_site_label
_atom_site_fract_x
_atom_site_fract_y
_atom_site_fract_z
Si Si1 0.500000 0.000000 0.249332
Si Si2 0.128172 0.784288 0.384801
Si Si3 0.993080 0.899291 0.622730
Si Si4 0.890582 0.593520 0.880229
Si Si5 0.374824 0.083641 0.115033
Si Si6 0.226284 0.314009 0.760612
Si Si7 0.226279 0.514058 0.224919
Si Si8 0.830096 0.844431 0.622780
O O1 0.469875 0.919139 0.322339
O O2 0.565741 0.975433 0.173467
O O3 0.147919 0.820104 0.500000
O O4 0.095271 0.684580 0.390855
O O5 0.202725 0.777081 0.319807
O O6 0.063980 0.844911 0.332877
O O7 0.997398 0.899767 0.500000
O O8 0.916307 0.851809 0.656646
O O9 0.000000 0.000000 0.667020
O O10 0.846114 0.680353 0.835897
O O11 0.840375 0.503894 0.858227
O O12 0.906432 0.607068 0.000000
O O13 0.298306 0.076478 0.179432
O O14 0.362108 0.045035 0.000000
O O15 0.248517 0.416183 0.726463
O O16 0.206483 0.247011 0.666904
O O17 0.292244 0.564728 0.165886
O O18 0.820625 0.841770 0.500000
#
# Coordination Sequence:
#
# PCOD8236242 Si02
#       8
#     4   8   8   8   8   8   8   8
#     4  10  20  34  52  80 106 140 182 220 278 348
#     4  10  19  33  54  76 105 140 177 222 274 333
#     4   9  19  32  52  81 107 139 178 222 282 339
#     4   9  19  34  55  78 107 144 180 230 276 331
#     4  10  20  34  52  75 109 145 178 225 281 335
#     4  10  21  34  54  82 110 142 189 231 278 342
#     4   9  20  35  53  79 108 146 189 230 278 341
#     4  11  21  36  56  83 118 150 187 241 293 340
#
# _framework density 17.301231000000001
#
# number of rings (size 3 to 8) (size 9 to 14) (size 15 to 20)
#    0.800    1.467    1.333    2.000    1.867    1.600 
#    0.000    0.000    0.000    0.000    0.000    0.000 
#    0.000    5.333    0.000    0.000    0.000    0.000 
#
# Total GULP energy -743403.266388 kJ/mol
# GULP energy per Si atom -12390.054440 kJ/mol
# Density = 1.726185 g / cm^3
# Si number density = 17.301231 Si / 1000 Ang^3
#
#
#
# Elastic Constant Matrix: (Units=GPa)
#
#
# Indices 1 2 3 4 5 6 
#
# 1 82.4190 23.4257 41.9954 0.0000 0.0000 0.0000
# 2 23.4257 90.3549 33.2218 0.0000 0.0000 0.0000
# 3 41.9954 33.2218 90.0212 0.0000 0.0000 0.0000
# 4 0.0000 0.0000 0.0000 22.2188 0.0000 0.0000
# 5 0.0000 0.0000 0.0000 0.0000 22.8634 0.0000
# 6 0.0000 0.0000 0.0000 0.0000 0.0000 25.8813
#
#
#
# Elastic Compliance Matrix: (Units=1/GPa)
#
#
# Indices 1 2 3 4 5 6 
#
# 1 0.016123 -0.001637 -0.006917 0.000000 0.000000 0.000000
# 2 -0.001637 0.012971 -0.004023 0.000000 0.000000 0.000000
# 3 -0.006917 -0.004023 0.015820 0.000000 0.000000 0.000000
# 4 0.000000 0.000000 0.000000 0.045007 0.000000 0.000000
# 5 0.000000 0.000000 0.000000 0.000000 0.043738 0.000000
# 6 0.000000 0.000000 0.000000 0.000000 0.000000 0.038638
#
#
# Mechanical properties :
#
#
# Convention : Reuss Voigt Hill
#
# Bulk Modulus (GPa) = 50.60884 51.12008 50.86446
# Shear Modulus (GPa) = 24.50513 25.13619 24.82066
#
# Velocity S-wave (km/s) = 3.76757 3.81577 3.79174
# Velocity P-wave (km/s) = 6.94559 7.00176 6.97373
#
# Compressibility (1/GPa) = 0.01975939
#
# Stress axis : x y z
#
# Youngs Moduli (GPa) = 62.02324 77.09438 63.20980
#
# Poissons Ratio (x) = 0.12618 0.43725
# Poissons Ratio (y) = 0.10151 0.25432
# Poissons Ratio (z) = 0.42904 0.31018
#
# Static dielectric constant tensor:
#      x y z
#    x 3.292950 0.000000 0.000000 
#    y 0.000000 3.182590 0.000000 
#    z 0.000000 0.000000 3.044160 
# 
# 
# High freq. dielectric constant tensor:
#      x y z
#    x 1.667710 0.000000 0.000000 
#    y 0.000000 1.663290 0.000000 
#    z 0.000000 0.000000 1.643810 
# 
# From -- ./inp_files/17172.got.cif
#   From: 2010.06.25/outbox.cif.g09.slc.cpg/sg58_9_cif.got.tgz:17172.got - 2010.06.26 21:38:00.
