data_PCOD8236844
_publ_section_title
;
Structure prediction by ZEFSAII (Michael W. Deem and Ramdas Pophale) SiO2 
 PCOD8236844
Probable space group: P N N M
;
_chemical_formula_sum "Si O2"
_cell_formula_units_Z 40
_cell_length_a 7.352507
_cell_length_b 15.803561
_cell_length_c 13.177806
_cell_angle_alpha 90.000000
_cell_angle_beta 90.000000
_cell_angle_gamma 90.000000
_cell_volume 1531.205617
_symmetry_space_group_name_H-M "P N N M"
_symmetry_group_IT_number 58
_symmetry_cell_setting 'orthorhombic'
loop_
_space_group_symop_operation_xyz
x,y,z
-x,-y,z
1/2+x,1/2-y,1/2-z
1/2-x,1/2+y,1/2-z
-x,-y,-z
x,y,-z
1/2-x,1/2+y,1/2+z
1/2+x,1/2-y,1/2+z
loop_
_atom_site_type_symbol
_atom_site_label
_atom_site_fract_x
_atom_site_fract_y
_atom_site_fract_z
Si Si1 0.498809 0.659696 0.619720
Si Si2 0.830966 0.229030 0.300988
Si Si3 0.942688 0.636426 0.387200
Si Si4 0.240978 0.015054 0.178612
Si Si5 0.189421 0.954416 0.609913
O O1 0.529239 0.667555 0.500000
O O2 0.325523 0.712641 0.655861
O O3 0.670994 0.703136 0.680410
O O4 0.453204 0.563151 0.659041
O O5 0.840321 0.144188 0.366681
O O6 0.019471 0.284130 0.312403
O O7 0.944195 0.673173 0.500000
O O8 0.753728 0.580637 0.371390
O O9 0.103878 0.569166 0.374148
O O10 0.291907 0.002610 0.297926
O O11 0.291707 0.962430 0.500000
O O12 0.000000 0.000000 0.598943
#
# Coordination Sequence:
#
# PCOD8236844 Si02
#       5
#     8   8   8   8   8
#     4  11  23  42  64  91 129 166 203 263 316 362
#     4  11  22  41  64  92 125 165 210 254 309 375
#     4  10  20  37  65  91 119 161 200 251 310 365
#     4  10  19  38  61  90 120 155 203 249 303 371
#     4  11  22  38  58  83 119 160 198 245 299 357
#
# _framework density 26.123207000000001
#
# number of rings (size 3 to 8) (size 9 to 14) (size 15 to 20)
#    0.000    1.400    2.000    6.600    0.000    0.000 
#    0.000   15.000    0.000    0.000    0.000    0.000 
#    0.000    0.000    0.000    0.000    0.000    0.000 
#
# Total GULP energy -495691.128049 kJ/mol
# GULP energy per Si atom -12392.278201 kJ/mol
# Density = 2.606375 g / cm^3
# Si number density = 26.123207 Si / 1000 Ang^3
#
#
#
# Elastic Constant Matrix: (Units=GPa)
#
#
# Indices 1 2 3 4 5 6 
#
# 1 86.7008 43.1904 14.6225 0.0000 0.0000 0.0000
# 2 43.1904 145.3346 57.8027 0.0000 0.0000 0.0000
# 3 14.6225 57.8027 250.5549 0.0000 0.0000 0.0000
# 4 0.0000 0.0000 0.0000 41.5149 0.0000 0.0000
# 5 0.0000 0.0000 0.0000 0.0000 34.7224 0.0000
# 6 0.0000 0.0000 0.0000 0.0000 0.0000 43.4420
#
#
#
# Elastic Compliance Matrix: (Units=1/GPa)
#
#
# Indices 1 2 3 4 5 6 
#
# 1 0.013543 -0.004085 0.000152 0.000000 0.000000 0.000000
# 2 -0.004085 0.008808 -0.001794 0.000000 0.000000 0.000000
# 3 0.000152 -0.001794 0.004396 0.000000 0.000000 0.000000
# 4 0.000000 0.000000 0.000000 0.024088 0.000000 0.000000
# 5 0.000000 0.000000 0.000000 0.000000 0.028800 0.000000
# 6 0.000000 0.000000 0.000000 0.000000 0.000000 0.023019
#
#
# Mechanical properties :
#
#
# Convention : Reuss Voigt Hill
#
# Bulk Modulus (GPa) = 65.38562 79.31352 72.34957
# Shear Modulus (GPa) = 41.94422 48.40082 45.17252
#
# Velocity S-wave (km/s) = 4.01138 4.30907 4.16289
# Velocity P-wave (km/s) = 6.82194 7.42864 7.13175
#
# Compressibility (1/GPa) = 0.01529388
#
# Stress axis : x y z
#
# Youngs Moduli (GPa) = 73.83688 113.53203 227.47713
#
# Poissons Ratio (x) = 0.46381 -0.03459
# Poissons Ratio (y) = 0.30164 0.40800
# Poissons Ratio (z) = -0.01123 0.20363
#
# Static dielectric constant tensor:
#      x y z
#    x 5.636930 0.000000 0.000000 
#    y 0.000000 5.141290 0.000000 
#    z 0.000000 0.000000 5.248700 
# 
# 
# High freq. dielectric constant tensor:
#      x y z
#    x 2.084250 0.000000 0.000000 
#    y 0.000000 2.084940 0.000000 
#    z 0.000000 0.000000 2.044890 
# 
# From -- ./inp_files/12704.got.cif
#   From: 2010.06.25/outbox.cif.g09.slc.cpg/sg58_7_cif.got.tgz:12704.got - 2010.06.26 21:38:00.
