data_PCOD8236411
_publ_section_title
;
Structure prediction by ZEFSAII (Michael W. Deem and Ramdas Pophale) SiO2 
 PCOD8236411
Probable space group: P N N M
;
_chemical_formula_sum "Si O2"
_cell_formula_units_Z 64
_cell_length_a 25.027629
_cell_length_b 15.226801
_cell_length_c 8.870692
_cell_angle_alpha 90.000000
_cell_angle_beta 90.000000
_cell_angle_gamma 90.000000
_cell_volume 3380.538457
_symmetry_space_group_name_H-M "P N N M"
_symmetry_group_IT_number 58
_symmetry_cell_setting 'orthorhombic'
loop_
_space_group_symop_operation_xyz
x,y,z
-x,-y,z
1/2+x,1/2-y,1/2-z
1/2-x,1/2+y,1/2-z
-x,-y,-z
x,y,-z
1/2-x,1/2+y,1/2+z
1/2+x,1/2-y,1/2+z
loop_
_atom_site_type_symbol
_atom_site_label
_atom_site_fract_x
_atom_site_fract_y
_atom_site_fract_z
Si Si1 0.648917 0.309511 0.174584
Si Si2 0.606897 0.994446 0.680510
Si Si3 0.246044 0.272301 0.171351
Si Si4 0.856357 0.180910 0.821357
Si Si5 0.435324 0.818877 0.321263
Si Si6 0.555216 0.817087 0.321315
Si Si7 0.663191 0.505043 0.175759
Si Si8 0.278964 0.969970 0.669822
O O1 0.707519 0.295923 0.244856
O O2 0.603303 0.253549 0.252607
O O3 0.633805 0.412255 0.197664
O O4 0.651759 0.284428 0.000000
O O5 0.608466 0.995030 0.500000
O O6 0.575126 0.910693 0.744493
O O7 0.578878 0.083641 0.737131
O O8 0.667671 0.990514 0.746757
O O9 0.302829 0.277168 0.253629
O O10 0.215622 0.364957 0.175998
O O11 0.255335 0.241453 0.000000
O O12 0.906194 0.239393 0.765902
O O13 0.867904 0.082248 0.762634
O O14 0.850977 0.180262 0.000000
O O15 0.429943 0.812833 0.500000
O O16 0.495306 0.797775 0.264978
O O17 0.555987 0.824144 0.500000
O O18 0.723446 0.499581 0.246249
O O19 0.666935 0.532543 0.000000
O O20 0.277522 0.005166 0.500000
#
# Coordination Sequence:
#
# PCOD8236411 Si02
#       8
#     8   8   8   8   8   8   8   8
#     4  11  22  35  55  82 109 145 188 232 279 326
#     4   9  15  27  52  82 108 139 180 219 261 321
#     4  10  19  34  54  79 111 147 181 219 271 331
#     4  10  20  35  55  82 112 142 182 233 280 325
#     4  10  19  35  56  81 110 143 183 229 274 328
#     4   9  19  32  53  82 110 141 183 228 274 326
#     4   9  20  36  54  76 108 146 185 228 279 335
#     4   8  14  27  49  76 102 133 171 213 260 316
#
# _framework density 18.931895999999998
#
# number of rings (size 3 to 8) (size 9 to 14) (size 15 to 20)
#    0.000    2.500    1.250    2.250    1.750    2.500 
#    0.000    1.875    0.000    6.750    0.000    0.000 
#    0.000    0.000    0.000    0.000    0.000    0.000 
#
# Total GULP energy -793365.120484 kJ/mol
# GULP energy per Si atom -12396.330008 kJ/mol
# Density = 1.888881 g / cm^3
# Si number density = 18.931896 Si / 1000 Ang^3
#
#
#
# Elastic Constant Matrix: (Units=GPa)
#
#
# Indices 1 2 3 4 5 6 
#
# 1 113.5746 72.6096 33.5575 0.0000 0.0000 0.0000
# 2 72.6096 125.4175 35.4062 0.0000 0.0000 0.0000
# 3 33.5575 35.4062 52.3624 0.0000 0.0000 0.0000
# 4 0.0000 0.0000 0.0000 23.7153 0.0000 0.0000
# 5 0.0000 0.0000 0.0000 0.0000 21.5801 0.0000
# 6 0.0000 0.0000 0.0000 0.0000 0.0000 27.7321
#
#
#
# Elastic Compliance Matrix: (Units=1/GPa)
#
#
# Indices 1 2 3 4 5 6 
#
# 1 0.014812 -0.007286 -0.004566 0.000000 0.000000 0.000000
# 2 -0.007286 0.013439 -0.004417 0.000000 0.000000 0.000000
# 3 -0.004566 -0.004417 0.025011 0.000000 0.000000 0.000000
# 4 0.000000 0.000000 0.000000 0.042167 0.000000 0.000000
# 5 0.000000 0.000000 0.000000 0.000000 0.046339 0.000000
# 6 0.000000 0.000000 0.000000 0.000000 0.000000 0.036059
#
#
# Mechanical properties :
#
#
# Convention : Reuss Voigt Hill
#
# Bulk Modulus (GPa) = 48.25667 63.83346 56.04507
# Shear Modulus (GPa) = 23.01249 24.59091 23.80170
#
# Velocity S-wave (km/s) = 3.49024 3.60796 3.54959
# Velocity P-wave (km/s) = 6.46431 7.15172 6.81669
#
# Compressibility (1/GPa) = 0.02072252
#
# Stress axis : x y z
#
# Youngs Moduli (GPa) = 67.51238 74.41109 39.98299
#
# Poissons Ratio (x) = 0.54219 0.18255
# Poissons Ratio (y) = 0.49192 0.17662
# Poissons Ratio (z) = 0.30824 0.32870
#
# Static dielectric constant tensor:
#      x y z
#    x 3.577780 0.000000 0.000000 
#    y 0.000000 3.500800 0.000000 
#    z 0.000000 0.000000 3.125670 
# 
# 
# High freq. dielectric constant tensor:
#      x y z
#    x 1.734160 0.000000 0.000000 
#    y 0.000000 1.737100 0.000000 
#    z 0.000000 0.000000 1.696910 
# 
# From -- ./inp_files/10116.got.cif
#   From: 2010.06.25/outbox.cif.g09.slc.cpg/sg58_6_cif.got.tgz:10116.got - 2010.06.26 21:38:00.
