data_PCOD8236372
_publ_section_title
;
Structure prediction by ZEFSAII (Michael W. Deem and Ramdas Pophale) SiO2 
 PCOD8236372
Probable space group: P N N M
;
_chemical_formula_sum "Si O2"
_cell_formula_units_Z 56
_cell_length_a 15.120808
_cell_length_b 20.742158
_cell_length_c 9.579930
_cell_angle_alpha 90.000000
_cell_angle_beta 90.000000
_cell_angle_gamma 90.000000
_cell_volume 3004.631892
_symmetry_space_group_name_H-M "P N N M"
_symmetry_group_IT_number 58
_symmetry_cell_setting 'orthorhombic'
loop_
_space_group_symop_operation_xyz
x,y,z
-x,-y,z
1/2+x,1/2-y,1/2-z
1/2-x,1/2+y,1/2-z
-x,-y,-z
x,y,-z
1/2-x,1/2+y,1/2+z
1/2+x,1/2-y,1/2+z
loop_
_atom_site_type_symbol
_atom_site_label
_atom_site_fract_x
_atom_site_fract_y
_atom_site_fract_z
Si Si1 0.824073 0.334005 0.334876
Si Si2 0.368318 0.474695 0.151685
Si Si3 0.281286 0.021749 0.153479
Si Si4 0.947307 0.561380 0.656257
Si Si5 0.026418 0.104521 0.652620
Si Si6 0.002022 0.680231 0.833877
Si Si7 0.372114 0.703250 0.661820
O O1 0.844306 0.326408 0.500000
O O2 0.818649 0.409781 0.289019
O O3 0.905134 0.303258 0.245068
O O4 0.732152 0.297100 0.293921
O O5 0.295072 0.490078 0.261114
O O6 0.428777 0.536310 0.137347
O O7 0.425271 0.411598 0.198660
O O8 0.325418 0.459967 0.000000
O O9 0.347847 0.962329 0.149044
O O10 0.244808 0.037993 0.000000
O O11 0.979561 0.583630 0.500000
O O12 0.000000 0.500000 0.709743
O O13 0.961087 0.615555 0.771283
O O14 0.027552 0.139130 0.500000
O O15 0.076788 0.145807 0.765273
O O16 0.924788 0.731805 0.800910
O O17 0.019294 0.674172 0.000000
O O18 0.377275 0.687685 0.500000
#
# Coordination Sequence:
#
# PCOD8236372 Si02
#       7
#     8   8   8   8   8   8   8
#     4  10  20  39  63  83 109 151 192 231 285 343
#     4   9  18  32  51  81 118 147 181 232 283 332
#     4  10  19  33  58  85 108 144 190 230 277 340
#     4  10  20  38  60  83 112 145 186 234 285 345
#     4   9  18  33  54  81 113 150 187 227 281 338
#     4  11  24  40  59  87 117 147 189 242 291 338
#     4  10  22  40  60  83 115 152 196 240 281 340
#
# _framework density 18.637891
#
# number of rings (size 3 to 8) (size 9 to 14) (size 15 to 20)
#    0.000    2.143    2.857    1.286    0.000    3.714 
#    2.571    1.429    0.000    0.000    0.000    0.000 
#    0.000    0.000    0.000    0.000    0.000    0.000 
#
# Total GULP energy -693750.666683 kJ/mol
# GULP energy per Si atom -12388.404762 kJ/mol
# Density = 1.859547 g / cm^3
# Si number density = 18.637891 Si / 1000 Ang^3
#
#
#
# Elastic Constant Matrix: (Units=GPa)
#
#
# Indices 1 2 3 4 5 6 
#
# 1 113.3955 53.7226 60.2454 0.0000 0.0000 0.0000
# 2 53.7226 74.3264 41.9336 0.0000 0.0000 0.0000
# 3 60.2454 41.9336 74.8574 0.0000 0.0000 0.0000
# 4 0.0000 0.0000 0.0000 44.2230 0.0000 0.0000
# 5 0.0000 0.0000 0.0000 0.0000 38.7507 0.0000
# 6 0.0000 0.0000 0.0000 0.0000 0.0000 31.5823
#
#
#
# Elastic Compliance Matrix: (Units=1/GPa)
#
#
# Indices 1 2 3 4 5 6 
#
# 1 0.017525 -0.006886 -0.010247 0.000000 0.000000 0.000000
# 2 -0.006886 0.022377 -0.006993 0.000000 0.000000 0.000000
# 3 -0.010247 -0.006993 0.025523 0.000000 0.000000 0.000000
# 4 0.000000 0.000000 0.000000 0.022613 0.000000 0.000000
# 5 0.000000 0.000000 0.000000 0.000000 0.025806 0.000000
# 6 0.000000 0.000000 0.000000 0.000000 0.000000 0.031663
#
#
# Mechanical properties :
#
#
# Convention : Reuss Voigt Hill
#
# Bulk Modulus (GPa) = 58.23187 63.82026 61.02606
# Shear Modulus (GPa) = 25.06490 30.02305 27.54398
#
# Velocity S-wave (km/s) = 3.67118 4.01791 3.84845
# Velocity P-wave (km/s) = 7.02009 7.47271 7.24993
#
# Compressibility (1/GPa) = 0.01717273
#
# Stress axis : x y z
#
# Youngs Moduli (GPa) = 57.06161 44.68944 39.18070
#
# Poissons Ratio (x) = 0.30773 0.40148
# Poissons Ratio (y) = 0.39292 0.27400
# Poissons Ratio (z) = 0.58470 0.31252
#
# Static dielectric constant tensor:
#      x y z
#    x 3.267790 0.000000 0.000000 
#    y 0.000000 4.491500 0.000000 
#    z 0.000000 0.000000 3.907300 
# 
# 
# High freq. dielectric constant tensor:
#      x y z
#    x 1.732630 0.000000 0.000000 
#    y 0.000000 1.704710 0.000000 
#    z 0.000000 0.000000 1.720980 
# 
# From -- ./inp_files/6464.got.cif
#   From: 2010.06.25/outbox.cif.g09.slc.cpg/sg58_4_cif.got.tgz:6464.got - 2010.06.26 21:38:00.
