data_PCOD8236130
_publ_section_title
;
Structure prediction by ZEFSAII (Michael W. Deem and Ramdas Pophale) SiO2 
 PCOD8236130
Probable space group: P N N M
;
_chemical_formula_sum "Si O2"
_cell_formula_units_Z 40
_cell_length_a 16.687340
_cell_length_b 16.521986
_cell_length_c 7.670316
_cell_angle_alpha 90.000000
_cell_angle_beta 90.000000
_cell_angle_gamma 90.000000
_cell_volume 2114.767467
_symmetry_space_group_name_H-M "P N N M"
_symmetry_group_IT_number 58
_symmetry_cell_setting 'orthorhombic'
loop_
_space_group_symop_operation_xyz
x,y,z
-x,-y,z
1/2+x,1/2-y,1/2-z
1/2-x,1/2+y,1/2-z
-x,-y,-z
x,y,-z
1/2-x,1/2+y,1/2+z
1/2+x,1/2-y,1/2+z
loop_
_atom_site_type_symbol
_atom_site_label
_atom_site_fract_x
_atom_site_fract_y
_atom_site_fract_z
Si Si1 0.496940 0.369238 0.500000
Si Si2 0.712788 0.420034 0.202077
Si Si3 0.943233 0.617294 0.793443
Si Si4 0.609724 0.945224 0.295737
Si Si5 0.870683 0.005646 0.000000
Si Si6 0.581568 0.291189 0.805578
O O1 0.405969 0.403088 0.500000
O O2 0.556690 0.443646 0.500000
O O3 0.510908 0.315459 0.672528
O O4 0.805534 0.404821 0.254474
O O5 0.680306 0.492399 0.323734
O O6 0.664581 0.337299 0.240611
O O7 0.705174 0.447197 0.000000
O O8 0.895407 0.537879 0.726734
O O9 0.902952 0.695335 0.704429
O O10 0.035774 0.608944 0.726543
O O11 0.937864 0.628636 0.000000
O O12 0.597675 0.951402 0.500000
O O13 0.554223 0.315949 0.000000
#
# Coordination Sequence:
#
# PCOD8236130 Si02
#       6
#     4   8   8   8   4   8
#     4   9  18  34  52  73 104 134 171 214 246 308
#     4   9  18  34  53  75 106 136 170 215 261 310
#     4   9  16  32  56  76 101 137 177 216 258 309
#     4   8  16  32  55  77 100 138 177 214 261 307
#     4   9  18  32  54  77  96 136 177 204 256 304
#     4  10  19  32  53  77 104 139 171 210 265 309
#
# _framework density 18.91461
#
# number of rings (size 3 to 8) (size 9 to 14) (size 15 to 20)
#    0.000    3.000    1.000    1.200    0.000    0.800 
#    3.600    7.000    0.000    2.400    0.000    0.000 
#    0.000    0.000    0.000    0.000    0.000    0.000 
#
# Total GULP energy -495720.747963 kJ/mol
# GULP energy per Si atom -12393.018699 kJ/mol
# Density = 1.887156 g / cm^3
# Si number density = 18.914610 Si / 1000 Ang^3
#
#
#
# Elastic Constant Matrix: (Units=GPa)
#
#
# Indices 1 2 3 4 5 6 
#
# 1 107.0411 54.6398 35.8500 0.0000 0.0000 0.0000
# 2 54.6398 100.0695 28.5092 0.0000 0.0000 0.0000
# 3 35.8500 28.5092 81.1011 0.0000 0.0000 0.0000
# 4 0.0000 0.0000 0.0000 16.3399 0.0000 0.0000
# 5 0.0000 0.0000 0.0000 0.0000 15.8480 0.0000
# 6 0.0000 0.0000 0.0000 0.0000 0.0000 21.5048
#
#
#
# Elastic Compliance Matrix: (Units=1/GPa)
#
#
# Indices 1 2 3 4 5 6 
#
# 1 0.013972 -0.006523 -0.003883 0.000000 0.000000 0.000000
# 2 -0.006523 0.014150 -0.002091 0.000000 0.000000 0.000000
# 3 -0.003883 -0.002091 0.014782 0.000000 0.000000 0.000000
# 4 0.000000 0.000000 0.000000 0.061200 0.000000 0.000000
# 5 0.000000 0.000000 0.000000 0.000000 0.063100 0.000000
# 6 0.000000 0.000000 0.000000 0.000000 0.000000 0.046501
#
#
# Mechanical properties :
#
#
# Convention : Reuss Voigt Hill
#
# Bulk Modulus (GPa) = 55.83342 58.46774 57.15058
# Shear Modulus (GPa) = 20.43570 22.01938 21.22754
#
# Velocity S-wave (km/s) = 3.29054 3.41566 3.35368
# Velocity P-wave (km/s) = 6.63473 6.82160 6.72881
#
# Compressibility (1/GPa) = 0.01791042
#
# Stress axis : x y z
#
# Youngs Moduli (GPa) = 71.56928 70.66972 67.65016
#
# Poissons Ratio (x) = 0.46097 0.26272
# Poissons Ratio (y) = 0.46684 0.14145
# Poissons Ratio (z) = 0.27794 0.14776
#
# Static dielectric constant tensor:
#      x y z
#    x 3.563590 0.000000 0.000000 
#    y 0.000000 3.418500 0.000000 
#    z 0.000000 0.000000 3.421680 
# 
# 
# High freq. dielectric constant tensor:
#      x y z
#    x 1.717020 0.000000 0.000000 
#    y 0.000000 1.716820 0.000000 
#    z 0.000000 0.000000 1.733180 
# 
# From -- ./inp_files/5413.got.cif
#   From: 2010.06.25/outbox.cif.g09.slc.cpg/sg58_3_cif.got.tgz:5413.got - 2010.06.26 21:38:00.
