data_PCOD8236851
_publ_section_title
;
Structure prediction by ZEFSAII (Michael W. Deem and Ramdas Pophale) SiO2 
 PCOD8236851
Probable space group: P N N M
;
_chemical_formula_sum "Si O2"
_cell_formula_units_Z 48
_cell_length_a 27.057429
_cell_length_b 9.947948
_cell_length_c 8.856813
_cell_angle_alpha 90.000000
_cell_angle_beta 90.000000
_cell_angle_gamma 90.000000
_cell_volume 2383.952013
_symmetry_space_group_name_H-M "P N N M"
_symmetry_group_IT_number 58
_symmetry_cell_setting 'orthorhombic'
loop_
_space_group_symop_operation_xyz
x,y,z
-x,-y,z
1/2+x,1/2-y,1/2-z
1/2-x,1/2+y,1/2-z
-x,-y,-z
x,y,-z
1/2-x,1/2+y,1/2+z
1/2+x,1/2-y,1/2+z
loop_
_atom_site_type_symbol
_atom_site_label
_atom_site_fract_x
_atom_site_fract_y
_atom_site_fract_z
Si Si1 0.296025 0.580874 0.825397
Si Si2 0.888836 0.545338 0.321005
Si Si3 0.220627 0.383635 0.324956
Si Si4 0.926928 0.259651 0.678173
Si Si5 0.040123 0.220880 0.678215
Si Si6 0.895826 0.993876 0.821839
O O1 0.260184 0.462741 0.773296
O O2 0.270178 0.725133 0.800042
O O3 0.346451 0.580292 0.732028
O O4 0.309596 0.560046 0.000000
O O5 0.891716 0.549039 0.500000
O O6 0.833635 0.576565 0.265267
O O7 0.905698 0.400450 0.260803
O O8 0.926202 0.657942 0.258080
O O9 0.227105 0.423306 0.500000
O O10 0.919421 0.243992 0.500000
O O11 0.895661 0.145469 0.761135
O O12 0.984173 0.252136 0.723418
O O13 0.046330 0.202005 0.500000
O O14 0.056400 0.082862 0.757095
O O15 0.897872 0.994805 0.000000
#
# Coordination Sequence:
#
# PCOD8236851 Si02
#       6
#     8   8   8   8   8   8
#     4  11  24  43  66  90 120 156 199 246 300 359
#     4   9  18  37  63  91 121 153 197 249 297 352
#     4  10  22  41  64  92 123 154 196 248 299 354
#     4  10  21  36  62  94 121 158 202 246 299 357
#     4  10  19  38  64  90 120 156 203 250 299 358
#     4  12  25  40  59  86 124 163 204 248 297 351
#
# _framework density 20.134633000000001
#
# number of rings (size 3 to 8) (size 9 to 14) (size 15 to 20)
#    0.000    1.667    1.667    3.000    2.333    6.000 
#    0.000    0.833    0.000    2.000    0.000    0.000 
#    0.000    0.000    0.000    0.000    0.000    0.000 
#
# Total GULP energy -595457.839843 kJ/mol
# GULP energy per Si atom -12405.371663 kJ/mol
# Density = 2.008881 g / cm^3
# Si number density = 20.134633 Si / 1000 Ang^3
#
#
#
# Elastic Constant Matrix: (Units=GPa)
#
#
# Indices 1 2 3 4 5 6 
#
# 1 70.1409 20.6291 25.6060 0.0000 0.0000 0.0000
# 2 20.6291 110.2465 31.5242 0.0000 0.0000 0.0000
# 3 25.6060 31.5242 53.2666 0.0000 0.0000 0.0000
# 4 0.0000 0.0000 0.0000 21.2931 0.0000 0.0000
# 5 0.0000 0.0000 0.0000 0.0000 25.1042 0.0000
# 6 0.0000 0.0000 0.0000 0.0000 0.0000 41.4849
#
#
#
# Elastic Compliance Matrix: (Units=1/GPa)
#
#
# Indices 1 2 3 4 5 6 
#
# 1 0.017390 -0.001040 -0.007744 0.000000 0.000000 0.000000
# 2 -0.001040 0.010980 -0.005999 0.000000 0.000000 0.000000
# 3 -0.007744 -0.005999 0.026046 0.000000 0.000000 0.000000
# 4 0.000000 0.000000 0.000000 0.046964 0.000000 0.000000
# 5 0.000000 0.000000 0.000000 0.000000 0.039834 0.000000
# 6 0.000000 0.000000 0.000000 0.000000 0.000000 0.024105
#
#
# Mechanical properties :
#
#
# Convention : Reuss Voigt Hill
#
# Bulk Modulus (GPa) = 40.23886 43.24141 41.74013
# Shear Modulus (GPa) = 24.61010 27.96941 26.28976
#
# Velocity S-wave (km/s) = 3.49990 3.73113 3.61736
# Velocity P-wave (km/s) = 6.02998 6.33124 6.18244
#
# Compressibility (1/GPa) = 0.02485160
#
# Stress axis : x y z
#
# Youngs Moduli (GPa) = 57.50448 91.07153 38.39292
#
# Poissons Ratio (x) = 0.09467 0.29733
# Poissons Ratio (y) = 0.05978 0.23031
# Poissons Ratio (z) = 0.44534 0.54631
#
# Static dielectric constant tensor:
#      x y z
#    x 3.718550 0.000000 0.000000 
#    y 0.000000 3.871460 0.000000 
#    z 0.000000 0.000000 3.332150 
# 
# 
# High freq. dielectric constant tensor:
#      x y z
#    x 1.793020 0.000000 0.000000 
#    y 0.000000 1.803280 0.000000 
#    z 0.000000 0.000000 1.756850 
# 
# From -- ./inp_files/2982.got.cif
#   From: 2010.06.25/outbox.cif.g09.slc.cpg/sg58_2_cif.got.tgz:2982.got - 2010.06.26 21:38:00.
