data_PCOD8236564
_publ_section_title
;
Structure prediction by ZEFSAII (Michael W. Deem and Ramdas Pophale) SiO2 
 PCOD8236564
Probable space group: P N N M
;
_chemical_formula_sum "Si O2"
_cell_formula_units_Z 56
_cell_length_a 9.199306
_cell_length_b 20.247139
_cell_length_c 14.240493
_cell_angle_alpha 90.000000
_cell_angle_beta 90.000000
_cell_angle_gamma 90.000000
_cell_volume 2652.428919
_symmetry_space_group_name_H-M "P N N M"
_symmetry_group_IT_number 58
_symmetry_cell_setting 'orthorhombic'
loop_
_space_group_symop_operation_xyz
x,y,z
-x,-y,z
1/2+x,1/2-y,1/2-z
1/2-x,1/2+y,1/2-z
-x,-y,-z
x,y,-z
1/2-x,1/2+y,1/2+z
1/2+x,1/2-y,1/2+z
loop_
_atom_site_type_symbol
_atom_site_label
_atom_site_fract_x
_atom_site_fract_y
_atom_site_fract_z
Si Si1 0.926317 0.062086 0.751913
Si Si2 0.593098 0.062967 0.719999
Si Si3 0.881187 0.875961 0.604040
Si Si4 0.617020 0.732261 0.897543
Si Si5 0.340951 0.300900 0.695351
Si Si6 0.564195 0.145816 0.105048
Si Si7 0.568060 0.830287 0.388795
O O1 0.763585 0.046276 0.715817
O O2 0.927808 0.129251 0.813450
O O3 0.033867 0.069761 0.663672
O O4 0.000000 0.000000 0.808007
O O5 0.549264 0.083632 0.825919
O O6 0.561001 0.123454 0.649205
O O7 0.500000 0.000000 0.688666
O O8 0.867337 0.905524 0.500000
O O9 0.720371 0.862164 0.644329
O O10 0.965151 0.806596 0.604131
O O11 0.707290 0.710029 0.805447
O O12 0.581143 0.810053 0.890234
O O13 0.695653 0.718912 0.000000
O O14 0.196968 0.306413 0.634038
O O15 0.444538 0.242609 0.657825
O O16 0.589761 0.118625 0.000000
O O17 0.556057 0.822856 0.500000
#
# Coordination Sequence:
#
# PCOD8236564 Si02
#       7
#     8   8   8   8   8   8   8
#     4  10  22  38  58  84 117 166 209 247 299 374
#     4  11  24  40  59  90 125 163 205 263 319 364
#     4   9  18  33  58  86 117 155 197 242 299 379
#     4   9  16  30  54  86 120 152 196 245 300 366
#     4  10  19  34  61  88 123 157 204 256 314 363
#     4  10  19  35  60  87 117 160 206 250 303 376
#     4  11  21  36  62  96 127 157 200 260 327 383
#
# _framework density 21.112724
#
# number of rings (size 3 to 8) (size 9 to 14) (size 15 to 20)
#    0.000    2.000    2.857    1.286    0.000    1.429 
#    0.000    2.143    0.000   10.714    0.000    8.000 
#    0.000    0.000    0.000    0.000    0.000    0.000 
#
# Total GULP energy -694057.905903 kJ/mol
# GULP energy per Si atom -12393.891177 kJ/mol
# Density = 2.106467 g / cm^3
# Si number density = 21.112724 Si / 1000 Ang^3
#
#
#
# Elastic Constant Matrix: (Units=GPa)
#
#
# Indices 1 2 3 4 5 6 
#
# 1 76.7239 37.3469 9.5766 0.0000 0.0000 0.0000
# 2 37.3469 129.2808 32.0378 0.0000 0.0000 0.0000
# 3 9.5766 32.0378 111.3484 0.0000 0.0000 0.0000
# 4 0.0000 0.0000 0.0000 18.5992 0.0000 0.0000
# 5 0.0000 0.0000 0.0000 0.0000 24.9590 0.0000
# 6 0.0000 0.0000 0.0000 0.0000 0.0000 26.9886
#
#
#
# Elastic Compliance Matrix: (Units=1/GPa)
#
#
# Indices 1 2 3 4 5 6 
#
# 1 0.015167 -0.004370 -0.000047 0.000000 0.000000 0.000000
# 2 -0.004370 0.009588 -0.002383 0.000000 0.000000 0.000000
# 3 -0.000047 -0.002383 0.009670 0.000000 0.000000 0.000000
# 4 0.000000 0.000000 0.000000 0.053766 0.000000 0.000000
# 5 0.000000 0.000000 0.000000 0.000000 0.040066 0.000000
# 6 0.000000 0.000000 0.000000 0.000000 0.000000 0.037053
#
#
# Mechanical properties :
#
#
# Convention : Reuss Voigt Hill
#
# Bulk Modulus (GPa) = 48.01771 52.80844 50.41308
# Shear Modulus (GPa) = 26.90332 30.00213 28.45272
#
# Velocity S-wave (km/s) = 3.57356 3.77376 3.67503
# Velocity P-wave (km/s) = 6.31031 6.63742 6.47593
#
# Compressibility (1/GPa) = 0.02082565
#
# Stress axis : x y z
#
# Youngs Moduli (GPa) = 65.93406 104.29764 103.40734
#
# Poissons Ratio (x) = 0.45575 0.00488
# Poissons Ratio (y) = 0.28811 0.24641
# Poissons Ratio (z) = 0.00311 0.24853
#
# Static dielectric constant tensor:
#      x y z
#    x 3.579600 0.000000 0.000000 
#    y 0.000000 3.794940 0.000000 
#    z 0.000000 0.000000 3.862250 
# 
# 
# High freq. dielectric constant tensor:
#      x y z
#    x 1.809610 0.000000 0.000000 
#    y 0.000000 1.824800 0.000000 
#    z 0.000000 0.000000 1.814860 
# 
# From -- ./inp_files/20125.got.cif
#   From: 2010.06.25/outbox.cif.g09.slc.cpg/sg58_11_cif.got.tgz:20125.got - 2010.06.26 21:38:00.
