data_PCOD8236342
_publ_section_title
;
Structure prediction by ZEFSAII (Michael W. Deem and Ramdas Pophale) SiO2 
 PCOD8236342
Probable space group: P N N M
;
_chemical_formula_sum "Si O2"
_cell_formula_units_Z 56
_cell_length_a 23.727624
_cell_length_b 13.356161
_cell_length_c 9.147225
_cell_angle_alpha 90.000000
_cell_angle_beta 90.000000
_cell_angle_gamma 90.000000
_cell_volume 2898.846766
_symmetry_space_group_name_H-M "P N N M"
_symmetry_group_IT_number 58
_symmetry_cell_setting 'orthorhombic'
loop_
_space_group_symop_operation_xyz
x,y,z
-x,-y,z
1/2+x,1/2-y,1/2-z
1/2-x,1/2+y,1/2-z
-x,-y,-z
x,y,-z
1/2-x,1/2+y,1/2+z
1/2+x,1/2-y,1/2+z
loop_
_atom_site_type_symbol
_atom_site_label
_atom_site_fract_x
_atom_site_fract_y
_atom_site_fract_z
Si Si1 0.659058 0.742596 0.166949
Si Si2 0.334456 0.029628 0.830992
Si Si3 0.942444 0.781780 0.169812
Si Si4 0.115917 0.050445 0.671042
Si Si5 0.557775 0.051528 0.672256
Si Si6 0.768930 0.055266 0.666856
Si Si7 0.564897 0.633210 0.329114
O O1 0.680551 0.854304 0.195588
O O2 0.710903 0.668281 0.198905
O O3 0.607117 0.718733 0.272846
O O4 0.638264 0.727054 0.000000
O O5 0.391993 0.005601 0.750110
O O6 0.283509 0.963762 0.770891
O O7 0.342250 0.004133 0.000000
O O8 0.894984 0.840010 0.262126
O O9 0.942700 0.667023 0.220669
O O10 0.002523 0.829783 0.204881
O O11 0.927073 0.790973 0.000000
O O12 0.102707 0.049960 0.500000
O O13 0.180523 0.021384 0.702690
O O14 0.074331 0.971288 0.747294
O O15 0.565893 0.040020 0.500000
O O16 0.500000 0.000000 0.723832
O O17 0.748973 0.042772 0.500000
O O18 0.575055 0.615978 0.500000
#
# Coordination Sequence:
#
# PCOD8236342 Si02
#       7
#     8   8   8   8   8   8   8
#     4   9  20  38  57  79 110 147 185 229 280 329
#     4  11  23  38  59  86 112 141 182 231 281 330
#     4  10  21  35  54  82 114 148 186 229 275 325
#     4  10  21  36  55  82 115 149 185 227 277 329
#     4  10  22  41  61  81 110 148 187 226 273 330
#     4   9  20  39  58  78 108 146 186 225 270 329
#     4  10  19  33  56  84 112 146 190 230 267 323
#
# _framework density 19.318026
#
# number of rings (size 3 to 8) (size 9 to 14) (size 15 to 20)
#    0.000    2.143    0.000    3.429    0.000   10.000 
#    0.000    4.286    0.000    0.000    0.000    0.000 
#    0.000    0.000    0.000    0.000    0.000    0.000 
#
# Total GULP energy -694639.324725 kJ/mol
# GULP energy per Si atom -12404.273656 kJ/mol
# Density = 1.927406 g / cm^3
# Si number density = 19.318026 Si / 1000 Ang^3
#
#
#
# Elastic Constant Matrix: (Units=GPa)
#
#
# Indices 1 2 3 4 5 6 
#
# 1 111.6664 61.4633 53.0091 0.0000 0.0000 0.0000
# 2 61.4633 119.4957 51.2989 0.0000 0.0000 0.0000
# 3 53.0091 51.2989 68.9103 0.0000 0.0000 0.0000
# 4 0.0000 0.0000 0.0000 24.6992 0.0000 0.0000
# 5 0.0000 0.0000 0.0000 0.0000 31.4361 0.0000
# 6 0.0000 0.0000 0.0000 0.0000 0.0000 21.4766
#
#
#
# Elastic Compliance Matrix: (Units=1/GPa)
#
#
# Indices 1 2 3 4 5 6 
#
# 1 0.015400 -0.004167 -0.008744 0.000000 0.000000 0.000000
# 2 -0.004167 0.013427 -0.006790 0.000000 0.000000 0.000000
# 3 -0.008744 -0.006790 0.026292 0.000000 0.000000 0.000000
# 4 0.000000 0.000000 0.000000 0.040487 0.000000 0.000000
# 5 0.000000 0.000000 0.000000 0.000000 0.031811 0.000000
# 6 0.000000 0.000000 0.000000 0.000000 0.000000 0.046562
#
#
# Mechanical properties :
#
#
# Convention : Reuss Voigt Hill
#
# Bulk Modulus (GPa) = 63.62506 70.17945 66.90225
# Shear Modulus (GPa) = 22.87074 24.47578 23.67326
#
# Velocity S-wave (km/s) = 3.44453 3.56334 3.50444
# Velocity P-wave (km/s) = 6.98762 7.30323 7.14717
#
# Compressibility (1/GPa) = 0.01571708
#
# Stress axis : x y z
#
# Youngs Moduli (GPa) = 64.93554 74.47859 38.03380
#
# Poissons Ratio (x) = 0.31037 0.33257
# Poissons Ratio (y) = 0.27060 0.25823
# Poissons Ratio (z) = 0.56780 0.50568
#
# Static dielectric constant tensor:
#      x y z
#    x 3.399430 0.000000 0.000000 
#    y 0.000000 3.700890 0.000000 
#    z 0.000000 0.000000 3.530720 
# 
# 
# High freq. dielectric constant tensor:
#      x y z
#    x 1.746940 0.000000 0.000000 
#    y 0.000000 1.760730 0.000000 
#    z 0.000000 0.000000 1.753490 
# 
# From -- ./inp_files/9030.got.cif
#   From: 2010.06.25/outbox.cif.g09.slc.cpg/sg58_5_cif.got.tgz:9030.got - 2010.06.26 21:38:00.
