data_PCOD8236104
_publ_section_title
;
Structure prediction by ZEFSAII (Michael W. Deem and Ramdas Pophale) SiO2 
 PCOD8236104
Probable space group: P N N M
;
_chemical_formula_sum "Si O2"
_cell_formula_units_Z 64
_cell_length_a 20.113355
_cell_length_b 19.801604
_cell_length_c 9.111377
_cell_angle_alpha 90.000000
_cell_angle_beta 90.000000
_cell_angle_gamma 90.000000
_cell_volume 3628.849080
_symmetry_space_group_name_H-M "P N N M"
_symmetry_group_IT_number 58
_symmetry_cell_setting 'orthorhombic'
loop_
_space_group_symop_operation_xyz
x,y,z
-x,-y,z
1/2+x,1/2-y,1/2-z
1/2-x,1/2+y,1/2-z
-x,-y,-z
x,y,-z
1/2-x,1/2+y,1/2+z
1/2+x,1/2-y,1/2+z
loop_
_atom_site_type_symbol
_atom_site_label
_atom_site_fract_x
_atom_site_fract_y
_atom_site_fract_z
Si Si1 0.475218 0.571738 0.175220
Si Si2 0.828274 0.939848 0.330642
Si Si3 0.208610 0.906914 0.670831
Si Si4 0.924498 0.328916 0.671599
Si Si5 0.974112 0.573715 0.826266
Si Si6 0.201801 0.586195 0.668460
Si Si7 0.661858 0.062494 0.826408
Si Si8 0.083194 0.824476 0.674048
O O1 0.500000 0.500000 0.237489
O O2 0.399814 0.584770 0.229458
O O3 0.522629 0.630722 0.237951
O O4 0.477113 0.569728 0.000000
O O5 0.821177 0.922881 0.500000
O O6 0.770136 0.897949 0.251954
O O7 0.822065 0.019451 0.300540
O O8 0.226100 0.896724 0.500000
O O9 0.275217 0.895649 0.765525
O O10 0.154215 0.853085 0.728067
O O11 0.943335 0.337050 0.500000
O O12 0.849758 0.354266 0.700372
O O13 0.927025 0.251965 0.726436
O O14 0.974662 0.370652 0.770618
O O15 0.904263 0.590103 0.749897
O O16 0.000000 0.500000 0.778339
O O17 0.965958 0.579171 0.000000
O O18 0.221045 0.580489 0.500000
O O19 0.169674 0.515637 0.720894
O O20 0.655937 0.072453 0.000000
O O21 0.082456 0.829298 0.500000
#
# Coordination Sequence:
#
# PCOD8236104 Si02
#       8
#     8   8   8   8   8   8   8   8
#     4   9  14  25  47  78 107 130 165 215 257 293
#     4   9  16  26  48  76 100 125 163 213 255 288
#     4   9  16  29  49  76 104 132 169 212 253 300
#     4  10  20  35  53  74 103 141 176 208 257 321
#     4  11  22  35  54  79 103 131 171 221 269 311
#     4   9  18  31  47  69  99 131 165 204 250 304
#     4  10  19  32  52  76 102 132 167 212 260 304
#     4   9  17  30  51  76 105 141 176 210 257 314
#
# _framework density 17.636444999999998
#
# number of rings (size 3 to 8) (size 9 to 14) (size 15 to 20)
#    0.000    2.500    2.500    0.750    0.000    1.500 
#    0.000    1.875    0.000    4.875    0.000    0.000 
#    0.000    0.000    0.000    0.000    0.000    0.000 
#
# Total GULP energy -793579.625186 kJ/mol
# GULP energy per Si atom -12399.681644 kJ/mol
# Density = 1.759630 g / cm^3
# Si number density = 17.636445 Si / 1000 Ang^3
#
#
#
# Elastic Constant Matrix: (Units=GPa)
#
#
# Indices 1 2 3 4 5 6 
#
# 1 150.7744 61.3725 49.9899 0.0000 0.0000 0.0000
# 2 61.3725 100.0580 28.7874 0.0000 0.0000 0.0000
# 3 49.9899 28.7874 47.8026 0.0000 0.0000 0.0000
# 4 0.0000 0.0000 0.0000 12.5791 0.0000 0.0000
# 5 0.0000 0.0000 0.0000 0.0000 23.9289 0.0000
# 6 0.0000 0.0000 0.0000 0.0000 0.0000 26.3271
#
#
#
# Elastic Compliance Matrix: (Units=1/GPa)
#
#
# Indices 1 2 3 4 5 6 
#
# 1 0.011537 -0.004361 -0.009439 0.000000 0.000000 0.000000
# 2 -0.004361 0.013737 -0.003712 0.000000 0.000000 0.000000
# 3 -0.009439 -0.003712 0.033026 0.000000 0.000000 0.000000
# 4 0.000000 0.000000 0.000000 0.079497 0.000000 0.000000
# 5 0.000000 0.000000 0.000000 0.000000 0.041790 0.000000
# 6 0.000000 0.000000 0.000000 0.000000 0.000000 0.037984
#
#
# Mechanical properties :
#
#
# Convention : Reuss Voigt Hill
#
# Bulk Modulus (GPa) = 42.96285 64.32607 53.64446
# Shear Modulus (GPa) = 19.20471 23.13271 21.16871
#
# Velocity S-wave (km/s) = 3.30346 3.62559 3.46827
# Velocity P-wave (km/s) = 6.24209 7.35385 6.82066
#
# Compressibility (1/GPa) = 0.02327593
#
# Stress axis : x y z
#
# Youngs Moduli (GPa) = 86.67817 72.79592 30.27962
#
# Poissons Ratio (x) = 0.31745 0.28580
# Poissons Ratio (y) = 0.37799 0.11241
# Poissons Ratio (z) = 0.81813 0.27024
#
# Static dielectric constant tensor:
#      x y z
#    x 3.479550 0.000000 0.000000 
#    y 0.000000 3.184840 0.000000 
#    z 0.000000 0.000000 3.005330 
# 
# 
# High freq. dielectric constant tensor:
#      x y z
#    x 1.698100 0.000000 0.000000 
#    y 0.000000 1.655850 0.000000 
#    z 0.000000 0.000000 1.653520 
# 
# From -- ./inp_files/9308.got.cif
#   From: 2010.06.25/outbox.cif.g09.slc.cpg/sg58_5_cif.got.tgz:9308.got - 2010.06.26 21:38:00.
