data_PCOD8236506
_publ_section_title
;
Structure prediction by ZEFSAII (Michael W. Deem and Ramdas Pophale) SiO2 
 PCOD8236506
Probable space group: P N N M
;
_chemical_formula_sum "Si O2"
_cell_formula_units_Z 48
_cell_length_a 12.415801
_cell_length_b 21.565702
_cell_length_c 9.145320
_cell_angle_alpha 90.000000
_cell_angle_beta 90.000000
_cell_angle_gamma 90.000000
_cell_volume 2448.709404
_symmetry_space_group_name_H-M "P N N M"
_symmetry_group_IT_number 58
_symmetry_cell_setting 'orthorhombic'
loop_
_space_group_symop_operation_xyz
x,y,z
-x,-y,z
1/2+x,1/2-y,1/2-z
1/2-x,1/2+y,1/2-z
-x,-y,-z
x,y,-z
1/2-x,1/2+y,1/2+z
1/2+x,1/2-y,1/2+z
loop_
_atom_site_type_symbol
_atom_site_label
_atom_site_fract_x
_atom_site_fract_y
_atom_site_fract_z
Si Si1 0.868619 0.854407 0.163800
Si Si2 0.861568 0.324220 0.673835
Si Si3 0.243582 0.406243 0.172126
Si Si4 0.076009 0.809712 0.671970
Si Si5 0.878555 0.996490 0.163979
Si Si6 0.023908 0.429453 0.326485
O O1 0.761374 0.823572 0.232756
O O2 0.839482 0.926481 0.159636
O O3 0.972245 0.841702 0.260103
O O4 0.891954 0.829784 0.000000
O O5 0.856381 0.325254 0.500000
O O6 0.916365 0.260797 0.730110
O O7 0.927483 0.384531 0.727409
O O8 0.316143 0.346953 0.216240
O O9 0.302919 0.468185 0.223688
O O10 0.130042 0.401602 0.252764
O O11 0.223684 0.409796 0.000000
O O12 0.059858 0.811855 0.500000
O O13 0.871002 0.025743 0.000000
O O14 0.000000 0.000000 0.222728
O O15 0.039981 0.427240 0.500000
O O16 0.000000 0.500000 0.275117
#
# Coordination Sequence:
#
# PCOD8236506 Si02
#       6
#     8   8   8   8   8   8
#     4  10  20  37  62  85 109 145 193 241 281 330
#     4   9  20  38  59  82 112 151 191 237 289 339
#     4  11  23  36  56  86 123 157 186 231 293 353
#     4  10  22  38  54  81 119 154 186 228 289 350
#     4  10  19  34  57  86 113 144 193 241 280 330
#     4  10  21  40  65  87 111 149 199 247 290 339
#
# _framework density 19.602163000000001
#
# number of rings (size 3 to 8) (size 9 to 14) (size 15 to 20)
#    0.000    2.000    1.667    1.500    2.333    4.667 
#    0.000    1.667    0.000    0.000    0.000    0.000 
#    0.000    0.000    0.000    0.000    0.000    0.000 
#
# Total GULP energy -595192.696656 kJ/mol
# GULP energy per Si atom -12399.847847 kJ/mol
# Density = 1.955755 g / cm^3
# Si number density = 19.602163 Si / 1000 Ang^3
#
#
#
# Elastic Constant Matrix: (Units=GPa)
#
#
# Indices 1 2 3 4 5 6 
#
# 1 139.0924 48.8385 43.8723 0.0000 0.0000 0.0000
# 2 48.8385 115.2861 33.1088 0.0000 0.0000 0.0000
# 3 43.8723 33.1088 36.9187 0.0000 0.0000 0.0000
# 4 0.0000 0.0000 0.0000 11.5863 0.0000 0.0000
# 5 0.0000 0.0000 0.0000 0.0000 26.3193 0.0000
# 6 0.0000 0.0000 0.0000 0.0000 0.0000 26.3564
#
#
#
# Elastic Compliance Matrix: (Units=1/GPa)
#
#
# Indices 1 2 3 4 5 6 
#
# 1 0.011641 -0.001291 -0.012676 0.000000 0.000000 0.000000
# 2 -0.001291 0.011826 -0.009071 0.000000 0.000000 0.000000
# 3 -0.012676 -0.009071 0.050285 0.000000 0.000000 0.000000
# 4 0.000000 0.000000 0.000000 0.086309 0.000000 0.000000
# 5 0.000000 0.000000 0.000000 0.000000 0.037995 0.000000
# 6 0.000000 0.000000 0.000000 0.000000 0.000000 0.037941
#
#
# Mechanical properties :
#
#
# Convention : Reuss Voigt Hill
#
# Bulk Modulus (GPa) = 36.13282 60.32625 48.22953
# Shear Modulus (GPa) = 17.16450 23.88425 20.52438
#
# Velocity S-wave (km/s) = 2.96234 3.49442 3.23932
# Velocity P-wave (km/s) = 5.49306 6.86465 6.21679
#
# Compressibility (1/GPa) = 0.02767567
#
# Stress axis : x y z
#
# Youngs Moduli (GPa) = 85.90369 84.55761 19.88667
#
# Poissons Ratio (x) = 0.10918 0.25208
# Poissons Ratio (y) = 0.11091 0.18040
# Poissons Ratio (z) = 1.08888 0.76706
#
# Static dielectric constant tensor:
#      x y z
#    x 3.698240 0.000000 0.000000 
#    y 0.000000 3.764820 0.000000 
#    z 0.000000 0.000000 3.332310 
# 
# 
# High freq. dielectric constant tensor:
#      x y z
#    x 1.777030 0.000000 0.000000 
#    y 0.000000 1.769840 0.000000 
#    z 0.000000 0.000000 1.733780 
# 
# From -- ./inp_files/4208.got.cif
#   From: 2010.06.25/outbox.cif.g09.slc.cpg/sg58_3_cif.got.tgz:4208.got - 2010.06.26 21:38:00.
