data_PCOD8236765
_publ_section_title
;
Structure prediction by ZEFSAII (Michael W. Deem and Ramdas Pophale) SiO2 
 PCOD8236765
Probable space group: P N N M
;
_chemical_formula_sum "Si O2"
_cell_formula_units_Z 48
_cell_length_a 9.485553
_cell_length_b 28.535511
_cell_length_c 8.802684
_cell_angle_alpha 90.000000
_cell_angle_beta 90.000000
_cell_angle_gamma 90.000000
_cell_volume 2382.667389
_symmetry_space_group_name_H-M "P N N M"
_symmetry_group_IT_number 58
_symmetry_cell_setting 'orthorhombic'
loop_
_space_group_symop_operation_xyz
x,y,z
-x,-y,z
1/2+x,1/2-y,1/2-z
1/2-x,1/2+y,1/2-z
-x,-y,-z
x,y,-z
1/2-x,1/2+y,1/2+z
1/2+x,1/2-y,1/2+z
loop_
_atom_site_type_symbol
_atom_site_label
_atom_site_fract_x
_atom_site_fract_y
_atom_site_fract_z
Si Si1 0.514577 0.864229 0.322782
Si Si2 0.275532 0.379523 0.323937
Si Si3 0.289996 0.213518 0.820526
Si Si4 0.859007 0.019412 0.824053
Si Si5 0.032932 0.794091 0.824192
Si Si6 0.400657 0.042672 0.827125
O O1 0.512435 0.854246 0.500000
O O2 0.357049 0.856293 0.260661
O O3 0.623887 0.829270 0.247124
O O4 0.568246 0.916289 0.289519
O O5 0.233179 0.383577 0.500000
O O6 0.305804 0.431272 0.252996
O O7 0.413996 0.347445 0.301286
O O8 0.361082 0.261745 0.770029
O O9 0.127271 0.210933 0.763685
O O10 0.293797 0.209179 0.000000
O O11 0.755556 0.975929 0.802996
O O12 0.887880 0.030781 0.000000
O O13 0.000000 0.000000 0.744000
O O14 0.041547 0.779038 0.000000
O O15 0.500000 0.000000 0.785867
O O16 0.426906 0.060061 0.000000
#
# Coordination Sequence:
#
# PCOD8236765 Si02
#       6
#     8   8   8   8   8   8
#     4  12  25  39  59  88 124 161 203 249 300 353
#     4  10  20  39  63  90 122 160 202 246 298 354
#     4  11  24  42  65  91 120 156 198 243 298 362
#     4   9  18  32  58  90 119 154 199 248 292 345
#     4  10  23  41  65  94 123 153 195 248 301 356
#     4  10  19  36  61  87 117 157 205 247 292 352
#
# _framework density 20.145489000000001
#
# number of rings (size 3 to 8) (size 9 to 14) (size 15 to 20)
#    0.000    1.667    1.667    3.000    2.333    5.000 
#    0.000    0.000    0.000    1.000    0.000    0.000 
#    0.000    0.000    0.000    0.000    0.000    0.000 
#
# Total GULP energy -595233.384411 kJ/mol
# GULP energy per Si atom -12400.695509 kJ/mol
# Density = 2.009964 g / cm^3
# Si number density = 20.145489 Si / 1000 Ang^3
#
#
#
# Elastic Constant Matrix: (Units=GPa)
#
#
# Indices 1 2 3 4 5 6 
#
# 1 201.9361 5.7613 46.4039 0.0000 0.0000 0.0000
# 2 5.7613 123.4556 14.4954 0.0000 0.0000 0.0000
# 3 46.4039 14.4954 59.3459 0.0000 0.0000 0.0000
# 4 0.0000 0.0000 0.0000 29.5677 0.0000 0.0000
# 5 0.0000 0.0000 0.0000 0.0000 31.1978 0.0000
# 6 0.0000 0.0000 0.0000 0.0000 0.0000 81.6205
#
#
#
# Elastic Compliance Matrix: (Units=1/GPa)
#
#
# Indices 1 2 3 4 5 6 
#
# 1 0.006046 0.000281 -0.004796 0.000000 0.000000 0.000000
# 2 0.000281 0.008352 -0.002260 0.000000 0.000000 0.000000
# 3 -0.004796 -0.002260 0.021153 0.000000 0.000000 0.000000
# 4 0.000000 0.000000 0.000000 0.033821 0.000000 0.000000
# 5 0.000000 0.000000 0.000000 0.000000 0.032054 0.000000
# 6 0.000000 0.000000 0.000000 0.000000 0.000000 0.012252
#
#
# Mechanical properties :
#
#
# Convention : Reuss Voigt Hill
#
# Bulk Modulus (GPa) = 45.45252 57.56209 51.50731
# Shear Modulus (GPa) = 37.15787 49.68234 43.42010
#
# Velocity S-wave (km/s) = 4.29940 4.97145 4.64759
# Velocity P-wave (km/s) = 6.87441 7.84786 7.37721
#
# Compressibility (1/GPa) = 0.02200098
#
# Stress axis : x y z
#
# Youngs Moduli (GPa) = 165.39290 119.72755 47.27542
#
# Poissons Ratio (x) = -0.03364 0.22675
# Poissons Ratio (y) = -0.04647 0.10683
# Poissons Ratio (z) = 0.79327 0.27056
#
# Static dielectric constant tensor:
#      x y z
#    x 3.862500 0.000000 0.000000 
#    y 0.000000 4.398940 0.000000 
#    z 0.000000 0.000000 3.395880 
# 
# 
# High freq. dielectric constant tensor:
#      x y z
#    x 1.804130 0.000000 0.000000 
#    y 0.000000 1.798210 0.000000 
#    z 0.000000 0.000000 1.752620 
# 
# From -- ./inp_files/2848.got.cif
#   From: 2010.06.25/outbox.cif.g09.slc.cpg/sg58_2_cif.got.tgz:2848.got - 2010.06.26 21:38:00.
