data_PCOD8236787
_publ_section_title
;
Structure prediction by ZEFSAII (Michael W. Deem and Ramdas Pophale) SiO2 
 PCOD8236787
Probable space group: P N N M
;
_chemical_formula_sum "Si O2"
_cell_formula_units_Z 48
_cell_length_a 9.110182
_cell_length_b 21.494870
_cell_length_c 12.027078
_cell_angle_alpha 90.000000
_cell_angle_beta 90.000000
_cell_angle_gamma 90.000000
_cell_volume 2355.168606
_symmetry_space_group_name_H-M "P N N M"
_symmetry_group_IT_number 58
_symmetry_cell_setting 'orthorhombic'
loop_
_space_group_symop_operation_xyz
x,y,z
-x,-y,z
1/2+x,1/2-y,1/2-z
1/2-x,1/2+y,1/2-z
-x,-y,-z
x,y,-z
1/2-x,1/2+y,1/2+z
1/2+x,1/2-y,1/2+z
loop_
_atom_site_type_symbol
_atom_site_label
_atom_site_fract_x
_atom_site_fract_y
_atom_site_fract_z
Si Si1 0.071628 0.563009 0.626699
Si Si2 0.908052 0.875765 0.624929
Si Si3 0.730238 0.598951 0.875366
Si Si4 0.945892 0.678749 0.757297
Si Si5 0.343201 0.513028 0.274633
Si Si6 0.280619 0.237149 0.365940
O O1 0.023738 0.572922 0.500000
O O2 0.245306 0.549049 0.635352
O O3 0.000000 0.500000 0.676840
O O4 0.033347 0.625495 0.691458
O O5 0.854829 0.878313 0.500000
O O6 0.873697 0.943212 0.670656
O O7 0.811646 0.821673 0.679232
O O8 0.080778 0.861018 0.636801
O O9 0.866198 0.645788 0.861167
O O10 0.735156 0.547657 0.777421
O O11 0.739307 0.569867 0.000000
O O12 0.816191 0.705032 0.677998
O O13 0.058976 0.730556 0.806721
O O14 0.500000 0.500000 0.333631
O O15 0.297404 0.242799 0.500000
#
# Coordination Sequence:
#
# PCOD8236787 Si02
#       6
#     8   8   8   8   8   8
#     4  11  23  41  62  89 123 166 208 252 316 379
#     4   9  18  35  59  89 125 157 191 241 302 364
#     4  10  20  35  60  93 125 160 197 244 307 369
#     4  12  23  42  64  87 127 164 210 264 313 370
#     4  10  19  36  62  92 123 153 194 248 303 368
#     4  11  24  41  64  90 120 164 214 260 310 372
#
# _framework density 20.380706
#
# number of rings (size 3 to 8) (size 9 to 14) (size 15 to 20)
#    0.000    1.500    3.333    2.500    0.000    2.333 
#    0.000    3.333    0.000    0.000    0.000    0.000 
#    0.000    0.000    0.000    0.000    0.000    0.000 
#
# Total GULP energy -594793.811556 kJ/mol
# GULP energy per Si atom -12391.537741 kJ/mol
# Density = 2.033432 g / cm^3
# Si number density = 20.380706 Si / 1000 Ang^3
#
#
#
# Elastic Constant Matrix: (Units=GPa)
#
#
# Indices 1 2 3 4 5 6 
#
# 1 113.8363 36.7696 34.1431 0.0000 0.0000 0.0000
# 2 36.7696 68.3779 20.0123 0.0000 0.0000 0.0000
# 3 34.1431 20.0123 63.9745 0.0000 0.0000 0.0000
# 4 0.0000 0.0000 0.0000 23.7978 0.0000 0.0000
# 5 0.0000 0.0000 0.0000 0.0000 25.2648 0.0000
# 6 0.0000 0.0000 0.0000 0.0000 0.0000 43.3888
#
#
#
# Elastic Compliance Matrix: (Units=1/GPa)
#
#
# Indices 1 2 3 4 5 6 
#
# 1 0.011812 -0.004961 -0.004752 0.000000 0.000000 0.000000
# 2 -0.004961 0.018182 -0.003040 0.000000 0.000000 0.000000
# 3 -0.004752 -0.003040 0.019118 0.000000 0.000000 0.000000
# 4 0.000000 0.000000 0.000000 0.042021 0.000000 0.000000
# 5 0.000000 0.000000 0.000000 0.000000 0.039581 0.000000
# 6 0.000000 0.000000 0.000000 0.000000 0.000000 0.023047
#
#
# Mechanical properties :
#
#
# Convention : Reuss Voigt Hill
#
# Bulk Modulus (GPa) = 42.36175 47.55986 44.96081
# Shear Modulus (GPa) = 26.71834 28.84119 27.77976
#
# Velocity S-wave (km/s) = 3.62465 3.76589 3.69595
# Velocity P-wave (km/s) = 6.19256 6.50351 6.34994
#
# Compressibility (1/GPa) = 0.02360620
#
# Stress axis : x y z
#
# Youngs Moduli (GPa) = 84.65695 54.99903 52.30546
#
# Poissons Ratio (x) = 0.27286 0.24857
# Poissons Ratio (y) = 0.41999 0.15901
# Poissons Ratio (z) = 0.40232 0.16719
#
# Static dielectric constant tensor:
#      x y z
#    x 4.046460 0.000000 0.000000 
#    y 0.000000 3.671200 0.000000 
#    z 0.000000 0.000000 3.375330 
# 
# 
# High freq. dielectric constant tensor:
#      x y z
#    x 1.810750 0.000000 0.000000 
#    y 0.000000 1.789550 0.000000 
#    z 0.000000 0.000000 1.777350 
# 
# From -- ./inp_files/13039.got.cif
#   From: 2010.06.25/outbox.cif.g09.slc.cpg/sg58_7_cif.got.tgz:13039.got - 2010.06.26 21:38:00.
