data_PCOD8236515
_publ_section_title
;
Structure prediction by ZEFSAII (Michael W. Deem and Ramdas Pophale) SiO2 
 PCOD8236515
Probable space group: P N N M
;
_chemical_formula_sum "Si O2"
_cell_formula_units_Z 48
_cell_length_a 10.254586
_cell_length_b 29.427961
_cell_length_c 8.542234
_cell_angle_alpha 90.000000
_cell_angle_beta 90.000000
_cell_angle_gamma 90.000000
_cell_volume 2577.803253
_symmetry_space_group_name_H-M "P N N M"
_symmetry_group_IT_number 58
_symmetry_cell_setting 'orthorhombic'
loop_
_space_group_symop_operation_xyz
x,y,z
-x,-y,z
1/2+x,1/2-y,1/2-z
1/2-x,1/2+y,1/2-z
-x,-y,-z
x,y,-z
1/2-x,1/2+y,1/2+z
1/2+x,1/2-y,1/2+z
loop_
_atom_site_type_symbol
_atom_site_label
_atom_site_fract_x
_atom_site_fract_y
_atom_site_fract_z
Si Si1 0.265256 0.284570 0.685576
Si Si2 0.528768 0.884264 0.183922
Si Si3 0.128828 0.526967 0.817638
Si Si4 0.232833 0.884856 0.815259
Si Si5 0.872009 0.022968 0.815291
Si Si6 0.516801 0.787059 0.315133
O O1 0.244025 0.284663 0.500000
O O2 0.308915 0.334915 0.745491
O O3 0.378512 0.250605 0.738747
O O4 0.126733 0.271083 0.761458
O O5 0.618348 0.919822 0.276366
O O6 0.380986 0.894457 0.235195
O O7 0.564457 0.833211 0.233369
O O8 0.551460 0.890061 0.000000
O O9 0.248278 0.507627 0.720553
O O10 0.000000 0.500000 0.763832
O O11 0.156178 0.520503 0.000000
O O12 0.145146 0.925797 0.744731
O O13 0.221735 0.885570 0.000000
O O14 0.888546 0.026443 0.000000
O O15 0.000000 0.000000 0.739152
O O16 0.517356 0.793754 0.500000
#
# Coordination Sequence:
#
# PCOD8236515 Si02
#       6
#     8   8   8   8   8   8
#     4   9  19  36  56  78 108 146 181 221 272 327
#     4  10  19  34  58  81 106 142 185 228 272 324
#     4  11  22  35  55  82 112 143 179 223 271 323
#     4   8  15  31  54  76 102 139 180 218 261 317
#     4  10  20  35  55  80 110 145 184 224 268 323
#     4  10  20  35  56  82 114 143 180 231 276 322
#
# _framework density 18.620505999999999
#
# number of rings (size 3 to 8) (size 9 to 14) (size 15 to 20)
#    0.000    2.333    1.667    2.500    0.000    2.333 
#    3.000    0.000    0.000    0.000    0.000    0.000 
#    0.000    0.000    0.000    0.000    0.000    0.000 
#
# Total GULP energy -595083.986867 kJ/mol
# GULP energy per Si atom -12397.583060 kJ/mol
# Density = 1.857813 g / cm^3
# Si number density = 18.620506 Si / 1000 Ang^3
#
#
#
# Elastic Constant Matrix: (Units=GPa)
#
#
# Indices 1 2 3 4 5 6 
#
# 1 89.0081 69.3026 -2.7328 0.0000 0.0000 0.0000
# 2 69.3026 143.6322 8.2686 0.0000 0.0000 0.0000
# 3 -2.7328 8.2686 12.9441 0.0000 0.0000 0.0000
# 4 0.0000 0.0000 0.0000 20.7978 0.0000 0.0000
# 5 0.0000 0.0000 0.0000 0.0000 18.4416 0.0000
# 6 0.0000 0.0000 0.0000 0.0000 0.0000 36.2666
#
#
#
# Elastic Compliance Matrix: (Units=1/GPa)
#
#
# Indices 1 2 3 4 5 6 
#
# 1 0.019251 -0.009886 0.010380 0.000000 0.000000 0.000000
# 2 -0.009886 0.012305 -0.009947 0.000000 0.000000 0.000000
# 3 0.010380 -0.009947 0.085801 0.000000 0.000000 0.000000
# 4 0.000000 0.000000 0.000000 0.048082 0.000000 0.000000
# 5 0.000000 0.000000 0.000000 0.000000 0.054225 0.000000
# 6 0.000000 0.000000 0.000000 0.000000 0.000000 0.027574
#
#
# Mechanical properties :
#
#
# Convention : Reuss Voigt Hill
#
# Bulk Modulus (GPa) = 10.15760 43.91792 27.03776
# Shear Modulus (GPa) = 16.72453 26.48427 21.60440
#
# Velocity S-wave (km/s) = 3.00021 3.77545 3.40994
# Velocity P-wave (km/s) = 4.17955 6.53011 5.48229
#
# Compressibility (1/GPa) = 0.09844846
#
# Stress axis : x y z
#
# Youngs Moduli (GPa) = 51.94513 81.26801 11.65492
#
# Poissons Ratio (x) = 0.80343 -0.12097
# Poissons Ratio (y) = 0.51354 0.11594
# Poissons Ratio (z) = -0.53917 0.80841
#
# Static dielectric constant tensor:
#      x y z
#    x 3.365250 0.000000 0.000000 
#    y 0.000000 3.910260 0.000000 
#    z 0.000000 0.000000 3.195640 
# 
# 
# High freq. dielectric constant tensor:
#      x y z
#    x 1.704770 0.000000 0.000000 
#    y 0.000000 1.738620 0.000000 
#    z 0.000000 0.000000 1.706790 
# 
# From -- ./inp_files/2918.got.cif
#   From: 2010.06.25/outbox.cif.g09.slc.cpg/sg58_2_cif.got.tgz:2918.got - 2010.06.26 21:38:00.
