data_PCOD8236269
_publ_section_title
;
Structure prediction by ZEFSAII (Michael W. Deem and Ramdas Pophale) SiO2 
 PCOD8236269
Probable space group: P N N M
;
_chemical_formula_sum "Si O2"
_cell_formula_units_Z 40
_cell_length_a 9.072888
_cell_length_b 8.427169
_cell_length_c 26.956180
_cell_angle_alpha 90.000000
_cell_angle_beta 90.000000
_cell_angle_gamma 90.000000
_cell_volume 2061.036110
_symmetry_space_group_name_H-M "P N N M"
_symmetry_group_IT_number 58
_symmetry_cell_setting 'orthorhombic'
loop_
_space_group_symop_operation_xyz
x,y,z
-x,-y,z
1/2+x,1/2-y,1/2-z
1/2-x,1/2+y,1/2-z
-x,-y,-z
x,y,-z
1/2-x,1/2+y,1/2+z
1/2+x,1/2-y,1/2+z
loop_
_atom_site_type_symbol
_atom_site_label
_atom_site_fract_x
_atom_site_fract_y
_atom_site_fract_z
Si Si1 0.734144 0.180033 0.790454
Si Si2 0.541818 0.174559 0.305508
Si Si3 0.655581 0.085420 0.054952
Si Si4 0.957174 0.821568 0.370782
Si Si5 0.747138 0.883556 0.140107
O O1 0.665968 0.162348 0.736347
O O2 0.647509 0.311550 0.822661
O O3 0.901818 0.234075 0.783700
O O4 0.726547 0.007956 0.815442
O O5 0.609126 0.274451 0.351508
O O6 0.500000 0.000000 0.325141
O O7 0.632132 0.254673 0.081726
O O8 0.500000 0.000000 0.050709
O O9 0.765650 0.976573 0.087896
O O10 0.723475 0.111127 0.000000
O O11 0.101342 0.720535 0.360049
O O12 0.000000 0.000000 0.382805
#
# Coordination Sequence:
#
# PCOD8236269 Si02
#       5
#     8   8   8   8   8
#     4  11  22  36  53  75 108 146 181 214 265 324
#     4  12  23  35  54  78 107 141 182 224 264 313
#     4   8  16  33  57  81 106 140 179 220 269 323
#     4  10  19  33  54  81 111 138 176 226 268 312
#     4  10  21  37  55  78 110 145 181 219 265 324
#
# _framework density 19.407715
#
# number of rings (size 3 to 8) (size 9 to 14) (size 15 to 20)
#    0.000    1.800    0.000    7.200    0.000    2.000 
#    0.000    0.000    0.000   10.200    0.000    0.000 
#    0.000    0.000    0.000    0.000    0.000    0.000 
#
# Total GULP energy -496070.321924 kJ/mol
# GULP energy per Si atom -12401.758048 kJ/mol
# Density = 1.936354 g / cm^3
# Si number density = 19.407715 Si / 1000 Ang^3
#
#
#
# Elastic Constant Matrix: (Units=GPa)
#
#
# Indices 1 2 3 4 5 6 
#
# 1 96.7705 47.4424 35.0379 0.0000 0.0000 0.0000
# 2 47.4424 143.6729 58.1436 0.0000 0.0000 0.0000
# 3 35.0379 58.1436 101.2509 0.0000 0.0000 0.0000
# 4 0.0000 0.0000 0.0000 14.7496 0.0000 0.0000
# 5 0.0000 0.0000 0.0000 0.0000 17.5387 0.0000
# 6 0.0000 0.0000 0.0000 0.0000 0.0000 31.1982
#
#
#
# Elastic Compliance Matrix: (Units=1/GPa)
#
#
# Indices 1 2 3 4 5 6 
#
# 1 0.012841 -0.003181 -0.002617 0.000000 0.000000 0.000000
# 2 -0.003181 0.009856 -0.004559 0.000000 0.000000 0.000000
# 3 -0.002617 -0.004559 0.013400 0.000000 0.000000 0.000000
# 4 0.000000 0.000000 0.000000 0.067798 0.000000 0.000000
# 5 0.000000 0.000000 0.000000 0.000000 0.057017 0.000000
# 6 0.000000 0.000000 0.000000 0.000000 0.000000 0.032053
#
#
# Mechanical properties :
#
#
# Convention : Reuss Voigt Hill
#
# Bulk Modulus (GPa) = 65.00740 69.21578 67.11159
# Shear Modulus (GPa) = 22.85135 26.10202 24.47668
#
# Velocity S-wave (km/s) = 3.43510 3.67131 3.55517
# Velocity P-wave (km/s) = 7.02151 7.32890 7.17685
#
# Compressibility (1/GPa) = 0.01538286
#
# Stress axis : x y z
#
# Youngs Moduli (GPa) = 77.87698 101.46492 74.62759
#
# Poissons Ratio (x) = 0.32278 0.19528
# Poissons Ratio (y) = 0.24774 0.34021
# Poissons Ratio (z) = 0.20378 0.46256
#
# Static dielectric constant tensor:
#      x y z
#    x 3.521320 0.000000 0.000000 
#    y 0.000000 4.358890 0.000000 
#    z 0.000000 0.000000 3.734580 
# 
# 
# High freq. dielectric constant tensor:
#      x y z
#    x 1.745480 0.000000 0.000000 
#    y 0.000000 1.763360 0.000000 
#    z 0.000000 0.000000 1.737570 
# 
# From -- ./inp_files/31270.got.cif
#   From: 2010.06.25/outbox.cif.g09.slc.cpg/sg58_16_cif.got.tgz:31270.got - 2010.06.26 21:38:00.
