data_PCOD8236866
_publ_section_title
;
Structure prediction by ZEFSAII (Michael W. Deem and Ramdas Pophale) SiO2 
 PCOD8236866
Probable space group: P N N M
;
_chemical_formula_sum "Si O2"
_cell_formula_units_Z 64
_cell_length_a 12.735255
_cell_length_b 27.760653
_cell_length_c 9.098457
_cell_angle_alpha 90.000000
_cell_angle_beta 90.000000
_cell_angle_gamma 90.000000
_cell_volume 3216.659343
_symmetry_space_group_name_H-M "P N N M"
_symmetry_group_IT_number 58
_symmetry_cell_setting 'orthorhombic'
loop_
_space_group_symop_operation_xyz
x,y,z
-x,-y,z
1/2+x,1/2-y,1/2-z
1/2-x,1/2+y,1/2-z
-x,-y,-z
x,y,-z
1/2-x,1/2+y,1/2+z
1/2+x,1/2-y,1/2+z
loop_
_atom_site_type_symbol
_atom_site_label
_atom_site_fract_x
_atom_site_fract_y
_atom_site_fract_z
Si Si1 0.862848 0.869514 0.828708
Si Si2 0.761667 0.694319 0.826805
Si Si3 0.968156 0.655683 0.672276
Si Si4 0.403702 0.363791 0.663847
Si Si5 0.685143 0.797558 0.825877
Si Si6 0.237454 0.046210 0.326671
Si Si7 0.393095 0.477047 0.666280
Si Si8 0.452456 0.051684 0.171090
O O1 0.777108 0.832188 0.769454
O O2 0.851417 0.917626 0.733168
O O3 0.977637 0.846379 0.802968
O O4 0.846949 0.882540 0.000000
O O5 0.871529 0.680203 0.754253
O O6 0.674275 0.655358 0.786738
O O7 0.715103 0.744748 0.765720
O O8 0.779558 0.695855 0.000000
O O9 0.953852 0.664848 0.500000
O O10 0.073284 0.682488 0.731918
O O11 0.971758 0.597675 0.702710
O O12 0.369101 0.346833 0.500000
O O13 0.401534 0.420572 0.673436
O O14 0.682623 0.796978 0.000000
O O15 0.242078 0.046486 0.500000
O O16 0.349447 0.061765 0.264534
O O17 0.204577 0.993548 0.267541
O O18 0.500000 0.500000 0.728131
O O19 0.372509 0.494954 0.500000
O O20 0.500000 0.000000 0.219694
O O21 0.421925 0.050369 0.000000
#
# Coordination Sequence:
#
# PCOD8236866 Si02
#       8
#     8   8   8   8   8   8   8   8
#     4  10  19  40  67  88 114 157 214 257 290 352
#     4  11  25  41  60  91 130 162 193 248 322 372
#     4  10  21  42  67  90 120 159 212 259 294 357
#     4  10  22  39  64  90 116 160 213 254 293 354
#     4   9  20  40  66  89 116 159 203 251 306 359
#     4  12  24  36  56  91 128 158 191 244 317 368
#     4  10  20  38  61  84 114 159 209 246 281 344
#     4  10  22  41  66  89 113 161 215 254 293 355
#
# _framework density 19.896419000000002
#
# number of rings (size 3 to 8) (size 9 to 14) (size 15 to 20)
#    0.000    1.750    2.500    1.500    3.500    2.000 
#    0.000    1.875    0.000    0.000    0.000    0.000 
#    0.000    0.000    0.000    0.000    0.000    0.000 
#
# Total GULP energy -793587.394377 kJ/mol
# GULP energy per Si atom -12399.803037 kJ/mol
# Density = 1.985113 g / cm^3
# Si number density = 19.896419 Si / 1000 Ang^3
#
#
#
# Elastic Constant Matrix: (Units=GPa)
#
#
# Indices 1 2 3 4 5 6 
#
# 1 133.6661 60.6693 43.7252 0.0000 0.0000 0.0000
# 2 60.6693 107.2766 32.4862 0.0000 0.0000 0.0000
# 3 43.7252 32.4862 66.8042 0.0000 0.0000 0.0000
# 4 0.0000 0.0000 0.0000 13.4488 0.0000 0.0000
# 5 0.0000 0.0000 0.0000 0.0000 23.1219 0.0000
# 6 0.0000 0.0000 0.0000 0.0000 0.0000 36.3866
#
#
#
# Elastic Compliance Matrix: (Units=1/GPa)
#
#
# Indices 1 2 3 4 5 6 
#
# 1 0.011354 -0.004891 -0.005053 0.000000 0.000000 0.000000
# 2 -0.004891 0.013038 -0.003139 0.000000 0.000000 0.000000
# 3 -0.005053 -0.003139 0.019803 0.000000 0.000000 0.000000
# 4 0.000000 0.000000 0.000000 0.074356 0.000000 0.000000
# 5 0.000000 0.000000 0.000000 0.000000 0.043249 0.000000
# 6 0.000000 0.000000 0.000000 0.000000 0.000000 0.027483
#
#
# Mechanical properties :
#
#
# Convention : Reuss Voigt Hill
#
# Bulk Modulus (GPa) = 55.46618 64.61206 60.03912
# Shear Modulus (GPa) = 22.57741 25.98254 24.27997
#
# Velocity S-wave (km/s) = 3.37226 3.61763 3.49710
# Velocity P-wave (km/s) = 6.56512 7.07067 6.82258
#
# Compressibility (1/GPa) = 0.01802900
#
# Stress axis : x y z
#
# Youngs Moduli (GPa) = 88.07186 76.69647 50.49711
#
# Poissons Ratio (x) = 0.37513 0.25517
# Poissons Ratio (y) = 0.43077 0.15852
# Poissons Ratio (z) = 0.44505 0.24076
#
# Static dielectric constant tensor:
#      x y z
#    x 3.937150 0.000000 0.000000 
#    y 0.000000 3.815110 0.000000 
#    z 0.000000 0.000000 3.407420 
# 
# 
# High freq. dielectric constant tensor:
#      x y z
#    x 1.784510 0.000000 0.000000 
#    y 0.000000 1.782690 0.000000 
#    z 0.000000 0.000000 1.747620 
# 
# From -- ./inp_files/4822.got.cif
#   From: 2010.06.25/outbox.cif.g09.slc.cpg/sg58_3_cif.got.tgz:4822.got - 2010.06.26 21:38:00.
