data_PCOD8236311
_publ_section_title
;
Structure prediction by ZEFSAII (Michael W. Deem and Ramdas Pophale) SiO2 
 PCOD8236311
Probable space group: P N N M
;
_chemical_formula_sum "Si O2"
_cell_formula_units_Z 64
_cell_length_a 33.442094
_cell_length_b 11.841435
_cell_length_c 8.720398
_cell_angle_alpha 90.000000
_cell_angle_beta 90.000000
_cell_angle_gamma 90.000000
_cell_volume 3453.298383
_symmetry_space_group_name_H-M "P N N M"
_symmetry_group_IT_number 58
_symmetry_cell_setting 'orthorhombic'
loop_
_space_group_symop_operation_xyz
x,y,z
-x,-y,z
1/2+x,1/2-y,1/2-z
1/2-x,1/2+y,1/2-z
-x,-y,-z
x,y,-z
1/2-x,1/2+y,1/2+z
1/2+x,1/2-y,1/2+z
loop_
_atom_site_type_symbol
_atom_site_label
_atom_site_fract_x
_atom_site_fract_y
_atom_site_fract_z
Si Si1 0.034191 0.860101 0.181088
Si Si2 0.547232 0.397856 0.180877
Si Si3 0.606934 0.745583 0.177682
Si Si4 0.810285 0.644186 0.822594
Si Si5 0.770879 0.192605 0.821460
Si Si6 0.626961 0.331658 0.676542
Si Si7 0.166323 0.958276 0.322286
Si Si8 0.828805 0.392732 0.179428
O O1 0.065506 0.763402 0.229144
O O2 0.991348 0.831069 0.256209
O O3 0.050166 0.979604 0.242164
O O4 0.029332 0.864991 0.000000
O O5 0.586954 0.328567 0.221851
O O6 0.543845 0.414128 0.000000
O O7 0.632759 0.634517 0.212755
O O8 0.630999 0.855125 0.233606
O O9 0.596795 0.758061 0.000000
O O10 0.775269 0.701794 0.724505
O O11 0.850853 0.713436 0.795847
O O12 0.817471 0.517271 0.763476
O O13 0.797442 0.645605 0.000000
O O14 0.790745 0.089367 0.728721
O O15 0.792058 0.310572 0.777791
O O16 0.775554 0.166946 0.000000
O O17 0.615006 0.348328 0.500000
O O18 0.656720 0.431340 0.724981
O O19 0.167854 0.991211 0.500000
O O20 0.838288 0.390789 0.000000
#
# Coordination Sequence:
#
# PCOD8236311 Si02
#       8
#     8   8   8   8   8   8   8   8
#     4  11  20  32  54  83 114 149 184 224 274 331
#     4  11  21  34  52  79 117 151 184 228 277 330
#     4  10  19  33  55  83 111 143 180 225 274 325
#     4  10  23  40  57  79 110 147 187 231 281 330
#     4  10  21  36  57  82 107 139 184 231 277 330
#     4  11  22  36  55  81 113 150 189 228 276 334
#     4  10  20  34  54  78 110 145 180 223 276 329
#     4   9  20  39  57  77 107 145 185 229 276 329
#
# _framework density 18.533007000000001
#
# number of rings (size 3 to 8) (size 9 to 14) (size 15 to 20)
#    0.000    1.750    1.250    4.500    1.750    3.000 
#    0.000    0.000    0.000    0.750    0.000    5.250 
#    0.000    0.000    0.000    0.000    0.000    0.000 
#
# Total GULP energy -793918.660234 kJ/mol
# GULP energy per Si atom -12404.979066 kJ/mol
# Density = 1.849082 g / cm^3
# Si number density = 18.533007 Si / 1000 Ang^3
#
#
#
# Elastic Constant Matrix: (Units=GPa)
#
#
# Indices 1 2 3 4 5 6 
#
# 1 94.1080 32.5896 -17.4188 0.0000 0.0000 0.0000
# 2 32.5896 85.2886 4.9098 0.0000 0.0000 0.0000
# 3 -17.4188 4.9098 -59.7688 0.0000 0.0000 0.0000
# 4 0.0000 0.0000 0.0000 19.3635 0.0000 0.0000
# 5 0.0000 0.0000 0.0000 0.0000 36.7197 0.0000
# 6 0.0000 0.0000 0.0000 0.0000 0.0000 20.7015
#
#
#
# Elastic Compliance Matrix: (Units=1/GPa)
#
#
# Indices 1 2 3 4 5 6 
#
# 1 0.011382 -0.004139 -0.003657 0.000000 0.000000 0.000000
# 2 -0.004139 0.013175 0.002288 0.000000 0.000000 0.000000
# 3 -0.003657 0.002288 -0.015477 0.000000 0.000000 0.000000
# 4 0.000000 0.000000 0.000000 0.051644 0.000000 0.000000
# 5 0.000000 0.000000 0.000000 0.000000 0.027233 0.000000
# 6 0.000000 0.000000 0.000000 0.000000 0.000000 0.048306
#
#
# Mechanical properties :
#
#
# Convention : Reuss Voigt Hill
#
# Bulk Modulus (GPa) = -516.67600 17.75432 -249.46084
# Shear Modulus (GPa) = 34.09888 21.99343 28.04616
#
# Velocity S-wave (km/s) = 4.29406 3.44861 3.89435
# Velocity P-wave (km/s) = 15.96267 5.04558 10.70862
#
# Compressibility (1/GPa) = -0.00193545
#
# Stress axis : x y z
#
# Youngs Moduli (GPa) = 87.85474 75.90350 -64.61075
#
# Poissons Ratio (x) = 0.31415 -0.23630
# Poissons Ratio (y) = 0.36361 0.14786
# Poissons Ratio (z) = 0.32131 -0.17370
#
# Static dielectric constant tensor:
#      x y z
#    x 3.495610 0.000000 0.000000 
#    y 0.000000 3.229340 0.000000 
#    z 0.000000 0.000000 3.455030 
# 
# 
# High freq. dielectric constant tensor:
#      x y z
#    x 1.724120 0.000000 0.000000 
#    y 0.000000 1.688340 0.000000 
#    z 0.000000 0.000000 1.730500 
# 
# From -- ./inp_files/10965.got.cif
#   From: 2010.06.25/outbox.cif.g09.slc.cpg/sg58_6_cif.got.tgz:10965.got - 2010.06.26 21:38:00.
