data_PCOD8236191
_publ_section_title
;
Structure prediction by ZEFSAII (Michael W. Deem and Ramdas Pophale) SiO2 
 PCOD8236191
Probable space group: P N N M
;
_chemical_formula_sum "Si O2"
_cell_formula_units_Z 64
_cell_length_a 20.654088
_cell_length_b 11.897063
_cell_length_c 13.608808
_cell_angle_alpha 90.000000
_cell_angle_beta 90.000000
_cell_angle_gamma 90.000000
_cell_volume 3343.996940
_symmetry_space_group_name_H-M "P N N M"
_symmetry_group_IT_number 58
_symmetry_cell_setting 'orthorhombic'
loop_
_space_group_symop_operation_xyz
x,y,z
-x,-y,z
1/2+x,1/2-y,1/2-z
1/2-x,1/2+y,1/2-z
-x,-y,-z
x,y,-z
1/2-x,1/2+y,1/2+z
1/2+x,1/2-y,1/2+z
loop_
_atom_site_type_symbol
_atom_site_label
_atom_site_fract_x
_atom_site_fract_y
_atom_site_fract_z
Si Si1 0.734600 0.591856 0.386420
Si Si2 0.610427 0.465763 0.109550
Si Si3 0.545566 0.238855 0.889496
Si Si4 0.706406 0.389824 0.733211
Si Si5 0.904301 0.217228 0.609363
Si Si6 0.075416 0.519442 0.883510
Si Si7 0.337204 0.205890 0.701906
Si Si8 0.647550 0.153604 0.252662
O O1 0.755927 0.599660 0.500000
O O2 0.707003 0.467261 0.364276
O O3 0.680473 0.687233 0.366054
O O4 0.795174 0.604571 0.313658
O O5 0.557885 0.370274 0.132930
O O6 0.669669 0.458817 0.183428
O O7 0.576942 0.586435 0.120304
O O8 0.638865 0.449127 0.000000
O O9 0.470036 0.213065 0.873731
O O10 0.585321 0.161301 0.816765
O O11 0.566900 0.208589 0.000000
O O12 0.775849 0.373872 0.784102
O O13 0.670825 0.273539 0.704534
O O14 0.876265 0.241468 0.500000
O O15 0.851810 0.253478 0.687909
O O16 0.101602 0.640257 0.845047
O O17 0.124352 0.425189 0.841263
O O18 0.000000 0.500000 0.852612
O O19 0.081932 0.515351 0.000000
#
# Coordination Sequence:
#
# PCOD8236191 Si02
#       8
#     8   8   8   8   8   8   8   8
#     4  11  22  39  61  85 115 154 194 243 298 352
#     4   9  17  32  55  83 114 143 179 226 284 344
#     4   9  17  31  55  87 116 146 181 225 282 346
#     4  10  21  37  57  84 114 149 190 241 296 339
#     4  10  19  32  55  85 117 146 180 228 285 341
#     4  11  24  42  63  85 115 159 204 243 286 350
#     4  11  22  39  58  84 117 154 199 239 288 345
#     4  10  21  39  60  85 114 153 192 242 290 350
#
# _framework density 19.138774000000002
#
# number of rings (size 3 to 8) (size 9 to 14) (size 15 to 20)
#    0.000    1.875    2.500    1.875    0.000    6.000 
#    0.000    1.875    0.000    2.625    0.000    4.375 
#    0.000    0.000    0.000    0.000    0.000    0.000 
#
# Total GULP energy -793370.729172 kJ/mol
# GULP energy per Si atom -12396.417643 kJ/mol
# Density = 1.909521 g / cm^3
# Si number density = 19.138774 Si / 1000 Ang^3
#
#
#
# Elastic Constant Matrix: (Units=GPa)
#
#
# Indices 1 2 3 4 5 6 
#
# 1 74.8239 21.1153 37.3714 0.0000 0.0000 0.0000
# 2 21.1153 82.3133 38.1599 0.0000 0.0000 0.0000
# 3 37.3714 38.1599 100.2242 0.0000 0.0000 0.0000
# 4 0.0000 0.0000 0.0000 21.8490 0.0000 0.0000
# 5 0.0000 0.0000 0.0000 0.0000 30.0051 0.0000
# 6 0.0000 0.0000 0.0000 0.0000 0.0000 24.3971
#
#
#
# Elastic Compliance Matrix: (Units=1/GPa)
#
#
# Indices 1 2 3 4 5 6 
#
# 1 0.016614 -0.001688 -0.005552 0.000000 0.000000 0.000000
# 2 -0.001688 0.014924 -0.005053 0.000000 0.000000 0.000000
# 3 -0.005552 -0.005053 0.013972 0.000000 0.000000 0.000000
# 4 0.000000 0.000000 0.000000 0.045769 0.000000 0.000000
# 5 0.000000 0.000000 0.000000 0.000000 0.033328 0.000000
# 6 0.000000 0.000000 0.000000 0.000000 0.000000 0.040988
#
#
# Mechanical properties :
#
#
# Convention : Reuss Voigt Hill
#
# Bulk Modulus (GPa) = 47.79243 50.07276 48.93259
# Shear Modulus (GPa) = 25.36061 25.96458 25.66260
#
# Velocity S-wave (km/s) = 3.64413 3.68727 3.66576
# Velocity P-wave (km/s) = 6.53697 6.65941 6.59847
#
# Compressibility (1/GPa) = 0.02092382
#
# Stress axis : x y z
#
# Youngs Moduli (GPa) = 60.18937 67.00531 71.57224
#
# Poissons Ratio (x) = 0.11310 0.39740
# Poissons Ratio (y) = 0.10159 0.36165
# Poissons Ratio (z) = 0.33420 0.33857
#
# Static dielectric constant tensor:
#      x y z
#    x 3.546090 0.000000 0.000000 
#    y 0.000000 3.524990 0.000000 
#    z 0.000000 0.000000 3.384330 
# 
# 
# High freq. dielectric constant tensor:
#      x y z
#    x 1.742800 0.000000 0.000000 
#    y 0.000000 1.745790 0.000000 
#    z 0.000000 0.000000 1.735900 
# 
# From -- ./inp_files/22943.got.cif
#   From: 2010.06.25/outbox.cif.g09.slc.cpg/sg58_12_cif.got.tgz:22943.got - 2010.06.26 21:38:00.
