data_PCOD8236361
_publ_section_title
;
Structure prediction by ZEFSAII (Michael W. Deem and Ramdas Pophale) SiO2 
 PCOD8236361
Probable space group: P N N M
;
_chemical_formula_sum "Si O2"
_cell_formula_units_Z 48
_cell_length_a 28.827782
_cell_length_b 10.269785
_cell_length_c 8.798746
_cell_angle_alpha 90.000000
_cell_angle_beta 90.000000
_cell_angle_gamma 90.000000
_cell_volume 2604.913831
_symmetry_space_group_name_H-M "P N N M"
_symmetry_group_IT_number 58
_symmetry_cell_setting 'orthorhombic'
loop_
_space_group_symop_operation_xyz
x,y,z
-x,-y,z
1/2+x,1/2-y,1/2-z
1/2-x,1/2+y,1/2-z
-x,-y,-z
x,y,-z
1/2-x,1/2+y,1/2+z
1/2+x,1/2-y,1/2+z
loop_
_atom_site_type_symbol
_atom_site_label
_atom_site_fract_x
_atom_site_fract_y
_atom_site_fract_z
Si Si1 0.782445 0.502794 0.178694
Si Si2 0.388798 0.261129 0.822073
Si Si3 0.525880 0.630830 0.321360
Si Si4 0.027389 0.367876 0.322924
Si Si5 0.111898 0.487044 0.821336
Si Si6 0.716715 0.729647 0.822213
O O1 0.834848 0.541418 0.223241
O O2 0.748573 0.614181 0.244346
O O3 0.767862 0.365264 0.249046
O O4 0.776809 0.488304 0.000000
O O5 0.424370 0.370698 0.764009
O O6 0.336558 0.305496 0.783769
O O7 0.402059 0.130594 0.732837
O O8 0.395602 0.234307 0.000000
O O9 0.500000 0.500000 0.271862
O O10 0.534763 0.636196 0.500000
O O11 0.495307 0.752577 0.271245
O O12 0.026459 0.332541 0.500000
O O13 0.080333 0.382556 0.266250
O O14 0.000000 0.500000 0.287532
O O15 0.103181 0.475401 0.000000
O O16 0.724742 0.744474 0.000000
#
# Coordination Sequence:
#
# PCOD8236361 Si02
#       6
#     8   8   8   8   8   8
#     4   9  19  36  56  81 112 143 181 224 270 323
#     4  10  19  34  57  81 109 145 184 223 270 325
#     4  11  24  40  57  80 111 146 183 225 273 328
#     4  11  22  36  58  85 110 141 182 226 269 323
#     4  10  19  33  57  83 110 143 182 229 272 317
#     4   9  19  36  57  81 111 143 179 224 270 321
#
# _framework density 18.426711999999998
#
# number of rings (size 3 to 8) (size 9 to 14) (size 15 to 20)
#    0.000    2.000    1.667    2.000    0.000    4.000 
#    3.000    0.000    0.000    0.000    0.000    0.000 
#    0.000    0.000    0.000    0.000    0.000    0.000 
#
# Total GULP energy -595338.698552 kJ/mol
# GULP energy per Si atom -12402.889553 kJ/mol
# Density = 1.838477 g / cm^3
# Si number density = 18.426712 Si / 1000 Ang^3
#
#
#
# Elastic Constant Matrix: (Units=GPa)
#
#
# Indices 1 2 3 4 5 6 
#
# 1 123.4083 70.7994 27.2059 0.0000 0.0000 0.0000
# 2 70.7994 100.0158 21.7742 0.0000 0.0000 0.0000
# 3 27.2059 21.7742 24.6365 0.0000 0.0000 0.0000
# 4 0.0000 0.0000 0.0000 26.0624 0.0000 0.0000
# 5 0.0000 0.0000 0.0000 0.0000 24.8687 0.0000
# 6 0.0000 0.0000 0.0000 0.0000 0.0000 35.2563
#
#
#
# Elastic Compliance Matrix: (Units=1/GPa)
#
#
# Indices 1 2 3 4 5 6 
#
# 1 0.015083 -0.008731 -0.008939 0.000000 0.000000 0.000000
# 2 -0.008731 0.017434 -0.005768 0.000000 0.000000 0.000000
# 3 -0.008939 -0.005768 0.055559 0.000000 0.000000 0.000000
# 4 0.000000 0.000000 0.000000 0.038369 0.000000 0.000000
# 5 0.000000 0.000000 0.000000 0.000000 0.040211 0.000000
# 6 0.000000 0.000000 0.000000 0.000000 0.000000 0.028364
#
#
# Mechanical properties :
#
#
# Convention : Reuss Voigt Hill
#
# Bulk Modulus (GPa) = 24.27122 54.17995 39.22558
# Shear Modulus (GPa) = 19.55956 25.78956 22.67456
#
# Velocity S-wave (km/s) = 3.26157 3.74515 3.51169
# Velocity P-wave (km/s) = 5.23298 6.94034 6.14623
#
# Compressibility (1/GPa) = 0.04120106
#
# Stress axis : x y z
#
# Youngs Moduli (GPa) = 66.30150 57.35824 17.99877
#
# Poissons Ratio (x) = 0.50077 0.16090
# Poissons Ratio (y) = 0.57885 0.10381
# Poissons Ratio (z) = 0.59269 0.33083
#
# Static dielectric constant tensor:
#      x y z
#    x 3.678460 0.000000 0.000000 
#    y 0.000000 3.353660 0.000000 
#    z 0.000000 0.000000 3.383860 
# 
# 
# High freq. dielectric constant tensor:
#      x y z
#    x 1.726260 0.000000 0.000000 
#    y 0.000000 1.696840 0.000000 
#    z 0.000000 0.000000 1.720790 
# 
# From -- ./inp_files/2924.got.cif
#   From: 2010.06.25/outbox.cif.g09.slc.cpg/sg58_2_cif.got.tgz:2924.got - 2010.06.26 21:38:00.
