data_PCOD8236203
_publ_section_title
;
Structure prediction by ZEFSAII (Michael W. Deem and Ramdas Pophale) SiO2 
 PCOD8236203
Probable space group: P N N M
;
_chemical_formula_sum "Si O2"
_cell_formula_units_Z 64
_cell_length_a 17.068096
_cell_length_b 14.898217
_cell_length_c 13.450168
_cell_angle_alpha 90.000000
_cell_angle_beta 90.000000
_cell_angle_gamma 90.000000
_cell_volume 3420.165183
_symmetry_space_group_name_H-M "P N N M"
_symmetry_group_IT_number 58
_symmetry_cell_setting 'orthorhombic'
loop_
_space_group_symop_operation_xyz
x,y,z
-x,-y,z
1/2+x,1/2-y,1/2-z
1/2-x,1/2+y,1/2-z
-x,-y,-z
x,y,-z
1/2-x,1/2+y,1/2+z
1/2+x,1/2-y,1/2+z
loop_
_atom_site_type_symbol
_atom_site_label
_atom_site_fract_x
_atom_site_fract_y
_atom_site_fract_z
Si Si1 0.921034 0.365265 0.614516
Si Si2 0.673227 0.472887 0.616782
Si Si3 0.088860 0.197237 0.198395
Si Si4 0.945551 0.081519 0.766693
Si Si5 0.341473 0.315853 0.114508
Si Si6 0.663315 0.027897 0.199798
Si Si7 0.163831 0.364365 0.112622
Si Si8 0.404635 0.800838 0.887117
O O1 0.907848 0.390281 0.500000
O O2 0.864310 0.284467 0.647349
O O3 0.902063 0.453839 0.676766
O O4 0.009165 0.337035 0.636370
O O5 0.690313 0.473204 0.500000
O O6 0.646146 0.375218 0.651170
O O7 0.607464 0.547149 0.641725
O O8 0.751241 0.490705 0.677964
O O9 0.098378 0.288939 0.136023
O O10 0.112194 0.217132 0.313776
O O11 0.999009 0.163230 0.193277
O O12 0.889729 0.111357 0.677067
O O13 0.000000 0.000000 0.727049
O O14 0.249433 0.323503 0.133345
O O15 0.364436 0.332480 0.000000
O O16 0.652602 0.050257 0.316214
O O17 0.654350 0.117515 0.133434
O O18 0.154242 0.397835 0.000000
O O19 0.395449 0.766536 0.000000
#
# Coordination Sequence:
#
# PCOD8236203 Si02
#       8
#     8   8   8   8   8   8   8   8
#     4  10  19  32  57  86 112 144 185 234 286 334
#     4  11  22  37  57  82 111 147 192 235 276 332
#     4  10  21  36  58  83 113 148 184 229 278 339
#     4  10  21  36  55  85 115 144 183 229 286 332
#     4  10  19  36  58  83 113 144 186 236 284 337
#     4  11  21  35  57  84 113 147 189 239 278 328
#     4  10  21  37  58  81 112 153 193 231 280 340
#     4  10  20  35  56  85 117 145 180 230 288 336
#
# _framework density 18.712544999999999
#
# number of rings (size 3 to 8) (size 9 to 14) (size 15 to 20)
#    0.000    1.750    2.500    2.625    0.000    5.000 
#    0.000    2.500    0.000    7.500    0.000    0.000 
#    0.000    0.000    0.000    0.000    0.000    0.000 
#
# Total GULP energy -793722.831860 kJ/mol
# GULP energy per Si atom -12401.919248 kJ/mol
# Density = 1.866995 g / cm^3
# Si number density = 18.712545 Si / 1000 Ang^3
#
#
#
# Elastic Constant Matrix: (Units=GPa)
#
#
# Indices 1 2 3 4 5 6 
#
# 1 39.0067 10.1470 25.0425 0.0000 0.0000 0.0000
# 2 10.1470 70.6016 52.3877 0.0000 0.0000 0.0000
# 3 25.0425 52.3877 121.5867 0.0000 0.0000 0.0000
# 4 0.0000 0.0000 0.0000 31.8886 0.0000 0.0000
# 5 0.0000 0.0000 0.0000 0.0000 25.4463 0.0000
# 6 0.0000 0.0000 0.0000 0.0000 0.0000 30.9450
#
#
#
# Elastic Compliance Matrix: (Units=1/GPa)
#
#
# Indices 1 2 3 4 5 6 
#
# 1 0.029551 0.000396 -0.006257 0.000000 0.000000 0.000000
# 2 0.000396 0.020826 -0.009055 0.000000 0.000000 0.000000
# 3 -0.006257 -0.009055 0.013415 0.000000 0.000000 0.000000
# 4 0.000000 0.000000 0.000000 0.031359 0.000000 0.000000
# 5 0.000000 0.000000 0.000000 0.000000 0.039298 0.000000
# 6 0.000000 0.000000 0.000000 0.000000 0.000000 0.032315
#
#
# Mechanical properties :
#
#
# Convention : Reuss Voigt Hill
#
# Bulk Modulus (GPa) = 29.44695 45.14990 37.29842
# Shear Modulus (GPa) = 24.04822 27.23050 25.63936
#
# Velocity S-wave (km/s) = 3.58877 3.81885 3.70560
# Velocity P-wave (km/s) = 5.73960 6.60495 6.18742
#
# Compressibility (1/GPa) = 0.03395938
#
# Stress axis : x y z
#
# Youngs Moduli (GPa) = 33.84024 48.01724 74.54562
#
# Poissons Ratio (x) = -0.01900 0.46642
# Poissons Ratio (y) = -0.01339 0.67498
# Poissons Ratio (z) = 0.21173 0.43478
#
# Static dielectric constant tensor:
#      x y z
#    x 3.525850 0.000000 0.000000 
#    y 0.000000 3.450300 0.000000 
#    z 0.000000 0.000000 3.425300 
# 
# 
# High freq. dielectric constant tensor:
#      x y z
#    x 1.731990 0.000000 0.000000 
#    y 0.000000 1.723560 0.000000 
#    z 0.000000 0.000000 1.719190 
# 
# From -- ./inp_files/16539.got.cif
#   From: 2010.06.25/outbox.cif.g09.slc.cpg/sg58_9_cif.got.tgz:16539.got - 2010.06.26 21:38:00.
