data_PCOD8236423
_publ_section_title
;
Structure prediction by ZEFSAII (Michael W. Deem and Ramdas Pophale) SiO2 
 PCOD8236423
Probable space group: P N N M
;
_chemical_formula_sum "Si O2"
_cell_formula_units_Z 56
_cell_length_a 20.936172
_cell_length_b 14.681077
_cell_length_c 9.221050
_cell_angle_alpha 90.000000
_cell_angle_beta 90.000000
_cell_angle_gamma 90.000000
_cell_volume 2834.233134
_symmetry_space_group_name_H-M "P N N M"
_symmetry_group_IT_number 58
_symmetry_cell_setting 'orthorhombic'
loop_
_space_group_symop_operation_xyz
x,y,z
-x,-y,z
1/2+x,1/2-y,1/2-z
1/2-x,1/2+y,1/2-z
-x,-y,-z
x,y,-z
1/2-x,1/2+y,1/2+z
1/2+x,1/2-y,1/2+z
loop_
_atom_site_type_symbol
_atom_site_label
_atom_site_fract_x
_atom_site_fract_y
_atom_site_fract_z
Si Si1 0.036936 0.271312 0.835062
Si Si2 0.600769 0.735194 0.668115
Si Si3 0.439486 0.563339 0.662346
Si Si4 0.743913 0.010126 0.832072
Si Si5 0.360352 0.433302 0.171055
Si Si6 0.342899 0.827518 0.834063
Si Si7 0.737370 0.819294 0.670451
O O1 0.042073 0.165162 0.799777
O O2 0.088289 0.325092 0.741205
O O3 0.962511 0.297395 0.801293
O O4 0.053839 0.294193 0.000000
O O5 0.599739 0.702916 0.500000
O O6 0.594490 0.647172 0.770972
O O7 0.665562 0.787427 0.706255
O O8 0.500000 0.500000 0.677852
O O9 0.410493 0.555938 0.500000
O O10 0.387930 0.531526 0.781122
O O11 0.793186 0.077430 0.752193
O O12 0.678612 0.067298 0.815799
O O13 0.744264 0.912710 0.756585
O O14 0.762323 0.997711 0.000000
O O15 0.352130 0.428537 0.000000
O O16 0.290252 0.754219 0.774082
O O17 0.353419 0.802576 0.000000
O O18 0.745246 0.838140 0.500000
#
# Coordination Sequence:
#
# PCOD8236423 Si02
#       7
#     8   8   8   8   8   8   8
#     4  10  21  36  59  86 115 157 200 241 291 358
#     4  10  20  40  62  83 118 159 196 238 297 355
#     4  10  19  34  55  80 115 155 192 232 290 359
#     4  11  23  41  62  85 117 159 200 244 303 361
#     4  12  23  34  55  87 119 152 195 245 295 349
#     4  10  22  40  61  85 120 159 192 244 307 351
#     4  10  21  40  65  90 116 153 202 254 300 349
#
# _framework density 19.758431999999999
#
# number of rings (size 3 to 8) (size 9 to 14) (size 15 to 20)
#    0.000    1.571    2.857    2.571    0.000    6.000 
#    0.000    0.714    0.000    4.286    0.000    0.000 
#    0.000    0.000    0.000    0.000    0.000    0.000 
#
# Total GULP energy -694172.847027 kJ/mol
# GULP energy per Si atom -12395.943697 kJ/mol
# Density = 1.971346 g / cm^3
# Si number density = 19.758432 Si / 1000 Ang^3
#
#
#
# Elastic Constant Matrix: (Units=GPa)
#
#
# Indices 1 2 3 4 5 6 
#
# 1 109.8752 12.0429 35.2205 0.0000 0.0000 0.0000
# 2 12.0429 54.1574 26.0779 0.0000 0.0000 0.0000
# 3 35.2205 26.0779 77.4085 0.0000 0.0000 0.0000
# 4 0.0000 0.0000 0.0000 9.6626 0.0000 0.0000
# 5 0.0000 0.0000 0.0000 0.0000 32.4029 0.0000
# 6 0.0000 0.0000 0.0000 0.0000 0.0000 28.2830
#
#
#
# Elastic Compliance Matrix: (Units=1/GPa)
#
#
# Indices 1 2 3 4 5 6 
#
# 1 0.010655 -0.000042 -0.004834 0.000000 0.000000 0.000000
# 2 -0.000042 0.022040 -0.007406 0.000000 0.000000 0.000000
# 3 -0.004834 -0.007406 0.017613 0.000000 0.000000 0.000000
# 4 0.000000 0.000000 0.000000 0.103491 0.000000 0.000000
# 5 0.000000 0.000000 0.000000 0.000000 0.030861 0.000000
# 6 0.000000 0.000000 0.000000 0.000000 0.000000 0.035357
#
#
# Mechanical properties :
#
#
# Convention : Reuss Voigt Hill
#
# Bulk Modulus (GPa) = 38.84285 43.12487 40.98386
# Shear Modulus (GPa) = 19.75009 25.27637 22.51323
#
# Velocity S-wave (km/s) = 3.16504 3.58057 3.37920
# Velocity P-wave (km/s) = 5.74962 6.24239 6.00107
#
# Compressibility (1/GPa) = 0.02574477
#
# Stress axis : x y z
#
# Youngs Moduli (GPa) = 93.84938 45.37177 56.77638
#
# Poissons Ratio (x) = 0.00189 0.27446
# Poissons Ratio (y) = 0.00392 0.42049
# Poissons Ratio (z) = 0.45368 0.33603
#
# Static dielectric constant tensor:
#      x y z
#    x 3.933520 0.000000 0.000000 
#    y 0.000000 3.435330 0.000000 
#    z 0.000000 0.000000 3.464620 
# 
# 
# High freq. dielectric constant tensor:
#      x y z
#    x 1.780030 0.000000 0.000000 
#    y 0.000000 1.750460 0.000000 
#    z 0.000000 0.000000 1.760230 
# 
# From -- ./inp_files/6297.got.cif
#   From: 2010.06.25/outbox.cif.g09.slc.cpg/sg58_4_cif.got.tgz:6297.got - 2010.06.26 21:38:00.
