data_PCOD8236364
_publ_section_title
;
Structure prediction by ZEFSAII (Michael W. Deem and Ramdas Pophale) SiO2 
 PCOD8236364
Probable space group: P N N M
;
_chemical_formula_sum "Si O2"
_cell_formula_units_Z 56
_cell_length_a 15.009981
_cell_length_b 20.891700
_cell_length_c 8.843146
_cell_angle_alpha 90.000000
_cell_angle_beta 90.000000
_cell_angle_gamma 90.000000
_cell_volume 2773.069273
_symmetry_space_group_name_H-M "P N N M"
_symmetry_group_IT_number 58
_symmetry_cell_setting 'orthorhombic'
loop_
_space_group_symop_operation_xyz
x,y,z
-x,-y,z
1/2+x,1/2-y,1/2-z
1/2-x,1/2+y,1/2-z
-x,-y,-z
x,y,-z
1/2-x,1/2+y,1/2+z
1/2+x,1/2-y,1/2+z
loop_
_atom_site_type_symbol
_atom_site_label
_atom_site_fract_x
_atom_site_fract_y
_atom_site_fract_z
Si Si1 0.580176 0.543597 0.670361
Si Si2 0.440918 0.644283 0.333730
Si Si3 0.255152 0.596404 0.327122
Si Si4 0.819891 0.660418 0.320248
Si Si5 0.488012 0.764765 0.175041
Si Si6 0.261541 0.967979 0.323903
Si Si7 0.687892 0.764816 0.819707
O O1 0.500000 0.500000 0.727102
O O2 0.613524 0.524641 0.500000
O O3 0.539318 0.614593 0.668220
O O4 0.657418 0.541712 0.792305
O O5 0.422464 0.674829 0.500000
O O6 0.362831 0.591587 0.304895
O O7 0.436877 0.698797 0.208492
O O8 0.225519 0.587227 0.500000
O O9 0.209375 0.538834 0.233115
O O10 0.227185 0.666568 0.268880
O O11 0.808059 0.663222 0.500000
O O12 0.919815 0.680506 0.268313
O O13 0.812958 0.587597 0.264581
O O14 0.744478 0.706675 0.250203
O O15 0.586779 0.765376 0.248016
O O16 0.503035 0.773084 0.000000
O O17 0.282018 0.961959 0.500000
O O18 0.690316 0.756102 0.000000
#
# Coordination Sequence:
#
# PCOD8236364 Si02
#       7
#     8   8   8   8   8   8   8
#     4  10  19  34  54  80 115 151 189 230 288 359
#     4  10  19  33  57  84 112 152 191 232 289 354
#     4  10  20  38  61  84 115 155 196 238 294 355
#     4  11  23  40  61  87 122 160 197 241 299 358
#     4  10  22  38  59  88 118 149 194 248 294 345
#     4  12  25  38  56  84 119 157 201 248 297 348
#     4  10  21  40  65  91 119 154 199 248 297 350
#
# _framework density 20.194230999999998
#
# number of rings (size 3 to 8) (size 9 to 14) (size 15 to 20)
#    0.000    1.571    2.857    2.571    0.000    5.429 
#    0.000    0.714    0.000    4.286    0.000    0.000 
#    0.000    0.000    0.000    0.000    0.000    0.000 
#
# Total GULP energy -694121.478103 kJ/mol
# GULP energy per Si atom -12395.026395 kJ/mol
# Density = 2.014827 g / cm^3
# Si number density = 20.194231 Si / 1000 Ang^3
#
#
#
# Elastic Constant Matrix: (Units=GPa)
#
#
# Indices 1 2 3 4 5 6 
#
# 1 68.2767 12.8980 22.9183 0.0000 0.0000 0.0000
# 2 12.8980 101.7344 23.0994 0.0000 0.0000 0.0000
# 3 22.9183 23.0994 44.6287 0.0000 0.0000 0.0000
# 4 0.0000 0.0000 0.0000 33.5803 0.0000 0.0000
# 5 0.0000 0.0000 0.0000 0.0000 21.7505 0.0000
# 6 0.0000 0.0000 0.0000 0.0000 0.0000 28.2552
#
#
#
# Elastic Compliance Matrix: (Units=1/GPa)
#
#
# Indices 1 2 3 4 5 6 
#
# 1 0.017701 -0.000204 -0.008984 0.000000 0.000000 0.000000
# 2 -0.000204 0.011141 -0.005662 0.000000 0.000000 0.000000
# 3 -0.008984 -0.005662 0.029951 0.000000 0.000000 0.000000
# 4 0.000000 0.000000 0.000000 0.029779 0.000000 0.000000
# 5 0.000000 0.000000 0.000000 0.000000 0.045976 0.000000
# 6 0.000000 0.000000 0.000000 0.000000 0.000000 0.035392
#
#
# Mechanical properties :
#
#
# Convention : Reuss Voigt Hill
#
# Bulk Modulus (GPa) = 34.37276 36.94124 35.65700
# Shear Modulus (GPa) = 23.88494 27.09881 25.49188
#
# Velocity S-wave (km/s) = 3.44286 3.66718 3.55679
# Velocity P-wave (km/s) = 5.73257 6.02193 5.87903
#
# Compressibility (1/GPa) = 0.02909281
#
# Stress axis : x y z
#
# Youngs Moduli (GPa) = 56.49548 89.75938 33.38775
#
# Poissons Ratio (x) = 0.01833 0.29996
# Poissons Ratio (y) = 0.01154 0.18903
# Poissons Ratio (z) = 0.50756 0.50818
#
# Static dielectric constant tensor:
#      x y z
#    x 3.871610 0.000000 0.000000 
#    y 0.000000 3.754080 0.000000 
#    z 0.000000 0.000000 3.454770 
# 
# 
# High freq. dielectric constant tensor:
#      x y z
#    x 1.778300 0.000000 0.000000 
#    y 0.000000 1.796930 0.000000 
#    z 0.000000 0.000000 1.767920 
# 
# From -- ./inp_files/6258.got.cif
#   From: 2010.06.25/outbox.cif.g09.slc.cpg/sg58_4_cif.got.tgz:6258.got - 2010.06.26 21:38:00.
