data_PCOD8236413
_publ_section_title
;
Structure prediction by ZEFSAII (Michael W. Deem and Ramdas Pophale) SiO2 
 PCOD8236413
Probable space group: P N N M
;
_chemical_formula_sum "Si O2"
_cell_formula_units_Z 64
_cell_length_a 23.014145
_cell_length_b 8.684940
_cell_length_c 16.395644
_cell_angle_alpha 90.000000
_cell_angle_beta 90.000000
_cell_angle_gamma 90.000000
_cell_volume 3277.103421
_symmetry_space_group_name_H-M "P N N M"
_symmetry_group_IT_number 58
_symmetry_cell_setting 'orthorhombic'
loop_
_space_group_symop_operation_xyz
x,y,z
-x,-y,z
1/2+x,1/2-y,1/2-z
1/2-x,1/2+y,1/2-z
-x,-y,-z
x,y,-z
1/2-x,1/2+y,1/2+z
1/2+x,1/2-y,1/2+z
loop_
_atom_site_type_symbol
_atom_site_label
_atom_site_fract_x
_atom_site_fract_y
_atom_site_fract_z
Si Si1 0.648920 0.721229 0.405881
Si Si2 0.578808 0.858372 0.265776
Si Si3 0.850846 0.118056 0.330632
Si Si4 0.391810 0.669546 0.906291
Si Si5 0.722422 0.159874 0.095606
Si Si6 0.253332 0.183928 0.903877
Si Si7 0.142246 0.082516 0.174892
Si Si8 0.052556 0.295519 0.743256
O O1 0.642400 0.768710 0.500000
O O2 0.610466 0.837101 0.352556
O O3 0.716053 0.730281 0.374247
O O4 0.627063 0.544697 0.394217
O O5 0.609784 0.762701 0.194396
O O6 0.513248 0.797792 0.273379
O O7 0.581303 0.036663 0.243350
O O8 0.792053 0.176456 0.372018
O O9 0.885466 0.014743 0.396931
O O10 0.835309 0.011828 0.253575
O O11 0.332687 0.747385 0.869527
O O12 0.444016 0.732028 0.849734
O O13 0.404923 0.713065 0.000000
O O14 0.717380 0.979953 0.118507
O O15 0.721104 0.181196 0.000000
O O16 0.191803 0.197039 0.857899
O O17 0.243276 0.200692 0.000000
O O18 0.085613 0.181865 0.195123
#
# Coordination Sequence:
#
# PCOD8236413 Si02
#       8
#     8   8   8   8   8   8   8   8
#     4   9  18  36  59  84 110 142 179 220 266 317
#     4  10  22  40  57  76 106 144 184 225 270 321
#     4  10  21  33  53  81 111 141 176 221 272 319
#     4  10  20  36  57  83 109 139 177 222 270 321
#     4   8  16  31  53  79 110 139 169 211 263 314
#     4  10  19  34  54  81 112 143 177 215 257 318
#     4   9  20  34  54  80 111 144 178 219 269 319
#     4  10  22  40  57  76 106 144 184 225 270 321
#
# _framework density 19.529440999999998
#
# number of rings (size 3 to 8) (size 9 to 14) (size 15 to 20)
#    0.000    2.500    0.000    2.250    0.000   12.500 
#    0.000    9.375    0.000    0.000    0.000    0.000 
#    0.000    0.000    0.000    0.000    0.000    0.000 
#
# Total GULP energy -793494.111764 kJ/mol
# GULP energy per Si atom -12398.345496 kJ/mol
# Density = 1.948499 g / cm^3
# Si number density = 19.529441 Si / 1000 Ang^3
#
#
#
# Elastic Constant Matrix: (Units=GPa)
#
#
# Indices 1 2 3 4 5 6 
#
# 1 45.3615 12.6228 16.1781 0.0000 0.0000 0.0000
# 2 12.6228 53.0798 13.2912 0.0000 0.0000 0.0000
# 3 16.1781 13.2912 57.2966 0.0000 0.0000 0.0000
# 4 0.0000 0.0000 0.0000 22.0398 0.0000 0.0000
# 5 0.0000 0.0000 0.0000 0.0000 24.2547 0.0000
# 6 0.0000 0.0000 0.0000 0.0000 0.0000 32.4565
#
#
#
# Elastic Compliance Matrix: (Units=1/GPa)
#
#
# Indices 1 2 3 4 5 6 
#
# 1 0.025497 -0.004523 -0.006150 0.000000 0.000000 0.000000
# 2 -0.004523 0.020804 -0.003549 0.000000 0.000000 0.000000
# 3 -0.006150 -0.003549 0.020013 0.000000 0.000000 0.000000
# 4 0.000000 0.000000 0.000000 0.045372 0.000000 0.000000
# 5 0.000000 0.000000 0.000000 0.000000 0.041229 0.000000
# 6 0.000000 0.000000 0.000000 0.000000 0.000000 0.030810
#
#
# Mechanical properties :
#
#
# Convention : Reuss Voigt Hill
#
# Bulk Modulus (GPa) = 26.40647 26.65803 26.53225
# Shear Modulus (GPa) = 22.24264 23.32659 22.78462
#
# Velocity S-wave (km/s) = 3.37846 3.45980 3.41938
# Velocity P-wave (km/s) = 5.36371 5.44428 5.40414
#
# Compressibility (1/GPa) = 0.03786951
#
# Stress axis : x y z
#
# Youngs Moduli (GPa) = 39.21987 48.06796 49.96819
#
# Poissons Ratio (x) = 0.21743 0.30730
# Poissons Ratio (y) = 0.17741 0.17732
# Poissons Ratio (z) = 0.24120 0.17058
#
# Static dielectric constant tensor:
#      x y z
#    x 3.545010 0.000000 0.000000 
#    y 0.000000 3.744110 0.000000 
#    z 0.000000 0.000000 3.500390 
# 
# 
# High freq. dielectric constant tensor:
#      x y z
#    x 1.746650 0.000000 0.000000 
#    y 0.000000 1.762910 0.000000 
#    z 0.000000 0.000000 1.755910 
# 
# From -- ./inp_files/27531.got.cif
#   From: 2010.06.25/outbox.cif.g09.slc.cpg/sg58_14_cif.got.tgz:27531.got - 2010.06.26 21:38:00.
