data_PCOD8236171
_publ_section_title
;
Structure prediction by ZEFSAII (Michael W. Deem and Ramdas Pophale) SiO2 
 PCOD8236171
Probable space group: P N N M
;
_chemical_formula_sum "Si O2"
_cell_formula_units_Z 64
_cell_length_a 19.073670
_cell_length_b 20.385327
_cell_length_c 9.045474
_cell_angle_alpha 90.000000
_cell_angle_beta 90.000000
_cell_angle_gamma 90.000000
_cell_volume 3517.088337
_symmetry_space_group_name_H-M "P N N M"
_symmetry_group_IT_number 58
_symmetry_cell_setting 'orthorhombic'
loop_
_space_group_symop_operation_xyz
x,y,z
-x,-y,z
1/2+x,1/2-y,1/2-z
1/2-x,1/2+y,1/2-z
-x,-y,-z
x,y,-z
1/2-x,1/2+y,1/2+z
1/2+x,1/2-y,1/2+z
loop_
_atom_site_type_symbol
_atom_site_label
_atom_site_fract_x
_atom_site_fract_y
_atom_site_fract_z
Si Si1 0.531144 0.571116 0.169637
Si Si2 0.817057 0.113577 0.669855
Si Si3 0.822763 0.761452 0.674161
Si Si4 0.545194 0.314022 0.672727
Si Si5 0.951962 0.310372 0.827610
Si Si6 0.541693 0.064568 0.673607
Si Si7 0.819062 0.264643 0.327384
Si Si8 0.823445 0.610291 0.326328
O O1 0.500000 0.500000 0.198822
O O2 0.614239 0.570367 0.205330
O O3 0.492152 0.619416 0.280273
O O4 0.519480 0.593875 0.000000
O O5 0.793984 0.107340 0.500000
O O6 0.835560 0.188778 0.709134
O O7 0.752555 0.087297 0.767599
O O8 0.817552 0.770005 0.500000
O O9 0.883458 0.807305 0.736655
O O10 0.751376 0.787045 0.746273
O O11 0.836548 0.685889 0.719329
O O12 0.562712 0.315732 0.500000
O O13 0.495737 0.253644 0.714018
O O14 0.880864 0.309939 0.734513
O O15 0.995884 0.373327 0.777070
O O16 0.933025 0.312980 0.000000
O O17 0.556743 0.065367 0.500000
O O18 0.616414 0.065653 0.754762
O O19 0.500000 0.000000 0.722910
O O20 0.810505 0.277462 0.500000
O O21 0.824898 0.599952 0.500000
#
# Coordination Sequence:
#
# PCOD8236171 Si02
#       8
#     8   8   8   8   8   8   8   8
#     4  10  21  38  58  82 113 150 190 228 275 334
#     4   9  18  33  54  79 107 141 182 224 268 327
#     4  10  20  34  54  81 113 145 182 228 280 333
#     4  11  21  34  56  83 112 143 182 231 278 325
#     4  10  20  34  54  81 110 141 179 224 274 325
#     4  10  21  38  58  80 110 149 188 225 269 329
#     4  10  19  32  54  82 111 142 180 228 279 327
#     4  10  20  33  54  82 110 141 179 228 278 326
#
# _framework density 18.196870000000001
#
# number of rings (size 3 to 8) (size 9 to 14) (size 15 to 20)
#    0.000    2.000    2.500    1.500    0.000    3.500 
#    0.000    1.250    0.000    3.000    0.000    0.000 
#    0.000    0.000    0.000    0.000    0.000    0.000 
#
# Total GULP energy -793900.817714 kJ/mol
# GULP energy per Si atom -12404.700277 kJ/mol
# Density = 1.815545 g / cm^3
# Si number density = 18.196870 Si / 1000 Ang^3
#
#
#
# Elastic Constant Matrix: (Units=GPa)
#
#
# Indices 1 2 3 4 5 6 
#
# 1 150.2935 51.7116 61.8775 0.0000 0.0000 0.0000
# 2 51.7116 74.5993 31.1037 0.0000 0.0000 0.0000
# 3 61.8775 31.1037 70.8100 0.0000 0.0000 0.0000
# 4 0.0000 0.0000 0.0000 21.9733 0.0000 0.0000
# 5 0.0000 0.0000 0.0000 0.0000 37.6411 0.0000
# 6 0.0000 0.0000 0.0000 0.0000 0.0000 27.8287
#
#
#
# Elastic Compliance Matrix: (Units=1/GPa)
#
#
# Indices 1 2 3 4 5 6 
#
# 1 0.011581 -0.004662 -0.008072 0.000000 0.000000 0.000000
# 2 -0.004662 0.018287 -0.003959 0.000000 0.000000 0.000000
# 3 -0.008072 -0.003959 0.022915 0.000000 0.000000 0.000000
# 4 0.000000 0.000000 0.000000 0.045510 0.000000 0.000000
# 5 0.000000 0.000000 0.000000 0.000000 0.026567 0.000000
# 6 0.000000 0.000000 0.000000 0.000000 0.000000 0.035934
#
#
# Mechanical properties :
#
#
# Convention : Reuss Voigt Hill
#
# Bulk Modulus (GPa) = 51.55390 65.00982 58.28186
# Shear Modulus (GPa) = 24.91939 27.55597 26.23768
#
# Velocity S-wave (km/s) = 3.70460 3.89565 3.80133
# Velocity P-wave (km/s) = 6.83311 7.48587 7.16693
#
# Compressibility (1/GPa) = 0.01939717
#
# Stress axis : x y z
#
# Youngs Moduli (GPa) = 86.34601 54.68260 43.63905
#
# Poissons Ratio (x) = 0.25495 0.35227
# Poissons Ratio (y) = 0.40257 0.17275
# Poissons Ratio (z) = 0.69702 0.21647
#
# Static dielectric constant tensor:
#      x y z
#    x 3.437750 0.000000 0.000000 
#    y 0.000000 3.125810 0.000000 
#    z 0.000000 0.000000 3.305780 
# 
# 
# High freq. dielectric constant tensor:
#      x y z
#    x 1.718640 0.000000 0.000000 
#    y 0.000000 1.674140 0.000000 
#    z 0.000000 0.000000 1.709080 
# 
# From -- ./inp_files/8245.got.cif
#   From: 2010.06.25/outbox.cif.g09.slc.cpg/sg58_5_cif.got.tgz:8245.got - 2010.06.26 21:38:00.
