data_PCOD8236365
_publ_section_title
;
Structure prediction by ZEFSAII (Michael W. Deem and Ramdas Pophale) SiO2 
 PCOD8236365
Probable space group: P N N M
;
_chemical_formula_sum "Si O2"
_cell_formula_units_Z 48
_cell_length_a 29.349622
_cell_length_b 9.561348
_cell_length_c 8.722273
_cell_angle_alpha 90.000000
_cell_angle_beta 90.000000
_cell_angle_gamma 90.000000
_cell_volume 2447.661254
_symmetry_space_group_name_H-M "P N N M"
_symmetry_group_IT_number 58
_symmetry_cell_setting 'orthorhombic'
loop_
_space_group_symop_operation_xyz
x,y,z
-x,-y,z
1/2+x,1/2-y,1/2-z
1/2-x,1/2+y,1/2-z
-x,-y,-z
x,y,-z
1/2-x,1/2+y,1/2+z
1/2+x,1/2-y,1/2+z
loop_
_atom_site_type_symbol
_atom_site_label
_atom_site_fract_x
_atom_site_fract_y
_atom_site_fract_z
Si Si1 0.703672 0.506300 0.180071
Si Si2 0.037919 0.387327 0.321878
Si Si3 0.122253 0.801855 0.682415
Si Si4 0.020902 0.857508 0.316775
Si Si5 0.788280 0.700120 0.179688
Si Si6 0.866513 0.510964 0.317436
O O1 0.656183 0.575061 0.237988
O O2 0.741661 0.621299 0.221847
O O3 0.713183 0.359751 0.262909
O O4 0.702425 0.475352 0.000000
O O5 0.047304 0.364210 0.500000
O O6 0.085852 0.431673 0.247556
O O7 0.000000 0.500000 0.290934
O O8 0.016282 0.249110 0.248299
O O9 0.120899 0.800417 0.500000
O O10 0.071745 0.832216 0.748933
O O11 0.139740 0.649425 0.739846
O O12 0.023359 0.846265 0.500000
O O13 0.000000 0.000000 0.257246
O O14 0.827851 0.612289 0.257695
O O15 0.796732 0.703200 0.000000
O O16 0.866358 0.514329 0.500000
#
# Coordination Sequence:
#
# PCOD8236365 Si02
#       6
#     8   8   8   8   8   8
#     4  10  22  39  59  81 107 142 183 224 273 329
#     4   9  15  26  45  77 112 143 182 229 275 316
#     4   9  17  31  51  80 113 142 179 230 279 323
#     4   9  16  24  40  73 114 143 171 224 282 320
#     4  11  24  40  58  84 114 142 180 228 276 332
#     4  10  19  33  57  84 114 149 187 228 275 330
#
# _framework density 19.610555999999999
#
# number of rings (size 3 to 8) (size 9 to 14) (size 15 to 20)
#    0.000    2.333    1.667    1.500    2.333    2.667 
#    0.000    0.833    0.000    0.500    0.000    1.167 
#    0.000    0.000    0.000    0.000    0.000    0.000 
#
# Total GULP energy -594866.569038 kJ/mol
# GULP energy per Si atom -12393.053522 kJ/mol
# Density = 1.956592 g / cm^3
# Si number density = 19.610556 Si / 1000 Ang^3
#
#
#
# Elastic Constant Matrix: (Units=GPa)
#
#
# Indices 1 2 3 4 5 6 
#
# 1 98.5847 42.6207 13.6614 0.0000 0.0000 0.0000
# 2 42.6207 161.3691 18.5398 0.0000 0.0000 0.0000
# 3 13.6614 18.5398 17.8952 0.0000 0.0000 0.0000
# 4 0.0000 0.0000 0.0000 17.0654 0.0000 0.0000
# 5 0.0000 0.0000 0.0000 0.0000 15.9175 0.0000
# 6 0.0000 0.0000 0.0000 0.0000 0.0000 48.0776
#
#
#
# Elastic Compliance Matrix: (Units=1/GPa)
#
#
# Indices 1 2 3 4 5 6 
#
# 1 0.012128 -0.002429 -0.006742 0.000000 0.000000 0.000000
# 2 -0.002429 0.007521 -0.005937 0.000000 0.000000 0.000000
# 3 -0.006742 -0.005937 0.067179 0.000000 0.000000 0.000000
# 4 0.000000 0.000000 0.000000 0.058598 0.000000 0.000000
# 5 0.000000 0.000000 0.000000 0.000000 0.062824 0.000000
# 6 0.000000 0.000000 0.000000 0.000000 0.000000 0.020800
#
#
# Mechanical properties :
#
#
# Convention : Reuss Voigt Hill
#
# Bulk Modulus (GPa) = 17.66448 47.49919 32.58184
# Shear Modulus (GPa) = 17.97679 29.74725 23.86202
#
# Velocity S-wave (km/s) = 3.03097 3.89897 3.49204
# Velocity P-wave (km/s) = 4.61262 6.67406 5.73669
#
# Compressibility (1/GPa) = 0.05661077
#
# Stress axis : x y z
#
# Youngs Moduli (GPa) = 82.45498 132.96890 14.88554
#
# Poissons Ratio (x) = 0.32292 0.10037
# Poissons Ratio (y) = 0.20025 0.08838
# Poissons Ratio (z) = 0.55595 0.78949
#
# Static dielectric constant tensor:
#      x y z
#    x 3.909840 0.000000 0.000000 
#    y 0.000000 3.767650 0.000000 
#    z 0.000000 0.000000 2.994680 
# 
# 
# High freq. dielectric constant tensor:
#      x y z
#    x 1.783220 0.000000 0.000000 
#    y 0.000000 1.784060 0.000000 
#    z 0.000000 0.000000 1.696640 
# 
# From -- ./inp_files/10734.got.cif
#   From: 2010.06.25/outbox.cif.g09.slc.cpg/sg58_6_cif.got.tgz:10734.got - 2010.06.26 21:38:00.
