data_PCOD8236756
_publ_section_title
;
Structure prediction by ZEFSAII (Michael W. Deem and Ramdas Pophale) SiO2 
 PCOD8236756
Probable space group: P N N M
;
_chemical_formula_sum "Si O2"
_cell_formula_units_Z 56
_cell_length_a 8.292879
_cell_length_b 13.779909
_cell_length_c 25.462080
_cell_angle_alpha 90.000000
_cell_angle_beta 90.000000
_cell_angle_gamma 90.000000
_cell_volume 2909.682196
_symmetry_space_group_name_H-M "P N N M"
_symmetry_group_IT_number 58
_symmetry_cell_setting 'orthorhombic'
loop_
_space_group_symop_operation_xyz
x,y,z
-x,-y,z
1/2+x,1/2-y,1/2-z
1/2-x,1/2+y,1/2-z
-x,-y,-z
x,y,-z
1/2-x,1/2+y,1/2+z
1/2+x,1/2-y,1/2+z
loop_
_atom_site_type_symbol
_atom_site_label
_atom_site_fract_x
_atom_site_fract_y
_atom_site_fract_z
Si Si1 0.116823 0.709740 0.560851
Si Si2 0.705580 0.673205 0.720943
Si Si3 0.111576 0.418181 0.372282
Si Si4 0.835670 0.960474 0.939338
Si Si5 0.590534 0.594299 0.884844
Si Si6 0.177748 0.461736 0.197240
Si Si7 0.607732 0.363011 0.782172
O O1 0.065230 0.694225 0.500000
O O2 0.287448 0.652959 0.571540
O O3 0.129375 0.824969 0.571307
O O4 0.986282 0.670438 0.602328
O O5 0.752017 0.620234 0.666910
O O6 0.821022 0.633945 0.767213
O O7 0.516712 0.657586 0.734387
O O8 0.746840 0.786352 0.716457
O O9 0.189737 0.473536 0.420806
O O10 0.000000 0.500000 0.343070
O O11 0.853932 0.979791 0.000000
O O12 0.000000 0.000000 0.911640
O O13 0.500000 0.500000 0.909701
O O14 0.762470 0.560236 0.861699
O O15 0.486589 0.639601 0.837223
O O16 0.305760 0.533757 0.225823
O O17 0.000000 0.500000 0.192335
#
# Coordination Sequence:
#
# PCOD8236756 Si02
#       7
#     8   8   8   8   8   8   8
#     4  10  19  36  61  84 112 151 193 238 290 343
#     4  11  20  35  55  80 112 146 185 232 273 341
#     4  10  20  34  56  84 111 142 190 232 280 341
#     4   9  19  36  53  79 119 151 180 230 290 343
#     4   9  19  37  57  80 114 145 192 240 285 343
#     4  10  21  38  56  77 110 151 184 230 286 336
#     4  10  21  37  55  80 115 149 186 231 282 336
#
# _framework density 19.246089000000001
#
# number of rings (size 3 to 8) (size 9 to 14) (size 15 to 20)
#    0.000    2.143    1.429    3.000    0.000    3.143 
#   10.286    0.000    0.000    0.429    0.000    0.000 
#    0.000    0.000    0.000    0.000    0.000    0.000 
#
# Total GULP energy -694016.985761 kJ/mol
# GULP energy per Si atom -12393.160460 kJ/mol
# Density = 1.920228 g / cm^3
# Si number density = 19.246089 Si / 1000 Ang^3
#
#
#
# Elastic Constant Matrix: (Units=GPa)
#
#
# Indices 1 2 3 4 5 6 
#
# 1 88.0054 23.8043 25.2065 0.0000 0.0000 0.0000
# 2 23.8043 99.4028 30.5184 0.0000 0.0000 0.0000
# 3 25.2065 30.5184 48.6297 0.0000 0.0000 0.0000
# 4 0.0000 0.0000 0.0000 28.4314 0.0000 0.0000
# 5 0.0000 0.0000 0.0000 0.0000 19.7844 0.0000
# 6 0.0000 0.0000 0.0000 0.0000 0.0000 25.9132
#
#
#
# Elastic Compliance Matrix: (Units=1/GPa)
#
#
# Indices 1 2 3 4 5 6 
#
# 1 0.013487 -0.001342 -0.006149 0.000000 0.000000 0.000000
# 2 -0.001342 0.012595 -0.007208 0.000000 0.000000 0.000000
# 3 -0.006149 -0.007208 0.028274 0.000000 0.000000 0.000000
# 4 0.000000 0.000000 0.000000 0.035172 0.000000 0.000000
# 5 0.000000 0.000000 0.000000 0.000000 0.050545 0.000000
# 6 0.000000 0.000000 0.000000 0.000000 0.000000 0.038590
#
#
# Mechanical properties :
#
#
# Convention : Reuss Voigt Hill
#
# Bulk Modulus (GPa) = 40.06731 43.89959 41.98345
# Shear Modulus (GPa) = 23.10744 25.25972 24.18358
#
# Velocity S-wave (km/s) = 3.46877 3.62672 3.54862
# Velocity P-wave (km/s) = 6.07509 6.35583 6.21705
#
# Compressibility (1/GPa) = 0.02495800
#
# Stress axis : x y z
#
# Youngs Moduli (GPa) = 74.14530 79.39954 35.36783
#
# Poissons Ratio (x) = 0.10656 0.21746
# Poissons Ratio (y) = 0.09951 0.25494
# Poissons Ratio (z) = 0.45589 0.57233
#
# Static dielectric constant tensor:
#      x y z
#    x 3.630370 0.000000 0.000000 
#    y 0.000000 3.685430 0.000000 
#    z 0.000000 0.000000 3.196170 
# 
# 
# High freq. dielectric constant tensor:
#      x y z
#    x 1.743370 0.000000 0.000000 
#    y 0.000000 1.758670 0.000000 
#    z 0.000000 0.000000 1.722710 
# 
# From -- ./inp_files/28942.got.cif
#   From: 2010.06.25/outbox.cif.g09.slc.cpg/sg58_15_cif.got.tgz:28942.got - 2010.06.26 21:38:00.
