data_PCOD8236500
_publ_section_title
;
Structure prediction by ZEFSAII (Michael W. Deem and Ramdas Pophale) SiO2 
 PCOD8236500
Probable space group: P N N M
;
_chemical_formula_sum "Si O2"
_cell_formula_units_Z 64
_cell_length_a 20.452089
_cell_length_b 19.015634
_cell_length_c 8.896533
_cell_angle_alpha 90.000000
_cell_angle_beta 90.000000
_cell_angle_gamma 90.000000
_cell_volume 3459.945658
_symmetry_space_group_name_H-M "P N N M"
_symmetry_group_IT_number 58
_symmetry_cell_setting 'orthorhombic'
loop_
_space_group_symop_operation_xyz
x,y,z
-x,-y,z
1/2+x,1/2-y,1/2-z
1/2-x,1/2+y,1/2-z
-x,-y,-z
x,y,-z
1/2-x,1/2+y,1/2+z
1/2+x,1/2-y,1/2+z
loop_
_atom_site_type_symbol
_atom_site_label
_atom_site_fract_x
_atom_site_fract_y
_atom_site_fract_z
Si Si1 0.314696 0.037710 0.673365
Si Si2 0.390018 0.678623 0.824159
Si Si3 0.695566 0.538538 0.675334
Si Si4 0.567233 0.037672 0.824189
Si Si5 0.436516 0.541587 0.675378
Si Si6 0.741070 0.813788 0.671587
Si Si7 0.236890 0.826869 0.325897
Si Si8 0.610643 0.176131 0.324779
O O1 0.326472 0.016848 0.500000
O O2 0.307669 0.121266 0.693958
O O3 0.248712 0.001185 0.725945
O O4 0.375163 0.013361 0.771920
O O5 0.433595 0.615776 0.759795
O O6 0.314425 0.663344 0.782369
O O7 0.412897 0.752016 0.752201
O O8 0.401815 0.683504 0.000000
O O9 0.712916 0.532021 0.500000
O O10 0.625539 0.506353 0.713638
O O11 0.694738 0.619727 0.725716
O O12 0.568624 0.112208 0.740547
O O13 0.500000 0.000000 0.782223
O O14 0.574562 0.051731 0.000000
O O15 0.500000 0.500000 0.733096
O O16 0.441386 0.558364 0.500000
O O17 0.741127 0.786949 0.500000
O O18 0.716091 0.751610 0.778604
O O19 0.220608 0.837999 0.500000
O O20 0.313341 0.839254 0.290801
O O21 0.596921 0.183200 0.500000
#
# Coordination Sequence:
#
# PCOD8236500 Si02
#       8
#     8   8   8   8   8   8   8   8
#     4  11  21  36  58  85 114 145 186 232 281 337
#     4  10  19  34  57  84 114 147 187 236 284 336
#     4  11  21  34  57  83 112 148 186 233 285 332
#     4  11  24  40  58  84 117 152 191 234 281 336
#     4  10  22  39  57  82 116 154 195 236 281 339
#     4   9  19  34  54  82 115 146 182 232 285 337
#     4  10  20  33  54  84 115 145 185 235 282 337
#     4  10  20  35  57  84 113 148 189 233 280 336
#
# _framework density 18.497401
#
# number of rings (size 3 to 8) (size 9 to 14) (size 15 to 20)
#    0.000    1.750    2.500    2.250    0.000    4.250 
#    0.000    1.250    0.000    1.500    0.000    0.000 
#    0.000    0.000    0.000    0.000    0.000    0.000 
#
# Total GULP energy -793923.118456 kJ/mol
# GULP energy per Si atom -12405.048726 kJ/mol
# Density = 1.845530 g / cm^3
# Si number density = 18.497401 Si / 1000 Ang^3
#
#
#
# Elastic Constant Matrix: (Units=GPa)
#
#
# Indices 1 2 3 4 5 6 
#
# 1 82.0206 53.3145 31.7795 0.0000 0.0000 0.0000
# 2 53.3145 141.4963 56.7564 0.0000 0.0000 0.0000
# 3 31.7795 56.7564 62.8559 0.0000 0.0000 0.0000
# 4 0.0000 0.0000 0.0000 39.0316 0.0000 0.0000
# 5 0.0000 0.0000 0.0000 0.0000 10.3862 0.0000
# 6 0.0000 0.0000 0.0000 0.0000 0.0000 23.6666
#
#
#
# Elastic Compliance Matrix: (Units=1/GPa)
#
#
# Indices 1 2 3 4 5 6 
#
# 1 0.016881 -0.004605 -0.004377 0.000000 0.000000 0.000000
# 2 -0.004605 0.012337 -0.008811 0.000000 0.000000 0.000000
# 3 -0.004377 -0.008811 0.026079 0.000000 0.000000 0.000000
# 4 0.000000 0.000000 0.000000 0.025620 0.000000 0.000000
# 5 0.000000 0.000000 0.000000 0.000000 0.096282 0.000000
# 6 0.000000 0.000000 0.000000 0.000000 0.000000 0.042254
#
#
# Mechanical properties :
#
#
# Convention : Reuss Voigt Hill
#
# Bulk Modulus (GPa) = 50.73534 63.34151 57.03843
# Shear Modulus (GPa) = 19.11247 24.25169 21.68208
#
# Velocity S-wave (km/s) = 3.21791 3.62482 3.42741
# Velocity P-wave (km/s) = 6.42608 7.19979 6.82391
#
# Compressibility (1/GPa) = 0.01971013
#
# Stress axis : x y z
#
# Youngs Moduli (GPa) = 59.23722 81.05780 38.34555
#
# Poissons Ratio (x) = 0.37328 0.16783
# Poissons Ratio (y) = 0.27279 0.33788
# Poissons Ratio (z) = 0.25927 0.71423
#
# Static dielectric constant tensor:
#      x y z
#    x 3.256730 0.000000 0.000000 
#    y 0.000000 3.537630 0.000000 
#    z 0.000000 0.000000 3.455850 
# 
# 
# High freq. dielectric constant tensor:
#      x y z
#    x 1.685870 0.000000 0.000000 
#    y 0.000000 1.733000 0.000000 
#    z 0.000000 0.000000 1.729400 
# 
# From -- ./inp_files/9264.got.cif
#   From: 2010.06.25/outbox.cif.g09.slc.cpg/sg58_5_cif.got.tgz:9264.got - 2010.06.26 21:38:00.
