data_PCOD8236125
_publ_section_title
;
Structure prediction by ZEFSAII (Michael W. Deem and Ramdas Pophale) SiO2 
 PCOD8236125
Probable space group: P N N M
;
_chemical_formula_sum "Si O2"
_cell_formula_units_Z 64
_cell_length_a 24.720666
_cell_length_b 14.797509
_cell_length_c 9.320511
_cell_angle_alpha 90.000000
_cell_angle_beta 90.000000
_cell_angle_gamma 90.000000
_cell_volume 3409.482793
_symmetry_space_group_name_H-M "P N N M"
_symmetry_group_IT_number 58
_symmetry_cell_setting 'orthorhombic'
loop_
_space_group_symop_operation_xyz
x,y,z
-x,-y,z
1/2+x,1/2-y,1/2-z
1/2-x,1/2+y,1/2-z
-x,-y,-z
x,y,-z
1/2-x,1/2+y,1/2+z
1/2+x,1/2-y,1/2+z
loop_
_atom_site_type_symbol
_atom_site_label
_atom_site_fract_x
_atom_site_fract_y
_atom_site_fract_z
Si Si1 0.436553 0.325405 0.164804
Si Si2 0.777938 0.970549 0.835186
Si Si3 0.882671 0.987416 0.334980
Si Si4 0.868754 0.670793 0.835842
Si Si5 0.241394 0.238056 0.163707
Si Si6 0.173828 0.515369 0.163827
Si Si7 0.847003 0.281367 0.168386
Si Si8 0.559710 0.305388 0.169207
O O1 0.425003 0.431516 0.183347
O O2 0.398972 0.265098 0.264497
O O3 0.497536 0.308872 0.216492
O O4 0.427954 0.295811 0.000000
O O5 0.830190 0.011804 0.757839
O O6 0.778992 0.863395 0.814801
O O7 0.724288 0.010435 0.763450
O O8 0.779111 0.000366 0.000000
O O9 0.864968 0.975743 0.500000
O O10 0.910593 0.896136 0.276581
O O11 0.808314 0.699362 0.789167
O O12 0.871843 0.562060 0.815798
O O13 0.913878 0.717015 0.738862
O O14 0.879246 0.699771 0.000000
O O15 0.292428 0.260319 0.264132
O O16 0.259285 0.256300 0.000000
O O17 0.148563 0.612050 0.205209
O O18 0.194807 0.516922 0.000000
O O19 0.845805 0.262476 0.000000
O O20 0.565186 0.296837 0.000000
#
# Coordination Sequence:
#
# PCOD8236125 Si02
#       8
#     8   8   8   8   8   8   8   8
#     4  10  22  39  58  79 108 149 189 226 277 335
#     4  10  19  32  52  82 115 143 177 222 272 323
#     4  10  20  35  56  80 110 147 183 221 270 332
#     4  10  20  36  58  82 111 147 184 224 276 332
#     4   9  18  33  53  78 111 147 177 215 274 335
#     4   9  20  37  56  79 111 150 187 222 269 330
#     4  10  21  37  56  81 111 143 187 236 274 316
#     4  10  21  38  59  83 110 142 187 234 273 324
#
# _framework density 18.771176000000001
#
# number of rings (size 3 to 8) (size 9 to 14) (size 15 to 20)
#    0.000    2.250    1.250    1.125    1.750    4.500 
#    0.000    0.625    0.000    6.000    0.000    0.000 
#    0.000    0.000    0.000    0.000    0.000    0.000 
#
# Total GULP energy -793795.430637 kJ/mol
# GULP energy per Si atom -12403.053604 kJ/mol
# Density = 1.872845 g / cm^3
# Si number density = 18.771176 Si / 1000 Ang^3
#
#
#
# Elastic Constant Matrix: (Units=GPa)
#
#
# Indices 1 2 3 4 5 6 
#
# 1 109.4556 34.6165 55.2487 0.0000 0.0000 0.0000
# 2 34.6165 50.7956 22.7677 0.0000 0.0000 0.0000
# 3 55.2487 22.7677 75.3213 0.0000 0.0000 0.0000
# 4 0.0000 0.0000 0.0000 27.8914 0.0000 0.0000
# 5 0.0000 0.0000 0.0000 0.0000 30.2489 0.0000
# 6 0.0000 0.0000 0.0000 0.0000 0.0000 26.4051
#
#
#
# Elastic Compliance Matrix: (Units=1/GPa)
#
#
# Indices 1 2 3 4 5 6 
#
# 1 0.016228 -0.006621 -0.009902 0.000000 0.000000 0.000000
# 2 -0.006621 0.025473 -0.002843 0.000000 0.000000 0.000000
# 3 -0.009902 -0.002843 0.021399 0.000000 0.000000 0.000000
# 4 0.000000 0.000000 0.000000 0.035853 0.000000 0.000000
# 5 0.000000 0.000000 0.000000 0.000000 0.033059 0.000000
# 6 0.000000 0.000000 0.000000 0.000000 0.000000 0.037871
#
#
# Mechanical properties :
#
#
# Convention : Reuss Voigt Hill
#
# Bulk Modulus (GPa) = 41.03789 51.20427 46.12108
# Shear Modulus (GPa) = 23.06903 25.10503 24.08703
#
# Velocity S-wave (km/s) = 3.50946 3.66105 3.58605
# Velocity P-wave (km/s) = 6.19123 6.72372 6.46296
#
# Compressibility (1/GPa) = 0.02436772
#
# Stress axis : x y z
#
# Youngs Moduli (GPa) = 61.62062 39.25672 46.73054
#
# Poissons Ratio (x) = 0.25992 0.46274
# Poissons Ratio (y) = 0.40799 0.13287
# Poissons Ratio (z) = 0.61018 0.11162
#
# Static dielectric constant tensor:
#      x y z
#    x 3.291540 0.000000 0.000000 
#    y 0.000000 3.481970 0.000000 
#    z 0.000000 0.000000 3.408640 
# 
# 
# High freq. dielectric constant tensor:
#      x y z
#    x 1.715450 0.000000 0.000000 
#    y 0.000000 1.732810 0.000000 
#    z 0.000000 0.000000 1.725900 
# 
# From -- ./inp_files/6829.got.cif
#   From: 2010.06.25/outbox.cif.g09.slc.cpg/sg58_4_cif.got.tgz:6829.got - 2010.06.26 21:38:00.
