data_PCOD8236226
_publ_section_title
;
Structure prediction by ZEFSAII (Michael W. Deem and Ramdas Pophale) SiO2 
 PCOD8236226
Probable space group: P N N M
;
_chemical_formula_sum "Si O2"
_cell_formula_units_Z 56
_cell_length_a 19.187161
_cell_length_b 19.044469
_cell_length_c 8.863399
_cell_angle_alpha 90.000000
_cell_angle_beta 90.000000
_cell_angle_gamma 90.000000
_cell_volume 3238.768361
_symmetry_space_group_name_H-M "P N N M"
_symmetry_group_IT_number 58
_symmetry_cell_setting 'orthorhombic'
loop_
_space_group_symop_operation_xyz
x,y,z
-x,-y,z
1/2+x,1/2-y,1/2-z
1/2-x,1/2+y,1/2-z
-x,-y,-z
x,y,-z
1/2-x,1/2+y,1/2+z
1/2+x,1/2-y,1/2+z
loop_
_atom_site_type_symbol
_atom_site_label
_atom_site_fract_x
_atom_site_fract_y
_atom_site_fract_z
Si Si1 0.978148 0.302583 0.827687
Si Si2 0.763873 0.849435 0.174829
Si Si3 0.231949 0.375405 0.325200
Si Si4 0.793419 0.479828 0.177558
Si Si5 0.059079 0.554466 0.322976
Si Si6 0.834241 0.244193 0.171714
Si Si7 0.632122 0.231447 0.674756
O O1 0.966410 0.368340 0.719970
O O2 0.917498 0.244571 0.804064
O O3 0.050460 0.264468 0.787133
O O4 0.978654 0.329958 0.000000
O O5 0.761756 0.921260 0.268475
O O6 0.697670 0.801723 0.216776
O O7 0.834573 0.807124 0.214468
O O8 0.758992 0.868795 0.000000
O O9 0.222851 0.394604 0.500000
O O10 0.236241 0.445762 0.229531
O O11 0.303444 0.332747 0.293050
O O12 0.165824 0.329275 0.275621
O O13 0.869585 0.465392 0.242355
O O14 0.798940 0.478253 0.000000
O O15 0.072482 0.550526 0.500000
O O16 0.000000 0.500000 0.270906
O O17 0.814633 0.265548 0.000000
O O18 0.646498 0.213069 0.500000
#
# Coordination Sequence:
#
# PCOD8236226 Si02
#       7
#     8   8   8   8   8   8   8
#     4  10  19  33  53  77 105 137 172 207 254 311
#     4  10  19  33  53  76 103 135 175 216 257 306
#     4  10  20  34  52  75 104 135 173 217 260 308
#     4  12  23  35  52  74 102 138 178 216 262 311
#     4  11  23  35  49  75 109 141 172 208 257 314
#     4   9  18  33  53  76 101 134 173 213 257 310
#     4   9  19  34  53  78 107 138 171 211 256 309
#
# _framework density 17.290521999999999
#
# number of rings (size 3 to 8) (size 9 to 14) (size 15 to 20)
#    0.000    1.857    1.429    3.429    0.000    5.143 
#    0.000    0.000    0.000    0.857    0.000    6.000 
#    0.000    0.000    0.000    0.000    0.000    0.000 
#
# Total GULP energy -694514.916199 kJ/mol
# GULP energy per Si atom -12402.052075 kJ/mol
# Density = 1.725117 g / cm^3
# Si number density = 17.290522 Si / 1000 Ang^3
#
#
#
# Elastic Constant Matrix: (Units=GPa)
#
#
# Indices 1 2 3 4 5 6 
#
# 1 120.0805 71.9416 38.1529 0.0000 0.0000 0.0000
# 2 71.9416 109.7324 47.7566 0.0000 0.0000 0.0000
# 3 38.1529 47.7566 80.0253 0.0000 0.0000 0.0000
# 4 0.0000 0.0000 0.0000 30.6330 0.0000 0.0000
# 5 0.0000 0.0000 0.0000 0.0000 20.8794 0.0000
# 6 0.0000 0.0000 0.0000 0.0000 0.0000 23.9966
#
#
#
# Elastic Compliance Matrix: (Units=1/GPa)
#
#
# Indices 1 2 3 4 5 6 
#
# 1 0.013865 -0.008393 -0.001602 0.000000 0.000000 0.000000
# 2 -0.008393 0.017391 -0.006377 0.000000 0.000000 0.000000
# 3 -0.001602 -0.006377 0.017065 0.000000 0.000000 0.000000
# 4 0.000000 0.000000 0.000000 0.032645 0.000000 0.000000
# 5 0.000000 0.000000 0.000000 0.000000 0.047894 0.000000
# 6 0.000000 0.000000 0.000000 0.000000 0.000000 0.041673
#
#
# Mechanical properties :
#
#
# Convention : Reuss Voigt Hill
#
# Bulk Modulus (GPa) = 64.19282 69.50447 66.84865
# Shear Modulus (GPa) = 23.98453 25.23428 24.60941
#
# Velocity S-wave (km/s) = 3.72849 3.82439 3.77674
# Velocity P-wave (km/s) = 7.46606 7.73218 7.60028
#
# Compressibility (1/GPa) = 0.01557807
#
# Stress axis : x y z
#
# Youngs Moduli (GPa) = 72.12441 57.50147 58.59893
#
# Poissons Ratio (x) = 0.48261 0.09385
# Poissons Ratio (y) = 0.60534 0.37368
# Poissons Ratio (z) = 0.11551 0.36668
#
# Static dielectric constant tensor:
#      x y z
#    x 3.313890 0.000000 0.000000 
#    y 0.000000 3.266250 0.000000 
#    z 0.000000 0.000000 3.326070 
# 
# 
# High freq. dielectric constant tensor:
#      x y z
#    x 1.659910 0.000000 0.000000 
#    y 0.000000 1.657420 0.000000 
#    z 0.000000 0.000000 1.678100 
# 
# From -- ./inp_files/8153.got.cif
#   From: 2010.06.25/outbox.cif.g09.slc.cpg/sg58_5_cif.got.tgz:8153.got - 2010.06.26 21:38:00.
