data_PCOD8236783
_publ_section_title
;
Structure prediction by ZEFSAII (Michael W. Deem and Ramdas Pophale) SiO2 
 PCOD8236783
Probable space group: P N N M
;
_chemical_formula_sum "Si O2"
_cell_formula_units_Z 40
_cell_length_a 17.890256
_cell_length_b 8.089724
_cell_length_c 12.870237
_cell_angle_alpha 90.000000
_cell_angle_beta 90.000000
_cell_angle_gamma 90.000000
_cell_volume 1862.673793
_symmetry_space_group_name_H-M "P N N M"
_symmetry_group_IT_number 58
_symmetry_cell_setting 'orthorhombic'
loop_
_space_group_symop_operation_xyz
x,y,z
-x,-y,z
1/2+x,1/2-y,1/2-z
1/2-x,1/2+y,1/2-z
-x,-y,-z
x,y,-z
1/2-x,1/2+y,1/2+z
1/2+x,1/2-y,1/2+z
loop_
_atom_site_type_symbol
_atom_site_label
_atom_site_fract_x
_atom_site_fract_y
_atom_site_fract_z
Si Si1 0.596228 0.404513 0.614995
Si Si2 0.448414 0.842171 0.113817
Si Si3 0.758423 0.694078 0.878778
Si Si4 0.662531 0.956167 0.762584
Si Si5 0.458302 0.282850 0.709549
O O1 0.602572 0.481123 0.500000
O O2 0.666757 0.295053 0.639750
O O3 0.521897 0.289724 0.620215
O O4 0.592743 0.553140 0.698827
O O5 0.495173 0.711353 0.182148
O O6 0.500000 0.000000 0.100902
O O7 0.369339 0.894897 0.166290
O O8 0.431171 0.765437 0.000000
O O9 0.691100 0.804535 0.834226
O O10 0.772032 0.524234 0.813632
O O11 0.743070 0.653192 0.000000
O O12 0.592874 0.880294 0.696872
#
# Coordination Sequence:
#
# PCOD8236783 Si02
#       5
#     8   8   8   8   8
#     4  10  21  38  61  91 126 161 198 247 313 371
#     4   9  18  34  58  85 114 154 198 243 303 358
#     4  11  24  41  63  90 124 167 208 254 313 371
#     4  11  22  40  62  86 124 161 206 263 301 368
#     4  10  19  36  62  89 119 159 200 250 300 363
#
# _framework density 21.474506000000002
#
# number of rings (size 3 to 8) (size 9 to 14) (size 15 to 20)
#    0.000    1.800    2.000    3.000    0.000    2.400 
#    0.000    6.000    0.000    0.000    0.000    0.000 
#    0.000    0.000    0.000    0.000    0.000    0.000 
#
# Total GULP energy -495700.429603 kJ/mol
# GULP energy per Si atom -12392.510740 kJ/mol
# Density = 2.142563 g / cm^3
# Si number density = 21.474506 Si / 1000 Ang^3
#
#
#
# Elastic Constant Matrix: (Units=GPa)
#
#
# Indices 1 2 3 4 5 6 
#
# 1 53.6030 14.6933 9.9991 0.0000 0.0000 0.0000
# 2 14.6933 62.8745 48.7848 0.0000 0.0000 0.0000
# 3 9.9991 48.7848 117.9142 0.0000 0.0000 0.0000
# 4 0.0000 0.0000 0.0000 29.5905 0.0000 0.0000
# 5 0.0000 0.0000 0.0000 0.0000 30.0892 0.0000
# 6 0.0000 0.0000 0.0000 0.0000 0.0000 36.4076
#
#
#
# Elastic Compliance Matrix: (Units=1/GPa)
#
#
# Indices 1 2 3 4 5 6 
#
# 1 0.019942 -0.004931 0.000349 0.000000 0.000000 0.000000
# 2 -0.004931 0.024644 -0.009778 0.000000 0.000000 0.000000
# 3 0.000349 -0.009778 0.012496 0.000000 0.000000 0.000000
# 4 0.000000 0.000000 0.000000 0.033795 0.000000 0.000000
# 5 0.000000 0.000000 0.000000 0.000000 0.033235 0.000000
# 6 0.000000 0.000000 0.000000 0.000000 0.000000 0.027467
#
#
# Mechanical properties :
#
#
# Convention : Reuss Voigt Hill
#
# Bulk Modulus (GPa) = 35.25747 42.37179 38.81463
# Shear Modulus (GPa) = 26.35014 29.94508 28.14761
#
# Velocity S-wave (km/s) = 3.50672 3.73828 3.62435
# Velocity P-wave (km/s) = 5.73149 6.19734 5.96896
#
# Compressibility (1/GPa) = 0.02836279
#
# Stress axis : x y z
#
# Youngs Moduli (GPa) = 50.14478 40.57839 80.02257
#
# Poissons Ratio (x) = 0.20010 -0.02794
# Poissons Ratio (y) = 0.24727 0.78244
# Poissons Ratio (z) = -0.01751 0.39676
#
# Static dielectric constant tensor:
#      x y z
#    x 3.896680 0.000000 0.000000 
#    y 0.000000 3.675760 0.000000 
#    z 0.000000 0.000000 4.208530 
# 
# 
# High freq. dielectric constant tensor:
#      x y z
#    x 1.845260 0.000000 0.000000 
#    y 0.000000 1.819790 0.000000 
#    z 0.000000 0.000000 1.836450 
# 
# From -- ./inp_files/16194.got.cif
#   From: 2010.06.25/outbox.cif.g09.slc.cpg/sg58_9_cif.got.tgz:16194.got - 2010.06.26 21:38:00.
