data_PCOD8236358
_publ_section_title
;
Structure prediction by ZEFSAII (Michael W. Deem and Ramdas Pophale) SiO2 
 PCOD8236358
Probable space group: P N N M
;
_chemical_formula_sum "Si O2"
_cell_formula_units_Z 64
_cell_length_a 29.491425
_cell_length_b 12.863929
_cell_length_c 8.841011
_cell_angle_alpha 90.000000
_cell_angle_beta 90.000000
_cell_angle_gamma 90.000000
_cell_volume 3354.063829
_symmetry_space_group_name_H-M "P N N M"
_symmetry_group_IT_number 58
_symmetry_cell_setting 'orthorhombic'
loop_
_space_group_symop_operation_xyz
x,y,z
-x,-y,z
1/2+x,1/2-y,1/2-z
1/2-x,1/2+y,1/2-z
-x,-y,-z
x,y,-z
1/2-x,1/2+y,1/2+z
1/2+x,1/2-y,1/2+z
loop_
_atom_site_type_symbol
_atom_site_label
_atom_site_fract_x
_atom_site_fract_y
_atom_site_fract_z
Si Si1 0.859630 0.498458 0.178882
Si Si2 0.709918 0.285697 0.333438
Si Si3 0.743196 0.967461 0.320375
Si Si4 0.376241 0.217471 0.180458
Si Si5 0.448977 0.385427 0.820654
Si Si6 0.206094 0.845646 0.333866
Si Si7 0.050677 0.116990 0.679723
Si Si8 0.621522 0.213039 0.178759
O O1 0.807083 0.503118 0.229014
O O2 0.883332 0.394951 0.244569
O O3 0.884560 0.600605 0.244018
O O4 0.865355 0.498957 0.000000
O O5 0.691583 0.318299 0.500000
O O6 0.746937 0.362424 0.265384
O O7 0.741231 0.185345 0.350891
O O8 0.669180 0.265600 0.219621
O O9 0.745770 0.952221 0.500000
O O10 0.784856 0.041467 0.260170
O O11 0.415562 0.295340 0.238291
O O12 0.329192 0.268037 0.247730
O O13 0.375951 0.201858 0.000000
O O14 0.499683 0.361112 0.761352
O O15 0.433726 0.501241 0.764905
O O16 0.448843 0.385118 0.000000
O O17 0.184111 0.860109 0.500000
O O18 0.052014 0.119011 0.500000
O O19 0.083118 0.208185 0.742104
O O20 0.618425 0.198320 0.000000
#
# Coordination Sequence:
#
# PCOD8236358 Si02
#       8
#     8   8   8   8   8   8   8   8
#     4  11  22  37  54  74 110 151 186 227 271 316
#     4  11  21  35  51  75 110 144 179 222 267 315
#     4  10  20  35  51  71 103 144 183 222 266 313
#     4  10  19  33  57  83 106 140 183 226 275 329
#     4   8  15  31  57  85 111 135 169 224 283 326
#     4   9  18  32  50  73 104 138 178 221 263 312
#     4   8  16  32  55  85 112 135 171 225 279 326
#     4  11  22  35  56  82 109 143 186 225 269 329
#
# _framework density 19.081330000000001
#
# number of rings (size 3 to 8) (size 9 to 14) (size 15 to 20)
#    0.000    2.250    2.500    1.875    1.750    0.500 
#    0.000    1.250    0.000    5.250    0.000    4.375 
#    0.000    0.000    0.000    0.000    0.000    0.000 
#
# Total GULP energy -792884.917202 kJ/mol
# GULP energy per Si atom -12388.826831 kJ/mol
# Density = 1.903790 g / cm^3
# Si number density = 19.081330 Si / 1000 Ang^3
#
#
#
# Elastic Constant Matrix: (Units=GPa)
#
#
# Indices 1 2 3 4 5 6 
#
# 1 102.8822 71.6378 23.1681 0.0000 0.0000 0.0000
# 2 71.6378 142.6480 35.9806 0.0000 0.0000 0.0000
# 3 23.1681 35.9806 43.9329 0.0000 0.0000 0.0000
# 4 0.0000 0.0000 0.0000 14.0999 0.0000 0.0000
# 5 0.0000 0.0000 0.0000 0.0000 17.2958 0.0000
# 6 0.0000 0.0000 0.0000 0.0000 0.0000 38.9970
#
#
#
# Elastic Compliance Matrix: (Units=1/GPa)
#
#
# Indices 1 2 3 4 5 6 
#
# 1 0.015115 -0.007033 -0.002211 0.000000 0.000000 0.000000
# 2 -0.007033 0.012108 -0.006207 0.000000 0.000000 0.000000
# 3 -0.002211 -0.006207 0.029012 0.000000 0.000000 0.000000
# 4 0.000000 0.000000 0.000000 0.070922 0.000000 0.000000
# 5 0.000000 0.000000 0.000000 0.000000 0.057817 0.000000
# 6 0.000000 0.000000 0.000000 0.000000 0.000000 0.025643
#
#
# Mechanical properties :
#
#
# Convention : Reuss Voigt Hill
#
# Bulk Modulus (GPa) = 39.47590 61.22621 50.35106
# Shear Modulus (GPa) = 20.00287 24.65698 22.32992
#
# Velocity S-wave (km/s) = 3.24125 3.59862 3.42460
# Velocity P-wave (km/s) = 5.89413 7.03018 6.48707
#
# Compressibility (1/GPa) = 0.02533191
#
# Stress axis : x y z
#
# Youngs Moduli (GPa) = 66.15990 82.59016 34.46883
#
# Poissons Ratio (x) = 0.58086 0.07621
# Poissons Ratio (y) = 0.46531 0.21396
# Poissons Ratio (z) = 0.14627 0.51267
#
# Static dielectric constant tensor:
#      x y z
#    x 3.542820 0.000000 0.000000 
#    y 0.000000 3.719090 0.000000 
#    z 0.000000 0.000000 3.084750 
# 
# 
# High freq. dielectric constant tensor:
#      x y z
#    x 1.728810 0.000000 0.000000 
#    y 0.000000 1.758000 0.000000 
#    z 0.000000 0.000000 1.701110 
# 
# From -- ./inp_files/10984.got.cif
#   From: 2010.06.25/outbox.cif.g09.slc.cpg/sg58_6_cif.got.tgz:10984.got - 2010.06.26 21:38:00.
