data_PCOD8236878
_publ_section_title
;
Structure prediction by ZEFSAII (Michael W. Deem and Ramdas Pophale) SiO2 
 PCOD8236878
Probable space group: P N N M
;
_chemical_formula_sum "Si O2"
_cell_formula_units_Z 48
_cell_length_a 8.973693
_cell_length_b 13.750942
_cell_length_c 21.317200
_cell_angle_alpha 90.000000
_cell_angle_beta 90.000000
_cell_angle_gamma 90.000000
_cell_volume 2630.472815
_symmetry_space_group_name_H-M "P N N M"
_symmetry_group_IT_number 58
_symmetry_cell_setting 'orthorhombic'
loop_
_space_group_symop_operation_xyz
x,y,z
-x,-y,z
1/2+x,1/2-y,1/2-z
1/2-x,1/2+y,1/2-z
-x,-y,-z
x,y,-z
1/2-x,1/2+y,1/2+z
1/2+x,1/2-y,1/2+z
loop_
_atom_site_type_symbol
_atom_site_label
_atom_site_fract_x
_atom_site_fract_y
_atom_site_fract_z
Si Si1 0.887015 0.328525 0.926786
Si Si2 0.662619 0.010469 0.786398
Si Si3 0.335680 0.311965 0.321099
Si Si4 0.155723 0.380241 0.844013
Si Si5 0.173601 0.001791 0.567197
Si Si6 0.662961 0.309095 0.724871
O O1 0.870342 0.225174 0.891331
O O2 0.736333 0.390652 0.918115
O O3 0.014561 0.389258 0.890424
O O4 0.926492 0.309947 0.000000
O O5 0.762754 0.082273 0.828135
O O6 0.628805 0.058680 0.718950
O O7 0.500000 0.000000 0.818528
O O8 0.749381 0.908961 0.784823
O O9 0.483320 0.322556 0.277001
O O10 0.219026 0.236129 0.290348
O O11 0.295452 0.425210 0.878792
O O12 0.199027 0.268614 0.829922
O O13 0.243240 0.969071 0.500000
O O14 0.000000 0.000000 0.561368
#
# Coordination Sequence:
#
# PCOD8236878 Si02
#       6
#     8   8   8   8   8   8
#     4  10  20  36  56  76 105 142 178 216 258 312
#     4  11  21  34  53  78 106 135 171 218 267 317
#     4  10  21  35  54  79 106 137 177 217 265 318
#     4  10  20  33  53  75 102 137 173 209 255 315
#     4  10  20  31  47  75 106 134 167 209 256 305
#     4  10  20  34  51  77 107 136 170 215 263 312
#
# _framework density 18.247669999999999
#
# number of rings (size 3 to 8) (size 9 to 14) (size 15 to 20)
#    0.000    1.833    0.000    6.500    0.000    8.000 
#    0.000    0.000    0.000    9.500    0.000    0.000 
#    0.000    0.000    0.000    0.000    0.000    0.000 
#
# Total GULP energy -594878.325878 kJ/mol
# GULP energy per Si atom -12393.298456 kJ/mol
# Density = 1.820614 g / cm^3
# Si number density = 18.247670 Si / 1000 Ang^3
#
#
#
# Elastic Constant Matrix: (Units=GPa)
#
#
# Indices 1 2 3 4 5 6 
#
# 1 91.9425 43.3282 31.3380 0.0000 0.0000 0.0000
# 2 43.3282 120.9691 29.4668 0.0000 0.0000 0.0000
# 3 31.3380 29.4668 79.6506 0.0000 0.0000 0.0000
# 4 0.0000 0.0000 0.0000 20.3940 0.0000 0.0000
# 5 0.0000 0.0000 0.0000 0.0000 21.6030 0.0000
# 6 0.0000 0.0000 0.0000 0.0000 0.0000 34.6655
#
#
#
# Elastic Compliance Matrix: (Units=1/GPa)
#
#
# Indices 1 2 3 4 5 6 
#
# 1 0.014192 -0.004092 -0.004070 0.000000 0.000000 0.000000
# 2 -0.004092 0.010265 -0.002188 0.000000 0.000000 0.000000
# 3 -0.004070 -0.002188 0.014965 0.000000 0.000000 0.000000
# 4 0.000000 0.000000 0.000000 0.049034 0.000000 0.000000
# 5 0.000000 0.000000 0.000000 0.000000 0.046290 0.000000
# 6 0.000000 0.000000 0.000000 0.000000 0.000000 0.028847
#
#
# Mechanical properties :
#
#
# Convention : Reuss Voigt Hill
#
# Bulk Modulus (GPa) = 53.40865 55.64759 54.52812
# Shear Modulus (GPa) = 26.24214 27.89446 27.06830
#
# Velocity S-wave (km/s) = 3.79635 3.91405 3.85565
# Velocity P-wave (km/s) = 6.96769 7.14061 7.05468
#
# Compressibility (1/GPa) = 0.01872356
#
# Stress axis : x y z
#
# Youngs Moduli (GPa) = 70.46307 97.41794 66.82058
#
# Poissons Ratio (x) = 0.39861 0.27195
# Poissons Ratio (y) = 0.28832 0.14618
# Poissons Ratio (z) = 0.28678 0.21312
#
# Static dielectric constant tensor:
#      x y z
#    x 3.490590 0.000000 0.000000 
#    y 0.000000 3.426280 0.000000 
#    z 0.000000 0.000000 3.391230 
# 
# 
# High freq. dielectric constant tensor:
#      x y z
#    x 1.718610 0.000000 0.000000 
#    y 0.000000 1.706240 0.000000 
#    z 0.000000 0.000000 1.685580 
# 
# From -- ./inp_files/28839.got.cif
#   From: 2010.06.25/outbox.cif.g09.slc.cpg/sg58_15_cif.got.tgz:28839.got - 2010.06.26 21:38:00.
