data_PCOD8236351
_publ_section_title
;
Structure prediction by ZEFSAII (Michael W. Deem and Ramdas Pophale) SiO2 
 PCOD8236351
Probable space group: P N N M
;
_chemical_formula_sum "Si O2"
_cell_formula_units_Z 64
_cell_length_a 19.593307
_cell_length_b 20.414718
_cell_length_c 8.486275
_cell_angle_alpha 90.000000
_cell_angle_beta 90.000000
_cell_angle_gamma 90.000000
_cell_volume 3394.440727
_symmetry_space_group_name_H-M "P N N M"
_symmetry_group_IT_number 58
_symmetry_cell_setting 'orthorhombic'
loop_
_space_group_symop_operation_xyz
x,y,z
-x,-y,z
1/2+x,1/2-y,1/2-z
1/2-x,1/2+y,1/2-z
-x,-y,-z
x,y,-z
1/2-x,1/2+y,1/2+z
1/2+x,1/2-y,1/2+z
loop_
_atom_site_type_symbol
_atom_site_label
_atom_site_fract_x
_atom_site_fract_y
_atom_site_fract_z
Si Si1 0.088271 0.769966 0.816312
Si Si2 0.197001 0.429951 0.683675
Si Si3 0.418283 0.127882 0.816703
Si Si4 0.799272 0.824412 0.185567
Si Si5 0.789156 0.436159 0.182610
Si Si6 0.559515 0.118122 0.312653
Si Si7 0.562070 0.266017 0.686033
Si Si8 0.224351 0.809520 0.318205
O O1 0.094653 0.692926 0.784773
O O2 0.143567 0.810642 0.717092
O O3 0.012269 0.794026 0.764177
O O4 0.101334 0.782808 0.000000
O O5 0.195776 0.443958 0.500000
O O6 0.234067 0.490509 0.771215
O O7 0.120006 0.426420 0.747980
O O8 0.238457 0.363992 0.715875
O O9 0.355835 0.079372 0.785989
O O10 0.488085 0.093047 0.760416
O O11 0.421346 0.146455 0.000000
O O12 0.772433 0.887029 0.278647
O O13 0.876698 0.812006 0.247052
O O14 0.753437 0.761499 0.228130
O O15 0.796363 0.838756 0.000000
O O16 0.807426 0.431396 0.000000
O O17 0.556269 0.113243 0.500000
O O18 0.571993 0.192252 0.250466
O O19 0.566865 0.261164 0.500000
O O20 0.238673 0.825230 0.500000
#
# Coordination Sequence:
#
# PCOD8236351 Si02
#       8
#     8   8   8   8   8   8   8   8
#     4  10  19  33  56  86 116 150 192 236 285 338
#     4  12  25  40  58  83 115 152 195 240 287 346
#     4  11  21  35  54  82 116 153 194 236 282 336
#     4  10  19  36  60  85 114 150 190 234 287 340
#     4  12  25  40  57  81 114 154 196 239 290 344
#     4  10  19  36  57  82 115 153 192 232 283 341
#     4   8  16  32  56  83 113 147 183 228 281 337
#     4  11  21  36  60  86 117 153 190 237 290 339
#
# _framework density 18.854358000000001
#
# number of rings (size 3 to 8) (size 9 to 14) (size 15 to 20)
#    0.000    1.500    2.500    5.250    0.000    1.000 
#    0.000    3.750    0.000    0.750    0.000    5.250 
#    0.000    0.000    0.000    0.000    0.000    0.000 
#
# Total GULP energy -793746.026033 kJ/mol
# GULP energy per Si atom -12402.281657 kJ/mol
# Density = 1.881144 g / cm^3
# Si number density = 18.854358 Si / 1000 Ang^3
#
#
#
# Elastic Constant Matrix: (Units=GPa)
#
#
# Indices 1 2 3 4 5 6 
#
# 1 106.4301 18.2641 23.3232 0.0000 0.0000 0.0000
# 2 18.2641 43.4555 13.0922 0.0000 0.0000 0.0000
# 3 23.3232 13.0922 66.4598 0.0000 0.0000 0.0000
# 4 0.0000 0.0000 0.0000 25.9334 0.0000 0.0000
# 5 0.0000 0.0000 0.0000 0.0000 31.3331 0.0000
# 6 0.0000 0.0000 0.0000 0.0000 0.0000 20.0559
#
#
#
# Elastic Compliance Matrix: (Units=1/GPa)
#
#
# Indices 1 2 3 4 5 6 
#
# 1 0.010675 -0.003570 -0.003043 0.000000 0.000000 0.000000
# 2 -0.003570 0.025658 -0.003802 0.000000 0.000000 0.000000
# 3 -0.003043 -0.003802 0.016864 0.000000 0.000000 0.000000
# 4 0.000000 0.000000 0.000000 0.038560 0.000000 0.000000
# 5 0.000000 0.000000 0.000000 0.000000 0.031915 0.000000
# 6 0.000000 0.000000 0.000000 0.000000 0.000000 0.049861
#
#
# Mechanical properties :
#
#
# Convention : Reuss Voigt Hill
#
# Bulk Modulus (GPa) = 30.89539 36.18939 33.54239
# Shear Modulus (GPa) = 24.37229 26.24223 25.30726
#
# Velocity S-wave (km/s) = 3.59926 3.73478 3.66765
# Velocity P-wave (km/s) = 5.80472 6.15093 5.98033
#
# Compressibility (1/GPa) = 0.03236729
#
# Stress axis : x y z
#
# Youngs Moduli (GPa) = 93.67388 38.97450 59.29961
#
# Poissons Ratio (x) = 0.13914 0.18045
# Poissons Ratio (y) = 0.33441 0.22543
# Poissons Ratio (z) = 0.28506 0.14817
#
# Static dielectric constant tensor:
#      x y z
#    x 3.785310 0.000000 0.000000 
#    y 0.000000 3.240870 0.000000 
#    z 0.000000 0.000000 3.338810 
# 
# 
# High freq. dielectric constant tensor:
#      x y z
#    x 1.738630 0.000000 0.000000 
#    y 0.000000 1.702630 0.000000 
#    z 0.000000 0.000000 1.732400 
# 
# From -- ./inp_files/8369.got.cif
#   From: 2010.06.25/outbox.cif.g09.slc.cpg/sg58_5_cif.got.tgz:8369.got - 2010.06.26 21:38:00.
