data_PCOD8236073
_publ_section_title
;
Structure prediction by ZEFSAII (Michael W. Deem and Ramdas Pophale) SiO2 
 PCOD8236073
Probable space group: P N N M
;
_chemical_formula_sum "Si O2"
_cell_formula_units_Z 64
_cell_length_a 22.993422
_cell_length_b 10.940434
_cell_length_c 13.800286
_cell_angle_alpha 90.000000
_cell_angle_beta 90.000000
_cell_angle_gamma 90.000000
_cell_volume 3471.572564
_symmetry_space_group_name_H-M "P N N M"
_symmetry_group_IT_number 58
_symmetry_cell_setting 'orthorhombic'
loop_
_space_group_symop_operation_xyz
x,y,z
-x,-y,z
1/2+x,1/2-y,1/2-z
1/2-x,1/2+y,1/2-z
-x,-y,-z
x,y,-z
1/2-x,1/2+y,1/2+z
1/2+x,1/2-y,1/2+z
loop_
_atom_site_type_symbol
_atom_site_label
_atom_site_fract_x
_atom_site_fract_y
_atom_site_fract_z
Si Si1 0.370985 0.782552 0.885163
Si Si2 0.163794 0.513648 0.113128
Si Si3 0.926493 0.265021 0.391571
Si Si4 0.274235 0.635982 0.198464
Si Si5 0.726816 0.240000 0.394106
Si Si6 0.333656 0.418837 0.892988
Si Si7 0.467977 0.612396 0.109471
Si Si8 0.429602 0.004095 0.768013
O O1 0.303992 0.753759 0.855465
O O2 0.404705 0.656011 0.853540
O O3 0.400262 0.892983 0.826360
O O4 0.376143 0.809883 0.000000
O O5 0.208655 0.613102 0.159508
O O6 0.187624 0.377687 0.129519
O O7 0.100077 0.516620 0.162438
O O8 0.156840 0.545036 0.000000
O O9 0.908372 0.303716 0.500000
O O10 0.896537 0.134581 0.364193
O O11 0.909597 0.373812 0.321845
O O12 0.994859 0.237343 0.384846
O O13 0.278242 0.656130 0.313436
O O14 0.311767 0.514452 0.184824
O O15 0.709442 0.293952 0.500000
O O16 0.793587 0.200611 0.395170
O O17 0.333226 0.481613 0.000000
O O18 0.500000 0.500000 0.166599
O O19 0.459018 0.566635 0.000000
O O20 0.500000 0.000000 0.759253
#
# Coordination Sequence:
#
# PCOD8236073 Si02
#       8
#     8   8   8   8   8   8   8   8
#     4  11  21  33  53  87 121 151 191 239 292 351
#     4  10  22  40  59  81 111 151 196 244 287 339
#     4  10  19  32  50  77 116 157 189 225 284 352
#     4  11  19  35  62  85 111 146 193 242 292 348
#     4   9  18  34  55  80 113 147 187 236 292 350
#     4   9  18  32  53  79 108 150 192 230 282 347
#     4   9  17  29  47  74 111 150 188 229 276 338
#     4  12  23  37  57  83 118 158 198 239 293 348
#
# _framework density 18.435449999999999
#
# number of rings (size 3 to 8) (size 9 to 14) (size 15 to 20)
#    0.000    1.875    2.500    3.750    0.000    2.750 
#    0.000    0.625    0.000    0.750    0.000    0.000 
#    0.000    4.500    0.000    0.000    0.000    0.000 
#
# Total GULP energy -792914.253744 kJ/mol
# GULP energy per Si atom -12389.285215 kJ/mol
# Density = 1.839349 g / cm^3
# Si number density = 18.435450 Si / 1000 Ang^3
#
#
#
# Elastic Constant Matrix: (Units=GPa)
#
#
# Indices 1 2 3 4 5 6 
#
# 1 93.6510 24.9812 50.6371 0.0000 0.0000 0.0000
# 2 24.9812 59.9996 52.7251 0.0000 0.0000 0.0000
# 3 50.6371 52.7251 126.7565 0.0000 0.0000 0.0000
# 4 0.0000 0.0000 0.0000 28.9501 0.0000 0.0000
# 5 0.0000 0.0000 0.0000 0.0000 24.4972 0.0000
# 6 0.0000 0.0000 0.0000 0.0000 0.0000 23.6798
#
#
#
# Elastic Compliance Matrix: (Units=1/GPa)
#
#
# Indices 1 2 3 4 5 6 
#
# 1 0.013695 -0.001410 -0.004885 0.000000 0.000000 0.000000
# 2 -0.001410 0.026414 -0.010424 0.000000 0.000000 0.000000
# 3 -0.004885 -0.010424 0.014176 0.000000 0.000000 0.000000
# 4 0.000000 0.000000 0.000000 0.034542 0.000000 0.000000
# 5 0.000000 0.000000 0.000000 0.000000 0.040821 0.000000
# 6 0.000000 0.000000 0.000000 0.000000 0.000000 0.042230
#
#
# Mechanical properties :
#
#
# Convention : Reuss Voigt Hill
#
# Bulk Modulus (GPa) = 47.96402 59.67711 53.82057
# Shear Modulus (GPa) = 23.55557 25.56300 24.55929
#
# Velocity S-wave (km/s) = 3.57842 3.72778 3.65386
# Velocity P-wave (km/s) = 6.56865 7.13930 6.85991
#
# Compressibility (1/GPa) = 0.02084896
#
# Stress axis : x y z
#
# Youngs Moduli (GPa) = 73.01898 37.85918 70.54022
#
# Poissons Ratio (x) = 0.05337 0.34456
# Poissons Ratio (y) = 0.10293 0.73530
# Poissons Ratio (z) = 0.35667 0.39464
#
# Static dielectric constant tensor:
#      x y z
#    x 3.601210 0.000000 0.000000 
#    y 0.000000 3.319240 0.000000 
#    z 0.000000 0.000000 3.219710 
# 
# 
# High freq. dielectric constant tensor:
#      x y z
#    x 1.725900 0.000000 0.000000 
#    y 0.000000 1.709280 0.000000 
#    z 0.000000 0.000000 1.682380 
# 
# From -- ./inp_files/14846.got.cif
#   From: 2010.06.25/outbox.cif.g09.slc.cpg/sg58_8_cif.got.tgz:14846.got - 2010.06.26 21:38:00.
