data_PCOD8236395
_publ_section_title
;
Structure prediction by ZEFSAII (Michael W. Deem and Ramdas Pophale) SiO2 
 PCOD8236395
Probable space group: P N N M
;
_chemical_formula_sum "Si O2"
_cell_formula_units_Z 64
_cell_length_a 18.735507
_cell_length_b 21.244371
_cell_length_c 9.109237
_cell_angle_alpha 90.000000
_cell_angle_beta 90.000000
_cell_angle_gamma 90.000000
_cell_volume 3625.695509
_symmetry_space_group_name_H-M "P N N M"
_symmetry_group_IT_number 58
_symmetry_cell_setting 'orthorhombic'
loop_
_space_group_symop_operation_xyz
x,y,z
-x,-y,z
1/2+x,1/2-y,1/2-z
1/2-x,1/2+y,1/2-z
-x,-y,-z
x,y,-z
1/2-x,1/2+y,1/2+z
1/2+x,1/2-y,1/2+z
loop_
_atom_site_type_symbol
_atom_site_label
_atom_site_fract_x
_atom_site_fract_y
_atom_site_fract_z
Si Si1 0.030881 0.322063 0.338308
Si Si2 0.314287 0.588699 0.169280
Si Si3 0.426386 0.690523 0.827765
Si Si4 0.376557 0.240013 0.838181
Si Si5 0.827670 0.391341 0.673148
Si Si6 0.077853 0.976720 0.669990
Si Si7 0.069003 0.851592 0.826618
Si Si8 0.469722 0.068773 0.329633
O O1 0.052747 0.347262 0.500000
O O2 0.083788 0.264994 0.288054
O O3 0.954345 0.289925 0.346211
O O4 0.028773 0.380651 0.226823
O O5 0.353816 0.653942 0.211528
O O6 0.244762 0.578304 0.267786
O O7 0.366516 0.531412 0.203942
O O8 0.290889 0.589395 0.000000
O O9 0.490597 0.659518 0.737979
O O10 0.445118 0.682276 0.000000
O O11 0.324843 0.183254 0.787100
O O12 0.375427 0.297253 0.723464
O O13 0.354754 0.265028 0.000000
O O14 0.834473 0.401738 0.500000
O O15 0.895013 0.425445 0.746326
O O16 0.078333 0.956727 0.500000
O O17 0.099908 0.917306 0.768231
O O18 0.000000 0.000000 0.717770
O O19 0.064694 0.851969 0.000000
O O20 0.456493 0.081746 0.500000
O O21 0.500000 0.000000 0.299136
#
# Coordination Sequence:
#
# PCOD8236395 Si02
#       8
#     8   8   8   8   8   8   8   8
#     4   8  15  28  50  77 102 127 162 209 257 303
#     4  10  20  34  55  76 101 142 181 216 261 320
#     4   9  17  32  50  72 102 137 173 206 253 316
#     4   8  16  32  51  70  96 131 167 202 252 314
#     4  10  21  36  55  79 106 135 172 220 270 320
#     4  10  19  34  53  73 103 147 188 214 254 318
#     4  11  20  28  47  78 106 131 169 224 263 288
#     4  10  20  34  55  81 107 136 176 220 262 318
#
# _framework density 17.651786000000001
#
# number of rings (size 3 to 8) (size 9 to 14) (size 15 to 20)
#    0.000    2.500    1.250    3.375    0.000    7.250 
#    0.000    0.000    2.750    0.000    0.000    0.000 
#    0.000    0.000    0.000    0.000    0.000    0.000 
#
# Total GULP energy -793391.668112 kJ/mol
# GULP energy per Si atom -12396.744814 kJ/mol
# Density = 1.761161 g / cm^3
# Si number density = 17.651786 Si / 1000 Ang^3
#
#
#
# Elastic Constant Matrix: (Units=GPa)
#
#
# Indices 1 2 3 4 5 6 
#
# 1 70.8309 44.3142 46.2995 0.0000 0.0000 0.0000
# 2 44.3142 121.7242 71.0757 0.0000 0.0000 0.0000
# 3 46.2995 71.0757 107.4561 0.0000 0.0000 0.0000
# 4 0.0000 0.0000 0.0000 23.2369 0.0000 0.0000
# 5 0.0000 0.0000 0.0000 0.0000 14.8836 0.0000
# 6 0.0000 0.0000 0.0000 0.0000 0.0000 21.2917
#
#
#
# Elastic Compliance Matrix: (Units=1/GPa)
#
#
# Indices 1 2 3 4 5 6 
#
# 1 0.020672 -0.003788 -0.006402 0.000000 0.000000 0.000000
# 2 -0.003788 0.014079 -0.007680 0.000000 0.000000 0.000000
# 3 -0.006402 -0.007680 0.017144 0.000000 0.000000 0.000000
# 4 0.000000 0.000000 0.000000 0.043035 0.000000 0.000000
# 5 0.000000 0.000000 0.000000 0.000000 0.067188 0.000000
# 6 0.000000 0.000000 0.000000 0.000000 0.000000 0.046967
#
#
# Mechanical properties :
#
#
# Convention : Reuss Voigt Hill
#
# Bulk Modulus (GPa) = 61.89590 69.26556 65.58073
# Shear Modulus (GPa) = 19.98319 21.10389 20.54354
#
# Velocity S-wave (km/s) = 3.36829 3.46145 3.41518
# Velocity P-wave (km/s) = 7.09001 7.43644 7.26529
#
# Compressibility (1/GPa) = 0.01615616
#
# Stress axis : x y z
#
# Youngs Moduli (GPa) = 48.37347 71.02860 58.32811
#
# Poissons Ratio (x) = 0.26905 0.37340
# Poissons Ratio (y) = 0.18324 0.44797
# Poissons Ratio (z) = 0.30967 0.54551
#
# Static dielectric constant tensor:
#      x y z
#    x 3.074130 0.000000 0.000000 
#    y 0.000000 3.615040 0.000000 
#    z 0.000000 0.000000 3.238910 
# 
# 
# High freq. dielectric constant tensor:
#      x y z
#    x 1.642930 0.000000 0.000000 
#    y 0.000000 1.689490 0.000000 
#    z 0.000000 0.000000 1.681050 
# 
# From -- ./inp_files/8310.got.cif
#   From: 2010.06.25/outbox.cif.g09.slc.cpg/sg58_5_cif.got.tgz:8310.got - 2010.06.26 21:38:00.
