data_PCOD8236463
_publ_section_title
;
Structure prediction by ZEFSAII (Michael W. Deem and Ramdas Pophale) SiO2 
 PCOD8236463
Probable space group: P N N M
;
_chemical_formula_sum "Si O2"
_cell_formula_units_Z 56
_cell_length_a 20.329566
_cell_length_b 11.557039
_cell_length_c 12.714567
_cell_angle_alpha 90.000000
_cell_angle_beta 90.000000
_cell_angle_gamma 90.000000
_cell_volume 2987.282267
_symmetry_space_group_name_H-M "P N N M"
_symmetry_group_IT_number 58
_symmetry_cell_setting 'orthorhombic'
loop_
_space_group_symop_operation_xyz
x,y,z
-x,-y,z
1/2+x,1/2-y,1/2-z
1/2-x,1/2+y,1/2-z
-x,-y,-z
x,y,-z
1/2-x,1/2+y,1/2+z
1/2+x,1/2-y,1/2+z
loop_
_atom_site_type_symbol
_atom_site_label
_atom_site_fract_x
_atom_site_fract_y
_atom_site_fract_z
Si Si1 0.007631 0.634212 0.384139
Si Si2 0.684752 0.663990 0.118266
Si Si3 0.926697 0.003997 0.701943
Si Si4 0.369165 0.159439 0.265194
Si Si5 0.173016 0.426471 0.877464
Si Si6 0.080988 0.244951 0.227577
Si Si7 0.951589 0.175063 0.881992
O O1 0.013819 0.691609 0.500000
O O2 0.942655 0.681037 0.327349
O O3 0.000000 0.500000 0.396909
O O4 0.072035 0.662129 0.318466
O O5 0.622078 0.579388 0.131037
O O6 0.687429 0.769300 0.202876
O O7 0.749294 0.586800 0.135163
O O8 0.683805 0.715243 0.000000
O O9 0.895610 0.878003 0.724718
O O10 0.935909 0.062724 0.814674
O O11 0.000000 0.000000 0.648440
O O12 0.394283 0.229291 0.366891
O O13 0.347338 0.033964 0.303807
O O14 0.138950 0.310472 0.833567
O O15 0.153290 0.446449 0.000000
O O16 0.021738 0.230452 0.145622
O O17 0.951420 0.131681 0.000000
#
# Coordination Sequence:
#
# PCOD8236463 Si02
#       7
#     8   8   8   8   8   8   8
#     4  10  19  34  56  84 114 144 183 227 279 330
#     4  10  23  40  59  81 108 150 190 228 281 337
#     4   9  20  36  58  85 112 144 186 236 286 321
#     4  10  20  37  58  80 111 148 183 234 277 328
#     4  11  23  37  56  82 113 151 190 228 277 338
#     4  10  20  34  55  86 116 149 182 231 280 329
#     4   9  18  33  56  84 113 146 184 226 278 330
#
# _framework density 18.746137000000001
#
# number of rings (size 3 to 8) (size 9 to 14) (size 15 to 20)
#    0.000    2.143    1.429    2.143    2.000    4.000 
#    0.000    2.143    0.000    3.429    0.000    0.000 
#    0.000    0.000    0.000    0.000    0.000    0.000 
#
# Total GULP energy -694196.140748 kJ/mol
# GULP energy per Si atom -12396.359656 kJ/mol
# Density = 1.870347 g / cm^3
# Si number density = 18.746137 Si / 1000 Ang^3
#
#
#
# Elastic Constant Matrix: (Units=GPa)
#
#
# Indices 1 2 3 4 5 6 
#
# 1 74.0753 27.3678 31.2412 0.0000 0.0000 0.0000
# 2 27.3678 100.8584 22.1973 0.0000 0.0000 0.0000
# 3 31.2412 22.1973 97.6709 0.0000 0.0000 0.0000
# 4 0.0000 0.0000 0.0000 19.2762 0.0000 0.0000
# 5 0.0000 0.0000 0.0000 0.0000 24.8565 0.0000
# 6 0.0000 0.0000 0.0000 0.0000 0.0000 25.7857
#
#
#
# Elastic Compliance Matrix: (Units=1/GPa)
#
#
# Indices 1 2 3 4 5 6 
#
# 1 0.016724 -0.003538 -0.004545 0.000000 0.000000 0.000000
# 2 -0.003538 0.011185 -0.001410 0.000000 0.000000 0.000000
# 3 -0.004545 -0.001410 0.012013 0.000000 0.000000 0.000000
# 4 0.000000 0.000000 0.000000 0.051877 0.000000 0.000000
# 5 0.000000 0.000000 0.000000 0.000000 0.040231 0.000000
# 6 0.000000 0.000000 0.000000 0.000000 0.000000 0.038781
#
#
# Mechanical properties :
#
#
# Convention : Reuss Voigt Hill
#
# Bulk Modulus (GPa) = 47.76673 48.24635 48.00654
# Shear Modulus (GPa) = 25.40951 26.77022 26.08987
#
# Velocity S-wave (km/s) = 3.68564 3.78304 3.73466
# Velocity P-wave (km/s) = 6.60667 6.69884 6.65291
#
# Compressibility (1/GPa) = 0.02093507
#
# Stress axis : x y z
#
# Youngs Moduli (GPa) = 59.79518 89.40348 83.24395
#
# Poissons Ratio (x) = 0.31628 0.37837
# Poissons Ratio (y) = 0.21153 0.11741
# Poissons Ratio (z) = 0.27179 0.12610
#
# Static dielectric constant tensor:
#      x y z
#    x 3.337090 0.000000 0.000000 
#    y 0.000000 3.119680 0.000000 
#    z 0.000000 0.000000 3.511980 
# 
# 
# High freq. dielectric constant tensor:
#      x y z
#    x 1.712140 0.000000 0.000000 
#    y 0.000000 1.736450 0.000000 
#    z 0.000000 0.000000 1.728940 
# 
# From -- ./inp_files/17039.got.cif
#   From: 2010.06.25/outbox.cif.g09.slc.cpg/sg58_9_cif.got.tgz:17039.got - 2010.06.26 21:38:00.
