data_PCOD8236378
_publ_section_title
;
Structure prediction by ZEFSAII (Michael W. Deem and Ramdas Pophale) SiO2 
 PCOD8236378
Probable space group: P N N M
;
_chemical_formula_sum "Si O2"
_cell_formula_units_Z 32
_cell_length_a 17.780810
_cell_length_b 7.274864
_cell_length_c 13.491350
_cell_angle_alpha 90.000000
_cell_angle_beta 90.000000
_cell_angle_gamma 90.000000
_cell_volume 1745.146253
_symmetry_space_group_name_H-M "P N N M"
_symmetry_group_IT_number 58
_symmetry_cell_setting 'orthorhombic'
loop_
_space_group_symop_operation_xyz
x,y,z
-x,-y,z
1/2+x,1/2-y,1/2-z
1/2-x,1/2+y,1/2-z
-x,-y,-z
x,y,-z
1/2-x,1/2+y,1/2+z
1/2+x,1/2-y,1/2+z
loop_
_atom_site_type_symbol
_atom_site_label
_atom_site_fract_x
_atom_site_fract_y
_atom_site_fract_z
Si Si1 0.363771 0.323082 0.611638
Si Si2 0.252206 0.012527 0.614129
Si Si3 0.524587 0.207222 0.385707
Si Si4 0.825406 0.824535 0.787760
O O1 0.356546 0.387999 0.500000
O O2 0.332211 0.116503 0.623955
O O3 0.451738 0.330103 0.641730
O O4 0.314303 0.470482 0.670156
O O5 0.226490 0.991182 0.500000
O O6 0.190877 0.141158 0.670791
O O7 0.264175 0.811975 0.663017
O O8 0.550902 0.240578 0.500000
O O9 0.590289 0.256263 0.308807
O O10 0.500000 0.000000 0.370652
#
# Coordination Sequence:
#
# PCOD8236378 Si02
#       4
#     8   8   8   8
#     4  10  20  35  57  87 115 144 188 239 290 340
#     4  11  23  37  56  86 117 149 194 234 276 347
#     4  10  19  33  58  89 117 144 186 245 297 343
#     4  12  21  37  58  83 116 155 186 231 296 340
#
# _framework density 18.336573000000001
#
# number of rings (size 3 to 8) (size 9 to 14) (size 15 to 20)
#    0.000    1.250    5.000    3.000    0.000    2.000 
#    0.000    0.000    0.000    3.750    0.000    0.000 
#    0.000    0.000    0.000    0.000    0.000    0.000 
#
# Total GULP energy -396563.787528 kJ/mol
# GULP energy per Si atom -12392.618360 kJ/mol
# Density = 1.829484 g / cm^3
# Si number density = 18.336573 Si / 1000 Ang^3
#
#
#
# Elastic Constant Matrix: (Units=GPa)
#
#
# Indices 1 2 3 4 5 6 
#
# 1 74.0109 18.4249 55.9910 0.0000 0.0000 0.0000
# 2 18.4249 87.6324 45.4083 0.0000 0.0000 0.0000
# 3 55.9910 45.4083 124.9065 0.0000 0.0000 0.0000
# 4 0.0000 0.0000 0.0000 24.0970 0.0000 0.0000
# 5 0.0000 0.0000 0.0000 0.0000 29.2218 0.0000
# 6 0.0000 0.0000 0.0000 0.0000 0.0000 29.9650
#
#
#
# Elastic Compliance Matrix: (Units=1/GPa)
#
#
# Indices 1 2 3 4 5 6 
#
# 1 0.020467 0.000555 -0.009376 0.000000 0.000000 0.000000
# 2 0.000555 0.014075 -0.005366 0.000000 0.000000 0.000000
# 3 -0.009376 -0.005366 0.014160 0.000000 0.000000 0.000000
# 4 0.000000 0.000000 0.000000 0.041499 0.000000 0.000000
# 5 0.000000 0.000000 0.000000 0.000000 0.034221 0.000000
# 6 0.000000 0.000000 0.000000 0.000000 0.000000 0.033372
#
#
# Mechanical properties :
#
#
# Convention : Reuss Voigt Hill
#
# Bulk Modulus (GPa) = 49.19356 58.46648 53.83002
# Shear Modulus (GPa) = 25.91439 27.77179 26.84309
#
# Velocity S-wave (km/s) = 3.76342 3.89595 3.83026
# Velocity P-wave (km/s) = 6.76541 7.22443 6.99868
#
# Compressibility (1/GPa) = 0.02032786
#
# Stress axis : x y z
#
# Youngs Moduli (GPa) = 48.85979 71.04858 70.62286
#
# Poissons Ratio (x) = -0.03946 0.66219
# Poissons Ratio (y) = -0.02713 0.37894
# Poissons Ratio (z) = 0.45813 0.38123
#
# Static dielectric constant tensor:
#      x y z
#    x 3.436910 0.000000 0.000000 
#    y 0.000000 3.565160 0.000000 
#    z 0.000000 0.000000 3.261900 
# 
# 
# High freq. dielectric constant tensor:
#      x y z
#    x 1.692580 0.000000 0.000000 
#    y 0.000000 1.738740 0.000000 
#    z 0.000000 0.000000 1.681360 
# 
# From -- ./inp_files/8613.got.cif
#   From: 2010.06.25/outbox.cif.g09.slc.cpg/sg58_5_cif.got.tgz:8613.got - 2010.06.26 21:38:00.
