data_PCOD8236815
_publ_section_title
;
Structure prediction by ZEFSAII (Michael W. Deem and Ramdas Pophale) SiO2 
 PCOD8236815
Probable space group: P N N M
;
_chemical_formula_sum "Si O2"
_cell_formula_units_Z 64
_cell_length_a 17.246675
_cell_length_b 12.833044
_cell_length_c 14.397804
_cell_angle_alpha 90.000000
_cell_angle_beta 90.000000
_cell_angle_gamma 90.000000
_cell_volume 3186.627649
_symmetry_space_group_name_H-M "P N N M"
_symmetry_group_IT_number 58
_symmetry_cell_setting 'orthorhombic'
loop_
_space_group_symop_operation_xyz
x,y,z
-x,-y,z
1/2+x,1/2-y,1/2-z
1/2-x,1/2+y,1/2-z
-x,-y,-z
x,y,-z
1/2-x,1/2+y,1/2+z
1/2+x,1/2-y,1/2+z
loop_
_atom_site_type_symbol
_atom_site_label
_atom_site_fract_x
_atom_site_fract_y
_atom_site_fract_z
Si Si1 0.582122 0.531471 0.731706
Si Si2 0.680075 0.826270 0.892864
Si Si3 0.785707 0.633501 0.109497
Si Si4 0.412650 0.225440 0.726838
Si Si5 0.463302 0.886230 0.392211
Si Si6 0.277447 0.473085 0.394025
Si Si7 0.767927 0.260048 0.892977
Si Si8 0.830166 0.954615 0.392601
O O1 0.500000 0.500000 0.689135
O O2 0.583800 0.653324 0.742883
O O3 0.647804 0.490513 0.662552
O O4 0.593426 0.476592 0.832154
O O5 0.744314 0.741255 0.857135
O O6 0.602840 0.821973 0.829550
O O7 0.710838 0.942826 0.879462
O O8 0.657669 0.804075 0.000000
O O9 0.874345 0.620369 0.143703
O O10 0.736354 0.534190 0.144871
O O11 0.787340 0.632055 0.000000
O O12 0.491206 0.188461 0.678283
O O13 0.341036 0.194224 0.661486
O O14 0.470289 0.849291 0.500000
O O15 0.500000 0.000000 0.381448
O O16 0.304670 0.468792 0.500000
O O17 0.246531 0.358447 0.362439
O O18 0.695261 0.335499 0.874921
O O19 0.792512 0.264553 0.000000
O O20 0.849801 0.975369 0.500000
#
# Coordination Sequence:
#
# PCOD8236815 Si02
#       8
#     8   8   8   8   8   8   8   8
#     4  11  24  37  52  83 119 154 194 235 286 347
#     4  10  20  37  60  83 111 154 202 239 279 343
#     4   9  18  33  57  85 110 144 192 240 287 340
#     4  11  21  36  57  85 118 155 185 235 293 352
#     4  10  21  37  59  91 123 149 188 246 309 360
#     4   9  20  37  56  82 113 147 190 239 287 342
#     4   9  18  34  57  84 112 144 185 235 294 349
#     4  10  19  37  62  84 111 149 194 243 289 335
#
# _framework density 20.083926999999999
#
# number of rings (size 3 to 8) (size 9 to 14) (size 15 to 20)
#    0.000    2.125    1.250    1.875    1.750    3.000 
#    0.000    0.000    0.000    0.375    0.000    0.875 
#    0.000    0.000    0.000    0.000    0.000    0.000 
#
# Total GULP energy -793501.482530 kJ/mol
# GULP energy per Si atom -12398.460665 kJ/mol
# Density = 2.003822 g / cm^3
# Si number density = 20.083927 Si / 1000 Ang^3
#
#
#
# Elastic Constant Matrix: (Units=GPa)
#
#
# Indices 1 2 3 4 5 6 
#
# 1 58.2870 7.4310 30.2986 0.0000 0.0000 0.0000
# 2 7.4310 64.6207 27.4899 0.0000 0.0000 0.0000
# 3 30.2986 27.4899 64.1377 0.0000 0.0000 0.0000
# 4 0.0000 0.0000 0.0000 24.6844 0.0000 0.0000
# 5 0.0000 0.0000 0.0000 0.0000 -29.9883 0.0000
# 6 0.0000 0.0000 0.0000 0.0000 0.0000 27.7089
#
#
#
# Elastic Compliance Matrix: (Units=1/GPa)
#
#
# Indices 1 2 3 4 5 6 
#
# 1 0.023047 0.002423 -0.011926 0.000000 0.000000 0.000000
# 2 0.002423 0.019180 -0.009366 0.000000 0.000000 0.000000
# 3 -0.011926 -0.009366 0.025239 0.000000 0.000000 0.000000
# 4 0.000000 0.000000 0.000000 0.040511 0.000000 0.000000
# 5 0.000000 0.000000 0.000000 0.000000 -0.033346 0.000000
# 6 0.000000 0.000000 0.000000 0.000000 0.000000 0.036089
#
#
# Mechanical properties :
#
#
# Convention : Reuss Voigt Hill
#
# Bulk Modulus (GPa) = 33.63610 35.27606 34.45608
# Shear Modulus (GPa) = 31.57203 12.60271 22.08737
#
# Velocity S-wave (km/s) = 3.96915 2.50772 3.31985
# Velocity P-wave (km/s) = 6.14733 5.09778 5.64699
#
# Compressibility (1/GPa) = 0.02972996
#
# Stress axis : x y z
#
# Youngs Moduli (GPa) = 43.38987 52.13653 39.62059
#
# Poissons Ratio (x) = -0.12633 0.47251
# Poissons Ratio (y) = -0.10514 0.37107
# Poissons Ratio (z) = 0.51746 0.48829
#
# Static dielectric constant tensor:
#      x y z
#    x 3.766360 0.000000 0.000000 
#    y 0.000000 3.831430 0.000000 
#    z 0.000000 0.000000 3.744810 
# 
# 
# High freq. dielectric constant tensor:
#      x y z
#    x 1.753140 0.000000 0.000000 
#    y 0.000000 1.792720 0.000000 
#    z 0.000000 0.000000 1.788740 
# 
# From -- ./inp_files/21527.got.cif
#   From: 2010.06.25/outbox.cif.g09.slc.cpg/sg58_11_cif.got.tgz:21527.got - 2010.06.26 21:38:00.
