data_PCOD8236810
_publ_section_title
;
Structure prediction by ZEFSAII (Michael W. Deem and Ramdas Pophale) SiO2 
 PCOD8236810
Probable space group: P N N M
;
_chemical_formula_sum "Si O2"
_cell_formula_units_Z 64
_cell_length_a 9.704096
_cell_length_b 24.278540
_cell_length_c 13.849834
_cell_angle_alpha 90.000000
_cell_angle_beta 90.000000
_cell_angle_gamma 90.000000
_cell_volume 3263.038658
_symmetry_space_group_name_H-M "P N N M"
_symmetry_group_IT_number 58
_symmetry_cell_setting 'orthorhombic'
loop_
_space_group_symop_operation_xyz
x,y,z
-x,-y,z
1/2+x,1/2-y,1/2-z
1/2-x,1/2+y,1/2-z
-x,-y,-z
x,y,-z
1/2-x,1/2+y,1/2+z
1/2+x,1/2-y,1/2+z
loop_
_atom_site_type_symbol
_atom_site_label
_atom_site_fract_x
_atom_site_fract_y
_atom_site_fract_z
Si Si1 0.100908 0.823725 0.610249
Si Si2 0.239948 0.077969 0.888187
Si Si3 0.401356 0.833347 0.697101
Si Si4 0.902181 0.724276 0.393332
Si Si5 0.481126 0.939355 0.219074
Si Si6 0.011135 0.868242 0.204887
Si Si7 0.097936 0.754988 0.890905
Si Si8 0.291047 0.452996 0.609033
O O1 0.094731 0.844993 0.500000
O O2 0.258285 0.819572 0.645553
O O3 0.033559 0.763509 0.619944
O O4 0.015133 0.865943 0.678042
O O5 0.383006 0.082864 0.833022
O O6 0.140276 0.121601 0.836195
O O7 0.172285 0.017463 0.879772
O O8 0.259288 0.094489 0.000000
O O9 0.399628 0.822409 0.812237
O O10 0.437364 0.898466 0.693352
O O11 0.519510 0.798310 0.647117
O O12 0.907709 0.696360 0.500000
O O13 0.760281 0.759020 0.383886
O O14 0.367180 0.943843 0.135663
O O15 0.500000 0.000000 0.265907
O O16 0.064300 0.809014 0.170433
O O17 0.112473 0.917239 0.176784
O O18 0.051491 0.766858 0.000000
O O19 0.315971 0.433102 0.500000
#
# Coordination Sequence:
#
# PCOD8236810 Si02
#       8
#     8   8   8   8   8   8   8   8
#     4  11  24  41  61  85 119 160 205 251 298 355
#     4  10  22  36  58  94 130 161 198 244 301 371
#     4  12  21  40  61  88 119 160 201 248 302 359
#     4  10  21  38  59  88 123 160 198 239 297 366
#     4  10  22  38  59  88 122 164 202 250 304 367
#     4  12  21  37  61  90 125 163 201 248 298 363
#     4  11  23  37  59  89 122 155 196 246 302 358
#     4  10  19  37  61  89 125 164 200 243 306 370
#
# _framework density 19.613620000000001
#
# number of rings (size 3 to 8) (size 9 to 14) (size 15 to 20)
#    0.000    1.250    3.750    2.250    1.750    5.500 
#    0.000    1.250    0.000    3.000    0.000    0.000 
#    0.000    0.000    0.000    0.000    0.000    0.000 
#
# Total GULP energy -793602.750305 kJ/mol
# GULP energy per Si atom -12400.042974 kJ/mol
# Density = 1.956898 g / cm^3
# Si number density = 19.613620 Si / 1000 Ang^3
#
#
#
# Elastic Constant Matrix: (Units=GPa)
#
#
# Indices 1 2 3 4 5 6 
#
# 1 100.9525 38.8000 33.9172 0.0000 0.0000 0.0000
# 2 38.8000 76.2408 40.1609 0.0000 0.0000 0.0000
# 3 33.9172 40.1609 110.6844 0.0000 0.0000 0.0000
# 4 0.0000 0.0000 0.0000 30.0095 0.0000 0.0000
# 5 0.0000 0.0000 0.0000 0.0000 26.1144 0.0000
# 6 0.0000 0.0000 0.0000 0.0000 0.0000 26.5446
#
#
#
# Elastic Compliance Matrix: (Units=1/GPa)
#
#
# Indices 1 2 3 4 5 6 
#
# 1 0.012630 -0.005426 -0.001901 0.000000 0.000000 0.000000
# 2 -0.005426 0.018547 -0.005067 0.000000 0.000000 0.000000
# 3 -0.001901 -0.005067 0.011456 0.000000 0.000000 0.000000
# 4 0.000000 0.000000 0.000000 0.033323 0.000000 0.000000
# 5 0.000000 0.000000 0.000000 0.000000 0.038293 0.000000
# 6 0.000000 0.000000 0.000000 0.000000 0.000000 0.037672
#
#
# Mechanical properties :
#
#
# Convention : Reuss Voigt Hill
#
# Bulk Modulus (GPa) = 56.04126 57.07042 56.55584
# Shear Modulus (GPa) = 27.37371 28.20034 27.78702
#
# Velocity S-wave (km/s) = 3.73989 3.79594 3.76802
# Velocity P-wave (km/s) = 6.87631 6.95505 6.91579
#
# Compressibility (1/GPa) = 0.01784399
#
# Stress axis : x y z
#
# Youngs Moduli (GPa) = 79.17741 53.91802 87.29185
#
# Poissons Ratio (x) = 0.29255 0.16598
# Poissons Ratio (y) = 0.42961 0.44229
# Poissons Ratio (z) = 0.15055 0.27319
#
# Static dielectric constant tensor:
#      x y z
#    x 3.732830 0.000000 0.000000 
#    y 0.000000 3.522680 0.000000 
#    z 0.000000 0.000000 3.682960 
# 
# 
# High freq. dielectric constant tensor:
#      x y z
#    x 1.779970 0.000000 0.000000 
#    y 0.000000 1.751590 0.000000 
#    z 0.000000 0.000000 1.754320 
# 
# From -- ./inp_files/20302.got.cif
#   From: 2010.06.25/outbox.cif.g09.slc.cpg/sg58_11_cif.got.tgz:20302.got - 2010.06.26 21:38:00.
