data_PCOD8236134
_publ_section_title
;
Structure prediction by ZEFSAII (Michael W. Deem and Ramdas Pophale) SiO2 
 PCOD8236134
Probable space group: P N N M
;
_chemical_formula_sum "Si O2"
_cell_formula_units_Z 48
_cell_length_a 15.341350
_cell_length_b 18.965525
_cell_length_c 8.884771
_cell_angle_alpha 90.000000
_cell_angle_beta 90.000000
_cell_angle_gamma 90.000000
_cell_volume 2585.084156
_symmetry_space_group_name_H-M "P N N M"
_symmetry_group_IT_number 58
_symmetry_cell_setting 'orthorhombic'
loop_
_space_group_symop_operation_xyz
x,y,z
-x,-y,z
1/2+x,1/2-y,1/2-z
1/2-x,1/2+y,1/2-z
-x,-y,-z
x,y,-z
1/2-x,1/2+y,1/2+z
1/2+x,1/2-y,1/2+z
loop_
_atom_site_type_symbol
_atom_site_label
_atom_site_fract_x
_atom_site_fract_y
_atom_site_fract_z
Si Si1 0.508356 0.418959 0.824355
Si Si2 0.650355 0.679570 0.175953
Si Si3 0.154884 0.325770 0.822952
Si Si4 0.159671 0.167589 0.821848
Si Si5 0.659016 0.826905 0.677646
Si Si6 0.497872 0.921267 0.678874
O O1 0.500000 0.500000 0.777209
O O2 0.418439 0.380491 0.780485
O O3 0.587014 0.386481 0.731245
O O4 0.529313 0.410659 0.000000
O O5 0.746684 0.651385 0.220416
O O6 0.628749 0.750070 0.267201
O O7 0.647350 0.698682 0.000000
O O8 0.135979 0.246407 0.764584
O O9 0.085599 0.379990 0.750896
O O10 0.141839 0.326470 0.000000
O O11 0.252240 0.145857 0.752456
O O12 0.168190 0.164960 0.000000
O O13 0.671415 0.824619 0.500000
O O14 0.585381 0.881814 0.728029
O O15 0.489709 0.924195 0.500000
O O16 0.500000 0.000000 0.746539
#
# Coordination Sequence:
#
# PCOD8236134 Si02
#       6
#     8   8   8   8   8   8
#     4  10  21  35  52  78 109 139 174 217 265 317
#     4   9  18  33  53  75 103 138 171 209 259 312
#     4   8  15  29  48  70  96 130 169 205 246 298
#     4  10  20  35  54  74 101 138 177 217 262 311
#     4  10  19  32  53  79 104 132 173 220 257 300
#     4   9  17  28  46  74 103 130 162 202 249 300
#
# _framework density 18.568059999999999
#
# number of rings (size 3 to 8) (size 9 to 14) (size 15 to 20)
#    0.000    2.667    0.000    3.000    0.000    3.667 
#    0.000    5.000    0.000    3.000    0.000    0.000 
#    0.000    0.000    0.000    0.000    0.000    0.000 
#
# Total GULP energy -595163.540567 kJ/mol
# GULP energy per Si atom -12399.240428 kJ/mol
# Density = 1.852580 g / cm^3
# Si number density = 18.568060 Si / 1000 Ang^3
#
#
#
# Elastic Constant Matrix: (Units=GPa)
#
#
# Indices 1 2 3 4 5 6 
#
# 1 169.5117 111.7635 46.1849 0.0000 0.0000 0.0000
# 2 111.7635 145.9456 37.5257 0.0000 0.0000 0.0000
# 3 46.1849 37.5257 45.3415 0.0000 0.0000 0.0000
# 4 0.0000 0.0000 0.0000 21.4419 0.0000 0.0000
# 5 0.0000 0.0000 0.0000 0.0000 21.0933 0.0000
# 6 0.0000 0.0000 0.0000 0.0000 0.0000 15.5876
#
#
#
# Elastic Compliance Matrix: (Units=1/GPa)
#
#
# Indices 1 2 3 4 5 6 
#
# 1 0.013263 -0.008490 -0.006484 0.000000 0.000000 0.000000
# 2 -0.008490 0.014138 -0.003054 0.000000 0.000000 0.000000
# 3 -0.006484 -0.003054 0.031186 0.000000 0.000000 0.000000
# 4 0.000000 0.000000 0.000000 0.046638 0.000000 0.000000
# 5 0.000000 0.000000 0.000000 0.000000 0.047408 0.000000
# 6 0.000000 0.000000 0.000000 0.000000 0.000000 0.064154
#
#
# Mechanical properties :
#
#
# Convention : Reuss Voigt Hill
#
# Bulk Modulus (GPa) = 44.37739 83.52746 63.95243
# Shear Modulus (GPa) = 19.20464 22.64618 20.92541
#
# Velocity S-wave (km/s) = 3.21952 3.49611 3.36066
# Velocity P-wave (km/s) = 6.14590 7.83449 7.04100
#
# Compressibility (1/GPa) = 0.02253400
#
# Stress axis : x y z
#
# Youngs Moduli (GPa) = 75.39506 70.72898 32.06530
#
# Poissons Ratio (x) = 0.60048 0.20790
# Poissons Ratio (y) = 0.64010 0.09791
# Poissons Ratio (z) = 0.48884 0.21597
#
# Static dielectric constant tensor:
#      x y z
#    x 3.638960 0.000000 0.000000 
#    y 0.000000 3.585040 0.000000 
#    z 0.000000 0.000000 3.096080 
# 
# 
# High freq. dielectric constant tensor:
#      x y z
#    x 1.736390 0.000000 0.000000 
#    y 0.000000 1.717460 0.000000 
#    z 0.000000 0.000000 1.688530 
# 
# From -- ./inp_files/5840.got.cif
#   From: 2010.06.25/outbox.cif.g09.slc.cpg/sg58_3_cif.got.tgz:5840.got - 2010.06.26 21:38:00.
