data_PCOD8236490
_publ_section_title
;
Structure prediction by ZEFSAII (Michael W. Deem and Ramdas Pophale) SiO2 
 PCOD8236490
Probable space group: P N N M
;
_chemical_formula_sum "Si O2"
_cell_formula_units_Z 64
_cell_length_a 28.481316
_cell_length_b 12.532027
_cell_length_c 9.206672
_cell_angle_alpha 90.000000
_cell_angle_beta 90.000000
_cell_angle_gamma 90.000000
_cell_volume 3286.124742
_symmetry_space_group_name_H-M "P N N M"
_symmetry_group_IT_number 58
_symmetry_cell_setting 'orthorhombic'
loop_
_space_group_symop_operation_xyz
x,y,z
-x,-y,z
1/2+x,1/2-y,1/2-z
1/2-x,1/2+y,1/2-z
-x,-y,-z
x,y,-z
1/2-x,1/2+y,1/2+z
1/2+x,1/2-y,1/2+z
loop_
_atom_site_type_symbol
_atom_site_label
_atom_site_fract_x
_atom_site_fract_y
_atom_site_fract_z
Si Si1 0.554542 0.509377 0.331307
Si Si2 0.064618 0.754391 0.170872
Si Si3 0.617294 0.152674 0.831042
Si Si4 0.480039 0.884737 0.328671
Si Si5 0.199119 0.945268 0.168912
Si Si6 0.132183 0.105507 0.330788
Si Si7 0.303433 0.010276 0.168192
Si Si8 0.667245 0.787303 0.670354
O O1 0.500000 0.500000 0.301709
O O2 0.566957 0.491352 0.500000
O O3 0.570483 0.625054 0.273680
O O4 0.581610 0.422301 0.237002
O O5 0.112469 0.692246 0.209824
O O6 0.018724 0.697320 0.236884
O O7 0.056902 0.757754 0.000000
O O8 0.569467 0.136436 0.744682
O O9 0.639816 0.268915 0.803368
O O10 0.655311 0.066958 0.774571
O O11 0.606077 0.136594 0.000000
O O12 0.472924 0.870893 0.500000
O O13 0.500000 0.000000 0.289352
O O14 0.254404 0.951880 0.197263
O O15 0.182684 0.829527 0.225703
O O16 0.173382 0.039394 0.254743
O O17 0.186020 0.958821 0.000000
O O18 0.132186 0.077406 0.500000
O O19 0.302713 0.122236 0.251645
O O20 0.310568 0.035825 0.000000
O O21 0.676759 0.796681 0.500000
#
# Coordination Sequence:
#
# PCOD8236490 Si02
#       8
#     8   8   8   8   8   8   8   8
#     4  10  19  34  57  82 113 156 197 236 291 350
#     4   9  17  32  54  83 114 147 188 237 289 342
#     4  10  23  41  58  83 123 164 194 232 297 360
#     4  10  20  35  59  88 117 151 200 251 287 333
#     4  10  22  41  64  86 113 154 197 244 301 358
#     4  11  23  38  59  86 120 156 196 246 294 349
#     4  10  23  41  61  86 117 152 194 243 295 353
#     4  10  20  38  64  88 115 151 194 242 296 353
#
# _framework density 19.475828
#
# number of rings (size 3 to 8) (size 9 to 14) (size 15 to 20)
#    0.000    2.000    1.250    1.875    1.750    5.000 
#    0.000    1.250    0.000    0.000    0.000    0.000 
#    0.000    0.000    0.000    0.000    0.000    0.000 
#
# Total GULP energy -793676.863583 kJ/mol
# GULP energy per Si atom -12401.200993 kJ/mol
# Density = 1.943150 g / cm^3
# Si number density = 19.475828 Si / 1000 Ang^3
#
#
#
# Elastic Constant Matrix: (Units=GPa)
#
#
# Indices 1 2 3 4 5 6 
#
# 1 108.0858 52.0078 38.0064 0.0000 0.0000 0.0000
# 2 52.0078 112.3596 44.6301 0.0000 0.0000 0.0000
# 3 38.0064 44.6301 53.4488 0.0000 0.0000 0.0000
# 4 0.0000 0.0000 0.0000 26.9628 0.0000 0.0000
# 5 0.0000 0.0000 0.0000 0.0000 28.4721 0.0000
# 6 0.0000 0.0000 0.0000 0.0000 0.0000 35.3500
#
#
#
# Elastic Compliance Matrix: (Units=1/GPa)
#
#
# Indices 1 2 3 4 5 6 
#
# 1 0.013230 -0.003571 -0.006425 0.000000 0.000000 0.000000
# 2 -0.003571 0.014281 -0.009385 0.000000 0.000000 0.000000
# 3 -0.006425 -0.009385 0.031115 0.000000 0.000000 0.000000
# 4 0.000000 0.000000 0.000000 0.037088 0.000000 0.000000
# 5 0.000000 0.000000 0.000000 0.000000 0.035122 0.000000
# 6 0.000000 0.000000 0.000000 0.000000 0.000000 0.028289
#
#
# Mechanical properties :
#
#
# Convention : Reuss Voigt Hill
#
# Bulk Modulus (GPa) = 50.34717 60.35364 55.35041
# Shear Modulus (GPa) = 24.44888 27.44033 25.94460
#
# Velocity S-wave (km/s) = 3.54693 3.75766 3.65381
# Velocity P-wave (km/s) = 6.53311 7.06279 6.80310
#
# Compressibility (1/GPa) = 0.01986209
#
# Stress axis : x y z
#
# Youngs Moduli (GPa) = 75.58750 70.02329 32.13896
#
# Poissons Ratio (x) = 0.25009 0.20650
# Poissons Ratio (y) = 0.26996 0.30163
# Poissons Ratio (z) = 0.48566 0.65717
#
# Static dielectric constant tensor:
#      x y z
#    x 3.633010 0.000000 0.000000 
#    y 0.000000 3.808600 0.000000 
#    z 0.000000 0.000000 3.321640 
# 
# 
# High freq. dielectric constant tensor:
#      x y z
#    x 1.771690 0.000000 0.000000 
#    y 0.000000 1.770640 0.000000 
#    z 0.000000 0.000000 1.731480 
# 
# From -- ./inp_files/10991.got.cif
#   From: 2010.06.25/outbox.cif.g09.slc.cpg/sg58_6_cif.got.tgz:10991.got - 2010.06.26 21:38:00.
