data_PCOD8236389
_publ_section_title
;
Structure prediction by ZEFSAII (Michael W. Deem and Ramdas Pophale) SiO2 
 PCOD8236389
Probable space group: P N N M
;
_chemical_formula_sum "Si O2"
_cell_formula_units_Z 64
_cell_length_a 11.257982
_cell_length_b 11.484391
_cell_length_c 25.833066
_cell_angle_alpha 90.000000
_cell_angle_beta 90.000000
_cell_angle_gamma 90.000000
_cell_volume 3339.984671
_symmetry_space_group_name_H-M "P N N M"
_symmetry_group_IT_number 58
_symmetry_cell_setting 'orthorhombic'
loop_
_space_group_symop_operation_xyz
x,y,z
-x,-y,z
1/2+x,1/2-y,1/2-z
1/2-x,1/2+y,1/2-z
-x,-y,-z
x,y,-z
1/2-x,1/2+y,1/2+z
1/2+x,1/2-y,1/2+z
loop_
_atom_site_type_symbol
_atom_site_label
_atom_site_fract_x
_atom_site_fract_y
_atom_site_fract_z
Si Si1 0.875959 0.735896 0.698651
Si Si2 0.631853 0.252272 0.350031
Si Si3 0.267204 0.326948 0.057404
Si Si4 0.116243 0.066060 0.775376
Si Si5 0.258315 0.093881 0.557009
Si Si6 0.370786 0.175395 0.661904
Si Si7 0.166246 0.450752 0.775124
Si Si8 0.484606 0.631369 0.892444
O O1 0.923845 0.826120 0.740376
O O2 0.734660 0.749590 0.687504
O O3 0.899269 0.607862 0.724676
O O4 0.951888 0.766128 0.647971
O O5 0.675813 0.249524 0.408909
O O6 0.676647 0.375363 0.326241
O O7 0.489294 0.250017 0.343384
O O8 0.690322 0.143328 0.319980
O O9 0.218430 0.457033 0.056355
O O10 0.398887 0.322020 0.080152
O O11 0.268709 0.272802 0.000000
O O12 0.203329 0.985212 0.743278
O O13 0.000000 0.000000 0.793531
O O14 0.293963 0.144484 0.500000
O O15 0.337577 0.142858 0.603238
O O16 0.119536 0.121377 0.565403
O O17 0.399101 0.062927 0.699072
O O18 0.500000 0.500000 0.867640
#
# Coordination Sequence:
#
# PCOD8236389 Si02
#       8
#     8   8   8   8   8   8   8   8
#     4   9  19  32  54  78 102 141 176 213 265 314
#     4  11  22  35  51  77 107 143 175 213 263 314
#     4  10  20  33  51  76 109 141 176 219 265 316
#     4  10  21  35  55  75 103 143 179 217 257 313
#     4   9  17  30  52  77 104 140 172 211 270 319
#     4  10  19  34  49  73 113 140 170 220 252 315
#     4  10  20  35  49  77 106 138 178 210 260 311
#     4   9  17  31  52  79 108 136 175 217 261 317
#
# _framework density 19.161764999999999
#
# number of rings (size 3 to 8) (size 9 to 14) (size 15 to 20)
#    0.000    2.250    1.250    1.875    3.500    2.000 
#    6.750    1.250    0.000    0.375    0.000    5.250 
#    0.000    0.000    0.000    0.000    0.000    0.000 
#
# Total GULP energy -793086.325645 kJ/mol
# GULP energy per Si atom -12391.973838 kJ/mol
# Density = 1.911815 g / cm^3
# Si number density = 19.161765 Si / 1000 Ang^3
#
#
#
# Elastic Constant Matrix: (Units=GPa)
#
#
# Indices 1 2 3 4 5 6 
#
# 1 70.2257 17.5251 37.6537 0.0000 0.0000 0.0000
# 2 17.5251 27.0966 23.2263 0.0000 0.0000 0.0000
# 3 37.6537 23.2263 121.7040 0.0000 0.0000 0.0000
# 4 0.0000 0.0000 0.0000 19.4617 0.0000 0.0000
# 5 0.0000 0.0000 0.0000 0.0000 21.5871 0.0000
# 6 0.0000 0.0000 0.0000 0.0000 0.0000 9.9661
#
#
#
# Elastic Compliance Matrix: (Units=1/GPa)
#
#
# Indices 1 2 3 4 5 6 
#
# 1 0.018567 -0.008470 -0.004128 0.000000 0.000000 0.000000
# 2 -0.008470 0.047987 -0.006537 0.000000 0.000000 0.000000
# 3 -0.004128 -0.006537 0.010741 0.000000 0.000000 0.000000
# 4 0.000000 0.000000 0.000000 0.051383 0.000000 0.000000
# 5 0.000000 0.000000 0.000000 0.000000 0.046324 0.000000
# 6 0.000000 0.000000 0.000000 0.000000 0.000000 0.100340
#
#
# Mechanical properties :
#
#
# Convention : Reuss Voigt Hill
#
# Bulk Modulus (GPa) = 25.62504 41.75960 33.69232
# Shear Modulus (GPa) = 15.30826 19.57773 17.44299
#
# Velocity S-wave (km/s) = 2.82954 3.19988 3.02039
# Velocity P-wave (km/s) = 4.90684 5.95759 5.45756
#
# Compressibility (1/GPa) = 0.03902433
#
# Stress axis : x y z
#
# Youngs Moduli (GPa) = 53.85950 20.83906 93.09783
#
# Poissons Ratio (x) = 0.17651 0.38430
# Poissons Ratio (y) = 0.45619 0.60862
# Poissons Ratio (z) = 0.22233 0.13623
#
# Static dielectric constant tensor:
#      x y z
#    x 3.365520 0.000000 0.000000 
#    y 0.000000 3.483260 0.000000 
#    z 0.000000 0.000000 3.754140 
# 
# 
# High freq. dielectric constant tensor:
#      x y z
#    x 1.743620 0.000000 0.000000 
#    y 0.000000 1.707320 0.000000 
#    z 0.000000 0.000000 1.745390 
# 
# From -- ./inp_files/32080.got.cif
#   From: 2010.06.25/outbox.cif.g09.slc.cpg/sg58_17_cif.got.tgz:32080.got - 2010.06.26 21:38:00.
