data_PCOD8236109
_publ_section_title
;
Structure prediction by ZEFSAII (Michael W. Deem and Ramdas Pophale) SiO2 
 PCOD8236109
Probable space group: P N N M
;
_chemical_formula_sum "Si O2"
_cell_formula_units_Z 56
_cell_length_a 17.238212
_cell_length_b 19.715026
_cell_length_c 9.133295
_cell_angle_alpha 90.000000
_cell_angle_beta 90.000000
_cell_angle_gamma 90.000000
_cell_volume 3103.966725
_symmetry_space_group_name_H-M "P N N M"
_symmetry_group_IT_number 58
_symmetry_cell_setting 'orthorhombic'
loop_
_space_group_symop_operation_xyz
x,y,z
-x,-y,z
1/2+x,1/2-y,1/2-z
1/2-x,1/2+y,1/2-z
-x,-y,-z
x,y,-z
1/2-x,1/2+y,1/2+z
1/2+x,1/2-y,1/2+z
loop_
_atom_site_type_symbol
_atom_site_label
_atom_site_fract_x
_atom_site_fract_y
_atom_site_fract_z
Si Si1 0.578673 0.311172 0.326489
Si Si2 0.969774 0.070763 0.829236
Si Si3 0.864886 0.549684 0.670743
Si Si4 0.618926 0.912876 0.331052
Si Si5 0.292212 0.614200 0.828201
Si Si6 0.691730 0.522546 0.668591
Si Si7 0.963387 0.660560 0.170088
O O1 0.588909 0.315977 0.500000
O O2 0.515228 0.364752 0.263212
O O3 0.661679 0.325294 0.251309
O O4 0.549047 0.237434 0.278745
O O5 0.877132 0.076527 0.799987
O O6 0.988666 0.070275 0.000000
O O7 0.000000 0.000000 0.759831
O O8 0.882815 0.547858 0.500000
O O9 0.897703 0.480259 0.738162
O O10 0.773384 0.557622 0.705013
O O11 0.905457 0.614143 0.739692
O O12 0.618593 0.935338 0.500000
O O13 0.700986 0.878564 0.289655
O O14 0.552407 0.858504 0.295897
O O15 0.323348 0.542659 0.768734
O O16 0.307559 0.618410 0.000000
O O17 0.689189 0.497836 0.500000
O O18 0.944124 0.650593 0.000000
#
# Coordination Sequence:
#
# PCOD8236109 Si02
#       7
#     8   8   8   8   8   8   8
#     4  10  20  35  54  74 101 140 180 214 257 312
#     4   9  15  28  54  78  96 128 176 220 246 290
#     4  10  20  33  54  83 108 134 169 219 273 312
#     4   9  19  36  56  78 102 137 180 217 255 309
#     4  10  19  32  52  78 106 134 166 213 266 309
#     4   9  17  32  53  79 104 131 171 214 257 306
#     4  10  21  37  54  74 103 141 181 216 256 312
#
# _framework density 18.041430999999999
#
# number of rings (size 3 to 8) (size 9 to 14) (size 15 to 20)
#    0.000    2.429    1.429    1.286    0.000    4.000 
#    2.571    1.429    0.000    0.000    0.000    0.000 
#    0.000    0.000    0.000    0.000    0.000    0.000 
#
# Total GULP energy -694374.150686 kJ/mol
# GULP energy per Si atom -12399.538405 kJ/mol
# Density = 1.800037 g / cm^3
# Si number density = 18.041431 Si / 1000 Ang^3
#
#
#
# Elastic Constant Matrix: (Units=GPa)
#
#
# Indices 1 2 3 4 5 6 
#
# 1 124.1864 85.6860 44.6830 0.0000 0.0000 0.0000
# 2 85.6860 147.5954 53.1847 0.0000 0.0000 0.0000
# 3 44.6830 53.1847 54.0764 0.0000 0.0000 0.0000
# 4 0.0000 0.0000 0.0000 22.8738 0.0000 0.0000
# 5 0.0000 0.0000 0.0000 0.0000 27.0316 0.0000
# 6 0.0000 0.0000 0.0000 0.0000 0.0000 27.1648
#
#
#
# Elastic Compliance Matrix: (Units=1/GPa)
#
#
# Indices 1 2 3 4 5 6 
#
# 1 0.014497 -0.006350 -0.005733 0.000000 0.000000 0.000000
# 2 -0.006350 0.013276 -0.007810 0.000000 0.000000 0.000000
# 3 -0.005733 -0.007810 0.030911 0.000000 0.000000 0.000000
# 4 0.000000 0.000000 0.000000 0.043718 0.000000 0.000000
# 5 0.000000 0.000000 0.000000 0.000000 0.036994 0.000000
# 6 0.000000 0.000000 0.000000 0.000000 0.000000 0.036812
#
#
# Mechanical properties :
#
#
# Convention : Reuss Voigt Hill
#
# Bulk Modulus (GPa) = 52.91839 76.99616 64.95727
# Shear Modulus (GPa) = 22.49276 24.90100 23.69688
#
# Velocity S-wave (km/s) = 3.53473 3.71915 3.62811
# Velocity P-wave (km/s) = 6.78634 7.82386 7.32350
#
# Compressibility (1/GPa) = 0.01889702
#
# Stress axis : x y z
#
# Youngs Moduli (GPa) = 68.98148 75.32316 32.35098
#
# Poissons Ratio (x) = 0.47831 0.18547
# Poissons Ratio (y) = 0.43804 0.25267
# Poissons Ratio (z) = 0.39548 0.58829
#
# Static dielectric constant tensor:
#      x y z
#    x 3.588230 0.000000 0.000000 
#    y 0.000000 3.242940 0.000000 
#    z 0.000000 0.000000 3.203180 
# 
# 
# High freq. dielectric constant tensor:
#      x y z
#    x 1.714740 0.000000 0.000000 
#    y 0.000000 1.678020 0.000000 
#    z 0.000000 0.000000 1.682270 
# 
# From -- ./inp_files/8179.got.cif
#   From: 2010.06.25/outbox.cif.g09.slc.cpg/sg58_5_cif.got.tgz:8179.got - 2010.06.26 21:38:00.
