data_PCOD8236736
_publ_section_title
;
Structure prediction by ZEFSAII (Michael W. Deem and Ramdas Pophale) SiO2 
 PCOD8236736
Probable space group: P N N M
;
_chemical_formula_sum "Si O2"
_cell_formula_units_Z 56
_cell_length_a 11.538874
_cell_length_b 22.366435
_cell_length_c 10.875363
_cell_angle_alpha 90.000000
_cell_angle_beta 90.000000
_cell_angle_gamma 90.000000
_cell_volume 2806.751478
_symmetry_space_group_name_H-M "P N N M"
_symmetry_group_IT_number 58
_symmetry_cell_setting 'orthorhombic'
loop_
_space_group_symop_operation_xyz
x,y,z
-x,-y,z
1/2+x,1/2-y,1/2-z
1/2-x,1/2+y,1/2-z
-x,-y,-z
x,y,-z
1/2-x,1/2+y,1/2+z
1/2+x,1/2-y,1/2+z
loop_
_atom_site_type_symbol
_atom_site_label
_atom_site_fract_x
_atom_site_fract_y
_atom_site_fract_z
Si Si1 0.804935 0.911224 0.247486
Si Si2 0.594313 0.134982 0.860648
Si Si3 0.348973 0.187588 0.856090
Si Si4 0.815152 0.217013 0.141406
Si Si5 0.139383 0.944006 0.500000
Si Si6 0.613236 0.414423 0.000000
Si Si7 0.044885 0.897883 0.862968
Si Si8 0.254187 0.956421 0.250946
O O1 0.746787 0.864385 0.155724
O O2 0.815021 0.886525 0.386544
O O3 0.939836 0.922600 0.217828
O O4 0.730540 0.972234 0.247508
O O5 0.473000 0.161853 0.816412
O O6 0.691593 0.185256 0.844988
O O7 0.624758 0.075700 0.782057
O O8 0.583857 0.113373 0.000000
O O9 0.319838 0.236479 0.753332
O O10 0.347431 0.210202 0.000000
O O11 0.919611 0.170568 0.165957
O O12 0.825820 0.242832 0.000000
O O13 0.214730 0.928769 0.380769
O O14 0.025246 0.900973 0.500000
O O15 0.113512 0.014016 0.500000
O O16 0.156363 0.940034 0.848558
O O17 0.999406 0.903176 0.000000
#
# Coordination Sequence:
#
# PCOD8236736 Si02
#       8
#     8   8   8   8   4   4   8   8
#     4  11  22  35  59  91 125 157 195 247 301 357
#     4   9  21  43  63  83 119 160 197 240 298 364
#     4  11  25  42  60  90 122 155 206 253 291 354
#     4   9  21  43  64  81 113 160 201 248 305 354
#     4   9  16  32  55  83 123 157 194 243 276 343
#     4   9  18  34  53  83 125 161 194 231 292 357
#     4  10  20  35  58  89 120 150 196 252 302 353
#     4  10  19  36  59  89 122 161 195 238 303 358
#
# _framework density 19.951892000000001
#
# number of rings (size 3 to 8) (size 9 to 14) (size 15 to 20)
#    0.000    2.143    1.429    2.143    3.000    3.429 
#    7.714    1.429    0.000    2.571    0.000    0.000 
#    0.000    0.000    0.000    0.000    0.000    0.000 
#
# Total GULP energy -694043.389775 kJ/mol
# GULP energy per Si atom -12393.631960 kJ/mol
# Density = 1.990648 g / cm^3
# Si number density = 19.951892 Si / 1000 Ang^3
#
#
#
# Elastic Constant Matrix: (Units=GPa)
#
#
# Indices 1 2 3 4 5 6 
#
# 1 50.4420 1.6551 14.8758 0.0000 0.0000 0.0000
# 2 1.6551 50.7259 40.7048 0.0000 0.0000 0.0000
# 3 14.8758 40.7048 105.5454 0.0000 0.0000 0.0000
# 4 0.0000 0.0000 0.0000 30.7335 0.0000 0.0000
# 5 0.0000 0.0000 0.0000 0.0000 24.8417 0.0000
# 6 0.0000 0.0000 0.0000 0.0000 0.0000 17.5627
#
#
#
# Elastic Compliance Matrix: (Units=1/GPa)
#
#
# Indices 1 2 3 4 5 6 
#
# 1 0.020890 0.002434 -0.003883 0.000000 0.000000 0.000000
# 2 0.002434 0.028833 -0.011463 0.000000 0.000000 0.000000
# 3 -0.003883 -0.011463 0.014443 0.000000 0.000000 0.000000
# 4 0.000000 0.000000 0.000000 0.032538 0.000000 0.000000
# 5 0.000000 0.000000 0.000000 0.000000 0.040255 0.000000
# 6 0.000000 0.000000 0.000000 0.000000 0.000000 0.056939
#
#
# Mechanical properties :
#
#
# Convention : Reuss Voigt Hill
#
# Bulk Modulus (GPa) = 26.08084 35.68718 30.88401
# Shear Modulus (GPa) = 21.50533 24.59275 23.04904
#
# Velocity S-wave (km/s) = 3.28664 3.51465 3.40256
# Velocity P-wave (km/s) = 5.24432 5.86480 5.56321
#
# Compressibility (1/GPa) = 0.03834232
#
# Stress axis : x y z
#
# Youngs Moduli (GPa) = 47.86971 34.68302 69.23950
#
# Poissons Ratio (x) = -0.08443 0.26887
# Poissons Ratio (y) = -0.11653 0.79367
# Poissons Ratio (z) = 0.18589 0.39756
#
# Static dielectric constant tensor:
#      x y z
#    x 3.524510 0.000000 0.000000 
#    y 0.000000 3.383450 0.000000 
#    z 0.000000 0.000000 3.860970 
# 
# 
# High freq. dielectric constant tensor:
#      x y z
#    x 1.767060 0.000000 0.000000 
#    y 0.000000 1.754630 0.000000 
#    z 0.000000 0.000000 1.792440 
# 
# From -- ./inp_files/14787.got.cif
#   From: 2010.06.25/outbox.cif.g09.slc.cpg/sg58_8_cif.got.tgz:14787.got - 2010.06.26 21:38:00.
