data_PCOD8236148
_publ_section_title
;
Structure prediction by ZEFSAII (Michael W. Deem and Ramdas Pophale) SiO2 
 PCOD8236148
Probable space group: P N N M
;
_chemical_formula_sum "Si O2"
_cell_formula_units_Z 64
_cell_length_a 28.465150
_cell_length_b 12.549769
_cell_length_c 9.192952
_cell_angle_alpha 90.000000
_cell_angle_beta 90.000000
_cell_angle_gamma 90.000000
_cell_volume 3284.007960
_symmetry_space_group_name_H-M "P N N M"
_symmetry_group_IT_number 58
_symmetry_cell_setting 'orthorhombic'
loop_
_space_group_symop_operation_xyz
x,y,z
-x,-y,z
1/2+x,1/2-y,1/2-z
1/2-x,1/2+y,1/2-z
-x,-y,-z
x,y,-z
1/2-x,1/2+y,1/2+z
1/2+x,1/2-y,1/2+z
loop_
_atom_site_type_symbol
_atom_site_label
_atom_site_fract_x
_atom_site_fract_y
_atom_site_fract_z
Si Si1 0.628900 0.888644 0.669742
Si Si2 0.521501 0.615794 0.830644
Si Si3 0.166065 0.225313 0.667352
Si Si4 0.695238 0.506877 0.169843
Si Si5 0.055007 0.489507 0.665427
Si Si6 0.062881 0.256287 0.670319
Si Si7 0.700966 0.066924 0.328061
Si Si8 0.619516 0.647632 0.328713
O O1 0.622010 0.905183 0.500000
O O2 0.639786 0.765570 0.706336
O O3 0.579694 0.917630 0.744515
O O4 0.670053 0.966598 0.728962
O O5 0.500000 0.500000 0.809513
O O6 0.481977 0.695214 0.763962
O O7 0.568579 0.630853 0.740119
O O8 0.532712 0.637921 0.000000
O O9 0.171365 0.260588 0.500000
O O10 0.111689 0.195867 0.702708
O O11 0.183779 0.322155 0.763783
O O12 0.195555 0.119562 0.701439
O O13 0.745589 0.549407 0.221424
O O14 0.655400 0.563371 0.262872
O O15 0.685440 0.528869 0.000000
O O16 0.072516 0.499600 0.500000
O O17 0.068544 0.375152 0.734372
O O18 0.000000 0.500000 0.677814
O O19 0.052800 0.265328 0.500000
O O20 0.697281 0.074256 0.500000
O O21 0.615378 0.628301 0.500000
#
# Coordination Sequence:
#
# PCOD8236148 Si02
#       8
#     8   8   8   8   8   8   8   8
#     4  10  22  39  57  82 120 159 192 235 298 360
#     4  10  20  37  62  87 118 161 204 245 294 352
#     4  10  20  38  64  89 115 150 197 247 297 351
#     4  10  23  41  63  87 116 156 200 247 299 360
#     4  10  19  32  53  82 114 149 194 245 288 336
#     4   9  17  31  53  84 113 145 193 242 289 344
#     4  10  22  40  60  86 117 153 196 245 303 359
#     4  11  24  40  60  89 125 161 199 246 299 354
#
# _framework density 19.488381
#
# number of rings (size 3 to 8) (size 9 to 14) (size 15 to 20)
#    0.000    2.000    1.250    1.875    1.750    5.500 
#    0.000    1.250    0.000    0.000    0.000    0.000 
#    0.000    0.000    0.000    0.000    0.000    0.000 
#
# Total GULP energy -793601.184958 kJ/mol
# GULP energy per Si atom -12400.018515 kJ/mol
# Density = 1.944402 g / cm^3
# Si number density = 19.488381 Si / 1000 Ang^3
#
#
#
# Elastic Constant Matrix: (Units=GPa)
#
#
# Indices 1 2 3 4 5 6 
#
# 1 117.5310 49.5204 40.1121 0.0000 0.0000 0.0000
# 2 49.5204 93.0868 35.0885 0.0000 0.0000 0.0000
# 3 40.1121 35.0885 43.1411 0.0000 0.0000 0.0000
# 4 0.0000 0.0000 0.0000 27.8603 0.0000 0.0000
# 5 0.0000 0.0000 0.0000 0.0000 15.1337 0.0000
# 6 0.0000 0.0000 0.0000 0.0000 0.0000 34.7098
#
#
#
# Elastic Compliance Matrix: (Units=1/GPa)
#
#
# Indices 1 2 3 4 5 6 
#
# 1 0.013190 -0.003453 -0.009456 0.000000 0.000000 0.000000
# 2 -0.003453 0.016396 -0.010125 0.000000 0.000000 0.000000
# 3 -0.009456 -0.010125 0.040207 0.000000 0.000000 0.000000
# 4 0.000000 0.000000 0.000000 0.035893 0.000000 0.000000
# 5 0.000000 0.000000 0.000000 0.000000 0.066078 0.000000
# 6 0.000000 0.000000 0.000000 0.000000 0.000000 0.028810
#
#
# Mechanical properties :
#
#
# Convention : Reuss Voigt Hill
#
# Bulk Modulus (GPa) = 42.14870 55.91119 49.02994
# Shear Modulus (GPa) = 19.64234 24.14327 21.89280
#
# Velocity S-wave (km/s) = 3.17819 3.52355 3.35532
# Velocity P-wave (km/s) = 5.92810 6.73095 6.34224
#
# Compressibility (1/GPa) = 0.02372553
#
# Stress axis : x y z
#
# Youngs Moduli (GPa) = 75.81281 60.99008 24.87109
#
# Poissons Ratio (x) = 0.21058 0.23518
# Poissons Ratio (y) = 0.26175 0.25183
# Poissons Ratio (z) = 0.71689 0.61755
#
# Static dielectric constant tensor:
#      x y z
#    x 3.701260 0.000000 0.000000 
#    y 0.000000 3.791930 0.000000 
#    z 0.000000 0.000000 3.346130 
# 
# 
# High freq. dielectric constant tensor:
#      x y z
#    x 1.769530 0.000000 0.000000 
#    y 0.000000 1.772680 0.000000 
#    z 0.000000 0.000000 1.733110 
# 
# From -- ./inp_files/11078.got.cif
#   From: 2010.06.25/outbox.cif.g09.slc.cpg/sg58_6_cif.got.tgz:11078.got - 2010.06.26 21:38:00.
