data_PCOD8236770
_publ_section_title
;
Structure prediction by ZEFSAII (Michael W. Deem and Ramdas Pophale) SiO2 
 PCOD8236770
Probable space group: P N N M
;
_chemical_formula_sum "Si O2"
_cell_formula_units_Z 64
_cell_length_a 9.115552
_cell_length_b 11.103324
_cell_length_c 31.375153
_cell_angle_alpha 90.000000
_cell_angle_beta 90.000000
_cell_angle_gamma 90.000000
_cell_volume 3175.571079
_symmetry_space_group_name_H-M "P N N M"
_symmetry_group_IT_number 58
_symmetry_cell_setting 'orthorhombic'
loop_
_space_group_symop_operation_xyz
x,y,z
-x,-y,z
1/2+x,1/2-y,1/2-z
1/2-x,1/2+y,1/2-z
-x,-y,-z
x,y,-z
1/2-x,1/2+y,1/2+z
1/2+x,1/2-y,1/2+z
loop_
_atom_site_type_symbol
_atom_site_label
_atom_site_fract_x
_atom_site_fract_y
_atom_site_fract_z
Si Si1 0.803678 0.919438 0.674190
Si Si2 0.670285 0.733904 0.451700
Si Si3 0.793957 0.798671 0.153155
Si Si4 0.834132 0.039639 0.882303
Si Si5 0.089982 0.385902 0.912275
Si Si6 0.658781 0.455287 0.073996
Si Si7 0.394408 0.294892 0.691416
Si Si8 0.893053 0.159054 0.289583
O O1 0.839427 0.933735 0.624586
O O2 0.655843 0.841924 0.681074
O O3 0.937480 0.855981 0.698967
O O4 0.787722 0.050014 0.695429
O O5 0.652372 0.689558 0.500000
O O6 0.712424 0.617361 0.423483
O O7 0.516578 0.794743 0.437132
O O8 0.802670 0.829415 0.448700
O O9 0.825924 0.682674 0.124714
O O10 0.659333 0.776948 0.184988
O O11 0.936180 0.821133 0.182124
O O12 0.747588 0.913637 0.123951
O O13 0.803308 0.118536 0.840087
O O14 0.000000 0.000000 0.888922
O O15 0.220010 0.445005 0.940868
O O16 0.000000 0.500000 0.892964
O O17 0.500000 0.500000 0.058612
O O18 0.364043 0.326875 0.739850
#
# Coordination Sequence:
#
# PCOD8236770 Si02
#       8
#     8   8   8   8   8   8   8   8
#     4  11  21  39  58  85 120 167 200 248 306 352
#     4  11  23  41  66  94 120 152 203 255 310 376
#     4  11  21  38  59  86 118 166 204 244 303 360
#     4  10  21  38  61  85 120 161 197 247 309 355
#     4  10  19  36  61  91 120 154 199 255 307 360
#     4  11  20  39  65  90 126 162 197 244 318 374
#     4  11  22  36  58  84 124 158 206 254 296 351
#     4  11  24  34  59  89 119 160 211 252 289 356
#
# _framework density 20.153853999999999
#
# number of rings (size 3 to 8) (size 9 to 14) (size 15 to 20)
#    0.000    1.250    6.250    1.500    7.000    2.750 
#    0.000    0.625    0.000    0.000    0.000    3.500 
#    0.000    0.000    0.000    0.000    0.000    0.000 
#
# Total GULP energy -793283.704952 kJ/mol
# GULP energy per Si atom -12395.057890 kJ/mol
# Density = 2.010798 g / cm^3
# Si number density = 20.153854 Si / 1000 Ang^3
#
#
#
# Elastic Constant Matrix: (Units=GPa)
#
#
# Indices 1 2 3 4 5 6 
#
# 1 61.2124 28.0888 12.4707 0.0000 0.0000 0.0000
# 2 28.0888 112.8696 47.8368 0.0000 0.0000 0.0000
# 3 12.4707 47.8368 120.4668 0.0000 0.0000 0.0000
# 4 0.0000 0.0000 0.0000 14.1556 0.0000 0.0000
# 5 0.0000 0.0000 0.0000 0.0000 15.5819 0.0000
# 6 0.0000 0.0000 0.0000 0.0000 0.0000 28.4886
#
#
#
# Elastic Compliance Matrix: (Units=1/GPa)
#
#
# Indices 1 2 3 4 5 6 
#
# 1 0.018444 -0.004546 -0.000104 0.000000 0.000000 0.000000
# 2 -0.004546 0.011773 -0.004204 0.000000 0.000000 0.000000
# 3 -0.000104 -0.004204 0.009981 0.000000 0.000000 0.000000
# 4 0.000000 0.000000 0.000000 0.070643 0.000000 0.000000
# 5 0.000000 0.000000 0.000000 0.000000 0.064177 0.000000
# 6 0.000000 0.000000 0.000000 0.000000 0.000000 0.035102
#
#
# Mechanical properties :
#
#
# Convention : Reuss Voigt Hill
#
# Bulk Modulus (GPa) = 44.46550 52.37126 48.41838
# Shear Modulus (GPa) = 21.24718 25.38873 23.31796
#
# Velocity S-wave (km/s) = 3.25044 3.55314 3.40516
# Velocity P-wave (km/s) = 6.01649 6.54792 6.28782
#
# Compressibility (1/GPa) = 0.02248935
#
# Stress axis : x y z
#
# Youngs Moduli (GPa) = 54.21905 84.94034 100.18653
#
# Poissons Ratio (x) = 0.38612 0.01044
# Poissons Ratio (y) = 0.24647 0.42123
# Poissons Ratio (z) = 0.00565 0.35712
#
# Static dielectric constant tensor:
#      x y z
#    x 3.661990 0.000000 0.000000 
#    y 0.000000 4.076580 0.000000 
#    z 0.000000 0.000000 3.499030 
# 
# 
# High freq. dielectric constant tensor:
#      x y z
#    x 1.764940 0.000000 0.000000 
#    y 0.000000 1.794230 0.000000 
#    z 0.000000 0.000000 1.775210 
# 
# From -- ./inp_files/34753.got.cif
#   From: 2010.06.25/outbox.cif.g09.slc.cpg/sg58_18_cif.got.tgz:34753.got - 2010.06.26 21:38:00.
