data_PCOD8236772
_publ_section_title
;
Structure prediction by ZEFSAII (Michael W. Deem and Ramdas Pophale) SiO2 
 PCOD8236772
Probable space group: P N N M
;
_chemical_formula_sum "Si O2"
_cell_formula_units_Z 40
_cell_length_a 7.739544
_cell_length_b 17.197451
_cell_length_c 12.649096
_cell_angle_alpha 90.000000
_cell_angle_beta 90.000000
_cell_angle_gamma 90.000000
_cell_volume 1683.600100
_symmetry_space_group_name_H-M "P N N M"
_symmetry_group_IT_number 58
_symmetry_cell_setting 'orthorhombic'
loop_
_space_group_symop_operation_xyz
x,y,z
-x,-y,z
1/2+x,1/2-y,1/2-z
1/2-x,1/2+y,1/2-z
-x,-y,-z
x,y,-z
1/2-x,1/2+y,1/2+z
1/2+x,1/2-y,1/2+z
loop_
_atom_site_type_symbol
_atom_site_label
_atom_site_fract_x
_atom_site_fract_y
_atom_site_fract_z
Si Si1 0.489240 0.712567 0.125574
Si Si2 0.363547 0.054225 0.754896
Si Si3 0.653439 0.557305 0.113980
Si Si4 0.902837 0.298360 0.873440
Si Si5 0.800300 0.819359 0.875387
O O1 0.576969 0.634312 0.170577
O O2 0.291967 0.721992 0.167764
O O3 0.612902 0.784009 0.158387
O O4 0.477516 0.706277 0.000000
O O5 0.452463 0.118392 0.676869
O O6 0.215101 0.093270 0.828701
O O7 0.500000 0.000000 0.821208
O O8 0.289196 0.985188 0.685550
O O9 0.500000 0.500000 0.089824
O O10 0.737944 0.580522 0.000000
O O11 0.036215 0.231082 0.830841
O O12 0.914509 0.303567 0.000000
O O13 0.822242 0.823976 0.000000
#
# Coordination Sequence:
#
# PCOD8236772 Si02
#       5
#     8   8   8   8   8
#     4   9  18  38  66  91 120 164 207 257 324 381
#     4  12  25  38  61  99 130 168 215 262 320 384
#     4  10  19  36  61  94 135 162 194 261 337 396
#     4  10  21  40  66  95 125 160 208 265 326 384
#     4  10  24  44  63  87 127 174 220 264 305 368
#
# _framework density 23.758610999999998
#
# number of rings (size 3 to 8) (size 9 to 14) (size 15 to 20)
#    0.000    1.800    2.000    1.800    2.800    3.600 
#    3.600    0.000    0.000    0.600    0.000    0.000 
#    0.000    0.000    0.000    0.000    0.000    0.000 
#
# Total GULP energy -495693.313631 kJ/mol
# GULP energy per Si atom -12392.332841 kJ/mol
# Density = 2.370454 g / cm^3
# Si number density = 23.758611 Si / 1000 Ang^3
#
#
#
# Elastic Constant Matrix: (Units=GPa)
#
#
# Indices 1 2 3 4 5 6 
#
# 1 118.2764 82.7710 51.2133 0.0000 0.0000 0.0000
# 2 82.7710 114.2165 50.3663 0.0000 0.0000 0.0000
# 3 51.2133 50.3663 40.0925 0.0000 0.0000 0.0000
# 4 0.0000 0.0000 0.0000 30.6191 0.0000 0.0000
# 5 0.0000 0.0000 0.0000 0.0000 38.3149 0.0000
# 6 0.0000 0.0000 0.0000 0.0000 0.0000 55.0313
#
#
#
# Elastic Compliance Matrix: (Units=1/GPa)
#
#
# Indices 1 2 3 4 5 6 
#
# 1 0.021651 -0.007835 -0.017814 0.000000 0.000000 0.000000
# 2 -0.007835 0.022464 -0.018213 0.000000 0.000000 0.000000
# 3 -0.017814 -0.018213 0.070579 0.000000 0.000000 0.000000
# 4 0.000000 0.000000 0.000000 0.032659 0.000000 0.000000
# 5 0.000000 0.000000 0.000000 0.000000 0.026100 0.000000
# 6 0.000000 0.000000 0.000000 0.000000 0.000000 0.018171
#
#
# Mechanical properties :
#
#
# Convention : Reuss Voigt Hill
#
# Bulk Modulus (GPa) = 37.07893 71.25407 54.16650
# Shear Modulus (GPa) = 17.34071 30.67536 24.00803
#
# Velocity S-wave (km/s) = 2.70454 3.59712 3.18228
# Velocity P-wave (km/s) = 5.03916 6.87811 6.02916
#
# Compressibility (1/GPa) = 0.02696949
#
# Stress axis : x y z
#
# Youngs Moduli (GPa) = 46.18708 44.51480 14.16861
#
# Poissons Ratio (x) = 0.34875 0.25241
# Poissons Ratio (y) = 0.36186 0.25806
# Poissons Ratio (z) = 0.82280 0.81076
#
# Static dielectric constant tensor:
#      x y z
#    x 4.015140 0.000000 0.000000 
#    y 0.000000 4.277080 0.000000 
#    z 0.000000 0.000000 4.292350 
# 
# 
# High freq. dielectric constant tensor:
#      x y z
#    x 1.947480 0.000000 0.000000 
#    y 0.000000 1.934400 0.000000 
#    z 0.000000 0.000000 1.956140 
# 
# From -- ./inp_files/19500.got.cif
#   From: 2010.06.25/outbox.cif.g09.slc.cpg/sg58_10_cif.got.tgz:19500.got - 2010.06.26 21:38:00.
