data_PCOD8236847
_publ_section_title
;
Structure prediction by ZEFSAII (Michael W. Deem and Ramdas Pophale) SiO2 
 PCOD8236847
Probable space group: P N N M
;
_chemical_formula_sum "Si O2"
_cell_formula_units_Z 56
_cell_length_a 21.839188
_cell_length_b 14.650923
_cell_length_c 8.806756
_cell_angle_alpha 90.000000
_cell_angle_beta 90.000000
_cell_angle_gamma 90.000000
_cell_volume 2817.847182
_symmetry_space_group_name_H-M "P N N M"
_symmetry_group_IT_number 58
_symmetry_cell_setting 'orthorhombic'
loop_
_space_group_symop_operation_xyz
x,y,z
-x,-y,z
1/2+x,1/2-y,1/2-z
1/2-x,1/2+y,1/2-z
-x,-y,-z
x,y,-z
1/2-x,1/2+y,1/2+z
1/2+x,1/2-y,1/2+z
loop_
_atom_site_type_symbol
_atom_site_label
_atom_site_fract_x
_atom_site_fract_y
_atom_site_fract_z
Si Si1 0.457084 0.579940 0.180139
Si Si2 0.222621 0.679297 0.180033
Si Si3 0.477690 0.784176 0.820896
Si Si4 0.090407 0.615975 0.176232
Si Si5 0.178571 0.035493 0.319338
Si Si6 0.620225 0.087878 0.323844
Si Si7 0.748788 0.118854 0.819952
O O1 0.500000 0.500000 0.248971
O O2 0.480765 0.679055 0.234484
O O3 0.388233 0.564659 0.238573
O O4 0.458600 0.575140 0.000000
O O5 0.155700 0.650573 0.238753
O O6 0.273414 0.609935 0.243121
O O7 0.240208 0.778947 0.240023
O O8 0.222912 0.675378 0.000000
O O9 0.539415 0.834546 0.774836
O O10 0.419013 0.830442 0.744878
O O11 0.468333 0.790415 0.000000
O O12 0.084613 0.507377 0.199995
O O13 0.080816 0.641493 0.000000
O O14 0.181267 0.025963 0.500000
O O15 0.194787 0.939163 0.244237
O O16 0.631810 0.106713 0.500000
O O17 0.685366 0.080279 0.243105
O O18 0.747665 0.114359 0.000000
#
# Coordination Sequence:
#
# PCOD8236847 Si02
#       7
#     8   8   8   8   8   8   8
#     4   9  20  38  60  86 119 159 200 239 290 357
#     4   9  19  37  58  82 116 160 196 232 295 362
#     4  11  23  38  60  90 120 152 196 253 300 334
#     4  10  21  39  60  83 115 158 201 236 289 365
#     4  10  19  38  63  83 113 159 199 232 284 358
#     4  11  22  40  63  86 117 161 201 232 288 366
#     4  11  22  36  60  91 120 149 191 248 299 338
#
# _framework density 19.873328000000001
#
# number of rings (size 3 to 8) (size 9 to 14) (size 15 to 20)
#    0.000    1.857    1.429    2.571    2.000    5.143 
#    0.000    5.000    0.000    2.143    0.000    0.000 
#    0.000    0.000    0.000    0.000    0.000    0.000 
#
# Total GULP energy -694586.984175 kJ/mol
# GULP energy per Si atom -12403.339003 kJ/mol
# Density = 1.982810 g / cm^3
# Si number density = 19.873328 Si / 1000 Ang^3
#
#
#
# Elastic Constant Matrix: (Units=GPa)
#
#
# Indices 1 2 3 4 5 6 
#
# 1 94.7279 38.0290 16.5217 0.0000 0.0000 0.0000
# 2 38.0290 129.1534 29.9070 0.0000 0.0000 0.0000
# 3 16.5217 29.9070 38.3468 0.0000 0.0000 0.0000
# 4 0.0000 0.0000 0.0000 26.7647 0.0000 0.0000
# 5 0.0000 0.0000 0.0000 0.0000 17.0661 0.0000
# 6 0.0000 0.0000 0.0000 0.0000 0.0000 38.6458
#
#
#
# Elastic Compliance Matrix: (Units=1/GPa)
#
#
# Indices 1 2 3 4 5 6 
#
# 1 0.012250 -0.002910 -0.003008 0.000000 0.000000 0.000000
# 2 -0.002910 0.010141 -0.006655 0.000000 0.000000 0.000000
# 3 -0.003008 -0.006655 0.032564 0.000000 0.000000 0.000000
# 4 0.000000 0.000000 0.000000 0.037363 0.000000 0.000000
# 5 0.000000 0.000000 0.000000 0.000000 0.058596 0.000000
# 6 0.000000 0.000000 0.000000 0.000000 0.000000 0.025876
#
#
# Mechanical properties :
#
#
# Convention : Reuss Voigt Hill
#
# Bulk Modulus (GPa) = 33.54812 47.90483 40.72647
# Shear Modulus (GPa) = 23.59927 28.34667 25.97297
#
# Velocity S-wave (km/s) = 3.44973 3.78083 3.61907
# Velocity P-wave (km/s) = 5.72583 6.57396 6.16450
#
# Compressibility (1/GPa) = 0.02980793
#
# Stress axis : x y z
#
# Youngs Moduli (GPa) = 81.63572 98.61259 30.70877
#
# Poissons Ratio (x) = 0.28700 0.09237
# Poissons Ratio (y) = 0.23759 0.20436
# Poissons Ratio (z) = 0.24555 0.65626
#
# Static dielectric constant tensor:
#      x y z
#    x 3.757560 0.000000 0.000000 
#    y 0.000000 3.896780 0.000000 
#    z 0.000000 0.000000 3.296670 
# 
# 
# High freq. dielectric constant tensor:
#      x y z
#    x 1.786410 0.000000 0.000000 
#    y 0.000000 1.790900 0.000000 
#    z 0.000000 0.000000 1.745460 
# 
# From -- ./inp_files/6290.got.cif
#   From: 2010.06.25/outbox.cif.g09.slc.cpg/sg58_4_cif.got.tgz:6290.got - 2010.06.26 21:38:00.
