data_PCOD8236265
_publ_section_title
;
Structure prediction by ZEFSAII (Michael W. Deem and Ramdas Pophale) SiO2 
 PCOD8236265
Probable space group: P N N M
;
_chemical_formula_sum "Si O2"
_cell_formula_units_Z 64
_cell_length_a 21.300610
_cell_length_b 16.391088
_cell_length_c 9.225730
_cell_angle_alpha 90.000000
_cell_angle_beta 90.000000
_cell_angle_gamma 90.000000
_cell_volume 3221.072968
_symmetry_space_group_name_H-M "P N N M"
_symmetry_group_IT_number 58
_symmetry_cell_setting 'orthorhombic'
loop_
_space_group_symop_operation_xyz
x,y,z
-x,-y,z
1/2+x,1/2-y,1/2-z
1/2-x,1/2+y,1/2-z
-x,-y,-z
x,y,-z
1/2-x,1/2+y,1/2+z
1/2+x,1/2-y,1/2+z
loop_
_atom_site_type_symbol
_atom_site_label
_atom_site_fract_x
_atom_site_fract_y
_atom_site_fract_z
Si Si1 0.835145 0.872119 0.833217
Si Si2 0.172694 0.942090 0.166237
Si Si3 0.391892 0.046791 0.662370
Si Si4 0.815285 0.582883 0.333305
Si Si5 0.027694 0.665770 0.668295
Si Si6 0.368089 0.296514 0.830281
Si Si7 0.895289 0.735566 0.334106
Si Si8 0.784806 0.319483 0.162799
O O1 0.889517 0.815065 0.767088
O O2 0.772803 0.860117 0.742370
O O3 0.853761 0.966577 0.817802
O O4 0.823430 0.848692 0.000000
O O5 0.244764 0.933876 0.222764
O O6 0.126195 0.887222 0.263946
O O7 0.169421 0.912645 0.000000
O O8 0.411762 0.021700 0.500000
O O9 0.451965 0.085416 0.743483
O O10 0.338885 0.114592 0.659151
O O11 0.366234 0.967887 0.743889
O O12 0.821049 0.554902 0.500000
O O13 0.833805 0.678231 0.315120
O O14 0.034047 0.643572 0.500000
O O15 0.069837 0.744903 0.705938
O O16 0.956862 0.685985 0.713866
O O17 0.307167 0.258849 0.752146
O O18 0.355071 0.301173 0.000000
O O19 0.902551 0.764645 0.500000
O O20 0.765624 0.292449 0.000000
#
# Coordination Sequence:
#
# PCOD8236265 Si02
#       8
#     8   8   8   8   8   8   8   8
#     4  11  22  36  56  82 112 145 181 231 287 336
#     4  10  21  36  55  83 116 145 180 229 287 346
#     4  10  20  33  55  85 113 146 183 226 275 326
#     4  10  20  36  57  81 113 147 181 225 279 339
#     4   9  20  39  58  79 111 150 195 234 274 331
#     4  10  20  34  57  83 108 143 187 236 281 327
#     4  10  22  39  59  81 108 151 195 233 278 333
#     4  10  19  33  54  80 111 145 181 221 276 340
#
# _framework density 19.869154999999999
#
# number of rings (size 3 to 8) (size 9 to 14) (size 15 to 20)
#    0.000    2.000    1.250    2.250    0.000    5.500 
#    0.000    3.125    0.000    3.750    0.000    0.000 
#    0.000    0.000    0.000    0.000    0.000    0.000 
#
# Total GULP energy -793758.518849 kJ/mol
# GULP energy per Si atom -12402.476857 kJ/mol
# Density = 1.982393 g / cm^3
# Si number density = 19.869155 Si / 1000 Ang^3
#
#
#
# Elastic Constant Matrix: (Units=GPa)
#
#
# Indices 1 2 3 4 5 6 
#
# 1 40.6315 4.4275 16.4349 0.0000 0.0000 0.0000
# 2 4.4275 80.1128 40.4033 0.0000 0.0000 0.0000
# 3 16.4349 40.4033 100.6580 0.0000 0.0000 0.0000
# 4 0.0000 0.0000 0.0000 38.4271 0.0000 0.0000
# 5 0.0000 0.0000 0.0000 0.0000 27.1773 0.0000
# 6 0.0000 0.0000 0.0000 0.0000 0.0000 20.1861
#
#
#
# Elastic Compliance Matrix: (Units=1/GPa)
#
#
# Indices 1 2 3 4 5 6 
#
# 1 0.026403 0.000896 -0.004671 0.000000 0.000000 0.000000
# 2 0.000896 0.015681 -0.006441 0.000000 0.000000 0.000000
# 3 -0.004671 -0.006441 0.013282 0.000000 0.000000 0.000000
# 4 0.000000 0.000000 0.000000 0.026023 0.000000 0.000000
# 5 0.000000 0.000000 0.000000 0.000000 0.036795 0.000000
# 6 0.000000 0.000000 0.000000 0.000000 0.000000 0.049539
#
#
# Mechanical properties :
#
#
# Convention : Reuss Voigt Hill
#
# Bulk Modulus (GPa) = 28.62321 38.21483 33.41902
# Shear Modulus (GPa) = 25.02507 27.83388 26.42947
#
# Velocity S-wave (km/s) = 3.55278 3.74686 3.65111
# Velocity P-wave (km/s) = 5.59167 6.16390 5.88475
#
# Compressibility (1/GPa) = 0.03493668
#
# Stress axis : x y z
#
# Youngs Moduli (GPa) = 37.87440 63.77122 75.28732
#
# Poissons Ratio (x) = -0.05717 0.35165
# Poissons Ratio (y) = -0.03395 0.48490
# Poissons Ratio (z) = 0.17690 0.41073
#
# Static dielectric constant tensor:
#      x y z
#    x 3.454960 0.000000 0.000000 
#    y 0.000000 3.611960 0.000000 
#    z 0.000000 0.000000 3.723350 
# 
# 
# High freq. dielectric constant tensor:
#      x y z
#    x 1.756050 0.000000 0.000000 
#    y 0.000000 1.777520 0.000000 
#    z 0.000000 0.000000 1.777140 
# 
# From -- ./inp_files/9329.got.cif
#   From: 2010.06.25/outbox.cif.g09.slc.cpg/sg58_5_cif.got.tgz:9329.got - 2010.06.26 21:38:00.
