data_PCOD8236046
_publ_section_title
;
Structure prediction by ZEFSAII (Michael W. Deem and Ramdas Pophale) SiO2 
 PCOD8236046
Probable space group: P N N M
;
_chemical_formula_sum "Si O2"
_cell_formula_units_Z 48
_cell_length_a 20.041590
_cell_length_b 14.487820
_cell_length_c 9.320457
_cell_angle_alpha 90.000000
_cell_angle_beta 90.000000
_cell_angle_gamma 90.000000
_cell_volume 2706.278093
_symmetry_space_group_name_H-M "P N N M"
_symmetry_group_IT_number 58
_symmetry_cell_setting 'orthorhombic'
loop_
_space_group_symop_operation_xyz
x,y,z
-x,-y,z
1/2+x,1/2-y,1/2-z
1/2-x,1/2+y,1/2-z
-x,-y,-z
x,y,-z
1/2-x,1/2+y,1/2+z
1/2+x,1/2-y,1/2+z
loop_
_atom_site_type_symbol
_atom_site_label
_atom_site_fract_x
_atom_site_fract_y
_atom_site_fract_z
Si Si1 0.023049 0.784144 0.833966
Si Si2 0.200683 0.006123 0.336030
Si Si3 0.815419 0.395050 0.332846
Si Si4 0.653736 0.689642 0.836225
Si Si5 0.553724 0.423595 0.833770
Si Si6 0.947642 0.423650 0.165682
O O1 0.090907 0.823178 0.766545
O O2 0.017654 0.674824 0.809068
O O3 0.959686 0.831112 0.757589
O O4 0.022796 0.810496 0.000000
O O5 0.219172 0.030587 0.500000
O O6 0.204239 0.895479 0.310914
O O7 0.251239 0.055561 0.230620
O O8 0.126958 0.040403 0.297303
O O9 0.819829 0.417673 0.500000
O O10 0.808208 0.285346 0.303835
O O11 0.881445 0.435063 0.259199
O O12 0.626898 0.687486 0.000000
O O13 0.500000 0.500000 0.786918
O O14 0.545900 0.398762 0.000000
O O15 0.000000 0.500000 0.217317
O O16 0.927433 0.437452 0.000000
#
# Coordination Sequence:
#
# PCOD8236046 Si02
#       6
#     8   8   8   8   8   8
#     4  10  19  31  53  83 108 133 171 224 268 304
#     4  10  20  36  57  76 104 147 183 214 260 325
#     4  10  21  36  56  82 109 136 176 229 271 308
#     4   9  18  36  57  74 100 144 181 208 260 325
#     4  10  19  34  55  78 106 142 180 212 259 327
#     4   9  19  38  60  79 105 144 183 214 259 326
#
# _framework density 17.736536000000001
#
# number of rings (size 3 to 8) (size 9 to 14) (size 15 to 20)
#    0.000    2.333    1.667    1.000    0.000    3.333 
#    3.000    0.000    0.000    0.000    0.000    0.000 
#    0.000    0.000    0.000    0.000    0.000    0.000 
#
# Total GULP energy -595304.467309 kJ/mol
# GULP energy per Si atom -12402.176402 kJ/mol
# Density = 1.769617 g / cm^3
# Si number density = 17.736536 Si / 1000 Ang^3
#
#
#
# Elastic Constant Matrix: (Units=GPa)
#
#
# Indices 1 2 3 4 5 6 
#
# 1 112.9430 70.2266 66.2928 0.0000 0.0000 0.0000
# 2 70.2266 106.5338 60.7993 0.0000 0.0000 0.0000
# 3 66.2928 60.7993 93.9926 0.0000 0.0000 0.0000
# 4 0.0000 0.0000 0.0000 30.1489 0.0000 0.0000
# 5 0.0000 0.0000 0.0000 0.0000 33.1312 0.0000
# 6 0.0000 0.0000 0.0000 0.0000 0.0000 30.3014
#
#
#
# Elastic Compliance Matrix: (Units=1/GPa)
#
#
# Indices 1 2 3 4 5 6 
#
# 1 0.018162 -0.007390 -0.008029 0.000000 0.000000 0.000000
# 2 -0.007390 0.017886 -0.006358 0.000000 0.000000 0.000000
# 3 -0.008029 -0.006358 0.020415 0.000000 0.000000 0.000000
# 4 0.000000 0.000000 0.000000 0.033169 0.000000 0.000000
# 5 0.000000 0.000000 0.000000 0.000000 0.030183 0.000000
# 6 0.000000 0.000000 0.000000 0.000000 0.000000 0.033002
#
#
# Mechanical properties :
#
#
# Convention : Reuss Voigt Hill
#
# Bulk Modulus (GPa) = 77.46531 78.67854 78.07193
# Shear Modulus (GPa) = 24.91606 26.45969 25.68787
#
# Velocity S-wave (km/s) = 3.75211 3.86660 3.80979
# Velocity P-wave (km/s) = 7.90832 8.02434 7.96654
#
# Compressibility (1/GPa) = 0.01290900
#
# Stress axis : x y z
#
# Youngs Moduli (GPa) = 55.06065 55.90814 48.98385
#
# Poissons Ratio (x) = 0.41315 0.39331
# Poissons Ratio (y) = 0.40688 0.31144
# Poissons Ratio (z) = 0.44210 0.35546
#
# Static dielectric constant tensor:
#      x y z
#    x 3.093730 0.000000 0.000000 
#    y 0.000000 3.466590 0.000000 
#    z 0.000000 0.000000 3.332540 
# 
# 
# High freq. dielectric constant tensor:
#      x y z
#    x 1.667470 0.000000 0.000000 
#    y 0.000000 1.692650 0.000000 
#    z 0.000000 0.000000 1.690160 
# 
# From -- ./inp_files/5818.got.cif
#   From: 2010.06.25/outbox.cif.g09.slc.cpg/sg58_3_cif.got.tgz:5818.got - 2010.06.26 21:38:00.
