data_PCOD8236245
_publ_section_title
;
Structure prediction by ZEFSAII (Michael W. Deem and Ramdas Pophale) SiO2 
 PCOD8236245
Probable space group: P N N M
;
_chemical_formula_sum "Si O2"
_cell_formula_units_Z 64
_cell_length_a 35.118921
_cell_length_b 11.031679
_cell_length_c 9.049650
_cell_angle_alpha 90.000000
_cell_angle_beta 90.000000
_cell_angle_gamma 90.000000
_cell_volume 3506.021406
_symmetry_space_group_name_H-M "P N N M"
_symmetry_group_IT_number 58
_symmetry_cell_setting 'orthorhombic'
loop_
_space_group_symop_operation_xyz
x,y,z
-x,-y,z
1/2+x,1/2-y,1/2-z
1/2-x,1/2+y,1/2-z
-x,-y,-z
x,y,-z
1/2-x,1/2+y,1/2+z
1/2+x,1/2-y,1/2+z
loop_
_atom_site_type_symbol
_atom_site_label
_atom_site_fract_x
_atom_site_fract_y
_atom_site_fract_z
Si Si1 0.571074 0.258906 0.329850
Si Si2 0.269014 0.867596 0.669251
Si Si3 0.043021 0.014640 0.331524
Si Si4 0.354229 0.128591 0.825478
Si Si5 0.143869 0.387872 0.832864
Si Si6 0.070668 0.752999 0.330911
Si Si7 0.504748 0.140345 0.836017
Si Si8 0.225115 0.647446 0.824042
O O1 0.560910 0.263595 0.500000
O O2 0.566199 0.390556 0.263251
O O3 0.614552 0.220190 0.300763
O O4 0.542251 0.164377 0.257274
O O5 0.255365 0.853565 0.500000
O O6 0.313573 0.838456 0.685660
O O7 0.249799 0.760858 0.765211
O O8 0.260914 0.009124 0.721399
O O9 0.040545 0.058795 0.500000
O O10 0.068385 0.896052 0.314533
O O11 0.000000 0.000000 0.270017
O O12 0.389392 0.208823 0.763043
O O13 0.316841 0.170340 0.738889
O O14 0.364521 0.990725 0.787213
O O15 0.347417 0.144064 0.000000
O O16 0.138473 0.439083 0.000000
O O17 0.070408 0.708581 0.500000
O O18 0.032837 0.695589 0.255956
O O19 0.500000 0.000000 0.850778
O O20 0.509408 0.199313 0.000000
O O21 0.223909 0.654187 0.000000
#
# Coordination Sequence:
#
# PCOD8236245 Si02
#       8
#     8   8   8   8   8   8   8   8
#     4  11  22  35  52  77 110 141 176 223 276 328
#     4   9  19  38  61  83 113 150 187 228 272 330
#     4  10  19  36  57  71  99 145 187 228 271 317
#     4  10  19  34  59  85 110 140 181 226 270 324
#     4   9  20  38  56  78 114 147 176 223 277 322
#     4   9  18  33  52  77 104 135 178 227 270 310
#     4  10  19  33  54  77 102 135 179 225 265 314
#     4  10  21  38  60  88 120 150 183 227 282 337
#
# _framework density 18.254311000000001
#
# number of rings (size 3 to 8) (size 9 to 14) (size 15 to 20)
#    0.000    2.250    1.250    2.625    0.000    5.000 
#    2.250    2.500    0.000    0.000    0.000    0.000 
#    0.000    0.000    0.000    0.000    0.000    0.000 
#
# Total GULP energy -793221.545817 kJ/mol
# GULP energy per Si atom -12394.086653 kJ/mol
# Density = 1.821276 g / cm^3
# Si number density = 18.254311 Si / 1000 Ang^3
#
#
#
# Elastic Constant Matrix: (Units=GPa)
#
#
# Indices 1 2 3 4 5 6 
#
# 1 112.6647 63.5797 43.8783 0.0000 0.0000 0.0000
# 2 63.5797 108.8798 43.8848 0.0000 0.0000 0.0000
# 3 43.8783 43.8848 68.9681 0.0000 0.0000 0.0000
# 4 0.0000 0.0000 0.0000 20.7628 0.0000 0.0000
# 5 0.0000 0.0000 0.0000 0.0000 23.7689 0.0000
# 6 0.0000 0.0000 0.0000 0.0000 0.0000 34.7775
#
#
#
# Elastic Compliance Matrix: (Units=1/GPa)
#
#
# Indices 1 2 3 4 5 6 
#
# 1 0.014484 -0.006380 -0.005155 0.000000 0.000000 0.000000
# 2 -0.006380 0.015163 -0.005589 0.000000 0.000000 0.000000
# 3 -0.005155 -0.005589 0.021336 0.000000 0.000000 0.000000
# 4 0.000000 0.000000 0.000000 0.048163 0.000000 0.000000
# 5 0.000000 0.000000 0.000000 0.000000 0.042072 0.000000
# 6 0.000000 0.000000 0.000000 0.000000 0.000000 0.028754
#
#
# Mechanical properties :
#
#
# Convention : Reuss Voigt Hill
#
# Bulk Modulus (GPa) = 59.75970 65.91091 62.83530
# Shear Modulus (GPa) = 23.83240 25.13981 24.48610
#
# Velocity S-wave (km/s) = 3.61720 3.71509 3.66647
# Velocity P-wave (km/s) = 7.08900 7.38836 7.24023
#
# Compressibility (1/GPa) = 0.01673369
#
# Stress axis : x y z
#
# Youngs Moduli (GPa) = 69.04129 65.95122 46.86977
#
# Poissons Ratio (x) = 0.42077 0.24163
# Poissons Ratio (y) = 0.44048 0.26196
# Poissons Ratio (z) = 0.35593 0.36861
#
# Static dielectric constant tensor:
#      x y z
#    x 3.461140 0.000000 0.000000 
#    y 0.000000 3.362860 0.000000 
#    z 0.000000 0.000000 3.317200 
# 
# 
# High freq. dielectric constant tensor:
#      x y z
#    x 1.710100 0.000000 0.000000 
#    y 0.000000 1.710060 0.000000 
#    z 0.000000 0.000000 1.693480 
# 
# From -- ./inp_files/11080.got.cif
#   From: 2010.06.25/outbox.cif.g09.slc.cpg/sg58_6_cif.got.tgz:11080.got - 2010.06.26 21:38:00.
