data_PCOD8236194
_publ_section_title
;
Structure prediction by ZEFSAII (Michael W. Deem and Ramdas Pophale) SiO2 
 PCOD8236194
Probable space group: P N N M
;
_chemical_formula_sum "Si O2"
_cell_formula_units_Z 64
_cell_length_a 12.045449
_cell_length_b 11.041440
_cell_length_c 23.875736
_cell_angle_alpha 90.000000
_cell_angle_beta 90.000000
_cell_angle_gamma 90.000000
_cell_volume 3175.451457
_symmetry_space_group_name_H-M "P N N M"
_symmetry_group_IT_number 58
_symmetry_cell_setting 'orthorhombic'
loop_
_space_group_symop_operation_xyz
x,y,z
-x,-y,z
1/2+x,1/2-y,1/2-z
1/2-x,1/2+y,1/2-z
-x,-y,-z
x,y,-z
1/2-x,1/2+y,1/2+z
1/2+x,1/2-y,1/2+z
loop_
_atom_site_type_symbol
_atom_site_label
_atom_site_fract_x
_atom_site_fract_y
_atom_site_fract_z
Si Si1 0.315552 0.532329 0.244597
Si Si2 0.528231 0.693900 0.248929
Si Si3 0.100147 0.586268 0.318285
Si Si4 0.675513 0.164233 0.437244
Si Si5 0.250185 0.067739 0.620793
Si Si6 0.370680 0.160626 0.937969
Si Si7 0.544783 0.373007 0.936315
Si Si8 0.479274 0.137844 0.355417
O O1 0.404572 0.641388 0.241895
O O2 0.379781 0.408991 0.259047
O O3 0.217757 0.553537 0.289584
O O4 0.258081 0.522895 0.184577
O O5 0.565467 0.774888 0.195641
O O6 0.526252 0.779792 0.301772
O O7 0.114545 0.569521 0.385805
O O8 0.000000 0.500000 0.297835
O O9 0.632676 0.139396 0.500000
O O10 0.747561 0.285570 0.435119
O O11 0.571519 0.186618 0.397389
O O12 0.750167 0.051044 0.418159
O O13 0.151644 0.157079 0.601835
O O14 0.362367 0.144068 0.612301
O O15 0.457108 0.268218 0.930096
O O16 0.387954 0.099084 0.000000
O O17 0.500000 0.500000 0.911724
O O18 0.583179 0.390956 0.000000
O O19 0.500000 0.000000 0.336327
#
# Coordination Sequence:
#
# PCOD8236194 Si02
#       8
#     8   8   8   8   8   8   8   8
#     4  11  26  40  64  92 122 170 211 262 316 373
#     4  11  24  43  62  90 126 165 212 260 316 376
#     4  12  26  41  67  92 127 168 209 261 316 379
#     4  10  20  35  61  87 121 162 201 249 311 370
#     4  11  20  33  53  86 123 160 199 253 309 371
#     4  10  21  39  61  89 120 162 210 257 301 366
#     4  10  19  32  55  86 123 161 203 251 311 371
#     4  10  22  38  59  86 126 161 200 256 310 374
#
# _framework density 20.154613000000001
#
# number of rings (size 3 to 8) (size 9 to 14) (size 15 to 20)
#    0.000    1.375    2.500    3.000    5.250    4.000 
#    0.000    0.000    0.000    0.750    0.000    3.500 
#    0.000    0.000    0.000    0.000    0.000    0.000 
#
# Total GULP energy -793544.841425 kJ/mol
# GULP energy per Si atom -12399.138147 kJ/mol
# Density = 2.010874 g / cm^3
# Si number density = 20.154613 Si / 1000 Ang^3
#
#
#
# Elastic Constant Matrix: (Units=GPa)
#
#
# Indices 1 2 3 4 5 6 
#
# 1 137.1346 32.1717 39.1232 0.0000 0.0000 0.0000
# 2 32.1717 59.3049 20.3022 0.0000 0.0000 0.0000
# 3 39.1232 20.3022 104.5575 0.0000 0.0000 0.0000
# 4 0.0000 0.0000 0.0000 91.9816 0.0000 0.0000
# 5 0.0000 0.0000 0.0000 0.0000 34.4420 0.0000
# 6 0.0000 0.0000 0.0000 0.0000 0.0000 22.0704
#
#
#
# Elastic Compliance Matrix: (Units=1/GPa)
#
#
# Indices 1 2 3 4 5 6 
#
# 1 0.008962 -0.003978 -0.002581 0.000000 0.000000 0.000000
# 2 -0.003978 0.019828 -0.002362 0.000000 0.000000 0.000000
# 3 -0.002581 -0.002362 0.010988 0.000000 0.000000 0.000000
# 4 0.000000 0.000000 0.000000 0.010872 0.000000 0.000000
# 5 0.000000 0.000000 0.000000 0.000000 0.029034 0.000000
# 6 0.000000 0.000000 0.000000 0.000000 0.000000 0.045310
#
#
# Mechanical properties :
#
#
# Convention : Reuss Voigt Hill
#
# Bulk Modulus (GPa) = 45.58406 53.79903 49.69154
# Shear Modulus (GPa) = 33.30056 43.65880 38.47968
#
# Velocity S-wave (km/s) = 4.06920 4.65929 4.37421
# Velocity P-wave (km/s) = 6.68911 7.46300 7.08663
#
# Compressibility (1/GPa) = 0.02193749
#
# Stress axis : x y z
#
# Youngs Moduli (GPa) = 111.58694 50.43257 91.00521
#
# Poissons Ratio (x) = 0.20062 0.23487
# Poissons Ratio (y) = 0.44389 0.21492
# Poissons Ratio (z) = 0.28799 0.11911
#
# Static dielectric constant tensor:
#      x y z
#    x 3.967610 0.000000 0.000000 
#    y 0.000000 3.394360 0.000000 
#    z 0.000000 0.000000 3.828750 
# 
# 
# High freq. dielectric constant tensor:
#      x y z
#    x 1.805410 0.000000 0.000000 
#    y 0.000000 1.753540 0.000000 
#    z 0.000000 0.000000 1.798470 
# 
# From -- ./inp_files/32063.got.cif
#   From: 2010.06.25/outbox.cif.g09.slc.cpg/sg58_17_cif.got.tgz:32063.got - 2010.06.26 21:38:00.
