data_PCOD8236074
_publ_section_title
;
Structure prediction by ZEFSAII (Michael W. Deem and Ramdas Pophale) SiO2 
 PCOD8236074
Probable space group: P N N M
;
_chemical_formula_sum "Si O2"
_cell_formula_units_Z 64
_cell_length_a 21.379918
_cell_length_b 18.574279
_cell_length_c 9.469276
_cell_angle_alpha 90.000000
_cell_angle_beta 90.000000
_cell_angle_gamma 90.000000
_cell_volume 3760.406329
_symmetry_space_group_name_H-M "P N N M"
_symmetry_group_IT_number 58
_symmetry_cell_setting 'orthorhombic'
loop_
_space_group_symop_operation_xyz
x,y,z
-x,-y,z
1/2+x,1/2-y,1/2-z
1/2-x,1/2+y,1/2-z
-x,-y,-z
x,y,-z
1/2-x,1/2+y,1/2+z
1/2+x,1/2-y,1/2+z
loop_
_atom_site_type_symbol
_atom_site_label
_atom_site_fract_x
_atom_site_fract_y
_atom_site_fract_z
Si Si1 0.269908 0.630138 0.844621
Si Si2 0.361384 0.075669 0.666379
Si Si3 0.122215 0.172303 0.162557
Si Si4 0.192766 0.427117 0.164332
Si Si5 0.016624 0.582243 0.333462
Si Si6 0.917700 0.672115 0.163230
Si Si7 0.430708 0.519635 0.665829
Si Si8 0.678249 0.530471 0.158041
O O1 0.196678 0.629331 0.802703
O O2 0.311112 0.678360 0.740231
O O3 0.294654 0.549347 0.843258
O O4 0.277699 0.663735 0.000000
O O5 0.378693 0.074811 0.500000
O O6 0.419203 0.104391 0.757397
O O7 0.344849 0.995875 0.725158
O O8 0.080763 0.242753 0.194404
O O9 0.082495 0.102448 0.209572
O O10 0.139963 0.167495 0.000000
O O11 0.153017 0.355491 0.194137
O O12 0.264547 0.420414 0.221820
O O13 0.201806 0.443926 0.000000
O O14 0.022031 0.595944 0.500000
O O15 0.000000 0.500000 0.298196
O O16 0.964038 0.633862 0.270115
O O17 0.935797 0.655142 0.000000
O O18 0.500000 0.500000 0.717756
O O19 0.423137 0.507216 0.500000
O O20 0.382362 0.465420 0.741940
O O21 0.658207 0.554512 0.000000
#
# Coordination Sequence:
#
# PCOD8236074 Si02
#       8
#     8   8   8   8   8   8   8   8
#     4   8  15  28  48  71  92 116 148 193 241 282
#     4   9  16  29  50  71  91 123 165 198 233 283
#     4   9  18  31  49  73  94 123 165 201 242 296
#     4   8  14  26  46  69  90 115 152 198 236 268
#     4  11  22  32  44  71 105 132 163 206 250 287
#     4  10  19  32  51  69  91 131 172 202 237 292
#     4   9  17  30  48  70  97 125 154 195 243 287
#     4   8  14  26  45  70  92 110 144 191 232 277
#
# _framework density 17.019438000000001
#
# number of rings (size 3 to 8) (size 9 to 14) (size 15 to 20)
#    0.000    3.000    1.250    1.875    0.000    1.750 
#    0.000    2.500    2.750    0.000    0.000    0.000 
#    0.000    0.000    0.000    0.000    0.000    0.000 
#
# Total GULP energy -793216.209142 kJ/mol
# GULP energy per Si atom -12394.003268 kJ/mol
# Density = 1.698070 g / cm^3
# Si number density = 17.019438 Si / 1000 Ang^3
#
#
#
# Elastic Constant Matrix: (Units=GPa)
#
#
# Indices 1 2 3 4 5 6 
#
# 1 142.2768 37.8269 61.7338 0.0000 0.0000 0.0000
# 2 37.8269 54.9120 30.1612 0.0000 0.0000 0.0000
# 3 61.7338 30.1612 68.3605 0.0000 0.0000 0.0000
# 4 0.0000 0.0000 0.0000 13.9703 0.0000 0.0000
# 5 0.0000 0.0000 0.0000 0.0000 30.5746 0.0000
# 6 0.0000 0.0000 0.0000 0.0000 0.0000 19.8525
#
#
#
# Elastic Compliance Matrix: (Units=1/GPa)
#
#
# Indices 1 2 3 4 5 6 
#
# 1 0.011929 -0.003036 -0.009433 0.000000 0.000000 0.000000
# 2 -0.003036 0.024809 -0.008204 0.000000 0.000000 0.000000
# 3 -0.009433 -0.008204 0.026766 0.000000 0.000000 0.000000
# 4 0.000000 0.000000 0.000000 0.071581 0.000000 0.000000
# 5 0.000000 0.000000 0.000000 0.000000 0.032707 0.000000
# 6 0.000000 0.000000 0.000000 0.000000 0.000000 0.050372
#
#
# Mechanical properties :
#
#
# Convention : Reuss Voigt Hill
#
# Bulk Modulus (GPa) = 45.13056 58.33256 51.73156
# Shear Modulus (GPa) = 18.73403 21.93463 20.33433
#
# Velocity S-wave (km/s) = 3.32134 3.59388 3.46030
# Velocity P-wave (km/s) = 6.42519 7.18121 6.81369
#
# Compressibility (1/GPa) = 0.02215793
#
# Stress axis : x y z
#
# Youngs Moduli (GPa) = 83.83206 40.30870 37.36050
#
# Poissons Ratio (x) = 0.12238 0.35241
# Poissons Ratio (y) = 0.25453 0.30650
# Poissons Ratio (z) = 0.79076 0.33069
#
# Static dielectric constant tensor:
#      x y z
#    x 3.348950 0.000000 0.000000 
#    y 0.000000 2.944680 0.000000 
#    z 0.000000 0.000000 3.119240 
# 
# 
# High freq. dielectric constant tensor:
#      x y z
#    x 1.661920 0.000000 0.000000 
#    y 0.000000 1.618970 0.000000 
#    z 0.000000 0.000000 1.642160 
# 
# From -- ./inp_files/8384.got.cif
#   From: 2010.06.25/outbox.cif.g09.slc.cpg/sg58_5_cif.got.tgz:8384.got - 2010.06.26 21:38:00.
