data_PCOD8236960
_publ_section_title
;
Structure prediction by ZEFSAII (Michael W. Deem and Ramdas Pophale) SiO2 
 PCOD8236960
Probable space group: P N N M
;
_chemical_formula_sum "Si O2"
_cell_formula_units_Z 56
_cell_length_a 23.224432
_cell_length_b 9.210327
_cell_length_c 13.713874
_cell_angle_alpha 90.000000
_cell_angle_beta 90.000000
_cell_angle_gamma 90.000000
_cell_volume 2933.460912
_symmetry_space_group_name_H-M "P N N M"
_symmetry_group_IT_number 58
_symmetry_cell_setting 'orthorhombic'
loop_
_space_group_symop_operation_xyz
x,y,z
-x,-y,z
1/2+x,1/2-y,1/2-z
1/2-x,1/2+y,1/2-z
-x,-y,-z
x,y,-z
1/2-x,1/2+y,1/2+z
1/2+x,1/2-y,1/2+z
loop_
_atom_site_type_symbol
_atom_site_label
_atom_site_fract_x
_atom_site_fract_y
_atom_site_fract_z
Si Si1 0.296432 0.665737 0.192889
Si Si2 0.326484 0.379983 0.105160
Si Si3 0.111121 0.362037 0.387988
Si Si4 0.169219 0.606186 0.113299
Si Si5 0.997392 0.829678 0.611813
Si Si6 0.903051 0.337002 0.288821
Si Si7 0.802327 0.709280 0.895909
O O1 0.334450 0.524699 0.168461
O O2 0.325530 0.806817 0.143426
O O3 0.230289 0.659250 0.158506
O O4 0.303007 0.674750 0.309734
O O5 0.351961 0.236706 0.151525
O O6 0.259876 0.357777 0.090254
O O7 0.356166 0.408603 0.000000
O O8 0.113079 0.412235 0.500000
O O9 0.066548 0.230466 0.371578
O O10 0.091188 0.497393 0.323186
O O11 0.115972 0.673985 0.174937
O O12 0.159299 0.433138 0.125335
O O13 0.165580 0.654514 0.000000
O O14 0.017292 0.799519 0.500000
O O15 0.038235 0.748325 0.689405
O O16 0.000000 0.000000 0.635396
O O17 0.820939 0.782055 0.000000
#
# Coordination Sequence:
#
# PCOD8236960 Si02
#       7
#     8   8   8   8   8   8   8
#     4  11  19  36  57  83 117 160 192 234 287 348
#     4  10  20  33  52  79 115 155 188 224 284 345
#     4  11  22  35  57  89 118 148 195 245 290 347
#     4  10  21  37  57  84 120 157 193 237 290 347
#     4  10  22  40  60  86 117 151 190 239 301 359
#     4  12  21  36  59  83 118 154 192 239 292 345
#     4   9  18  34  54  79 115 153 193 238 282 339
#
# _framework density 19.09008
#
# number of rings (size 3 to 8) (size 9 to 14) (size 15 to 20)
#    0.000    1.571    2.857    4.714    0.000    2.286 
#    0.000    0.714    0.000    3.000    0.000    0.000 
#    0.000    0.000    0.000    0.000    0.000    0.000 
#
# Total GULP energy -694070.429637 kJ/mol
# GULP energy per Si atom -12394.114815 kJ/mol
# Density = 1.904663 g / cm^3
# Si number density = 19.090080 Si / 1000 Ang^3
#
#
#
# Elastic Constant Matrix: (Units=GPa)
#
#
# Indices 1 2 3 4 5 6 
#
# 1 48.0208 20.3035 40.8589 0.0000 0.0000 0.0000
# 2 20.3035 92.1439 49.2617 0.0000 0.0000 0.0000
# 3 40.8589 49.2617 165.1234 0.0000 0.0000 0.0000
# 4 0.0000 0.0000 0.0000 20.1822 0.0000 0.0000
# 5 0.0000 0.0000 0.0000 0.0000 22.8525 0.0000
# 6 0.0000 0.0000 0.0000 0.0000 0.0000 26.0780
#
#
#
# Elastic Compliance Matrix: (Units=1/GPa)
#
#
# Indices 1 2 3 4 5 6 
#
# 1 0.026983 -0.002827 -0.005833 0.000000 0.000000 0.000000
# 2 -0.002827 0.013208 -0.003241 0.000000 0.000000 0.000000
# 3 -0.005833 -0.003241 0.008466 0.000000 0.000000 0.000000
# 4 0.000000 0.000000 0.000000 0.049548 0.000000 0.000000
# 5 0.000000 0.000000 0.000000 0.000000 0.043759 0.000000
# 6 0.000000 0.000000 0.000000 0.000000 0.000000 0.038347
#
#
# Mechanical properties :
#
#
# Convention : Reuss Voigt Hill
#
# Bulk Modulus (GPa) = 40.23341 58.45959 49.34650
# Shear Modulus (GPa) = 23.54061 26.81348 25.17705
#
# Velocity S-wave (km/s) = 3.51541 3.75183 3.63554
# Velocity P-wave (km/s) = 6.13178 7.03263 6.59760
#
# Compressibility (1/GPa) = 0.02485497
#
# Stress axis : x y z
#
# Youngs Moduli (GPa) = 37.06043 75.71094 118.11398
#
# Poissons Ratio (x) = 0.21403 0.68901
# Poissons Ratio (y) = 0.10477 0.38280
# Poissons Ratio (z) = 0.21619 0.24537
#
# Static dielectric constant tensor:
#      x y z
#    x 3.342410 0.000000 0.000000 
#    y 0.000000 3.506850 0.000000 
#    z 0.000000 0.000000 3.742820 
# 
# 
# High freq. dielectric constant tensor:
#      x y z
#    x 1.719310 0.000000 0.000000 
#    y 0.000000 1.738820 0.000000 
#    z 0.000000 0.000000 1.740750 
# 
# From -- ./inp_files/23239.got.cif
#   From: 2010.06.25/outbox.cif.g09.slc.cpg/sg58_12_cif.got.tgz:23239.got - 2010.06.26 21:38:00.
