data_PCOD8236593
_publ_section_title
;
Structure prediction by ZEFSAII (Michael W. Deem and Ramdas Pophale) SiO2 
 PCOD8236593
Probable space group: P N N M
;
_chemical_formula_sum "Si O2"
_cell_formula_units_Z 64
_cell_length_a 12.808408
_cell_length_b 27.676321
_cell_length_c 9.144595
_cell_angle_alpha 90.000000
_cell_angle_beta 90.000000
_cell_angle_gamma 90.000000
_cell_volume 3241.663927
_symmetry_space_group_name_H-M "P N N M"
_symmetry_group_IT_number 58
_symmetry_cell_setting 'orthorhombic'
loop_
_space_group_symop_operation_xyz
x,y,z
-x,-y,z
1/2+x,1/2-y,1/2-z
1/2-x,1/2+y,1/2-z
-x,-y,-z
x,y,-z
1/2-x,1/2+y,1/2+z
1/2+x,1/2-y,1/2+z
loop_
_atom_site_type_symbol
_atom_site_label
_atom_site_fract_x
_atom_site_fract_y
_atom_site_fract_z
Si Si1 0.153828 0.404832 0.841242
Si Si2 0.657968 0.615882 0.331501
Si Si3 0.549842 0.948290 0.662985
Si Si4 0.259279 0.087614 0.828364
Si Si5 0.034075 0.053312 0.826432
Si Si6 0.733500 0.723869 0.328512
Si Si7 0.867049 0.313040 0.673092
Si Si8 0.922856 0.696351 0.161626
O O1 0.253567 0.417520 0.743638
O O2 0.154524 0.347863 0.867197
O O3 0.043488 0.417105 0.763908
O O4 0.162400 0.431507 0.000000
O O5 0.670422 0.604189 0.500000
O O6 0.547127 0.595085 0.274950
O O7 0.673644 0.672864 0.301783
O O8 0.576565 0.928614 0.500000
O O9 0.653498 0.947233 0.759444
O O10 0.500000 0.000000 0.654800
O O11 0.146791 0.070919 0.765140
O O12 0.286209 0.143521 0.789718
O O13 0.262930 0.079433 0.000000
O O14 0.039551 0.051108 0.000000
O O15 0.000000 0.000000 0.766531
O O16 0.733833 0.736554 0.500000
O O17 0.671552 0.762468 0.234425
O O18 0.853070 0.729031 0.270321
O O19 0.886284 0.309315 0.500000
O O20 0.974430 0.322591 0.757429
O O21 0.947063 0.720173 0.000000
#
# Coordination Sequence:
#
# PCOD8236593 Si02
#       8
#     8   8   8   8   8   8   8   8
#     4   9  18  33  54  79 109 145 182 226 285 343
#     4   9  19  35  57  83 111 147 192 241 287 340
#     4  10  21  36  55  82 116 150 184 232 293 355
#     4  10  22  38  58  86 117 150 194 244 290 348
#     4   9  19  37  59  83 114 152 193 239 293 346
#     4  10  21  36  56  85 116 151 196 243 295 356
#     4  11  22  36  56  84 117 151 192 242 294 356
#     4  10  19  35  57  79 109 149 187 233 292 349
#
# _framework density 19.742947999999998
#
# number of rings (size 3 to 8) (size 9 to 14) (size 15 to 20)
#    0.000    2.250    1.250    1.125    1.750    3.250 
#    0.000    3.125    0.000    0.750    0.000    0.000 
#    0.000    0.000    0.000    0.000    0.000    0.000 
#
# Total GULP energy -792866.724679 kJ/mol
# GULP energy per Si atom -12388.542573 kJ/mol
# Density = 1.969801 g / cm^3
# Si number density = 19.742948 Si / 1000 Ang^3
#
#
#
# Elastic Constant Matrix: (Units=GPa)
#
#
# Indices 1 2 3 4 5 6 
#
# 1 172.9271 53.1176 55.4607 0.0000 0.0000 0.0000
# 2 53.1176 72.4005 33.0075 0.0000 0.0000 0.0000
# 3 55.4607 33.0075 74.7248 0.0000 0.0000 0.0000
# 4 0.0000 0.0000 0.0000 -75.8229 0.0000 0.0000
# 5 0.0000 0.0000 0.0000 0.0000 40.3607 0.0000
# 6 0.0000 0.0000 0.0000 0.0000 0.0000 24.8073
#
#
#
# Elastic Compliance Matrix: (Units=1/GPa)
#
#
# Indices 1 2 3 4 5 6 
#
# 1 0.008504 -0.004209 -0.004452 0.000000 0.000000 0.000000
# 2 -0.004209 0.019378 -0.005436 0.000000 0.000000 0.000000
# 3 -0.004452 -0.005436 0.019088 0.000000 0.000000 0.000000
# 4 0.000000 0.000000 0.000000 -0.013189 0.000000 0.000000
# 5 0.000000 0.000000 0.000000 0.000000 0.024777 0.000000
# 6 0.000000 0.000000 0.000000 0.000000 0.000000 0.040311
#
#
# Mechanical properties :
#
#
# Convention : Reuss Voigt Hill
#
# Bulk Modulus (GPa) = 53.26010 67.02488 60.14249
# Shear Modulus (GPa) = 37.50351 9.76680 23.63516
#
# Velocity S-wave (km/s) = 4.36316 2.22659 3.46373
# Velocity P-wave (km/s) = 7.24004 6.37438 6.82096
#
# Compressibility (1/GPa) = 0.01877578
#
# Stress axis : x y z
#
# Youngs Moduli (GPa) = 117.59839 51.60418 52.38912
#
# Poissons Ratio (x) = 0.21720 0.23324
# Poissons Ratio (y) = 0.49497 0.28478
# Poissons Ratio (z) = 0.52356 0.28051
#
# Static dielectric constant tensor:
#      x y z
#    x 3.927860 0.000000 0.000000 
#    y 0.000000 2.990300 0.000000 
#    z 0.000000 0.000000 3.718070 
# 
# 
# High freq. dielectric constant tensor:
#      x y z
#    x 1.775170 0.000000 0.000000 
#    y 0.000000 1.759490 0.000000 
#    z 0.000000 0.000000 1.755400 
# 
# From -- ./inp_files/4760.got.cif
#   From: 2010.06.25/outbox.cif.g09.slc.cpg/sg58_3_cif.got.tgz:4760.got - 2010.06.26 21:38:00.
