data_PCOD8236571
_publ_section_title
;
Structure prediction by ZEFSAII (Michael W. Deem and Ramdas Pophale) SiO2 
 PCOD8236571
Probable space group: P N N M
;
_chemical_formula_sum "Si O2"
_cell_formula_units_Z 48
_cell_length_a 19.324372
_cell_length_b 5.073612
_cell_length_c 26.905709
_cell_angle_alpha 90.000000
_cell_angle_beta 90.000000
_cell_angle_gamma 90.000000
_cell_volume 2637.953172
_symmetry_space_group_name_H-M "P N N M"
_symmetry_group_IT_number 58
_symmetry_cell_setting 'orthorhombic'
loop_
_space_group_symop_operation_xyz
x,y,z
-x,-y,z
1/2+x,1/2-y,1/2-z
1/2-x,1/2+y,1/2-z
-x,-y,-z
x,y,-z
1/2-x,1/2+y,1/2+z
1/2+x,1/2-y,1/2+z
loop_
_atom_site_type_symbol
_atom_site_label
_atom_site_fract_x
_atom_site_fract_y
_atom_site_fract_z
Si Si1 0.222022 0.440944 0.722065
Si Si2 0.924616 0.557524 0.756911
Si Si3 0.534861 0.246779 0.556451
Si Si4 0.805075 0.626269 0.943150
Si Si5 0.207578 0.904536 0.118687
Si Si6 0.074340 0.941371 0.178148
O O1 0.259429 0.709210 0.739208
O O2 0.139168 0.487807 0.719368
O O3 0.245418 0.358787 0.667053
O O4 0.917894 0.856436 0.775835
O O5 0.000000 0.500000 0.731417
O O6 0.916585 0.357027 0.802997
O O7 0.500000 0.500000 0.582261
O O8 0.507889 0.242468 0.500000
O O9 0.616900 0.229800 0.558414
O O10 0.500000 0.000000 0.585148
O O11 0.794196 0.354376 0.914750
O O12 0.762048 0.855996 0.914809
O O13 0.779573 0.593458 0.000000
O O14 0.130765 0.990824 0.135818
O O15 0.000000 0.000000 0.153754
#
# Coordination Sequence:
#
# PCOD8236571 Si02
#       6
#     8   8   8   8   8   8
#     4  12  21  36  58  84 113 141 176 225 269 332
#     4  10  19  35  54  78 112 145 172 213 267 320
#     4   9  17  31  49  65  86 125 176 227 273 302
#     4  11  24  38  51  71 103 141 187 239 277 314
#     4  12  22  35  56  77 105 142 187 224 278 327
#     4  10  20  33  51  76 107 141 181 222 264 317
#
# _framework density 18.195924000000002
#
# number of rings (size 3 to 8) (size 9 to 14) (size 15 to 20)
#    0.000    1.333    3.333    3.500    0.000    4.667 
#    0.000    0.000    0.000    0.500    0.000    0.000 
#    0.000    4.000    0.000    0.000    0.000    0.000 
#
# Total GULP energy -594957.545603 kJ/mol
# GULP energy per Si atom -12394.948867 kJ/mol
# Density = 1.815451 g / cm^3
# Si number density = 18.195924 Si / 1000 Ang^3
#
#
#
# Elastic Constant Matrix: (Units=GPa)
#
#
# Indices 1 2 3 4 5 6 
#
# 1 94.1784 19.6424 43.3962 0.0000 0.0000 0.0000
# 2 19.6424 119.1069 29.3050 0.0000 0.0000 0.0000
# 3 43.3962 29.3050 97.9691 0.0000 0.0000 0.0000
# 4 0.0000 0.0000 0.0000 17.3149 0.0000 0.0000
# 5 0.0000 0.0000 0.0000 0.0000 11.0165 0.0000
# 6 0.0000 0.0000 0.0000 0.0000 0.0000 18.1192
#
#
#
# Elastic Compliance Matrix: (Units=1/GPa)
#
#
# Indices 1 2 3 4 5 6 
#
# 1 0.013413 -0.000810 -0.005699 0.000000 0.000000 0.000000
# 2 -0.000810 0.009112 -0.002367 0.000000 0.000000 0.000000
# 3 -0.005699 -0.002367 0.013440 0.000000 0.000000 0.000000
# 4 0.000000 0.000000 0.000000 0.057754 0.000000 0.000000
# 5 0.000000 0.000000 0.000000 0.000000 0.090773 0.000000
# 6 0.000000 0.000000 0.000000 0.000000 0.000000 0.055190
#
#
# Mechanical properties :
#
#
# Convention : Reuss Voigt Hill
#
# Bulk Modulus (GPa) = 54.90598 55.10462 55.00530
# Shear Modulus (GPa) = 18.97506 23.88419 21.42962
#
# Velocity S-wave (km/s) = 3.23277 3.62693 3.43551
# Velocity P-wave (km/s) = 6.64641 6.92021 6.78469
#
# Compressibility (1/GPa) = 0.01821295
#
# Stress axis : x y z
#
# Youngs Moduli (GPa) = 74.55350 109.74898 74.40581
#
# Poissons Ratio (x) = 0.08887 0.42406
# Poissons Ratio (y) = 0.06037 0.17611
# Poissons Ratio (z) = 0.42490 0.25976
#
# Static dielectric constant tensor:
#      x y z
#    x 3.266520 0.000000 0.000000 
#    y 0.000000 3.648430 0.000000 
#    z 0.000000 0.000000 3.216470 
# 
# 
# High freq. dielectric constant tensor:
#      x y z
#    x 1.663850 0.000000 0.000000 
#    y 0.000000 1.735310 0.000000 
#    z 0.000000 0.000000 1.686710 
# 
# From -- ./inp_files/32362.got.cif
#   From: 2010.06.25/outbox.cif.g09.slc.cpg/sg58_17_cif.got.tgz:32362.got - 2010.06.26 21:38:00.
