data_PCOD8236407
_publ_section_title
;
Structure prediction by ZEFSAII (Michael W. Deem and Ramdas Pophale) SiO2 
 PCOD8236407
Probable space group: P N N M
;
_chemical_formula_sum "Si O2"
_cell_formula_units_Z 48
_cell_length_a 9.716392
_cell_length_b 18.149798
_cell_length_c 14.355947
_cell_angle_alpha 90.000000
_cell_angle_beta 90.000000
_cell_angle_gamma 90.000000
_cell_volume 2531.679179
_symmetry_space_group_name_H-M "P N N M"
_symmetry_group_IT_number 58
_symmetry_cell_setting 'orthorhombic'
loop_
_space_group_symop_operation_xyz
x,y,z
-x,-y,z
1/2+x,1/2-y,1/2-z
1/2-x,1/2+y,1/2-z
-x,-y,-z
x,y,-z
1/2-x,1/2+y,1/2+z
1/2+x,1/2-y,1/2+z
loop_
_atom_site_type_symbol
_atom_site_label
_atom_site_fract_x
_atom_site_fract_y
_atom_site_fract_z
Si Si1 0.735178 0.381868 0.104121
Si Si2 0.030685 0.083092 0.247608
Si Si3 0.210869 0.777632 0.898841
Si Si4 0.971452 0.584227 0.102207
Si Si5 0.252068 0.340070 0.790289
Si Si6 0.395733 0.707554 0.391847
O O1 0.638697 0.429417 0.169796
O O2 0.695922 0.295703 0.103184
O O3 0.889786 0.381940 0.143990
O O4 0.729104 0.416226 0.000000
O O5 0.100043 0.129542 0.163396
O O6 0.907063 0.128839 0.297304
O O7 0.000000 0.000000 0.210900
O O8 0.272774 0.830394 0.820182
O O9 0.048747 0.757872 0.883140
O O10 0.226523 0.816621 0.000000
O O11 0.847312 0.596295 0.173198
O O12 0.000000 0.500000 0.088344
O O13 0.936203 0.619569 0.000000
O O14 0.216910 0.263779 0.845868
O O15 0.355169 0.693422 0.500000
#
# Coordination Sequence:
#
# PCOD8236407 Si02
#       6
#     8   8   8   8   8   8
#     4  10  19  34  54  77 115 152 181 225 285 344
#     4  11  24  38  55  88 125 153 184 237 305 350
#     4   9  18  34  56  80 107 142 186 234 281 330
#     4  10  20  34  56  83 111 148 189 230 281 342
#     4  11  20  35  61  85 108 149 195 242 280 337
#     4  10  20  37  61  85 109 147 200 242 275 335
#
# _framework density 18.959748999999999
#
# number of rings (size 3 to 8) (size 9 to 14) (size 15 to 20)
#    0.000    1.833    3.333    1.500    0.000    2.000 
#    0.000    0.000    0.000    0.500    0.000    0.000 
#    0.000    0.000    0.000    0.000    0.000    0.000 
#
# Total GULP energy -594654.363565 kJ/mol
# GULP energy per Si atom -12388.632574 kJ/mol
# Density = 1.891660 g / cm^3
# Si number density = 18.959749 Si / 1000 Ang^3
#
#
#
# Elastic Constant Matrix: (Units=GPa)
#
#
# Indices 1 2 3 4 5 6 
#
# 1 64.1934 25.2642 56.4711 0.0000 0.0000 0.0000
# 2 25.2642 84.6611 34.3334 0.0000 0.0000 0.0000
# 3 56.4711 34.3334 124.8518 0.0000 0.0000 0.0000
# 4 0.0000 0.0000 0.0000 28.2644 0.0000 0.0000
# 5 0.0000 0.0000 0.0000 0.0000 33.2044 0.0000
# 6 0.0000 0.0000 0.0000 0.0000 0.0000 26.5136
#
#
#
# Elastic Compliance Matrix: (Units=1/GPa)
#
#
# Indices 1 2 3 4 5 6 
#
# 1 0.026744 -0.003461 -0.011145 0.000000 0.000000 0.000000
# 2 -0.003461 0.013742 -0.002214 0.000000 0.000000 0.000000
# 3 -0.011145 -0.002214 0.013659 0.000000 0.000000 0.000000
# 4 0.000000 0.000000 0.000000 0.035380 0.000000 0.000000
# 5 0.000000 0.000000 0.000000 0.000000 0.030117 0.000000
# 6 0.000000 0.000000 0.000000 0.000000 0.000000 0.037717
#
#
# Mechanical properties :
#
#
# Convention : Reuss Voigt Hill
#
# Bulk Modulus (GPa) = 48.76482 56.20485 52.48484
# Shear Modulus (GPa) = 25.27382 28.10564 26.68973
#
# Velocity S-wave (km/s) = 3.65502 3.85435 3.75601
# Velocity P-wave (km/s) = 6.60214 7.03681 6.82294
#
# Compressibility (1/GPa) = 0.02050659
#
# Stress axis : x y z
#
# Youngs Moduli (GPa) = 37.39138 72.76766 73.21186
#
# Poissons Ratio (x) = 0.25187 0.81592
# Poissons Ratio (y) = 0.12942 0.16206
# Poissons Ratio (z) = 0.41671 0.16107
#
# Static dielectric constant tensor:
#      x y z
#    x 4.467620 0.000000 0.000000 
#    y 0.000000 3.586160 0.000000 
#    z 0.000000 0.000000 3.582050 
# 
# 
# High freq. dielectric constant tensor:
#      x y z
#    x 1.718240 0.000000 0.000000 
#    y 0.000000 1.729630 0.000000 
#    z 0.000000 0.000000 1.735380 
# 
# From -- ./inp_files/19803.got.cif
#   From: 2010.06.25/outbox.cif.g09.slc.cpg/sg58_10_cif.got.tgz:19803.got - 2010.06.26 21:38:00.
