data_PCOD8236461
_publ_section_title
;
Structure prediction by ZEFSAII (Michael W. Deem and Ramdas Pophale) SiO2 
 PCOD8236461
Probable space group: P N N M
;
_chemical_formula_sum "Si O2"
_cell_formula_units_Z 64
_cell_length_a 15.215561
_cell_length_b 11.930214
_cell_length_c 17.907875
_cell_angle_alpha 90.000000
_cell_angle_beta 90.000000
_cell_angle_gamma 90.000000
_cell_volume 3250.725198
_symmetry_space_group_name_H-M "P N N M"
_symmetry_group_IT_number 58
_symmetry_cell_setting 'orthorhombic'
loop_
_space_group_symop_operation_xyz
x,y,z
-x,-y,z
1/2+x,1/2-y,1/2-z
1/2-x,1/2+y,1/2-z
-x,-y,-z
x,y,-z
1/2-x,1/2+y,1/2+z
1/2+x,1/2-y,1/2+z
loop_
_atom_site_type_symbol
_atom_site_label
_atom_site_fract_x
_atom_site_fract_y
_atom_site_fract_z
Si Si1 0.155976 0.957408 0.085968
Si Si2 0.922591 0.248889 0.164447
Si Si3 0.674279 0.011124 0.825167
Si Si4 0.461684 0.874976 0.915276
Si Si5 0.106906 0.504700 0.163601
Si Si6 0.765291 0.657149 0.916566
Si Si7 0.917293 0.812163 0.917306
Si Si8 0.390319 0.240288 0.166118
O O1 0.111513 0.839792 0.104287
O O2 0.225084 0.978114 0.152110
O O3 0.082293 0.053959 0.093949
O O4 0.193059 0.956544 0.000000
O O5 0.871578 0.364721 0.150553
O O6 0.911062 0.216161 0.250874
O O7 0.026828 0.254992 0.145368
O O8 0.629995 0.111436 0.872812
O O9 0.648962 0.039861 0.740422
O O10 0.648258 0.883780 0.840721
O O11 0.518926 0.773477 0.879864
O O12 0.500000 0.000000 0.907558
O O13 0.445155 0.840301 0.000000
O O14 0.161271 0.437255 0.101812
O O15 0.000000 0.500000 0.162907
O O16 0.815573 0.775331 0.910473
O O17 0.677003 0.667006 0.866871
O O18 0.732129 0.633055 0.000000
O O19 0.953506 0.781305 0.000000
#
# Coordination Sequence:
#
# PCOD8236461 Si02
#       8
#     8   8   8   8   8   8   8   8
#     4  11  22  37  59  85 118 152 192 246 296 354
#     4  11  22  37  56  83 113 152 192 240 293 350
#     4  10  19  34  56  83 116 150 187 237 295 346
#     4   9  17  29  52  81 110 145 187 236 283 332
#     4  11  22  38  56  82 116 154 195 235 291 353
#     4  11  22  36  58  82 113 154 192 234 285 354
#     4  10  21  37  58  83 113 151 190 234 293 355
#     4  10  20  36  55  82 115 152 194 236 288 347
#
# _framework density 19.687915
#
# number of rings (size 3 to 8) (size 9 to 14) (size 15 to 20)
#    0.000    1.625    2.500    4.125    0.000    3.250 
#    0.000    0.000    0.000    0.000    0.000    0.000 
#    0.000    8.000    0.000    0.000    0.000    0.000 
#
# Total GULP energy -792963.929768 kJ/mol
# GULP energy per Si atom -12390.061403 kJ/mol
# Density = 1.964310 g / cm^3
# Si number density = 19.687915 Si / 1000 Ang^3
#
#
#
# Elastic Constant Matrix: (Units=GPa)
#
#
# Indices 1 2 3 4 5 6 
#
# 1 67.1454 15.0091 48.9872 0.0000 0.0000 0.0000
# 2 15.0091 62.8209 40.7791 0.0000 0.0000 0.0000
# 3 48.9872 40.7791 118.6124 0.0000 0.0000 0.0000
# 4 0.0000 0.0000 0.0000 28.0952 0.0000 0.0000
# 5 0.0000 0.0000 0.0000 0.0000 37.8423 0.0000
# 6 0.0000 0.0000 0.0000 0.0000 0.0000 25.0087
#
#
#
# Elastic Compliance Matrix: (Units=1/GPa)
#
#
# Indices 1 2 3 4 5 6 
#
# 1 0.021347 0.000802 -0.009092 0.000000 0.000000 0.000000
# 2 0.000802 0.020522 -0.007386 0.000000 0.000000 0.000000
# 3 -0.009092 -0.007386 0.014725 0.000000 0.000000 0.000000
# 4 0.000000 0.000000 0.000000 0.035593 0.000000 0.000000
# 5 0.000000 0.000000 0.000000 0.000000 0.026425 0.000000
# 6 0.000000 0.000000 0.000000 0.000000 0.000000 0.039986
#
#
# Mechanical properties :
#
#
# Convention : Reuss Voigt Hill
#
# Bulk Modulus (GPa) = 39.61899 50.90329 45.26114
# Shear Modulus (GPa) = 25.20597 27.77614 26.49106
#
# Velocity S-wave (km/s) = 3.58198 3.76017 3.67215
# Velocity P-wave (km/s) = 6.10529 6.69052 6.40459
#
# Compressibility (1/GPa) = 0.02524042
#
# Stress axis : x y z
#
# Youngs Moduli (GPa) = 46.84470 48.72937 67.91015
#
# Poissons Ratio (x) = -0.03907 0.61744
# Poissons Ratio (y) = -0.03756 0.50161
# Poissons Ratio (z) = 0.42591 0.35994
#
# Static dielectric constant tensor:
#      x y z
#    x 3.567260 0.000000 0.000000 
#    y 0.000000 3.392530 0.000000 
#    z 0.000000 0.000000 3.582970 
# 
# 
# High freq. dielectric constant tensor:
#      x y z
#    x 1.758680 0.000000 0.000000 
#    y 0.000000 1.744420 0.000000 
#    z 0.000000 0.000000 1.772130 
# 
# From -- ./inp_files/27024.got.cif
#   From: 2010.06.25/outbox.cif.g09.slc.cpg/sg58_14_cif.got.tgz:27024.got - 2010.06.26 21:38:00.
