data_PCOD8236886
_publ_section_title
;
Structure prediction by ZEFSAII (Michael W. Deem and Ramdas Pophale) SiO2 
 PCOD8236886
Probable space group: P N N M
;
_chemical_formula_sum "Si O2"
_cell_formula_units_Z 32
_cell_length_a 16.305962
_cell_length_b 4.916371
_cell_length_c 23.020649
_cell_angle_alpha 90.000000
_cell_angle_beta 90.000000
_cell_angle_gamma 90.000000
_cell_volume 1845.477001
_symmetry_space_group_name_H-M "P N N M"
_symmetry_group_IT_number 58
_symmetry_cell_setting 'orthorhombic'
loop_
_space_group_symop_operation_xyz
x,y,z
-x,-y,z
1/2+x,1/2-y,1/2-z
1/2-x,1/2+y,1/2-z
-x,-y,-z
x,y,-z
1/2-x,1/2+y,1/2+z
1/2+x,1/2-y,1/2+z
loop_
_atom_site_type_symbol
_atom_site_label
_atom_site_fract_x
_atom_site_fract_y
_atom_site_fract_z
Si Si1 0.224116 0.109362 0.785588
Si Si2 0.906476 0.085905 0.566737
Si Si3 0.054266 0.260269 0.247737
Si Si4 0.144937 0.404415 0.635252
O O1 0.272831 0.375977 0.763821
O O2 0.128427 0.182004 0.795849
O O3 0.264326 0.004778 0.845604
O O4 0.879159 0.084864 0.500000
O O5 0.897371 0.387411 0.591371
O O6 0.847528 0.882363 0.602263
O O7 0.000000 0.000000 0.574628
O O8 0.090751 0.378490 0.307180
O O9 0.000000 0.500000 0.218753
O O10 0.000000 0.000000 0.262143
#
# Coordination Sequence:
#
# PCOD8236886 Si02
#       4
#     8   8   8   8
#     4  10  20  32  47  70  97 126 160 196 232 284
#     4  11  22  33  47  69  95 125 165 203 228 265
#     4  11  20  31  49  72  98 127 161 193 232 288
#     4  11  20  33  49  66  96 132 159 188 237 280
#
# _framework density 17.339690000000001
#
# number of rings (size 3 to 8) (size 9 to 14) (size 15 to 20)
#    0.000    1.250    0.000   11.250    0.000    2.000 
#    0.000    0.000    0.000    0.000    0.000    0.000 
#    0.000   20.000    0.000    0.000    0.000    0.000 
#
# Total GULP energy -396888.618644 kJ/mol
# GULP energy per Si atom -12402.769333 kJ/mol
# Density = 1.730022 g / cm^3
# Si number density = 17.339690 Si / 1000 Ang^3
#
#
#
# Elastic Constant Matrix: (Units=GPa)
#
#
# Indices 1 2 3 4 5 6 
#
# 1 103.7318 33.7448 36.9626 0.0000 0.0000 0.0000
# 2 33.7448 88.8598 6.1075 0.0000 0.0000 0.0000
# 3 36.9626 6.1075 53.9454 0.0000 0.0000 0.0000
# 4 0.0000 0.0000 0.0000 16.2146 0.0000 0.0000
# 5 0.0000 0.0000 0.0000 0.0000 15.1592 0.0000
# 6 0.0000 0.0000 0.0000 0.0000 0.0000 36.0122
#
#
#
# Elastic Compliance Matrix: (Units=1/GPa)
#
#
# Indices 1 2 3 4 5 6 
#
# 1 0.014600 -0.004895 -0.009449 0.000000 0.000000 0.000000
# 2 -0.004895 0.012983 0.001884 0.000000 0.000000 0.000000
# 3 -0.009449 0.001884 0.024798 0.000000 0.000000 0.000000
# 4 0.000000 0.000000 0.000000 0.061673 0.000000 0.000000
# 5 0.000000 0.000000 0.000000 0.000000 0.065967 0.000000
# 6 0.000000 0.000000 0.000000 0.000000 0.000000 0.027768
#
#
# Mechanical properties :
#
#
# Convention : Reuss Voigt Hill
#
# Bulk Modulus (GPa) = 36.41545 44.46298 40.43922
# Shear Modulus (GPa) = 20.67291 24.79202 22.73246
#
# Velocity S-wave (km/s) = 3.45662 3.78535 3.62471
# Velocity P-wave (km/s) = 6.08093 6.69352 6.39456
#
# Compressibility (1/GPa) = 0.02746087
#
# Stress axis : x y z
#
# Youngs Moduli (GPa) = 68.49508 77.02373 40.32512
#
# Poissons Ratio (x) = 0.37701 0.38104
# Poissons Ratio (y) = 0.33527 -0.07597
# Poissons Ratio (z) = 0.64723 -0.14511
#
# Static dielectric constant tensor:
#      x y z
#    x 3.345560 0.000000 0.000000 
#    y 0.000000 3.634810 0.000000 
#    z 0.000000 0.000000 3.001220 
# 
# 
# High freq. dielectric constant tensor:
#      x y z
#    x 1.655830 0.000000 0.000000 
#    y 0.000000 1.703900 0.000000 
#    z 0.000000 0.000000 1.623030 
# 
# From -- ./inp_files/27981.got.cif
#   From: 2010.06.25/outbox.cif.g09.slc.cpg/sg58_14_cif.got.tgz:27981.got - 2010.06.26 21:38:00.
