data_PCOD8236896
_publ_section_title
;
Structure prediction by ZEFSAII (Michael W. Deem and Ramdas Pophale) SiO2 
 PCOD8236896
Probable space group: P N N M
;
_chemical_formula_sum "Si O2"
_cell_formula_units_Z 64
_cell_length_a 12.933953
_cell_length_b 29.175538
_cell_length_c 9.181010
_cell_angle_alpha 90.000000
_cell_angle_beta 90.000000
_cell_angle_gamma 90.000000
_cell_volume 3464.500370
_symmetry_space_group_name_H-M "P N N M"
_symmetry_group_IT_number 58
_symmetry_cell_setting 'orthorhombic'
loop_
_space_group_symop_operation_xyz
x,y,z
-x,-y,z
1/2+x,1/2-y,1/2-z
1/2-x,1/2+y,1/2-z
-x,-y,-z
x,y,-z
1/2-x,1/2+y,1/2+z
1/2+x,1/2-y,1/2+z
loop_
_atom_site_type_symbol
_atom_site_label
_atom_site_fract_x
_atom_site_fract_y
_atom_site_fract_z
Si Si1 0.043275 0.710273 0.828795
Si Si2 0.874886 0.388556 0.172699
Si Si3 0.372094 0.305453 0.326724
Si Si4 0.567568 0.079483 0.836714
Si Si5 0.144888 0.318055 0.662104
Si Si6 0.316664 0.568068 0.672555
Si Si7 0.775356 0.035863 0.172373
Si Si8 0.958702 0.100253 0.826848
O O1 0.105000 0.664450 0.782912
O O2 0.095536 0.756010 0.764055
O O3 0.928899 0.710961 0.764847
O O4 0.033362 0.713048 0.000000
O O5 0.766142 0.400982 0.244083
O O6 0.965744 0.421469 0.235374
O O7 0.870762 0.395284 0.000000
O O8 0.372897 0.304965 0.500000
O O9 0.257761 0.314951 0.267889
O O10 0.444890 0.347213 0.272428
O O11 0.613246 0.129697 0.844039
O O12 0.659780 0.048123 0.769327
O O13 0.535719 0.063113 0.000000
O O14 0.141917 0.296652 0.500000
O O15 0.303235 0.575241 0.500000
O O16 0.301143 0.515601 0.718753
O O17 0.430278 0.582569 0.728039
O O18 0.865449 0.068780 0.236988
O O19 0.772714 0.042361 0.000000
O O20 0.954971 0.096971 0.000000
#
# Coordination Sequence:
#
# PCOD8236896 Si02
#       8
#     8   8   8   8   8   8   8   8
#     4   9  19  33  49  70  97 131 166 202 247 295
#     4  10  21  36  49  66 101 141 171 204 250 297
#     4   9  16  29  50  75  99 126 162 202 249 298
#     4   9  16  30  54  76  95 123 165 211 247 288
#     4   9  16  29  50  72  94 123 160 203 245 288
#     4  10  20  32  51  78 106 133 163 202 250 304
#     4   9  16  29  51  80 105 126 158 207 259 299
#     4   9  16  29  51  79 105 127 159 205 254 302
#
# _framework density 18.473082000000002
#
# number of rings (size 3 to 8) (size 9 to 14) (size 15 to 20)
#    0.000    2.750    1.250    0.750    0.000    3.500 
#    0.000    3.750    0.000    3.000    0.000    0.000 
#    0.000    0.000    0.000    0.000    0.000    0.000 
#
# Total GULP energy -793317.726628 kJ/mol
# GULP energy per Si atom -12395.589479 kJ/mol
# Density = 1.843104 g / cm^3
# Si number density = 18.473082 Si / 1000 Ang^3
#
#
#
# Elastic Constant Matrix: (Units=GPa)
#
#
# Indices 1 2 3 4 5 6 
#
# 1 106.7744 55.7416 23.5415 0.0000 0.0000 0.0000
# 2 55.7416 97.7935 25.9958 0.0000 0.0000 0.0000
# 3 23.5415 25.9958 25.9508 0.0000 0.0000 0.0000
# 4 0.0000 0.0000 0.0000 15.1517 0.0000 0.0000
# 5 0.0000 0.0000 0.0000 0.0000 17.8246 0.0000
# 6 0.0000 0.0000 0.0000 0.0000 0.0000 24.1800
#
#
#
# Elastic Compliance Matrix: (Units=1/GPa)
#
#
# Indices 1 2 3 4 5 6 
#
# 1 0.014084 -0.006312 -0.006453 0.000000 0.000000 0.000000
# 2 -0.006312 0.016766 -0.011069 0.000000 0.000000 0.000000
# 3 -0.006453 -0.011069 0.055476 0.000000 0.000000 0.000000
# 4 0.000000 0.000000 0.000000 0.065999 0.000000 0.000000
# 5 0.000000 0.000000 0.000000 0.000000 0.056102 0.000000
# 6 0.000000 0.000000 0.000000 0.000000 0.000000 0.041356
#
#
# Mechanical properties :
#
#
# Convention : Reuss Voigt Hill
#
# Bulk Modulus (GPa) = 25.86793 49.00850 37.43821
# Shear Modulus (GPa) = 16.11151 19.78058 17.94605
#
# Velocity S-wave (km/s) = 2.95644 3.27583 3.12022
# Velocity P-wave (km/s) = 5.06828 6.39494 5.76987
#
# Compressibility (1/GPa) = 0.03865791
#
# Stress axis : x y z
#
# Youngs Moduli (GPa) = 71.00484 59.64498 18.02579
#
# Poissons Ratio (x) = 0.37649 0.11632
# Poissons Ratio (y) = 0.44820 0.19952
# Poissons Ratio (z) = 0.45818 0.66019
#
# Static dielectric constant tensor:
#      x y z
#    x 3.628630 0.000000 0.000000 
#    y 0.000000 3.579660 0.000000 
#    z 0.000000 0.000000 3.006680 
# 
# 
# High freq. dielectric constant tensor:
#      x y z
#    x 1.728180 0.000000 0.000000 
#    y 0.000000 1.718800 0.000000 
#    z 0.000000 0.000000 1.664860 
# 
# From -- ./inp_files/4794.got.cif
#   From: 2010.06.25/outbox.cif.g09.slc.cpg/sg58_3_cif.got.tgz:4794.got - 2010.06.26 21:38:00.
