data_PCOD8236295
_publ_section_title
;
Structure prediction by ZEFSAII (Michael W. Deem and Ramdas Pophale) SiO2 
 PCOD8236295
Probable space group: P N N M
;
_chemical_formula_sum "Si O2"
_cell_formula_units_Z 48
_cell_length_a 8.835815
_cell_length_b 16.582755
_cell_length_c 15.798956
_cell_angle_alpha 90.000000
_cell_angle_beta 90.000000
_cell_angle_gamma 90.000000
_cell_volume 2314.897086
_symmetry_space_group_name_H-M "P N N M"
_symmetry_group_IT_number 58
_symmetry_cell_setting 'orthorhombic'
loop_
_space_group_symop_operation_xyz
x,y,z
-x,-y,z
1/2+x,1/2-y,1/2-z
1/2-x,1/2+y,1/2-z
-x,-y,-z
x,y,-z
1/2-x,1/2+y,1/2+z
1/2+x,1/2-y,1/2+z
loop_
_atom_site_type_symbol
_atom_site_label
_atom_site_fract_x
_atom_site_fract_y
_atom_site_fract_z
Si Si1 0.171963 0.477297 0.819028
Si Si2 0.876660 0.738180 0.500000
Si Si3 0.323621 0.979109 0.500000
Si Si4 0.285747 0.295201 0.000000
Si Si5 0.144368 0.289338 0.169350
Si Si6 0.154709 0.957218 0.158818
Si Si7 0.144095 0.447736 0.500000
Si Si8 0.313353 0.268570 0.333909
O O1 0.233176 0.515566 0.909295
O O2 0.186703 0.382098 0.826169
O O3 0.279991 0.502859 0.742102
O O4 0.000000 0.500000 0.798144
O O5 0.912528 0.643890 0.500000
O O6 0.779437 0.758360 0.416704
O O7 0.031446 0.790099 0.500000
O O8 0.280673 0.885343 0.500000
O O9 0.500000 0.000000 0.500000
O O10 0.219831 0.251384 0.084275
O O11 0.212688 0.245428 0.252118
O O12 0.964140 0.283925 0.167758
O O13 0.135121 0.861482 0.168238
O O14 0.265526 0.973178 0.082288
O O15 0.000000 0.000000 0.135581
O O16 0.000000 0.500000 0.500000
#
# Coordination Sequence:
#
# PCOD8236295 Si02
#       8
#     8   4   4   4   8   8   4   8
#     4   9  18  34  54  75 101 135 175 212 256 317
#     4  10  21  36  53  79 110 138 181 230 266 320
#     4   8  16  33  55  76 104 138 171 212 261 317
#     4  10  19  33  55  80 106 140 179 221 270 323
#     4  10  20  34  54  78 105 140 175 218 272 323
#     4  10  21  35  52  76 106 137 174 221 265 313
#     4  10  21  36  54  75 103 142 180 217 267 320
#     4  10  21  36  53  78 109 140 179 224 272 324
#
# _framework density 20.735261999999999
#
# number of rings (size 3 to 8) (size 9 to 14) (size 15 to 20)
#    0.000    2.333    0.000    2.250    0.000    2.667 
#    0.000    0.417    0.000    0.000    0.000    0.000 
#    0.000    0.000    0.000    0.000    0.000    0.000 
#
# Total GULP energy -594810.461346 kJ/mol
# GULP energy per Si atom -12391.884611 kJ/mol
# Density = 2.068807 g / cm^3
# Si number density = 20.735262 Si / 1000 Ang^3
#
#
#
# Elastic Constant Matrix: (Units=GPa)
#
#
# Indices 1 2 3 4 5 6 
#
# 1 126.0096 32.6974 55.4116 0.0000 0.0000 0.0000
# 2 32.6974 23.9237 26.6451 0.0000 0.0000 0.0000
# 3 55.4116 26.6451 176.4743 0.0000 0.0000 0.0000
# 4 0.0000 0.0000 0.0000 75.4826 0.0000 0.0000
# 5 0.0000 0.0000 0.0000 0.0000 60.9045 0.0000
# 6 0.0000 0.0000 0.0000 0.0000 0.0000 34.9741
#
#
#
# Elastic Compliance Matrix: (Units=1/GPa)
#
#
# Indices 1 2 3 4 5 6 
#
# 1 0.012680 -0.015503 -0.001641 0.000000 0.000000 0.000000
# 2 -0.015503 0.069204 -0.005581 0.000000 0.000000 0.000000
# 3 -0.001641 -0.005581 0.007024 0.000000 0.000000 0.000000
# 4 0.000000 0.000000 0.000000 0.013248 0.000000 0.000000
# 5 0.000000 0.000000 0.000000 0.000000 0.016419 0.000000
# 6 0.000000 0.000000 0.000000 0.000000 0.000000 0.028593
#
#
# Mechanical properties :
#
#
# Convention : Reuss Voigt Hill
#
# Bulk Modulus (GPa) = 23.01016 61.76844 42.38930
# Shear Modulus (GPa) = 24.14236 48.38248 36.26242
#
# Velocity S-wave (km/s) = 3.41591 4.83571 4.18644
# Velocity P-wave (km/s) = 5.16518 7.81233 6.62237
#
# Compressibility (1/GPa) = 0.04345907
#
# Stress axis : x y z
#
# Youngs Moduli (GPa) = 78.86295 14.44997 142.36142
#
# Poissons Ratio (x) = 0.22402 0.23358
# Poissons Ratio (y) = 1.22263 0.79452
# Poissons Ratio (z) = 0.12939 0.08065
#
# Static dielectric constant tensor:
#      x y z
#    x 3.453490 0.000000 0.000000 
#    y 0.000000 3.405800 0.000000 
#    z 0.000000 0.000000 4.680280 
# 
# 
# High freq. dielectric constant tensor:
#      x y z
#    x 1.804710 0.000000 0.000000 
#    y 0.000000 1.778310 0.000000 
#    z 0.000000 0.000000 1.846550 
# 
# From -- ./inp_files/19929.got.cif
#   From: 2010.06.25/outbox.cif.g09.slc.cpg/sg58_10_cif.got.tgz:19929.got - 2010.06.26 21:38:00.
