data_PCOD8236301
_publ_section_title
;
Structure prediction by ZEFSAII (Michael W. Deem and Ramdas Pophale) SiO2 
 PCOD8236301
Probable space group: P N N M
;
_chemical_formula_sum "Si O2"
_cell_formula_units_Z 56
_cell_length_a 8.354130
_cell_length_b 18.720204
_cell_length_c 19.163846
_cell_angle_alpha 90.000000
_cell_angle_beta 90.000000
_cell_angle_gamma 90.000000
_cell_volume 2997.053382
_symmetry_space_group_name_H-M "P N N M"
_symmetry_group_IT_number 58
_symmetry_cell_setting 'orthorhombic'
loop_
_space_group_symop_operation_xyz
x,y,z
-x,-y,z
1/2+x,1/2-y,1/2-z
1/2-x,1/2+y,1/2-z
-x,-y,-z
x,y,-z
1/2-x,1/2+y,1/2+z
1/2+x,1/2-y,1/2+z
loop_
_atom_site_type_symbol
_atom_site_label
_atom_site_fract_x
_atom_site_fract_y
_atom_site_fract_z
Si Si1 0.991170 0.689446 0.793926
Si Si2 0.895935 0.430033 0.575147
Si Si3 0.011328 0.275513 0.577980
Si Si4 0.121313 0.807115 0.701161
Si Si5 0.202319 0.675066 0.920029
Si Si6 0.854020 0.444758 0.726074
Si Si7 0.401629 0.565495 0.162117
O O1 0.039848 0.767033 0.766036
O O2 0.041204 0.682921 0.874942
O O3 0.088128 0.633316 0.747886
O O4 0.804797 0.675523 0.783682
O O5 0.801347 0.420985 0.500000
O O6 0.011690 0.361220 0.585821
O O7 0.789750 0.439052 0.645396
O O8 0.000000 0.500000 0.567945
O O9 0.960235 0.252133 0.500000
O O10 0.885838 0.240027 0.630792
O O11 0.188738 0.245088 0.593881
O O12 0.027231 0.880435 0.695356
O O13 0.297779 0.603472 0.897884
O O14 0.150211 0.667495 0.000000
O O15 0.709005 0.467259 0.776215
O O16 0.000000 0.500000 0.733069
O O17 0.500000 0.500000 0.128123
#
# Coordination Sequence:
#
# PCOD8236301 Si02
#       7
#     8   8   8   8   8   8   8
#     4  11  21  34  55  77 108 139 181 224 272 324
#     4   9  17  29  50  76 106 141 179 216 258 316
#     4   9  17  32  53  77 107 139 177 216 264 325
#     4  11  21  34  54  79 108 143 182 224 274 322
#     4   9  20  37  57  80 108 140 179 229 277 330
#     4  10  19  33  55  81 108 140 180 223 269 323
#     4  10  21  37  56  81 111 143 182 226 276 329
#
# _framework density 18.685019
#
# number of rings (size 3 to 8) (size 9 to 14) (size 15 to 20)
#    0.000    2.143    1.429    3.429    0.000    0.857 
#    0.000    0.000    0.000   15.000    0.000    0.000 
#    0.000    0.000    0.000    0.000    0.000    0.000 
#
# Total GULP energy -694071.761930 kJ/mol
# GULP energy per Si atom -12394.138606 kJ/mol
# Density = 1.864249 g / cm^3
# Si number density = 18.685019 Si / 1000 Ang^3
#
#
#
# Elastic Constant Matrix: (Units=GPa)
#
#
# Indices 1 2 3 4 5 6 
#
# 1 66.8479 9.5727 21.0360 0.0000 0.0000 0.0000
# 2 9.5727 92.4971 15.7562 0.0000 0.0000 0.0000
# 3 21.0360 15.7562 117.6853 0.0000 0.0000 0.0000
# 4 0.0000 0.0000 0.0000 18.2276 0.0000 0.0000
# 5 0.0000 0.0000 0.0000 0.0000 18.2011 0.0000
# 6 0.0000 0.0000 0.0000 0.0000 0.0000 22.3460
#
#
#
# Elastic Compliance Matrix: (Units=1/GPa)
#
#
# Indices 1 2 3 4 5 6 
#
# 1 0.015979 -0.001194 -0.002696 0.000000 0.000000 0.000000
# 2 -0.001194 0.011153 -0.001280 0.000000 0.000000 0.000000
# 3 -0.002696 -0.001280 0.009151 0.000000 0.000000 0.000000
# 4 0.000000 0.000000 0.000000 0.054862 0.000000 0.000000
# 5 0.000000 0.000000 0.000000 0.000000 0.054942 0.000000
# 6 0.000000 0.000000 0.000000 0.000000 0.000000 0.044751
#
#
# Mechanical properties :
#
#
# Convention : Reuss Voigt Hill
#
# Bulk Modulus (GPa) = 38.54837 41.08444 39.81641
# Shear Modulus (GPa) = 23.82948 27.13265 25.48107
#
# Velocity S-wave (km/s) = 3.57504 3.81479 3.69686
# Velocity P-wave (km/s) = 6.14139 6.43732 6.29110
#
# Compressibility (1/GPa) = 0.02594143
#
# Stress axis : x y z
#
# Youngs Moduli (GPa) = 62.58274 89.66405 109.28345
#
# Poissons Ratio (x) = 0.10709 0.29466
# Poissons Ratio (y) = 0.07475 0.13985
# Poissons Ratio (z) = 0.16874 0.11474
#
# Static dielectric constant tensor:
#      x y z
#    x 3.159910 0.000000 0.000000 
#    y 0.000000 3.550980 0.000000 
#    z 0.000000 0.000000 3.816880 
# 
# 
# High freq. dielectric constant tensor:
#      x y z
#    x 1.687610 0.000000 0.000000 
#    y 0.000000 1.735400 0.000000 
#    z 0.000000 0.000000 1.738480 
# 
# From -- ./inp_files/27494.got.cif
#   From: 2010.06.25/outbox.cif.g09.slc.cpg/sg58_14_cif.got.tgz:27494.got - 2010.06.26 21:38:00.
