data_PCOD8236881
_publ_section_title
;
Structure prediction by ZEFSAII (Michael W. Deem and Ramdas Pophale) SiO2 
 PCOD8236881
Probable space group: P N N M
;
_chemical_formula_sum "Si O2"
_cell_formula_units_Z 64
_cell_length_a 24.444810
_cell_length_b 20.957243
_cell_length_c 8.695235
_cell_angle_alpha 90.000000
_cell_angle_beta 90.000000
_cell_angle_gamma 90.000000
_cell_volume 4454.532573
_symmetry_space_group_name_H-M "P N N M"
_symmetry_group_IT_number 58
_symmetry_cell_setting 'orthorhombic'
loop_
_space_group_symop_operation_xyz
x,y,z
-x,-y,z
1/2+x,1/2-y,1/2-z
1/2-x,1/2+y,1/2-z
-x,-y,-z
x,y,-z
1/2-x,1/2+y,1/2+z
1/2+x,1/2-y,1/2+z
loop_
_atom_site_type_symbol
_atom_site_label
_atom_site_fract_x
_atom_site_fract_y
_atom_site_fract_z
Si Si1 0.792761 0.997927 0.179288
Si Si2 0.234694 0.253604 0.818873
Si Si3 0.576553 0.607369 0.322172
Si Si4 0.367310 0.709607 0.172279
Si Si5 0.592147 0.478939 0.180061
Si Si6 0.040768 0.140877 0.823673
Si Si7 0.768149 0.873330 0.672608
Si Si8 0.190833 0.869921 0.682201
O O1 0.779967 0.064890 0.262780
O O2 0.854436 0.977922 0.213702
O O3 0.755055 0.940224 0.243475
O O4 0.781821 0.005928 0.000000
O O5 0.172892 0.261844 0.751281
O O6 0.260815 0.186451 0.759317
O O7 0.271834 0.311595 0.760307
O O8 0.230777 0.251905 0.000000
O O9 0.587247 0.589673 0.500000
O O10 0.560911 0.543953 0.226347
O O11 0.524240 0.654806 0.306603
O O12 0.630962 0.640199 0.255213
O O13 0.423849 0.701494 0.265924
O O14 0.334076 0.641680 0.170730
O O15 0.381273 0.732111 0.000000
O O16 0.554215 0.419294 0.217138
O O17 0.607688 0.480319 0.000000
O O18 0.055986 0.126060 0.000000
O O19 0.745116 0.877382 0.500000
O O20 0.184775 0.871318 0.500000
#
# Coordination Sequence:
#
# PCOD8236881 Si02
#       8
#     8   8   8   8   8   8   8   8
#     4  11  19  27  42  60  82 109 138 175 210 244
#     4   9  17  30  46  62  79 103 136 171 209 251
#     4  10  21  31  39  53  75 106 139 170 205 242
#     4   9  18  28  43  61  76  99 131 169 207 242
#     4  11  19  27  38  52  73 103 138 173 206 239
#     4  11  20  29  40  55  77 103 135 174 208 240
#     4   9  17  28  42  61  80 101 134 171 208 245
#     4  10  20  32  45  60  82 111 141 173 209 251
#
# _framework density 14.367388999999999
#
# number of rings (size 3 to 8) (size 9 to 14) (size 15 to 20)
#    0.750    1.250    1.250    6.000    0.000    5.500 
#    0.000    0.000    0.000    0.000    0.000    0.000 
#    0.000    0.000    0.000    1.125    0.000   21.000 
#
# Total GULP energy -793093.453147 kJ/mol
# GULP energy per Si atom -12392.085205 kJ/mol
# Density = 1.433469 g / cm^3
# Si number density = 14.367389 Si / 1000 Ang^3
#
#
#
# Elastic Constant Matrix: (Units=GPa)
#
#
# Indices 1 2 3 4 5 6 
#
# 1 25.6348 39.2786 17.2145 0.0000 0.0000 0.0000
# 2 39.2786 79.6784 28.1569 0.0000 0.0000 0.0000
# 3 17.2145 28.1569 78.0841 0.0000 0.0000 0.0000
# 4 0.0000 0.0000 0.0000 19.3685 0.0000 0.0000
# 5 0.0000 0.0000 0.0000 0.0000 14.8836 0.0000
# 6 0.0000 0.0000 0.0000 0.0000 0.0000 20.4285
#
#
#
# Elastic Compliance Matrix: (Units=1/GPa)
#
#
# Indices 1 2 3 4 5 6 
#
# 1 0.163701 -0.077868 -0.008011 0.000000 0.000000 0.000000
# 2 -0.077868 0.051423 -0.001376 0.000000 0.000000 0.000000
# 3 -0.008011 -0.001376 0.015069 0.000000 0.000000 0.000000
# 4 0.000000 0.000000 0.000000 0.051630 0.000000 0.000000
# 5 0.000000 0.000000 0.000000 0.000000 0.067188 0.000000
# 6 0.000000 0.000000 0.000000 0.000000 0.000000 0.048951
#
#
# Mechanical properties :
#
#
# Convention : Reuss Voigt Hill
#
# Bulk Modulus (GPa) = 17.95867 39.18860 28.57363
# Shear Modulus (GPa) = 8.45975 17.51926 12.98951
#
# Velocity S-wave (km/s) = 2.42919 3.49575 3.01008
# Velocity P-wave (km/s) = 4.51604 6.60522 5.65790
#
# Compressibility (1/GPa) = 0.05568343
#
# Stress axis : x y z
#
# Youngs Moduli (GPa) = 6.10868 19.44657 66.36148
#
# Poissons Ratio (x) = 1.51427 0.53161
# Poissons Ratio (y) = 0.47567 0.09132
# Poissons Ratio (z) = 0.04894 0.02676
#
# Static dielectric constant tensor:
#      x y z
#    x 2.569710 0.000000 0.000000 
#    y 0.000000 2.683220 0.000000 
#    z 0.000000 0.000000 2.903050 
# 
# 
# High freq. dielectric constant tensor:
#      x y z
#    x 1.507910 0.000000 0.000000 
#    y 0.000000 1.515080 0.000000 
#    z 0.000000 0.000000 1.571790 
# 
# From -- ./inp_files/10547.got.cif
#   From: 2010.06.25/outbox.cif.g09.slc.cpg/sg58_6_cif.got.tgz:10547.got - 2010.06.26 21:38:00.
