data_PCOD8236831
_publ_section_title
;
Structure prediction by ZEFSAII (Michael W. Deem and Ramdas Pophale) SiO2 
 PCOD8236831
Probable space group: P N N M
;
_chemical_formula_sum "Si O2"
_cell_formula_units_Z 64
_cell_length_a 30.745229
_cell_length_b 11.839607
_cell_length_c 8.573966
_cell_angle_alpha 90.000000
_cell_angle_beta 90.000000
_cell_angle_gamma 90.000000
_cell_volume 3121.021611
_symmetry_space_group_name_H-M "P N N M"
_symmetry_group_IT_number 58
_symmetry_cell_setting 'orthorhombic'
loop_
_space_group_symop_operation_xyz
x,y,z
-x,-y,z
1/2+x,1/2-y,1/2-z
1/2-x,1/2+y,1/2-z
-x,-y,-z
x,y,-z
1/2-x,1/2+y,1/2+z
1/2+x,1/2-y,1/2+z
loop_
_atom_site_type_symbol
_atom_site_label
_atom_site_fract_x
_atom_site_fract_y
_atom_site_fract_z
Si Si1 0.878826 0.142600 0.183429
Si Si2 0.295832 0.223449 0.317404
Si Si3 0.625057 0.397362 0.182803
Si Si4 0.038308 0.733021 0.318600
Si Si5 0.448693 0.753959 0.320289
Si Si6 0.331575 0.004684 0.179688
Si Si7 0.931521 0.511629 0.322523
Si Si8 0.299642 0.764841 0.185458
O O1 0.833623 0.194965 0.250008
O O2 0.918195 0.205578 0.265960
O O3 0.880484 0.010737 0.219600
O O4 0.882898 0.163131 0.000000
O O5 0.292915 0.241790 0.500000
O O6 0.248797 0.252992 0.243450
O O7 0.305263 0.093849 0.280972
O O8 0.584841 0.314426 0.214016
O O9 0.669430 0.337365 0.241510
O O10 0.626553 0.425607 0.000000
O O11 0.031559 0.757106 0.500000
O O12 0.039606 0.598371 0.285940
O O13 0.997489 0.783809 0.224882
O O14 0.439992 0.725586 0.500000
O O15 0.443694 0.887651 0.292548
O O16 0.382240 0.027208 0.202944
O O17 0.319790 0.881757 0.246595
O O18 0.317675 0.017647 0.000000
O O19 0.938847 0.553765 0.500000
O O20 0.299231 0.764818 0.000000
#
# Coordination Sequence:
#
# PCOD8236831 Si02
#       8
#     8   8   8   8   8   8   8   8
#     4  11  24  41  61  90 127 160 199 255 313 360
#     4  10  22  39  60  90 127 162 197 248 309 359
#     4  11  23  43  66  86 118 164 211 251 296 360
#     4  11  23  41  65  91 121 162 209 247 295 364
#     4  12  25  40  62  93 126 157 197 251 313 364
#     4  10  19  37  64  90 120 160 206 251 295 351
#     4  10  20  38  63  91 123 161 204 248 294 356
#     4   9  20  39  62  88 122 162 202 249 300 355
#
# _framework density 20.506107
#
# number of rings (size 3 to 8) (size 9 to 14) (size 15 to 20)
#    0.000    1.500    2.500    2.625    1.750    4.000 
#    0.000    3.750    0.000    0.000    0.000    0.000 
#    0.000    0.000    0.000    0.000    0.000    0.000 
#
# Total GULP energy -793834.567267 kJ/mol
# GULP energy per Si atom -12403.665114 kJ/mol
# Density = 2.045943 g / cm^3
# Si number density = 20.506107 Si / 1000 Ang^3
#
#
#
# Elastic Constant Matrix: (Units=GPa)
#
#
# Indices 1 2 3 4 5 6 
#
# 1 117.4554 28.0342 17.8814 0.0000 0.0000 0.0000
# 2 28.0342 88.2714 14.6399 0.0000 0.0000 0.0000
# 3 17.8814 14.6399 32.1370 0.0000 0.0000 0.0000
# 4 0.0000 0.0000 0.0000 34.1152 0.0000 0.0000
# 5 0.0000 0.0000 0.0000 0.0000 24.0535 0.0000
# 6 0.0000 0.0000 0.0000 0.0000 0.0000 26.2828
#
#
#
# Elastic Compliance Matrix: (Units=1/GPa)
#
#
# Indices 1 2 3 4 5 6 
#
# 1 0.009741 -0.002374 -0.004339 0.000000 0.000000 0.000000
# 2 -0.002374 0.012833 -0.004525 0.000000 0.000000 0.000000
# 3 -0.004339 -0.004525 0.035592 0.000000 0.000000 0.000000
# 4 0.000000 0.000000 0.000000 0.029312 0.000000 0.000000
# 5 0.000000 0.000000 0.000000 0.000000 0.041574 0.000000
# 6 0.000000 0.000000 0.000000 0.000000 0.000000 0.038048
#
#
# Mechanical properties :
#
#
# Convention : Reuss Voigt Hill
#
# Bulk Modulus (GPa) = 28.01831 39.88609 33.95220
# Shear Modulus (GPa) = 24.81720 28.71083 26.76402
#
# Velocity S-wave (km/s) = 3.48262 3.74587 3.61664
# Velocity P-wave (km/s) = 5.46485 6.18076 5.83379
#
# Compressibility (1/GPa) = 0.03569094
#
# Stress axis : x y z
#
# Youngs Moduli (GPa) = 102.65869 77.92290 28.09603
#
# Poissons Ratio (x) = 0.18500 0.12189
# Poissons Ratio (y) = 0.24372 0.12714
# Poissons Ratio (z) = 0.44539 0.35261
#
# Static dielectric constant tensor:
#      x y z
#    x 4.051960 0.000000 0.000000 
#    y 0.000000 3.652480 0.000000 
#    z 0.000000 0.000000 3.469650 
# 
# 
# High freq. dielectric constant tensor:
#      x y z
#    x 1.819870 0.000000 0.000000 
#    y 0.000000 1.802290 0.000000 
#    z 0.000000 0.000000 1.781620 
# 
# From -- ./inp_files/10932.got.cif
#   From: 2010.06.25/outbox.cif.g09.slc.cpg/sg58_6_cif.got.tgz:10932.got - 2010.06.26 21:38:00.
