data_PCOD8236782
_publ_section_title
;
Structure prediction by ZEFSAII (Michael W. Deem and Ramdas Pophale) SiO2 
 PCOD8236782
Probable space group: P N N M
;
_chemical_formula_sum "Si O2"
_cell_formula_units_Z 64
_cell_length_a 12.632251
_cell_length_b 28.462746
_cell_length_c 8.450182
_cell_angle_alpha 90.000000
_cell_angle_beta 90.000000
_cell_angle_gamma 90.000000
_cell_volume 3038.250699
_symmetry_space_group_name_H-M "P N N M"
_symmetry_group_IT_number 58
_symmetry_cell_setting 'orthorhombic'
loop_
_space_group_symop_operation_xyz
x,y,z
-x,-y,z
1/2+x,1/2-y,1/2-z
1/2-x,1/2+y,1/2-z
-x,-y,-z
x,y,-z
1/2-x,1/2+y,1/2+z
1/2+x,1/2-y,1/2+z
loop_
_atom_site_type_symbol
_atom_site_label
_atom_site_fract_x
_atom_site_fract_y
_atom_site_fract_z
Si Si1 0.343574 0.122423 0.183114
Si Si2 0.214585 0.335020 0.183814
Si Si3 0.116969 0.134888 0.315551
Si Si4 0.010640 0.946846 0.182615
Si Si5 0.387473 0.020634 0.686177
Si Si6 0.993188 0.300960 0.814674
Si Si7 0.267429 0.437455 0.182458
Si Si8 0.065993 0.797194 0.685773
O O1 0.225381 0.139867 0.220243
O O2 0.359246 0.067820 0.222130
O O3 0.424621 0.152639 0.286232
O O4 0.367173 0.131140 0.000000
O O5 0.198290 0.390677 0.210177
O O6 0.323913 0.316203 0.262067
O O7 0.111492 0.309217 0.254900
O O8 0.218846 0.322923 0.000000
O O9 0.141183 0.142173 0.500000
O O10 0.068541 0.083353 0.289368
O O11 0.034206 0.173535 0.246839
O O12 0.130932 0.931362 0.207716
O O13 0.978562 0.940737 0.000000
O O14 0.000000 0.000000 0.241039
O O15 0.387366 0.031181 0.500000
O O16 0.500000 0.000000 0.740757
O O17 0.299796 0.982432 0.734265
O O18 0.942982 0.257463 0.722895
O O19 0.995126 0.289859 0.000000
O O20 0.303473 0.441183 0.000000
O O21 0.068502 0.806363 0.500000
#
# Coordination Sequence:
#
# PCOD8236782 Si02
#       8
#     8   8   8   8   8   8   8   8
#     4  12  26  43  63  92 135 175 213 262 321 378
#     4   9  19  40  66  92 123 160 205 260 315 371
#     4  11  23  42  67  91 123 165 214 264 316 384
#     4  11  23  37  55  86 126 164 203 253 316 378
#     4  10  21  39  66  95 126 168 221 269 314 378
#     4  11  24  42  67  95 125 165 214 261 318 385
#     4  10  19  36  62  89 118 161 210 258 313 374
#     4  10  22  42  66  94 125 159 203 264 330 382
#
# _framework density 21.064751999999999
#
# number of rings (size 3 to 8) (size 9 to 14) (size 15 to 20)
#    0.000    1.500    1.250    3.750    1.750    6.750 
#    0.000    3.125    0.000    0.000    0.000    0.000 
#    0.000    0.000    0.000    0.000    0.000    0.000 
#
# Total GULP energy -793836.452325 kJ/mol
# GULP energy per Si atom -12403.694568 kJ/mol
# Density = 2.101681 g / cm^3
# Si number density = 21.064752 Si / 1000 Ang^3
#
#
#
# Elastic Constant Matrix: (Units=GPa)
#
#
# Indices 1 2 3 4 5 6 
#
# 1 139.9207 45.7316 10.5586 0.0000 0.0000 0.0000
# 2 45.7316 119.0184 9.3685 0.0000 0.0000 0.0000
# 3 10.5586 9.3685 30.7055 0.0000 0.0000 0.0000
# 4 0.0000 0.0000 0.0000 30.9736 0.0000 0.0000
# 5 0.0000 0.0000 0.0000 0.0000 20.2062 0.0000
# 6 0.0000 0.0000 0.0000 0.0000 0.0000 38.7764
#
#
#
# Elastic Compliance Matrix: (Units=1/GPa)
#
#
# Indices 1 2 3 4 5 6 
#
# 1 0.008283 -0.003031 -0.001923 0.000000 0.000000 0.000000
# 2 -0.003031 0.009718 -0.001923 0.000000 0.000000 0.000000
# 3 -0.001923 -0.001923 0.033815 0.000000 0.000000 0.000000
# 4 0.000000 0.000000 0.000000 0.032286 0.000000 0.000000
# 5 0.000000 0.000000 0.000000 0.000000 0.049490 0.000000
# 6 0.000000 0.000000 0.000000 0.000000 0.000000 0.025789
#
#
# Mechanical properties :
#
#
# Convention : Reuss Voigt Hill
#
# Bulk Modulus (GPa) = 26.27303 46.77354 36.52329
# Shear Modulus (GPa) = 26.90742 32.92362 29.91552
#
# Velocity S-wave (km/s) = 3.57790 3.95773 3.77260
# Velocity P-wave (km/s) = 5.43766 6.56793 6.02934
#
# Compressibility (1/GPa) = 0.03806184
#
# Stress axis : x y z
#
# Youngs Moduli (GPa) = 120.73287 102.90069 29.57225
#
# Poissons Ratio (x) = 0.31191 0.05688
# Poissons Ratio (y) = 0.36596 0.05686
# Poissons Ratio (z) = 0.23221 0.19785
#
# Static dielectric constant tensor:
#      x y z
#    x 4.084730 0.000000 0.000000 
#    y 0.000000 3.814080 0.000000 
#    z 0.000000 0.000000 3.469110 
# 
# 
# High freq. dielectric constant tensor:
#      x y z
#    x 1.839280 0.000000 0.000000 
#    y 0.000000 1.834790 0.000000 
#    z 0.000000 0.000000 1.800580 
# 
# From -- ./inp_files/4749.got.cif
#   From: 2010.06.25/outbox.cif.g09.slc.cpg/sg58_3_cif.got.tgz:4749.got - 2010.06.26 21:38:00.
