data_PCOD8236654
_publ_section_title
;
Structure prediction by ZEFSAII (Michael W. Deem and Ramdas Pophale) SiO2 
 PCOD8236654
Probable space group: P N N M
;
_chemical_formula_sum "Si O2"
_cell_formula_units_Z 64
_cell_length_a 12.875503
_cell_length_b 28.193238
_cell_length_c 8.469677
_cell_angle_alpha 90.000000
_cell_angle_beta 90.000000
_cell_angle_gamma 90.000000
_cell_volume 3074.510711
_symmetry_space_group_name_H-M "P N N M"
_symmetry_group_IT_number 58
_symmetry_cell_setting 'orthorhombic'
loop_
_space_group_symop_operation_xyz
x,y,z
-x,-y,z
1/2+x,1/2-y,1/2-z
1/2-x,1/2+y,1/2-z
-x,-y,-z
x,y,-z
1/2-x,1/2+y,1/2+z
1/2+x,1/2-y,1/2+z
loop_
_atom_site_type_symbol
_atom_site_label
_atom_site_fract_x
_atom_site_fract_y
_atom_site_fract_z
Si Si1 0.851837 0.871846 0.816885
Si Si2 0.757527 0.699114 0.687200
Si Si3 0.975768 0.655287 0.688482
Si Si4 0.422224 0.365386 0.685939
Si Si5 0.685115 0.802880 0.686438
Si Si6 0.247559 0.042370 0.319282
Si Si7 0.398838 0.471455 0.686545
Si Si8 0.465750 0.050979 0.182919
O O1 0.755663 0.838806 0.781980
O O2 0.842818 0.919741 0.715487
O O3 0.961594 0.847101 0.770445
O O4 0.854010 0.886649 0.000000
O O5 0.756958 0.695981 0.500000
O O6 0.868773 0.679778 0.748056
O O7 0.666046 0.667232 0.763764
O O8 0.728438 0.751981 0.741322
O O9 0.987455 0.657178 0.500000
O O10 0.066359 0.687317 0.765353
O O11 0.979572 0.599749 0.747145
O O12 0.405984 0.364464 0.500000
O O13 0.409431 0.418388 0.749292
O O14 0.697755 0.810417 0.500000
O O15 0.282971 0.043083 0.500000
O O16 0.344075 0.057053 0.211042
O O17 0.204095 0.991163 0.271522
O O18 0.500000 0.500000 0.741076
O O19 0.382589 0.474799 0.500000
O O20 0.500000 0.000000 0.262201
O O21 0.492520 0.047899 0.000000
#
# Coordination Sequence:
#
# PCOD8236654 Si02
#       8
#     8   8   8   8   8   8   8   8
#     4  11  21  38  63  89 116 153 207 251 295 363
#     4   9  21  39  60  89 121 157 199 249 307 359
#     4  10  21  40  64  89 121 157 202 252 297 361
#     4   9  19  36  61  88 116 155 202 252 297 350
#     4  11  23  39  61  89 122 157 197 251 311 360
#     4  12  24  37  56  86 125 162 195 242 307 361
#     4  10  19  35  59  86 116 154 202 248 288 344
#     4  10  22  39  63  91 115 156 209 252 296 356
#
# _framework density 20.816320000000001
#
# number of rings (size 3 to 8) (size 9 to 14) (size 15 to 20)
#    0.000    1.750    2.500    1.875    3.500    0.500 
#    0.000    0.625    0.000    3.000    0.000    0.000 
#    0.000    0.000    0.000    0.000    0.000    0.000 
#
# Total GULP energy -793337.707755 kJ/mol
# GULP energy per Si atom -12395.901684 kJ/mol
# Density = 2.076894 g / cm^3
# Si number density = 20.816320 Si / 1000 Ang^3
#
#
#
# Elastic Constant Matrix: (Units=GPa)
#
#
# Indices 1 2 3 4 5 6 
#
# 1 131.8855 51.8098 11.2668 0.0000 0.0000 0.0000
# 2 51.8098 113.8501 16.6669 0.0000 0.0000 0.0000
# 3 11.2668 16.6669 23.1255 0.0000 0.0000 0.0000
# 4 0.0000 0.0000 0.0000 16.6634 0.0000 0.0000
# 5 0.0000 0.0000 0.0000 0.0000 17.7637 0.0000
# 6 0.0000 0.0000 0.0000 0.0000 0.0000 40.5585
#
#
#
# Elastic Compliance Matrix: (Units=1/GPa)
#
#
# Indices 1 2 3 4 5 6 
#
# 1 0.009289 -0.003985 -0.001654 0.000000 0.000000 0.000000
# 2 -0.003985 0.011529 -0.006368 0.000000 0.000000 0.000000
# 3 -0.001654 -0.006368 0.048637 0.000000 0.000000 0.000000
# 4 0.000000 0.000000 0.000000 0.060012 0.000000 0.000000
# 5 0.000000 0.000000 0.000000 0.000000 0.056295 0.000000
# 6 0.000000 0.000000 0.000000 0.000000 0.000000 0.024656
#
#
# Mechanical properties :
#
#
# Convention : Reuss Voigt Hill
#
# Bulk Modulus (GPa) = 22.00568 47.59424 34.79996
# Shear Modulus (GPa) = 20.03380 27.60494 23.81937
#
# Velocity S-wave (km/s) = 3.10564 3.64554 3.38637
# Velocity P-wave (km/s) = 4.84296 6.37444 5.66073
#
# Compressibility (1/GPa) = 0.04544281
#
# Stress axis : x y z
#
# Youngs Moduli (GPa) = 107.65294 86.73644 20.56037
#
# Poissons Ratio (x) = 0.34566 0.03400
# Poissons Ratio (y) = 0.42901 0.13092
# Poissons Ratio (z) = 0.17801 0.55231
#
# Static dielectric constant tensor:
#      x y z
#    x 3.918460 0.000000 0.000000 
#    y 0.000000 4.149170 0.000000 
#    z 0.000000 0.000000 3.309930 
# 
# 
# High freq. dielectric constant tensor:
#      x y z
#    x 1.825670 0.000000 0.000000 
#    y 0.000000 1.823380 0.000000 
#    z 0.000000 0.000000 1.774190 
# 
# From -- ./inp_files/4823.got.cif
#   From: 2010.06.25/outbox.cif.g09.slc.cpg/sg58_3_cif.got.tgz:4823.got - 2010.06.26 21:38:00.
