data_PCOD8236963
_publ_section_title
;
Structure prediction by ZEFSAII (Michael W. Deem and Ramdas Pophale) SiO2 
 PCOD8236963
Probable space group: P N N M
;
_chemical_formula_sum "Si O2"
_cell_formula_units_Z 56
_cell_length_a 15.188997
_cell_length_b 19.537790
_cell_length_c 9.810316
_cell_angle_alpha 90.000000
_cell_angle_beta 90.000000
_cell_angle_gamma 90.000000
_cell_volume 2911.303821
_symmetry_space_group_name_H-M "P N N M"
_symmetry_group_IT_number 58
_symmetry_cell_setting 'orthorhombic'
loop_
_space_group_symop_operation_xyz
x,y,z
-x,-y,z
1/2+x,1/2-y,1/2-z
1/2-x,1/2+y,1/2-z
-x,-y,-z
x,y,-z
1/2-x,1/2+y,1/2+z
1/2+x,1/2-y,1/2+z
loop_
_atom_site_type_symbol
_atom_site_label
_atom_site_fract_x
_atom_site_fract_y
_atom_site_fract_z
Si Si1 0.195077 0.813043 0.158735
Si Si2 0.655398 0.085091 0.840490
Si Si3 0.780893 0.471081 0.155111
Si Si4 0.655123 0.415433 0.649254
Si Si5 0.506404 0.190229 0.848811
Si Si6 0.996813 0.815956 0.840913
Si Si7 0.188061 0.665136 0.271766
O O1 0.264626 0.867738 0.215205
O O2 0.216068 0.738183 0.214463
O O3 0.096481 0.836911 0.197594
O O4 0.209023 0.807973 0.000000
O O5 0.563473 0.123240 0.815748
O O6 0.653904 0.018828 0.743236
O O7 0.667106 0.064104 0.000000
O O8 0.685929 0.470431 0.236118
O O9 0.820197 0.393614 0.153898
O O10 0.769482 0.497203 0.000000
O O11 0.640846 0.450242 0.500000
O O12 0.565259 0.379442 0.698854
O O13 0.732510 0.358541 0.629573
O O14 0.531297 0.248806 0.741777
O O15 0.404359 0.169687 0.848795
O O16 0.530558 0.217257 0.000000
O O17 0.988090 0.797498 0.000000
#
# Coordination Sequence:
#
# PCOD8236963 Si02
#       7
#     8   8   8   8   8   8   8
#     4   9  17  33  55  80 107 138 178 220 264 314
#     4  10  21  36  55  78 109 145 178 218 263 319
#     4  10  22  37  56  78 107 143 180 223 271 321
#     4   9  18  33  54  76 103 138 177 219 263 314
#     4  10  20  33  52  81 111 143 180 218 265 318
#     4   9  18  33  54  82 110 139 178 224 267 314
#     4   9  19  33  56  79 106 136 179 223 264 316
#
# _framework density 19.235368000000001
#
# number of rings (size 3 to 8) (size 9 to 14) (size 15 to 20)
#    0.857    1.714    0.000    2.143    0.000    2.286 
#    0.000    6.429    0.000    4.286    0.000    0.000 
#    0.000    0.000    0.000    0.000    0.000    0.000 
#
# Total GULP energy -693885.364772 kJ/mol
# GULP energy per Si atom -12390.810085 kJ/mol
# Density = 1.919159 g / cm^3
# Si number density = 19.235368 Si / 1000 Ang^3
#
#
#
# Elastic Constant Matrix: (Units=GPa)
#
#
# Indices 1 2 3 4 5 6 
#
# 1 54.7943 1.2738 0.1339 0.0000 0.0000 0.0000
# 2 1.2738 33.6683 15.6745 0.0000 0.0000 0.0000
# 3 0.1339 15.6745 58.9813 0.0000 0.0000 0.0000
# 4 0.0000 0.0000 0.0000 28.6597 0.0000 0.0000
# 5 0.0000 0.0000 0.0000 0.0000 16.6986 0.0000
# 6 0.0000 0.0000 0.0000 0.0000 0.0000 16.3121
#
#
#
# Elastic Compliance Matrix: (Units=1/GPa)
#
#
# Indices 1 2 3 4 5 6 
#
# 1 0.018267 -0.000767 0.000162 0.000000 0.000000 0.000000
# 2 -0.000767 0.033927 -0.009015 0.000000 0.000000 0.000000
# 3 0.000162 -0.009015 0.019350 0.000000 0.000000 0.000000
# 4 0.000000 0.000000 0.000000 0.034892 0.000000 0.000000
# 5 0.000000 0.000000 0.000000 0.000000 0.059885 0.000000
# 6 0.000000 0.000000 0.000000 0.000000 0.000000 0.061304
#
#
# Mechanical properties :
#
#
# Convention : Reuss Voigt Hill
#
# Bulk Modulus (GPa) = 19.11801 20.17869 19.64835
# Shear Modulus (GPa) = 18.91790 21.02485 19.97137
#
# Velocity S-wave (km/s) = 3.13948 3.30969 3.22570
# Velocity P-wave (km/s) = 4.80649 5.01184 4.91024
#
# Compressibility (1/GPa) = 0.05230669
#
# Stress axis : x y z
#
# Youngs Moduli (GPa) = 54.74203 29.47481 51.68008
#
# Poissons Ratio (x) = 0.02260 -0.00839
# Poissons Ratio (y) = 0.04197 0.46587
# Poissons Ratio (z) = -0.00888 0.26570
#
# Static dielectric constant tensor:
#      x y z
#    x 3.619120 0.000000 0.000000 
#    y 0.000000 3.406110 0.000000 
#    z 0.000000 0.000000 3.316090 
# 
# 
# High freq. dielectric constant tensor:
#      x y z
#    x 1.749230 0.000000 0.000000 
#    y 0.000000 1.731270 0.000000 
#    z 0.000000 0.000000 1.734130 
# 
# From -- ./inp_files/6474.got.cif
#   From: 2010.06.25/outbox.cif.g09.slc.cpg/sg58_4_cif.got.tgz:6474.got - 2010.06.26 21:38:00.
