data_PCOD8236474
_publ_section_title
;
Structure prediction by ZEFSAII (Michael W. Deem and Ramdas Pophale) SiO2 
 PCOD8236474
Probable space group: P N N M
;
_chemical_formula_sum "Si O2"
_cell_formula_units_Z 48
_cell_length_a 9.403451
_cell_length_b 30.273814
_cell_length_c 8.993234
_cell_angle_alpha 90.000000
_cell_angle_beta 90.000000
_cell_angle_gamma 90.000000
_cell_volume 2560.178805
_symmetry_space_group_name_H-M "P N N M"
_symmetry_group_IT_number 58
_symmetry_cell_setting 'orthorhombic'
loop_
_space_group_symop_operation_xyz
x,y,z
-x,-y,z
1/2+x,1/2-y,1/2-z
1/2-x,1/2+y,1/2-z
-x,-y,-z
x,y,-z
1/2-x,1/2+y,1/2+z
1/2+x,1/2-y,1/2+z
loop_
_atom_site_type_symbol
_atom_site_label
_atom_site_fract_x
_atom_site_fract_y
_atom_site_fract_z
Si Si1 0.413467 0.456193 0.824977
Si Si2 0.398990 0.121127 0.324635
Si Si3 0.412233 0.716456 0.667567
Si Si4 0.916324 0.288955 0.669483
Si Si5 0.908467 0.540289 0.175702
Si Si6 0.601527 0.384215 0.325827
O O1 0.500000 0.500000 0.784283
O O2 0.252851 0.461670 0.764618
O O3 0.480585 0.415142 0.739776
O O4 0.418219 0.446298 0.000000
O O5 0.375136 0.122376 0.500000
O O6 0.452484 0.168670 0.269423
O O7 0.519932 0.086368 0.277838
O O8 0.251811 0.105927 0.251212
O O9 0.461132 0.727828 0.500000
O O10 0.245990 0.725142 0.687537
O O11 0.491165 0.747345 0.783382
O O12 0.447776 0.665805 0.705959
O O13 0.951208 0.301514 0.500000
O O14 0.000000 0.500000 0.245036
O O15 0.904607 0.534834 0.000000
O O16 0.621709 0.392546 0.500000
#
# Coordination Sequence:
#
# PCOD8236474 Si02
#       6
#     8   8   8   8   8   8
#     4  10  20  35  57  82 107 140 182 223 268 325
#     4  10  19  34  57  80 106 141 178 219 268 319
#     4   9  20  37  54  76 106 140 178 218 263 317
#     4  10  21  36  55  80 109 140 178 223 267 316
#     4   9  18  33  54  81 108 135 175 223 264 311
#     4  10  21  37  55  78 110 143 179 224 270 319
#
# _framework density 18.74869
#
# number of rings (size 3 to 8) (size 9 to 14) (size 15 to 20)
#    0.000    2.333    0.000    3.500    0.000    8.333 
#    0.000    6.667    0.000    3.500    0.000    0.000 
#    0.000    0.000    0.000    0.000    0.000    0.000 
#
# Total GULP energy -595322.428095 kJ/mol
# GULP energy per Si atom -12402.550585 kJ/mol
# Density = 1.870602 g / cm^3
# Si number density = 18.748690 Si / 1000 Ang^3
#
#
#
# Elastic Constant Matrix: (Units=GPa)
#
#
# Indices 1 2 3 4 5 6 
#
# 1 135.5870 90.4684 51.3427 0.0000 0.0000 0.0000
# 2 90.4684 122.4253 52.9697 0.0000 0.0000 0.0000
# 3 51.3427 52.9697 72.8148 0.0000 0.0000 0.0000
# 4 0.0000 0.0000 0.0000 28.7998 0.0000 0.0000
# 5 0.0000 0.0000 0.0000 0.0000 24.7515 0.0000
# 6 0.0000 0.0000 0.0000 0.0000 0.0000 36.1802
#
#
#
# Elastic Compliance Matrix: (Units=1/GPa)
#
#
# Indices 1 2 3 4 5 6 
#
# 1 0.015209 -0.009630 -0.003719 0.000000 0.000000 0.000000
# 2 -0.009630 0.018018 -0.006317 0.000000 0.000000 0.000000
# 3 -0.003719 -0.006317 0.020951 0.000000 0.000000 0.000000
# 4 0.000000 0.000000 0.000000 0.034722 0.000000 0.000000
# 5 0.000000 0.000000 0.000000 0.000000 0.040402 0.000000
# 6 0.000000 0.000000 0.000000 0.000000 0.000000 0.027639
#
#
# Mechanical properties :
#
#
# Convention : Reuss Voigt Hill
#
# Bulk Modulus (GPa) = 67.35624 80.04319 73.69972
# Shear Modulus (GPa) = 24.84839 27.01606 25.93223
#
# Velocity S-wave (km/s) = 3.64447 3.80011 3.72311
# Velocity P-wave (km/s) = 7.32894 7.87654 7.60767
#
# Compressibility (1/GPa) = 0.01484643
#
# Stress axis : x y z
#
# Youngs Moduli (GPa) = 65.75083 55.50137 47.73105
#
# Poissons Ratio (x) = 0.53448 0.17749
# Poissons Ratio (y) = 0.63318 0.30151
# Poissons Ratio (z) = 0.24450 0.35059
#
# Static dielectric constant tensor:
#      x y z
#    x 3.500570 0.000000 0.000000 
#    y 0.000000 3.481810 0.000000 
#    z 0.000000 0.000000 3.322010 
# 
# 
# High freq. dielectric constant tensor:
#      x y z
#    x 1.729530 0.000000 0.000000 
#    y 0.000000 1.737690 0.000000 
#    z 0.000000 0.000000 1.717450 
# 
# From -- ./inp_files/2873.got.cif
#   From: 2010.06.25/outbox.cif.g09.slc.cpg/sg58_2_cif.got.tgz:2873.got - 2010.06.26 21:38:00.
