data_PCOD8236178
_publ_section_title
;
Structure prediction by ZEFSAII (Michael W. Deem and Ramdas Pophale) SiO2 
 PCOD8236178
Probable space group: P N N M
;
_chemical_formula_sum "Si O2"
_cell_formula_units_Z 64
_cell_length_a 12.611010
_cell_length_b 29.096958
_cell_length_c 9.106747
_cell_angle_alpha 90.000000
_cell_angle_beta 90.000000
_cell_angle_gamma 90.000000
_cell_volume 3341.648215
_symmetry_space_group_name_H-M "P N N M"
_symmetry_group_IT_number 58
_symmetry_cell_setting 'orthorhombic'
loop_
_space_group_symop_operation_xyz
x,y,z
-x,-y,z
1/2+x,1/2-y,1/2-z
1/2-x,1/2+y,1/2-z
-x,-y,-z
x,y,-z
1/2-x,1/2+y,1/2+z
1/2+x,1/2-y,1/2+z
loop_
_atom_site_type_symbol
_atom_site_label
_atom_site_fract_x
_atom_site_fract_y
_atom_site_fract_z
Si Si1 0.041125 0.708507 0.827541
Si Si2 0.865545 0.388554 0.170236
Si Si3 0.387494 0.307020 0.333832
Si Si4 0.596210 0.084856 0.666382
Si Si5 0.146665 0.328181 0.663548
Si Si6 0.330253 0.565494 0.674269
Si Si7 0.790692 0.026946 0.333204
Si Si8 0.962555 0.104206 0.671610
O O1 0.111163 0.664095 0.781501
O O2 0.087809 0.756436 0.770556
O O3 0.924809 0.705121 0.760388
O O4 0.029130 0.708604 0.000000
O O5 0.771190 0.406470 0.270374
O O6 0.970448 0.420262 0.199239
O O7 0.831451 0.391756 0.000000
O O8 0.431096 0.314214 0.500000
O O9 0.262348 0.307860 0.333600
O O10 0.437945 0.344816 0.227997
O O11 0.608849 0.103582 0.500000
O O12 0.649757 0.120577 0.775066
O O13 0.664865 0.038312 0.685521
O O14 0.099913 0.329831 0.500000
O O15 0.336460 0.568799 0.500000
O O16 0.321194 0.512501 0.720331
O O17 0.436406 0.585706 0.742467
O O18 0.812311 0.010046 0.500000
O O19 0.861867 0.071523 0.297802
O O20 0.989520 0.106633 0.500000
#
# Coordination Sequence:
#
# PCOD8236178 Si02
#       8
#     8   8   8   8   8   8   8   8
#     4   9  20  38  59  83 115 155 196 237 287 348
#     4   9  19  38  61  83 115 158 200 241 289 348
#     4  10  21  37  58  87 119 150 189 240 296 348
#     4   9  18  36  62  87 112 148 194 241 288 345
#     4  10  19  32  54  84 117 149 186 238 293 343
#     4  12  26  40  57  84 123 161 196 242 300 351
#     4  10  21  39  63  89 115 150 199 244 292 355
#     4  11  23  40  63  87 115 152 199 245 288 352
#
# _framework density 19.152224
#
# number of rings (size 3 to 8) (size 9 to 14) (size 15 to 20)
#    0.000    2.000    1.250    3.000    0.000    7.500 
#    0.000    3.750    0.000    0.000    0.000    0.000 
#    0.000    0.000    0.000    0.000    0.000    0.000 
#
# Total GULP energy -793516.831205 kJ/mol
# GULP energy per Si atom -12398.700488 kJ/mol
# Density = 1.910863 g / cm^3
# Si number density = 19.152224 Si / 1000 Ang^3
#
#
#
# Elastic Constant Matrix: (Units=GPa)
#
#
# Indices 1 2 3 4 5 6 
#
# 1 113.2410 42.2032 54.4557 0.0000 0.0000 0.0000
# 2 42.2032 102.7320 52.7864 0.0000 0.0000 0.0000
# 3 54.4557 52.7864 79.3554 0.0000 0.0000 0.0000
# 4 0.0000 0.0000 0.0000 29.3681 0.0000 0.0000
# 5 0.0000 0.0000 0.0000 0.0000 31.3266 0.0000
# 6 0.0000 0.0000 0.0000 0.0000 0.0000 18.9091
#
#
#
# Elastic Compliance Matrix: (Units=1/GPa)
#
#
# Indices 1 2 3 4 5 6 
#
# 1 0.013273 -0.001174 -0.008327 0.000000 0.000000 0.000000
# 2 -0.001174 0.014893 -0.009101 0.000000 0.000000 0.000000
# 3 -0.008327 -0.009101 0.024370 0.000000 0.000000 0.000000
# 4 0.000000 0.000000 0.000000 0.034051 0.000000 0.000000
# 5 0.000000 0.000000 0.000000 0.000000 0.031922 0.000000
# 6 0.000000 0.000000 0.000000 0.000000 0.000000 0.052885
#
#
# Mechanical properties :
#
#
# Convention : Reuss Voigt Hill
#
# Bulk Modulus (GPa) = 65.22694 66.02433 65.62563
# Shear Modulus (GPa) = 23.39663 25.64629 24.52146
#
# Velocity S-wave (km/s) = 3.49895 3.66331 3.58207
# Velocity P-wave (km/s) = 7.10314 7.24164 7.17273
#
# Compressibility (1/GPa) = 0.01533109
#
# Stress axis : x y z
#
# Youngs Moduli (GPa) = 75.34333 67.14770 41.03452
#
# Poissons Ratio (x) = 0.07881 0.34170
# Poissons Ratio (y) = 0.08843 0.37345
# Poissons Ratio (z) = 0.62740 0.61111
#
# Static dielectric constant tensor:
#      x y z
#    x 3.601010 0.000000 0.000000 
#    y 0.000000 3.594440 0.000000 
#    z 0.000000 0.000000 4.726330 
# 
# 
# High freq. dielectric constant tensor:
#      x y z
#    x 1.751380 0.000000 0.000000 
#    y 0.000000 1.741320 0.000000 
#    z 0.000000 0.000000 1.743140 
# 
# From -- ./inp_files/4714.got.cif
#   From: 2010.06.25/outbox.cif.g09.slc.cpg/sg58_3_cif.got.tgz:4714.got - 2010.06.26 21:38:00.
