data_PCOD8236824
_publ_section_title
;
Structure prediction by ZEFSAII (Michael W. Deem and Ramdas Pophale) SiO2 
 PCOD8236824
Probable space group: P N N M
;
_chemical_formula_sum "Si O2"
_cell_formula_units_Z 40
_cell_length_a 16.776934
_cell_length_b 9.294239
_cell_length_c 12.601402
_cell_angle_alpha 90.000000
_cell_angle_beta 90.000000
_cell_angle_gamma 90.000000
_cell_volume 1964.921924
_symmetry_space_group_name_H-M "P N N M"
_symmetry_group_IT_number 58
_symmetry_cell_setting 'orthorhombic'
loop_
_space_group_symop_operation_xyz
x,y,z
-x,-y,z
1/2+x,1/2-y,1/2-z
1/2-x,1/2+y,1/2-z
-x,-y,-z
x,y,-z
1/2-x,1/2+y,1/2+z
1/2+x,1/2-y,1/2+z
loop_
_atom_site_type_symbol
_atom_site_label
_atom_site_fract_x
_atom_site_fract_y
_atom_site_fract_z
Si Si1 0.553725 0.640262 0.119570
Si Si2 0.801153 0.312086 0.123853
Si Si3 0.425201 0.593404 0.380919
Si Si4 0.701882 0.544103 0.760249
Si Si5 0.020883 0.664271 0.808190
O O1 0.500000 0.500000 0.134212
O O2 0.645205 0.608219 0.148903
O O3 0.520213 0.769533 0.190641
O O4 0.551069 0.696973 0.000000
O O5 0.772554 0.457969 0.181977
O O6 0.764539 0.172457 0.184772
O O7 0.896475 0.305325 0.131610
O O8 0.775134 0.310114 0.000000
O O9 0.500000 0.500000 0.336217
O O10 0.404392 0.546072 0.500000
O O11 0.347498 0.567802 0.311270
O O12 0.450794 0.760126 0.376030
O O13 0.000000 0.500000 0.800013
#
# Coordination Sequence:
#
# PCOD8236824 Si02
#       5
#     8   8   8   8   8
#     4  10  19  37  63  86 117 164 208 248 305 371
#     4  11  25  43  64  92 129 167 205 259 316 369
#     4  11  20  39  68  90 115 159 209 258 310 364
#     4  11  22  41  62  92 125 162 209 258 310 380
#     4  11  23  40  62  94 128 156 209 265 305 367
#
# _framework density 20.357042
#
# number of rings (size 3 to 8) (size 9 to 14) (size 15 to 20)
#    0.000    1.200    6.000    1.800    2.800    2.000 
#    0.000    9.000    0.000    0.000    0.000    0.000 
#    0.000    0.000    0.000    0.000    0.000    0.000 
#
# Total GULP energy -496058.279058 kJ/mol
# GULP energy per Si atom -12401.456976 kJ/mol
# Density = 2.031071 g / cm^3
# Si number density = 20.357042 Si / 1000 Ang^3
#
#
#
# Elastic Constant Matrix: (Units=GPa)
#
#
# Indices 1 2 3 4 5 6 
#
# 1 26.8151 7.5364 17.2605 0.0000 0.0000 0.0000
# 2 7.5364 125.1886 37.8941 0.0000 0.0000 0.0000
# 3 17.2605 37.8941 135.3917 0.0000 0.0000 0.0000
# 4 0.0000 0.0000 0.0000 162.4786 0.0000 0.0000
# 5 0.0000 0.0000 0.0000 0.0000 1643.4375 0.0000
# 6 0.0000 0.0000 0.0000 0.0000 0.0000 38.8159
#
#
#
# Elastic Compliance Matrix: (Units=1/GPa)
#
#
# Indices 1 2 3 4 5 6 
#
# 1 0.040732 -0.000962 -0.004924 0.000000 0.000000 0.000000
# 2 -0.000962 0.008750 -0.002326 0.000000 0.000000 0.000000
# 3 -0.004924 -0.002326 0.008665 0.000000 0.000000 0.000000
# 4 0.000000 0.000000 0.000000 0.006155 0.000000 0.000000
# 5 0.000000 0.000000 0.000000 0.000000 0.000608 0.000000
# 6 0.000000 0.000000 0.000000 0.000000 0.000000 0.025763
#
#
# Mechanical properties :
#
#
# Convention : Reuss Voigt Hill
#
# Bulk Modulus (GPa) = 23.96740 45.86415 34.91577
# Shear Modulus (GPa) = 41.32108 383.92669 212.62389
#
# Velocity S-wave (km/s) = 4.51024 13.74794 10.23104
# Velocity P-wave (km/s) = 6.23875 16.57066 12.52016
#
# Compressibility (1/GPa) = 0.04172335
#
# Stress axis : x y z
#
# Youngs Moduli (GPa) = 24.55080 114.28519 115.40970
#
# Poissons Ratio (x) = 0.10991 0.56822
# Poissons Ratio (y) = 0.02361 0.26849
# Poissons Ratio (z) = 0.12088 0.26587
#
# Static dielectric constant tensor:
#      x y z
#    x 3.465380 0.000000 0.000000 
#    y 0.000000 3.742940 0.000000 
#    z 0.000000 0.000000 3.821880 
# 
# 
# High freq. dielectric constant tensor:
#      x y z
#    x 1.771470 0.000000 0.000000 
#    y 0.000000 1.793100 0.000000 
#    z 0.000000 0.000000 1.809410 
# 
# From -- ./inp_files/16193.got.cif
#   From: 2010.06.25/outbox.cif.g09.slc.cpg/sg58_9_cif.got.tgz:16193.got - 2010.06.26 21:38:00.
