data_PCOD8236160
_publ_section_title
;
Structure prediction by ZEFSAII (Michael W. Deem and Ramdas Pophale) SiO2 
 PCOD8236160
Probable space group: P N N M
;
_chemical_formula_sum "Si O2"
_cell_formula_units_Z 48
_cell_length_a 16.330525
_cell_length_b 11.251628
_cell_length_c 13.690952
_cell_angle_alpha 90.000000
_cell_angle_beta 90.000000
_cell_angle_gamma 90.000000
_cell_volume 2515.643870
_symmetry_space_group_name_H-M "P N N M"
_symmetry_group_IT_number 58
_symmetry_cell_setting 'orthorhombic'
loop_
_space_group_symop_operation_xyz
x,y,z
-x,-y,z
1/2+x,1/2-y,1/2-z
1/2-x,1/2+y,1/2-z
-x,-y,-z
x,y,-z
1/2-x,1/2+y,1/2+z
1/2+x,1/2-y,1/2+z
loop_
_atom_site_type_symbol
_atom_site_label
_atom_site_fract_x
_atom_site_fract_y
_atom_site_fract_z
Si Si1 0.686766 0.628055 0.392144
Si Si2 0.991545 0.139593 0.889612
Si Si3 0.552707 0.881873 0.890238
Si Si4 0.186403 0.494834 0.268824
Si Si5 0.084458 0.254559 0.720748
Si Si6 0.280093 0.629385 0.109222
O O1 0.671580 0.573010 0.500000
O O2 0.599458 0.668561 0.348615
O O3 0.730494 0.526657 0.329086
O O4 0.744361 0.740250 0.399890
O O5 0.058590 0.206598 0.825910
O O6 0.003041 0.186356 0.000000
O O7 0.000000 0.000000 0.882061
O O8 0.632979 0.904615 0.824044
O O9 0.496039 0.779561 0.844241
O O10 0.500000 0.000000 0.896280
O O11 0.579702 0.844205 0.000000
O O12 0.135625 0.373784 0.257209
O O13 0.216058 0.542944 0.163844
O O14 0.134990 0.149583 0.667225
O O15 0.296049 0.577863 0.000000
#
# Coordination Sequence:
#
# PCOD8236160 Si02
#       6
#     8   8   8   8   8   8
#     4   9  18  33  52  74 100 132 169 207 256 314
#     4  10  20  34  53  74  99 134 173 214 260 311
#     4   9  17  31  53  81 108 134 172 219 262 305
#     4  10  19  32  54  80 104 134 173 219 256 295
#     4  10  20  34  54  78 106 139 175 214 260 309
#     4  10  20  34  52  74 104 141 174 208 258 316
#
# _framework density 19.080601999999999
#
# number of rings (size 3 to 8) (size 9 to 14) (size 15 to 20)
#    0.000    2.333    0.000    3.000    0.000    4.667 
#    0.000    0.833    0.000   25.000    0.000    0.000 
#    0.000    0.000    0.000    0.000    0.000    0.000 
#
# Total GULP energy -595033.459586 kJ/mol
# GULP energy per Si atom -12396.530408 kJ/mol
# Density = 1.903717 g / cm^3
# Si number density = 19.080602 Si / 1000 Ang^3
#
#
#
# Elastic Constant Matrix: (Units=GPa)
#
#
# Indices 1 2 3 4 5 6 
#
# 1 107.0333 26.7050 78.6168 0.0000 0.0000 0.0000
# 2 26.7050 39.2660 40.3597 0.0000 0.0000 0.0000
# 3 78.6168 40.3597 142.9081 0.0000 0.0000 0.0000
# 4 0.0000 0.0000 0.0000 564.2119 0.0000 0.0000
# 5 0.0000 0.0000 0.0000 0.0000 39.5702 0.0000
# 6 0.0000 0.0000 0.0000 0.0000 0.0000 26.8919
#
#
#
# Elastic Compliance Matrix: (Units=1/GPa)
#
#
# Indices 1 2 3 4 5 6 
#
# 1 0.015859 -0.002562 -0.008001 0.000000 0.000000 0.000000
# 2 -0.002562 0.036298 -0.008842 0.000000 0.000000 0.000000
# 3 -0.008001 -0.008842 0.013896 0.000000 0.000000 0.000000
# 4 0.000000 0.000000 0.000000 0.001772 0.000000 0.000000
# 5 0.000000 0.000000 0.000000 0.000000 0.025272 0.000000
# 6 0.000000 0.000000 0.000000 0.000000 0.000000 0.037186
#
#
# Mechanical properties :
#
#
# Convention : Reuss Voigt Hill
#
# Bulk Modulus (GPa) = 36.70594 64.50782 50.60688
# Shear Modulus (GPa) = 28.06278 135.70319 81.88299
#
# Velocity S-wave (km/s) = 3.83920 8.44248 6.55800
# Velocity P-wave (km/s) = 6.23952 11.35409 9.16098
#
# Compressibility (1/GPa) = 0.02724355
#
# Stress axis : x y z
#
# Youngs Moduli (GPa) = 63.05712 27.54992 71.96392
#
# Poissons Ratio (x) = 0.07058 0.57575
# Poissons Ratio (y) = 0.16156 0.63628
# Poissons Ratio (z) = 0.50449 0.24359
#
# Static dielectric constant tensor:
#      x y z
#    x 4.038830 0.000000 0.000000 
#    y 0.000000 3.183720 0.000000 
#    z 0.000000 0.000000 3.707020 
# 
# 
# High freq. dielectric constant tensor:
#      x y z
#    x 1.752410 0.000000 0.000000 
#    y 0.000000 1.711130 0.000000 
#    z 0.000000 0.000000 1.744440 
# 
# From -- ./inp_files/14365.got.cif
#   From: 2010.06.25/outbox.cif.g09.slc.cpg/sg58_8_cif.got.tgz:14365.got - 2010.06.26 21:38:00.
