data_PCOD8236806
_publ_section_title
;
Structure prediction by ZEFSAII (Michael W. Deem and Ramdas Pophale) SiO2 
 PCOD8236806
Probable space group: P N N M
;
_chemical_formula_sum "Si O2"
_cell_formula_units_Z 64
_cell_length_a 24.714669
_cell_length_b 14.606924
_cell_length_c 9.066914
_cell_angle_alpha 90.000000
_cell_angle_beta 90.000000
_cell_angle_gamma 90.000000
_cell_volume 3273.203934
_symmetry_space_group_name_H-M "P N N M"
_symmetry_group_IT_number 58
_symmetry_cell_setting 'orthorhombic'
loop_
_space_group_symop_operation_xyz
x,y,z
-x,-y,z
1/2+x,1/2-y,1/2-z
1/2-x,1/2+y,1/2-z
-x,-y,-z
x,y,-z
1/2-x,1/2+y,1/2+z
1/2+x,1/2-y,1/2+z
loop_
_atom_site_type_symbol
_atom_site_label
_atom_site_fract_x
_atom_site_fract_y
_atom_site_fract_z
Si Si1 0.446875 0.450396 0.174714
Si Si2 0.066097 0.744126 0.673766
Si Si3 0.170374 0.015718 0.675901
Si Si4 0.978125 0.596862 0.673529
Si Si5 0.758446 0.630459 0.825401
Si Si6 0.259307 0.659725 0.324567
Si Si7 0.652719 0.866586 0.331586
Si Si8 0.873430 0.567192 0.167381
O O1 0.500000 0.500000 0.242406
O O2 0.449162 0.345366 0.226176
O O3 0.391078 0.496818 0.228803
O O4 0.448925 0.455754 0.000000
O O5 0.077916 0.738567 0.500000
O O6 0.120972 0.716397 0.755982
O O7 0.017762 0.677846 0.722557
O O8 0.174208 0.027440 0.500000
O O9 0.188470 0.110007 0.754245
O O10 0.208165 0.931130 0.731646
O O11 0.971091 0.593208 0.500000
O O12 0.919798 0.618700 0.741972
O O13 0.000000 0.500000 0.733948
O O14 0.754511 0.735066 0.771951
O O15 0.815067 0.591472 0.763777
O O16 0.758318 0.624915 0.000000
O O17 0.261457 0.650320 0.500000
O O18 0.206944 0.610277 0.257985
O O19 0.666947 0.841306 0.500000
O O20 0.616746 0.958223 0.323521
O O21 0.876806 0.602575 0.000000
#
# Coordination Sequence:
#
# PCOD8236806 Si02
#       8
#     8   8   8   8   8   8   8   8
#     4   9  19  36  60  86 110 150 200 237 276 338
#     4  10  20  36  58  81 112 151 190 235 285 336
#     4  10  19  37  61  83 113 149 192 239 280 331
#     4  10  20  33  51  81 116 142 174 227 284 329
#     4   9  19  37  56  79 112 152 188 221 277 346
#     4  11  22  36  59  86 114 149 189 231 286 345
#     4  11  21  35  57  83 112 146 191 235 275 334
#     4  10  20  35  55  76 107 149 188 222 267 338
#
# _framework density 19.552707999999999
#
# number of rings (size 3 to 8) (size 9 to 14) (size 15 to 20)
#    0.000    2.000    2.500    1.500    0.000    4.250 
#    0.000    5.625    0.000    1.500    0.000    0.000 
#    0.000    0.000    0.000    0.000    0.000    0.000 
#
# Total GULP energy -793607.296958 kJ/mol
# GULP energy per Si atom -12400.114015 kJ/mol
# Density = 1.950821 g / cm^3
# Si number density = 19.552708 Si / 1000 Ang^3
#
#
#
# Elastic Constant Matrix: (Units=GPa)
#
#
# Indices 1 2 3 4 5 6 
#
# 1 156.4004 55.3509 34.3333 0.0000 0.0000 0.0000
# 2 55.3509 100.6934 30.4529 0.0000 0.0000 0.0000
# 3 34.3333 30.4529 41.1204 0.0000 0.0000 0.0000
# 4 0.0000 0.0000 0.0000 22.4663 0.0000 0.0000
# 5 0.0000 0.0000 0.0000 0.0000 26.2982 0.0000
# 6 0.0000 0.0000 0.0000 0.0000 0.0000 35.3645
#
#
#
# Elastic Compliance Matrix: (Units=1/GPa)
#
#
# Indices 1 2 3 4 5 6 
#
# 1 0.008600 -0.003294 -0.004742 0.000000 0.000000 0.000000
# 2 -0.003294 0.014059 -0.007662 0.000000 0.000000 0.000000
# 3 -0.004742 -0.007662 0.033952 0.000000 0.000000 0.000000
# 4 0.000000 0.000000 0.000000 0.044511 0.000000 0.000000
# 5 0.000000 0.000000 0.000000 0.000000 0.038025 0.000000
# 6 0.000000 0.000000 0.000000 0.000000 0.000000 0.028277
#
#
# Mechanical properties :
#
#
# Convention : Reuss Voigt Hill
#
# Bulk Modulus (GPa) = 39.65546 59.83204 49.74375
# Shear Modulus (GPa) = 24.12848 28.69762 26.41305
#
# Velocity S-wave (km/s) = 3.51668 3.83522 3.67940
# Velocity P-wave (km/s) = 6.06751 7.09075 6.59899
#
# Compressibility (1/GPa) = 0.02521721
#
# Stress axis : x y z
#
# Youngs Moduli (GPa) = 116.27433 71.13017 29.45338
#
# Poissons Ratio (x) = 0.23427 0.13966
# Poissons Ratio (y) = 0.38295 0.22566
# Poissons Ratio (z) = 0.55134 0.54498
#
# Static dielectric constant tensor:
#      x y z
#    x 3.702660 0.000000 0.000000 
#    y 0.000000 3.637770 0.000000 
#    z 0.000000 0.000000 3.200020 
# 
# 
# High freq. dielectric constant tensor:
#      x y z
#    x 1.770060 0.000000 0.000000 
#    y 0.000000 1.761840 0.000000 
#    z 0.000000 0.000000 1.727110 
# 
# From -- ./inp_files/10057.got.cif
#   From: 2010.06.25/outbox.cif.g09.slc.cpg/sg58_6_cif.got.tgz:10057.got - 2010.06.26 21:38:00.
