data_PCOD8236522
_publ_section_title
;
Structure prediction by ZEFSAII (Michael W. Deem and Ramdas Pophale) SiO2 
 PCOD8236522
Probable space group: P N N M
;
_chemical_formula_sum "Si O2"
_cell_formula_units_Z 56
_cell_length_a 19.641650
_cell_length_b 16.375128
_cell_length_c 9.166605
_cell_angle_alpha 90.000000
_cell_angle_beta 90.000000
_cell_angle_gamma 90.000000
_cell_volume 2948.296717
_symmetry_space_group_name_H-M "P N N M"
_symmetry_group_IT_number 58
_symmetry_cell_setting 'orthorhombic'
loop_
_space_group_symop_operation_xyz
x,y,z
-x,-y,z
1/2+x,1/2-y,1/2-z
1/2-x,1/2+y,1/2-z
-x,-y,-z
x,y,-z
1/2-x,1/2+y,1/2+z
1/2+x,1/2-y,1/2+z
loop_
_atom_site_type_symbol
_atom_site_label
_atom_site_fract_x
_atom_site_fract_y
_atom_site_fract_z
Si Si1 0.114988 0.802606 0.165356
Si Si2 0.626723 0.366723 0.167676
Si Si3 0.512975 0.239151 0.827832
Si Si4 0.451946 0.926796 0.331386
Si Si5 0.670717 0.519571 0.330296
Si Si6 0.764020 0.737155 0.665378
Si Si7 0.202470 0.421191 0.168615
O O1 0.060700 0.768756 0.277850
O O2 0.183679 0.750394 0.190196
O O3 0.130492 0.896972 0.199686
O O4 0.088175 0.792261 0.000000
O O5 0.567823 0.306258 0.223142
O O6 0.624631 0.447778 0.264532
O O7 0.699718 0.323511 0.190261
O O8 0.615090 0.391412 0.000000
O O9 0.531410 0.152733 0.760618
O O10 0.513806 0.229024 0.000000
O O11 0.466310 0.906174 0.500000
O O12 0.373847 0.954697 0.308041
O O13 0.500000 0.000000 0.276682
O O14 0.682319 0.504021 0.500000
O O15 0.744828 0.521601 0.255052
O O16 0.777055 0.704910 0.500000
O O17 0.795284 0.671575 0.775261
O O18 0.223628 0.422334 0.000000
#
# Coordination Sequence:
#
# PCOD8236522 Si02
#       7
#     8   8   8   8   8   8   8
#     4   9  20  38  58  80 113 155 193 235 285 346
#     4  10  21  37  58  84 115 151 193 239 291 345
#     4  11  23  38  59  86 117 153 190 241 296 342
#     4  10  22  39  59  84 116 155 194 232 284 352
#     4  10  22  38  58  84 114 152 194 240 290 340
#     4   9  18  36  59  80 109 150 191 234 287 344
#     4  10  19  34  58  83 109 144 187 236 285 336
#
# _framework density 18.994018000000001
#
# number of rings (size 3 to 8) (size 9 to 14) (size 15 to 20)
#    0.000    2.143    1.429    2.143    0.000    7.143 
#    0.000    8.571    0.000    0.000    0.000    0.000 
#    0.000    0.000    0.000    0.000    0.000    0.000 
#
# Total GULP energy -694561.624534 kJ/mol
# GULP energy per Si atom -12402.886152 kJ/mol
# Density = 1.895079 g / cm^3
# Si number density = 18.994018 Si / 1000 Ang^3
#
#
#
# Elastic Constant Matrix: (Units=GPa)
#
#
# Indices 1 2 3 4 5 6 
#
# 1 93.0321 21.7241 35.2862 0.0000 0.0000 0.0000
# 2 21.7241 34.1739 21.6813 0.0000 0.0000 0.0000
# 3 35.2862 21.6813 76.2107 0.0000 0.0000 0.0000
# 4 0.0000 0.0000 0.0000 34.3716 0.0000 0.0000
# 5 0.0000 0.0000 0.0000 0.0000 29.1245 0.0000
# 6 0.0000 0.0000 0.0000 0.0000 0.0000 27.7091
#
#
#
# Elastic Compliance Matrix: (Units=1/GPa)
#
#
# Indices 1 2 3 4 5 6 
#
# 1 0.013924 -0.005810 -0.004794 0.000000 0.000000 0.000000
# 2 -0.005810 0.038131 -0.008158 0.000000 0.000000 0.000000
# 3 -0.004794 -0.008158 0.017662 0.000000 0.000000 0.000000
# 4 0.000000 0.000000 0.000000 0.029094 0.000000 0.000000
# 5 0.000000 0.000000 0.000000 0.000000 0.034335 0.000000
# 6 0.000000 0.000000 0.000000 0.000000 0.000000 0.036089
#
#
# Mechanical properties :
#
#
# Convention : Reuss Voigt Hill
#
# Bulk Modulus (GPa) = 31.06223 40.08888 35.57555
# Shear Modulus (GPa) = 22.98951 26.55605 24.77278
#
# Velocity S-wave (km/s) = 3.48279 3.74321 3.61535
# Velocity P-wave (km/s) = 5.70634 6.31142 6.01649
#
# Compressibility (1/GPa) = 0.03219344
#
# Stress axis : x y z
#
# Youngs Moduli (GPa) = 71.81846 26.22529 56.61840
#
# Poissons Ratio (x) = 0.15236 0.27143
# Poissons Ratio (y) = 0.41725 0.46189
# Poissons Ratio (z) = 0.34430 0.21395
#
# Static dielectric constant tensor:
#      x y z
#    x 3.604440 0.000000 0.000000 
#    y 0.000000 3.348060 0.000000 
#    z 0.000000 0.000000 3.487910 
# 
# 
# High freq. dielectric constant tensor:
#      x y z
#    x 1.744610 0.000000 0.000000 
#    y 0.000000 1.728900 0.000000 
#    z 0.000000 0.000000 1.740970 
# 
# From -- ./inp_files/6346.got.cif
#   From: 2010.06.25/outbox.cif.g09.slc.cpg/sg58_4_cif.got.tgz:6346.got - 2010.06.26 21:38:00.
