data_PCOD8236708
_publ_section_title
;
Structure prediction by ZEFSAII (Michael W. Deem and Ramdas Pophale) SiO2 
 PCOD8236708
Probable space group: P N N M
;
_chemical_formula_sum "Si O2"
_cell_formula_units_Z 64
_cell_length_a 11.798805
_cell_length_b 15.099020
_cell_length_c 18.038449
_cell_angle_alpha 90.000000
_cell_angle_beta 90.000000
_cell_angle_gamma 90.000000
_cell_volume 3213.556773
_symmetry_space_group_name_H-M "P N N M"
_symmetry_group_IT_number 58
_symmetry_cell_setting 'orthorhombic'
loop_
_space_group_symop_operation_xyz
x,y,z
-x,-y,z
1/2+x,1/2-y,1/2-z
1/2-x,1/2+y,1/2-z
-x,-y,-z
x,y,-z
1/2-x,1/2+y,1/2+z
1/2+x,1/2-y,1/2+z
loop_
_atom_site_type_symbol
_atom_site_label
_atom_site_fract_x
_atom_site_fract_y
_atom_site_fract_z
Si Si1 0.531676 0.151973 0.412349
Si Si2 0.631420 0.014066 0.916021
Si Si3 0.762334 0.052998 0.415830
Si Si4 0.710907 0.871996 0.647746
Si Si5 0.285247 0.560155 0.699984
Si Si6 0.274003 0.317838 0.414350
Si Si7 0.505427 0.332939 0.660195
Si Si8 0.590599 0.576983 0.211753
O O1 0.511376 0.171046 0.500000
O O2 0.633755 0.083653 0.401109
O O3 0.419847 0.111968 0.374585
O O4 0.559439 0.240813 0.366308
O O5 0.689846 0.944669 0.862051
O O6 0.500000 0.000000 0.902753
O O7 0.672766 0.113768 0.896988
O O8 0.665961 0.991002 0.000000
O O9 0.798125 0.070121 0.500000
O O10 0.849840 0.108382 0.364543
O O11 0.778212 0.949420 0.395310
O O12 0.735699 0.876908 0.735423
O O13 0.753519 0.774716 0.625771
O O14 0.395892 0.594750 0.656068
O O15 0.312792 0.463965 0.734405
O O16 0.282246 0.295567 0.500000
O O17 0.396535 0.357066 0.390175
O O18 0.463780 0.337326 0.747052
O O19 0.500000 0.500000 0.194784
#
# Coordination Sequence:
#
# PCOD8236708 Si02
#       8
#     8   8   8   8   8   8   8   8
#     4  10  21  35  56  88 119 151 198 251 302 359
#     4  10  22  40  61  88 123 159 203 253 302 366
#     4  10  20  35  58  84 117 158 197 251 307 356
#     4  10  20  36  56  88 122 155 199 251 297 370
#     4  10  21  37  56  87 115 151 202 246 302 354
#     4  10  20  37  63  90 117 158 204 249 303 361
#     4  10  19  36  57  83 120 149 197 252 296 349
#     4   9  19  35  56  81 114 148 199 250 284 366
#
# _framework density 19.915628000000002
#
# number of rings (size 3 to 8) (size 9 to 14) (size 15 to 20)
#    0.000    2.125    1.250    2.625    0.000    6.250 
#    4.500    1.250    2.750    0.000    0.000    0.000 
#    0.000    0.000    0.000    0.000    0.000    0.000 
#
# Total GULP energy -793143.696510 kJ/mol
# GULP energy per Si atom -12392.870258 kJ/mol
# Density = 1.987030 g / cm^3
# Si number density = 19.915628 Si / 1000 Ang^3
#
#
#
# Elastic Constant Matrix: (Units=GPa)
#
#
# Indices 1 2 3 4 5 6 
#
# 1 90.0966 40.5487 70.1930 0.0000 0.0000 0.0000
# 2 40.5487 84.4918 66.0420 0.0000 0.0000 0.0000
# 3 70.1930 66.0420 119.7154 0.0000 0.0000 0.0000
# 4 0.0000 0.0000 0.0000 30.1474 0.0000 0.0000
# 5 0.0000 0.0000 0.0000 0.0000 38.0943 0.0000
# 6 0.0000 0.0000 0.0000 0.0000 0.0000 25.4771
#
#
#
# Elastic Compliance Matrix: (Units=1/GPa)
#
#
# Indices 1 2 3 4 5 6 
#
# 1 0.020462 -0.000778 -0.011569 0.000000 0.000000 0.000000
# 2 -0.000778 0.020837 -0.011039 0.000000 0.000000 0.000000
# 3 -0.011569 -0.011039 0.021226 0.000000 0.000000 0.000000
# 4 0.000000 0.000000 0.000000 0.033170 0.000000 0.000000
# 5 0.000000 0.000000 0.000000 0.000000 0.026251 0.000000
# 6 0.000000 0.000000 0.000000 0.000000 0.000000 0.039251
#
#
# Mechanical properties :
#
#
# Convention : Reuss Voigt Hill
#
# Bulk Modulus (GPa) = 63.47298 71.98571 67.72935
# Shear Modulus (GPa) = 23.44998 26.57842 25.01420
#
# Velocity S-wave (km/s) = 3.43515 3.65711 3.54787
# Velocity P-wave (km/s) = 6.90462 7.35231 7.13198
#
# Compressibility (1/GPa) = 0.01575474
#
# Stress axis : x y z
#
# Youngs Moduli (GPa) = 48.87076 47.99098 47.11183
#
# Poissons Ratio (x) = 0.03731 0.54502
# Poissons Ratio (y) = 0.03800 0.52008
# Poissons Ratio (z) = 0.56537 0.52978
#
# Static dielectric constant tensor:
#      x y z
#    x 3.638200 0.000000 0.000000 
#    y 0.000000 3.476330 0.000000 
#    z 0.000000 0.000000 3.794810 
# 
# 
# High freq. dielectric constant tensor:
#      x y z
#    x 1.774340 0.000000 0.000000 
#    y 0.000000 1.756770 0.000000 
#    z 0.000000 0.000000 1.783590 
# 
# From -- ./inp_files/26364.got.cif
#   From: 2010.06.25/outbox.cif.g09.slc.cpg/sg58_14_cif.got.tgz:26364.got - 2010.06.26 21:38:00.
