data_PCOD8236964
_publ_section_title
;
Structure prediction by ZEFSAII (Michael W. Deem and Ramdas Pophale) SiO2 
 PCOD8236964
Probable space group: P N N M
;
_chemical_formula_sum "Si O2"
_cell_formula_units_Z 56
_cell_length_a 21.552466
_cell_length_b 15.061144
_cell_length_c 8.874597
_cell_angle_alpha 90.000000
_cell_angle_beta 90.000000
_cell_angle_gamma 90.000000
_cell_volume 2880.736731
_symmetry_space_group_name_H-M "P N N M"
_symmetry_group_IT_number 58
_symmetry_cell_setting 'orthorhombic'
loop_
_space_group_symop_operation_xyz
x,y,z
-x,-y,z
1/2+x,1/2-y,1/2-z
1/2-x,1/2+y,1/2-z
-x,-y,-z
x,y,-z
1/2-x,1/2+y,1/2+z
1/2+x,1/2-y,1/2+z
loop_
_atom_site_type_symbol
_atom_site_label
_atom_site_fract_x
_atom_site_fract_y
_atom_site_fract_z
Si Si1 0.736205 0.724755 0.675684
Si Si2 0.104244 0.711634 0.174984
Si Si3 0.477368 0.376003 0.325304
Si Si4 0.085848 0.039587 0.677663
Si Si5 0.067413 0.527757 0.677875
Si Si6 0.192353 0.445178 0.677538
Si Si7 0.722680 0.416488 0.825489
O O1 0.730073 0.704938 0.500000
O O2 0.666550 0.740515 0.740253
O O3 0.773063 0.641084 0.750538
O O4 0.776578 0.811915 0.708952
O O5 0.046213 0.776627 0.200321
O O6 0.088997 0.621804 0.259445
O O7 0.115002 0.688826 0.000000
O O8 0.473451 0.403507 0.500000
O O9 0.435866 0.442812 0.227894
O O10 0.547545 0.383567 0.264409
O O11 0.076675 0.052579 0.500000
O O12 0.156652 0.047315 0.727094
O O13 0.062634 0.538244 0.500000
O O14 0.119232 0.453163 0.722217
O O15 0.000000 0.500000 0.744572
O O16 0.198191 0.439734 0.500000
O O17 0.224447 0.535202 0.731678
O O18 0.735641 0.435639 0.000000
#
# Coordination Sequence:
#
# PCOD8236964 Si02
#       7
#     8   8   8   8   8   8   8
#     4   9  18  34  56  79 106 143 185 227 278 339
#     4  10  20  36  58  80 106 147 193 232 280 339
#     4  10  20  34  54  79 108 148 188 227 274 331
#     4  10  20  33  52  81 112 146 182 228 285 333
#     4  10  22  38  57  83 114 148 187 235 287 339
#     4  10  20  36  58  82 110 147 190 233 282 336
#     4  10  20  35  56  80 109 143 179 225 280 332
#
# _framework density 19.439471999999999
#
# number of rings (size 3 to 8) (size 9 to 14) (size 15 to 20)
#    0.000    2.143    1.429    2.571    0.000    4.857 
#    0.000    4.286    0.000    0.000    0.000    0.000 
#    0.000    0.000    0.000    0.000    0.000    0.000 
#
# Total GULP energy -694224.545194 kJ/mol
# GULP energy per Si atom -12396.866878 kJ/mol
# Density = 1.939523 g / cm^3
# Si number density = 19.439472 Si / 1000 Ang^3
#
#
#
# Elastic Constant Matrix: (Units=GPa)
#
#
# Indices 1 2 3 4 5 6 
#
# 1 148.4639 61.0293 33.1390 0.0000 0.0000 0.0000
# 2 61.0293 104.3080 13.4226 0.0000 0.0000 0.0000
# 3 33.1390 13.4226 17.1301 0.0000 0.0000 0.0000
# 4 0.0000 0.0000 0.0000 27.2738 0.0000 0.0000
# 5 0.0000 0.0000 0.0000 0.0000 18.1259 0.0000
# 6 0.0000 0.0000 0.0000 0.0000 0.0000 31.3790
#
#
#
# Elastic Compliance Matrix: (Units=1/GPa)
#
#
# Indices 1 2 3 4 5 6 
#
# 1 0.014036 -0.005247 -0.023041 0.000000 0.000000 0.000000
# 2 -0.005247 0.012624 0.000259 0.000000 0.000000 0.000000
# 3 -0.023041 0.000259 0.102748 0.000000 0.000000 0.000000
# 4 0.000000 0.000000 0.000000 0.036665 0.000000 0.000000
# 5 0.000000 0.000000 0.000000 0.000000 0.055170 0.000000
# 6 0.000000 0.000000 0.000000 0.000000 0.000000 0.031868
#
#
# Mechanical properties :
#
#
# Convention : Reuss Voigt Hill
#
# Bulk Modulus (GPa) = 13.63337 53.89822 33.76580
# Shear Modulus (GPa) = 14.98714 26.17647 20.58180
#
# Velocity S-wave (km/s) = 2.77964 3.67353 3.25739
# Velocity P-wave (km/s) = 4.16297 6.76606 5.61738
#
# Compressibility (1/GPa) = 0.07334942
#
# Stress axis : x y z
#
# Youngs Moduli (GPa) = 71.24687 79.21645 9.73251
#
# Poissons Ratio (x) = 0.41566 0.22425
# Poissons Ratio (y) = 0.37384 -0.00252
# Poissons Ratio (z) = 1.64162 -0.02054
#
# Static dielectric constant tensor:
#      x y z
#    x 4.015970 0.000000 0.000000 
#    y 0.000000 3.565380 0.000000 
#    z 0.000000 0.000000 3.359790 
# 
# 
# High freq. dielectric constant tensor:
#      x y z
#    x 1.771190 0.000000 0.000000 
#    y 0.000000 1.754550 0.000000 
#    z 0.000000 0.000000 1.733720 
# 
# From -- ./inp_files/8975.got.cif
#   From: 2010.06.25/outbox.cif.g09.slc.cpg/sg58_5_cif.got.tgz:8975.got - 2010.06.26 21:38:00.
