data_PCOD8236357
_publ_section_title
;
Structure prediction by ZEFSAII (Michael W. Deem and Ramdas Pophale) SiO2 
 PCOD8236357
Probable space group: P N N M
;
_chemical_formula_sum "Si O2"
_cell_formula_units_Z 48
_cell_length_a 11.959601
_cell_length_b 9.893414
_cell_length_c 23.192554
_cell_angle_alpha 90.000000
_cell_angle_beta 90.000000
_cell_angle_gamma 90.000000
_cell_volume 2744.172768
_symmetry_space_group_name_H-M "P N N M"
_symmetry_group_IT_number 58
_symmetry_cell_setting 'orthorhombic'
loop_
_space_group_symop_operation_xyz
x,y,z
-x,-y,z
1/2+x,1/2-y,1/2-z
1/2-x,1/2+y,1/2-z
-x,-y,-z
x,y,-z
1/2-x,1/2+y,1/2+z
1/2+x,1/2-y,1/2+z
loop_
_atom_site_type_symbol
_atom_site_label
_atom_site_fract_x
_atom_site_fract_y
_atom_site_fract_z
Si Si1 0.291020 0.223929 0.338718
Si Si2 0.229773 0.037527 0.828171
Si Si3 0.948598 0.362133 0.934423
Si Si4 0.404822 0.605156 0.434754
Si Si5 0.439701 0.137236 0.762553
Si Si6 0.086977 0.112718 0.280388
O O1 0.250031 0.377563 0.332474
O O2 0.337643 0.188498 0.401717
O O3 0.391930 0.203904 0.294723
O O4 0.191620 0.119051 0.324125
O O5 0.198889 0.092617 0.891422
O O6 0.344328 0.110773 0.810187
O O7 0.131006 0.075620 0.783514
O O8 0.000000 0.500000 0.908368
O O9 0.047641 0.254780 0.930111
O O10 0.909397 0.384192 0.000000
O O11 0.500000 0.500000 0.415298
O O12 0.364436 0.572796 0.500000
O O13 0.530395 0.241547 0.785895
O O14 0.500000 0.000000 0.744938
O O15 0.000000 0.000000 0.301796
#
# Coordination Sequence:
#
# PCOD8236357 Si02
#       6
#     8   8   8   8   8   8
#     4  11  21  34  57  80 105 146 179 216 271 322
#     4  11  21  34  56  80 109 141 180 222 262 323
#     4  10  21  36  55  84 113 137 174 226 274 321
#     4  10  19  33  57  82 106 137 174 220 274 320
#     4  11  22  35  51  77 109 141 176 221 267 313
#     4  11  22  36  53  78 111 143 178 220 266 315
#
# _framework density 17.491610999999999
#
# number of rings (size 3 to 8) (size 9 to 14) (size 15 to 20)
#    0.000    1.333    5.000    2.000    0.000    1.333 
#    0.000    0.000    0.000    2.000    0.000    0.000 
#    0.000    0.000    0.000    0.000    0.000    0.000 
#
# Total GULP energy -595328.801633 kJ/mol
# GULP energy per Si atom -12402.683367 kJ/mol
# Density = 1.745180 g / cm^3
# Si number density = 17.491611 Si / 1000 Ang^3
#
#
#
# Elastic Constant Matrix: (Units=GPa)
#
#
# Indices 1 2 3 4 5 6 
#
# 1 65.0394 14.6986 35.0943 0.0000 0.0000 0.0000
# 2 14.6986 97.7627 17.6117 0.0000 0.0000 0.0000
# 3 35.0943 17.6117 87.9659 0.0000 0.0000 0.0000
# 4 0.0000 0.0000 0.0000 22.7068 0.0000 0.0000
# 5 0.0000 0.0000 0.0000 0.0000 9.2786 0.0000
# 6 0.0000 0.0000 0.0000 0.0000 0.0000 36.0128
#
#
#
# Elastic Compliance Matrix: (Units=1/GPa)
#
#
# Indices 1 2 3 4 5 6 
#
# 1 0.019836 -0.001615 -0.007590 0.000000 0.000000 0.000000
# 2 -0.001615 0.010743 -0.001507 0.000000 0.000000 0.000000
# 3 -0.007590 -0.001507 0.014698 0.000000 0.000000 0.000000
# 4 0.000000 0.000000 0.000000 0.044040 0.000000 0.000000
# 5 0.000000 0.000000 0.000000 0.000000 0.107774 0.000000
# 6 0.000000 0.000000 0.000000 0.000000 0.000000 0.027768
#
#
# Mechanical properties :
#
#
# Convention : Reuss Voigt Hill
#
# Bulk Modulus (GPa) = 41.92316 42.84193 42.38254
# Shear Modulus (GPa) = 19.66697 25.82387 22.74542
#
# Velocity S-wave (km/s) = 3.35679 3.84651 3.60997
# Velocity P-wave (km/s) = 6.24850 6.65383 6.45435
#
# Compressibility (1/GPa) = 0.02385317
#
# Stress axis : x y z
#
# Youngs Moduli (GPa) = 50.41378 93.08329 68.03720
#
# Poissons Ratio (x) = 0.15032 0.51642
# Poissons Ratio (y) = 0.08142 0.10250
# Poissons Ratio (z) = 0.38265 0.14024
#
# Static dielectric constant tensor:
#      x y z
#    x 3.179810 0.000000 0.000000 
#    y 0.000000 3.434400 0.000000 
#    z 0.000000 0.000000 3.176160 
# 
# 
# High freq. dielectric constant tensor:
#      x y z
#    x 1.663110 0.000000 0.000000 
#    y 0.000000 1.695170 0.000000 
#    z 0.000000 0.000000 1.660220 
# 
# From -- ./inp_files/29519.got.cif
#   From: 2010.06.25/outbox.cif.g09.slc.cpg/sg58_15_cif.got.tgz:29519.got - 2010.06.26 21:38:00.
