data_PCOD8236039
_publ_section_title
;
Structure prediction by ZEFSAII (Michael W. Deem and Ramdas Pophale) SiO2 
 PCOD8236039
Probable space group: P N N M
;
_chemical_formula_sum "Si O2"
_cell_formula_units_Z 48
_cell_length_a 20.512035
_cell_length_b 14.442562
_cell_length_c 9.250857
_cell_angle_alpha 90.000000
_cell_angle_beta 90.000000
_cell_angle_gamma 90.000000
_cell_volume 2740.532503
_symmetry_space_group_name_H-M "P N N M"
_symmetry_group_IT_number 58
_symmetry_cell_setting 'orthorhombic'
loop_
_space_group_symop_operation_xyz
x,y,z
-x,-y,z
1/2+x,1/2-y,1/2-z
1/2-x,1/2+y,1/2-z
-x,-y,-z
x,y,-z
1/2-x,1/2+y,1/2+z
1/2+x,1/2-y,1/2+z
loop_
_atom_site_type_symbol
_atom_site_label
_atom_site_fract_x
_atom_site_fract_y
_atom_site_fract_z
Si Si1 0.272989 0.504640 0.669393
Si Si2 0.625412 0.996785 0.171545
Si Si3 0.425995 0.810716 0.171438
Si Si4 0.071982 0.698216 0.671019
Si Si5 0.309635 0.682135 0.171319
Si Si6 0.816270 0.200979 0.831293
O O1 0.275640 0.526750 0.500000
O O2 0.199268 0.505984 0.728284
O O3 0.313228 0.582422 0.754047
O O4 0.303730 0.405713 0.705294
O O5 0.588127 0.905460 0.225178
O O6 0.589762 0.087448 0.235868
O O7 0.625336 0.002577 0.000000
O O8 0.498106 0.779072 0.219340
O O9 0.372877 0.737634 0.228067
O O10 0.421758 0.817269 0.000000
O O11 0.081505 0.706583 0.500000
O O12 0.119140 0.771275 0.745994
O O13 0.245173 0.737848 0.220466
O O14 0.311286 0.669656 0.000000
O O15 0.828358 0.216174 0.000000
#
# Coordination Sequence:
#
# PCOD8236039 Si02
#       6
#     8   8   8   8   8   8
#     4  10  19  33  53  77 102 131 169 208 248 299
#     4   9  15  27  50  79 104 125 159 208 254 299
#     4   9  17  31  51  77 105 133 166 207 259 302
#     4  10  19  31  53  80 103 130 169 214 250 295
#     4  10  19  33  53  75 101 133 168 207 250 298
#     4  10  20  34  52  73 104 139 165 200 254 307
#
# _framework density 17.514844
#
# number of rings (size 3 to 8) (size 9 to 14) (size 15 to 20)
#    0.000    2.333    3.333    0.500    0.000    2.667 
#    0.000    1.667    0.000    9.000    0.000    0.000 
#    0.000    0.000    0.000    0.000    0.000    0.000 
#
# Total GULP energy -595196.861330 kJ/mol
# GULP energy per Si atom -12399.934611 kJ/mol
# Density = 1.747498 g / cm^3
# Si number density = 17.514844 Si / 1000 Ang^3
#
#
#
# Elastic Constant Matrix: (Units=GPa)
#
#
# Indices 1 2 3 4 5 6 
#
# 1 141.9984 69.3470 28.3313 0.0000 0.0000 0.0000
# 2 69.3470 125.9875 35.8260 0.0000 0.0000 0.0000
# 3 28.3313 35.8260 22.7319 0.0000 0.0000 0.0000
# 4 0.0000 0.0000 0.0000 28.7267 0.0000 0.0000
# 5 0.0000 0.0000 0.0000 0.0000 24.1864 0.0000
# 6 0.0000 0.0000 0.0000 0.0000 0.0000 31.5028
#
#
#
# Elastic Compliance Matrix: (Units=1/GPa)
#
#
# Indices 1 2 3 4 5 6 
#
# 1 0.010213 -0.003628 -0.007011 0.000000 0.000000 0.000000
# 2 -0.003628 0.015672 -0.020178 0.000000 0.000000 0.000000
# 3 -0.007011 -0.020178 0.084530 0.000000 0.000000 0.000000
# 4 0.000000 0.000000 0.000000 0.034811 0.000000 0.000000
# 5 0.000000 0.000000 0.000000 0.000000 0.041346 0.000000
# 6 0.000000 0.000000 0.000000 0.000000 0.000000 0.031743
#
#
# Mechanical properties :
#
#
# Convention : Reuss Voigt Hill
#
# Bulk Modulus (GPa) = 20.49962 61.96961 41.23462
# Shear Modulus (GPa) = 16.87996 27.36408 22.12202
#
# Velocity S-wave (km/s) = 3.10780 3.95693 3.55779
# Velocity P-wave (km/s) = 4.96059 7.50562 6.36168
#
# Compressibility (1/GPa) = 0.04878138
#
# Stress axis : x y z
#
# Youngs Moduli (GPa) = 97.91599 63.80809 11.83005
#
# Poissons Ratio (x) = 0.23148 0.08294
# Poissons Ratio (y) = 0.35521 0.23871
# Poissons Ratio (z) = 0.68650 1.28753
#
# Static dielectric constant tensor:
#      x y z
#    x 3.374210 0.000000 0.000000 
#    y 0.000000 3.301990 0.000000 
#    z 0.000000 0.000000 2.826840 
# 
# 
# High freq. dielectric constant tensor:
#      x y z
#    x 1.680670 0.000000 0.000000 
#    y 0.000000 1.682350 0.000000 
#    z 0.000000 0.000000 1.633760 
# 
# From -- ./inp_files/5752.got.cif
#   From: 2010.06.25/outbox.cif.g09.slc.cpg/sg58_3_cif.got.tgz:5752.got - 2010.06.26 21:38:00.
