data_PCOD8236551
_publ_section_title
;
Structure prediction by ZEFSAII (Michael W. Deem and Ramdas Pophale) SiO2 
 PCOD8236551
Probable space group: P N N M
;
_chemical_formula_sum "Si O2"
_cell_formula_units_Z 64
_cell_length_a 29.332020
_cell_length_b 12.712932
_cell_length_c 8.603511
_cell_angle_alpha 90.000000
_cell_angle_beta 90.000000
_cell_angle_gamma 90.000000
_cell_volume 3208.214629
_symmetry_space_group_name_H-M "P N N M"
_symmetry_group_IT_number 58
_symmetry_cell_setting 'orthorhombic'
loop_
_space_group_symop_operation_xyz
x,y,z
-x,-y,z
1/2+x,1/2-y,1/2-z
1/2-x,1/2+y,1/2-z
-x,-y,-z
x,y,-z
1/2-x,1/2+y,1/2+z
1/2+x,1/2-y,1/2+z
loop_
_atom_site_type_symbol
_atom_site_label
_atom_site_fract_x
_atom_site_fract_y
_atom_site_fract_z
Si Si1 0.211114 0.461811 0.819469
Si Si2 0.568336 0.319991 0.315320
Si Si3 0.123130 0.371081 0.315742
Si Si4 0.918535 0.414484 0.674362
Si Si5 0.301574 0.382279 0.679561
Si Si6 0.032973 0.771483 0.182771
Si Si7 0.181245 0.670583 0.674276
Si Si8 0.900260 0.049198 0.815787
O O1 0.172650 0.379522 0.763563
O O2 0.261058 0.416722 0.791187
O O3 0.208687 0.567084 0.719354
O O4 0.203793 0.486064 0.000000
O O5 0.573080 0.307615 0.500000
O O6 0.602129 0.239308 0.232464
O O7 0.517399 0.297483 0.255372
O O8 0.581461 0.436678 0.258442
O O9 0.129904 0.379427 0.500000
O O10 0.090471 0.467803 0.258931
O O11 0.937673 0.422364 0.500000
O O12 0.955177 0.348927 0.773314
O O13 0.872189 0.349694 0.681003
O O14 0.290962 0.408196 0.500000
O O15 0.307046 0.257820 0.698990
O O16 0.347998 0.438072 0.738585
O O17 0.068228 0.857174 0.255056
O O18 0.033728 0.782156 0.000000
O O19 0.195845 0.704535 0.500000
O O20 0.902677 0.056593 0.000000
#
# Coordination Sequence:
#
# PCOD8236551 Si02
#       8
#     8   8   8   8   8   8   8   8
#     4  11  23  39  60  86 116 152 194 242 302 361
#     4  10  21  37  58  85 120 159 198 242 295 353
#     4  10  22  41  59  81 116 156 197 244 300 358
#     4   9  19  35  57  81 111 149 190 243 295 345
#     4  11  21  36  60  88 116 151 197 244 295 354
#     4  10  19  34  59  88 115 151 199 246 291 349
#     4  10  20  37  58  83 115 151 191 240 294 350
#     4   9  19  36  58  85 117 153 195 243 291 343
#
# _framework density 19.948789000000001
#
# number of rings (size 3 to 8) (size 9 to 14) (size 15 to 20)
#    0.000    2.000    1.250    3.375    0.000    6.000 
#    0.000    8.125    0.000    1.500    0.000    0.000 
#    0.000    0.000    0.000    0.000    0.000    0.000 
#
# Total GULP energy -793649.648156 kJ/mol
# GULP energy per Si atom -12400.775752 kJ/mol
# Density = 1.990339 g / cm^3
# Si number density = 19.948789 Si / 1000 Ang^3
#
#
#
# Elastic Constant Matrix: (Units=GPa)
#
#
# Indices 1 2 3 4 5 6 
#
# 1 104.2584 32.5286 22.2059 0.0000 0.0000 0.0000
# 2 32.5286 61.1279 5.1400 0.0000 0.0000 0.0000
# 3 22.2059 5.1400 47.1702 0.0000 0.0000 0.0000
# 4 0.0000 0.0000 0.0000 30.1678 0.0000 0.0000
# 5 0.0000 0.0000 0.0000 0.0000 19.6042 0.0000
# 6 0.0000 0.0000 0.0000 0.0000 0.0000 20.7984
#
#
#
# Elastic Compliance Matrix: (Units=1/GPa)
#
#
# Indices 1 2 3 4 5 6 
#
# 1 0.012684 -0.006306 -0.005284 0.000000 0.000000 0.000000
# 2 -0.006306 0.019645 0.000828 0.000000 0.000000 0.000000
# 3 -0.005284 0.000828 0.023597 0.000000 0.000000 0.000000
# 4 0.000000 0.000000 0.000000 0.033148 0.000000 0.000000
# 5 0.000000 0.000000 0.000000 0.000000 0.051009 0.000000
# 6 0.000000 0.000000 0.000000 0.000000 0.000000 0.048081
#
#
# Mechanical properties :
#
#
# Convention : Reuss Voigt Hill
#
# Bulk Modulus (GPa) = 29.06757 36.92282 32.99520
# Shear Modulus (GPa) = 22.60847 24.29289 23.45068
#
# Velocity S-wave (km/s) = 3.37014 3.49343 3.43234
# Velocity P-wave (km/s) = 5.45404 5.90094 5.68188
#
# Compressibility (1/GPa) = 0.03440260
#
# Stress axis : x y z
#
# Youngs Moduli (GPa) = 78.83726 50.90364 42.37784
#
# Poissons Ratio (x) = 0.32097 0.22393
# Poissons Ratio (y) = 0.49711 -0.03508
# Poissons Ratio (z) = 0.41659 -0.04214
#
# Static dielectric constant tensor:
#      x y z
#    x 3.677850 0.000000 0.000000 
#    y 0.000000 3.700100 0.000000 
#    z 0.000000 0.000000 3.409530 
# 
# 
# High freq. dielectric constant tensor:
#      x y z
#    x 1.778430 0.000000 0.000000 
#    y 0.000000 1.782480 0.000000 
#    z 0.000000 0.000000 1.761180 
# 
# From -- ./inp_files/11006.got.cif
#   From: 2010.06.25/outbox.cif.g09.slc.cpg/sg58_6_cif.got.tgz:11006.got - 2010.06.26 21:38:00.
