data_PCOD8236677
_publ_section_title
;
Structure prediction by ZEFSAII (Michael W. Deem and Ramdas Pophale) SiO2 
 PCOD8236677
Probable space group: P N N M
;
_chemical_formula_sum "Si O2"
_cell_formula_units_Z 52
_cell_length_a 9.732830
_cell_length_b 10.841922
_cell_length_c 24.715284
_cell_angle_alpha 90.000000
_cell_angle_beta 90.000000
_cell_angle_gamma 90.000000
_cell_volume 2608.020625
_symmetry_space_group_name_H-M "P N N M"
_symmetry_group_IT_number 58
_symmetry_cell_setting 'orthorhombic'
loop_
_space_group_symop_operation_xyz
x,y,z
-x,-y,z
1/2+x,1/2-y,1/2-z
1/2-x,1/2+y,1/2-z
-x,-y,-z
x,y,-z
1/2-x,1/2+y,1/2+z
1/2+x,1/2-y,1/2+z
loop_
_atom_site_type_symbol
_atom_site_label
_atom_site_fract_x
_atom_site_fract_y
_atom_site_fract_z
Si Si1 0.981872 0.864418 0.372908
Si Si2 0.500000 0.500000 0.669308
Si Si3 0.988482 0.245038 0.894166
Si Si4 0.863068 0.847802 0.743332
Si Si5 0.739466 0.664050 0.063394
Si Si6 0.241246 0.619529 0.940826
Si Si7 0.545822 0.865677 0.285882
O O1 0.116330 0.793979 0.395493
O O2 0.957740 0.875992 0.308966
O O3 0.844106 0.811151 0.399671
O O4 0.000000 0.000000 0.398344
O O5 0.448545 0.388401 0.631045
O O6 0.380290 0.548641 0.709790
O O7 0.891401 0.291575 0.942581
O O8 0.961454 0.352052 0.850109
O O9 0.141389 0.242546 0.917980
O O10 0.700675 0.833958 0.733146
O O11 0.926259 0.720068 0.762715
O O12 0.789493 0.523579 0.074749
O O13 0.701948 0.685124 0.000000
O O14 0.308404 0.620358 0.000000
O O15 0.500000 0.000000 0.267047
#
# Coordination Sequence:
#
# PCOD8236677 Si02
#       7
#     8   4   8   8   8   8   8
#     4  10  20  34  59  86 124 159 193 248 317 368
#     4  10  26  40  61  82 131 160 216 250 310 370
#     4  11  22  39  60  87 119 160 203 258 310 374
#     4  11  24  41  61  91 125 167 211 266 307 382
#     4  10  21  36  60  92 123 155 201 258 316 373
#     4  10  19  35  60  90 119 152 199 255 313 377
#     4  11  26  39  64  91 127 168 215 254 324 377
#
# _framework density 19.938493000000001
#
# number of rings (size 3 to 8) (size 9 to 14) (size 15 to 20)
#    0.000    1.538    2.308    2.308   10.769    3.077 
#    0.000    1.538    0.000    0.000    0.000    2.154 
#    0.000    0.000    0.000    0.000    0.000    0.000 
#
# Total GULP energy -644255.918196 kJ/mol
# GULP energy per Si atom -12389.536888 kJ/mol
# Density = 1.989311 g / cm^3
# Si number density = 19.938493 Si / 1000 Ang^3
#
#
#
# Elastic Constant Matrix: (Units=GPa)
#
#
# Indices 1 2 3 4 5 6 
#
# 1 108.5674 39.1440 23.0417 0.0000 0.0000 0.0000
# 2 39.1440 86.5927 36.4320 0.0000 0.0000 0.0000
# 3 23.0417 36.4320 79.7411 0.0000 0.0000 0.0000
# 4 0.0000 0.0000 0.0000 17.2012 0.0000 0.0000
# 5 0.0000 0.0000 0.0000 0.0000 31.8879 0.0000
# 6 0.0000 0.0000 0.0000 0.0000 0.0000 21.4979
#
#
#
# Elastic Compliance Matrix: (Units=1/GPa)
#
#
# Indices 1 2 3 4 5 6 
#
# 1 0.011086 -0.004536 -0.001131 0.000000 0.000000 0.000000
# 2 -0.004536 0.016152 -0.006069 0.000000 0.000000 0.000000
# 3 -0.001131 -0.006069 0.015640 0.000000 0.000000 0.000000
# 4 0.000000 0.000000 0.000000 0.058136 0.000000 0.000000
# 5 0.000000 0.000000 0.000000 0.000000 0.031360 0.000000
# 6 0.000000 0.000000 0.000000 0.000000 0.000000 0.046516
#
#
# Mechanical properties :
#
#
# Convention : Reuss Voigt Hill
#
# Bulk Modulus (GPa) = 51.52775 52.45961 51.99368
# Shear Modulus (GPa) = 23.94286 25.86963 24.90624
#
# Velocity S-wave (km/s) = 3.46907 3.60595 3.53817
# Velocity P-wave (km/s) = 6.47652 6.61098 6.54410
#
# Compressibility (1/GPa) = 0.01940702
#
# Stress axis : x y z
#
# Youngs Moduli (GPa) = 90.20182 61.91199 63.93776
#
# Poissons Ratio (x) = 0.28081 0.07233
# Poissons Ratio (y) = 0.40912 0.38803
# Poissons Ratio (z) = 0.10204 0.37574
#
# Static dielectric constant tensor:
#      x y z
#    x 3.652860 0.000000 0.000000 
#    y 0.000000 3.295170 0.000000 
#    z 0.000000 0.000000 3.716850 
# 
# 
# High freq. dielectric constant tensor:
#      x y z
#    x 1.782190 0.000000 0.000000 
#    y 0.000000 1.738950 0.000000 
#    z 0.000000 0.000000 1.789460 
# 
# From -- ./inp_files/33282.got.cif
#   From: 2010.06.25/outbox.cif.g09.slc.cpg/sg58_17_cif.got.tgz:33282.got - 2010.06.26 21:38:00.
