data_PCOD8236537
_publ_section_title
;
Structure prediction by ZEFSAII (Michael W. Deem and Ramdas Pophale) SiO2 
 PCOD8236537
Probable space group: P N N M
;
_chemical_formula_sum "Si O2"
_cell_formula_units_Z 64
_cell_length_a 18.563034
_cell_length_b 19.766516
_cell_length_c 8.798229
_cell_angle_alpha 90.000000
_cell_angle_beta 90.000000
_cell_angle_gamma 90.000000
_cell_volume 3228.303449
_symmetry_space_group_name_H-M "P N N M"
_symmetry_group_IT_number 58
_symmetry_cell_setting 'orthorhombic'
loop_
_space_group_symop_operation_xyz
x,y,z
-x,-y,z
1/2+x,1/2-y,1/2-z
1/2-x,1/2+y,1/2-z
-x,-y,-z
x,y,-z
1/2-x,1/2+y,1/2+z
1/2+x,1/2-y,1/2+z
loop_
_atom_site_type_symbol
_atom_site_label
_atom_site_fract_x
_atom_site_fract_y
_atom_site_fract_z
Si Si1 0.518913 0.300061 0.679703
Si Si2 0.246431 0.377776 0.679976
Si Si3 0.944180 0.940959 0.323194
Si Si4 0.404190 0.820903 0.180767
Si Si5 0.828283 0.370174 0.678336
Si Si6 0.858997 0.231102 0.180029
Si Si7 0.978529 0.427311 0.319275
Si Si8 0.205630 0.024584 0.821053
O O1 0.523350 0.294301 0.500000
O O2 0.532723 0.376657 0.726044
O O3 0.580446 0.253156 0.752351
O O4 0.440463 0.276777 0.741140
O O5 0.242187 0.375263 0.500000
O O6 0.171751 0.348067 0.745380
O O7 0.312782 0.332593 0.740003
O O8 0.257336 0.454836 0.733196
O O9 0.944137 0.921799 0.500000
O O10 0.866023 0.966047 0.274536
O O11 0.000000 0.000000 0.285565
O O12 0.465582 0.871640 0.241063
O O13 0.403830 0.815937 0.000000
O O14 0.834902 0.357877 0.500000
O O15 0.821004 0.298207 0.758438
O O16 0.899140 0.408576 0.739568
O O17 0.758950 0.414349 0.719904
O O18 0.858278 0.233722 0.000000
O O19 0.980798 0.430671 0.500000
O O20 0.000000 0.500000 0.250442
O O21 0.187631 0.022793 0.000000
#
# Coordination Sequence:
#
# PCOD8236537 Si02
#       8
#     8   8   8   8   8   8   8   8
#     4  11  23  39  60  86 119 158 200 246 298 355
#     4   9  19  36  59  85 112 151 198 240 291 352
#     4  11  25  43  64  89 117 152 199 253 307 359
#     4  10  19  34  58  87 118 154 196 245 292 345
#     4  10  20  34  55  86 118 150 190 239 285 339
#     4  10  21  37  57  81 115 157 196 240 293 353
#     4   9  16  29  53  83 114 149 188 231 280 335
#     4  10  21  39  62  89 121 155 197 243 294 358
#
# _framework density 19.824653000000001
#
# number of rings (size 3 to 8) (size 9 to 14) (size 15 to 20)
#    0.000    2.000    1.250    2.250    1.750    6.000 
#    0.000    1.250    0.000    3.000    0.000    0.000 
#    0.000    0.000    0.000    0.000    0.000    0.000 
#
# Total GULP energy -793802.140910 kJ/mol
# GULP energy per Si atom -12403.158452 kJ/mol
# Density = 1.977953 g / cm^3
# Si number density = 19.824653 Si / 1000 Ang^3
#
#
#
# Elastic Constant Matrix: (Units=GPa)
#
#
# Indices 1 2 3 4 5 6 
#
# 1 129.8685 43.5489 21.9283 0.0000 0.0000 0.0000
# 2 43.5489 121.0402 15.1111 0.0000 0.0000 0.0000
# 3 21.9283 15.1111 20.8583 0.0000 0.0000 0.0000
# 4 0.0000 0.0000 0.0000 21.8400 0.0000 0.0000
# 5 0.0000 0.0000 0.0000 0.0000 20.2067 0.0000
# 6 0.0000 0.0000 0.0000 0.0000 0.0000 39.7127
#
#
#
# Elastic Compliance Matrix: (Units=1/GPa)
#
#
# Indices 1 2 3 4 5 6 
#
# 1 0.010014 -0.002516 -0.008704 0.000000 0.000000 0.000000
# 2 -0.002516 0.009715 -0.004393 0.000000 0.000000 0.000000
# 3 -0.008704 -0.004393 0.060276 0.000000 0.000000 0.000000
# 4 0.000000 0.000000 0.000000 0.045788 0.000000 0.000000
# 5 0.000000 0.000000 0.000000 0.000000 0.049489 0.000000
# 6 0.000000 0.000000 0.000000 0.000000 0.000000 0.025181
#
#
# Mechanical properties :
#
#
# Convention : Reuss Voigt Hill
#
# Bulk Modulus (GPa) = 20.50117 48.10484 34.30300
# Shear Modulus (GPa) = 20.16541 29.09713 24.63127
#
# Velocity S-wave (km/s) = 3.19280 3.83525 3.52867
# Velocity P-wave (km/s) = 4.89445 6.62797 5.82605
#
# Compressibility (1/GPa) = 0.04877770
#
# Stress axis : x y z
#
# Youngs Moduli (GPa) = 99.86465 102.92876 16.59023
#
# Poissons Ratio (x) = 0.25898 0.14441
# Poissons Ratio (y) = 0.25127 0.07289
# Poissons Ratio (z) = 0.86927 0.45220
#
# Static dielectric constant tensor:
#      x y z
#    x 3.860520 0.000000 0.000000 
#    y 0.000000 3.742890 0.000000 
#    z 0.000000 0.000000 3.210570 
# 
# 
# High freq. dielectric constant tensor:
#      x y z
#    x 1.786600 0.000000 0.000000 
#    y 0.000000 1.789610 0.000000 
#    z 0.000000 0.000000 1.736200 
# 
# From -- ./inp_files/8256.got.cif
#   From: 2010.06.25/outbox.cif.g09.slc.cpg/sg58_5_cif.got.tgz:8256.got - 2010.06.26 21:38:00.
