data_PCOD8236814
_publ_section_title
;
Structure prediction by ZEFSAII (Michael W. Deem and Ramdas Pophale) SiO2 
 PCOD8236814
Probable space group: P N N M
;
_chemical_formula_sum "Si O2"
_cell_formula_units_Z 64
_cell_length_a 15.294480
_cell_length_b 24.168258
_cell_length_c 9.006390
_cell_angle_alpha 90.000000
_cell_angle_beta 90.000000
_cell_angle_gamma 90.000000
_cell_volume 3329.130453
_symmetry_space_group_name_H-M "P N N M"
_symmetry_group_IT_number 58
_symmetry_cell_setting 'orthorhombic'
loop_
_space_group_symop_operation_xyz
x,y,z
-x,-y,z
1/2+x,1/2-y,1/2-z
1/2-x,1/2+y,1/2-z
-x,-y,-z
x,y,-z
1/2-x,1/2+y,1/2+z
1/2+x,1/2-y,1/2+z
loop_
_atom_site_type_symbol
_atom_site_label
_atom_site_fract_x
_atom_site_fract_y
_atom_site_fract_z
Si Si1 0.751501 0.554105 0.324114
Si Si2 0.594923 0.251698 0.823959
Si Si3 0.602945 0.760709 0.175595
Si Si4 0.139925 0.127809 0.665480
Si Si5 0.901675 0.486849 0.174112
Si Si6 0.259182 0.318434 0.323727
Si Si7 0.592185 0.479665 0.324450
Si Si8 0.657319 0.868546 0.665518
O O1 0.758274 0.549852 0.500000
O O2 0.840269 0.530122 0.257497
O O3 0.739746 0.617676 0.274354
O O4 0.669581 0.518709 0.261764
O O5 0.497426 0.238403 0.766956
O O6 0.619974 0.312334 0.764815
O O7 0.667804 0.208282 0.764958
O O8 0.598221 0.250628 0.000000
O O9 0.657312 0.711463 0.251274
O O10 0.642314 0.819576 0.219381
O O11 0.608306 0.752533 0.000000
O O12 0.099076 0.122369 0.500000
O O13 0.099135 0.083204 0.774044
O O14 0.241833 0.117446 0.656560
O O15 0.887923 0.423851 0.227244
O O16 0.000000 0.500000 0.218198
O O17 0.882861 0.492534 0.000000
O O18 0.267840 0.311391 0.500000
O O19 0.500000 0.500000 0.260534
O O20 0.593968 0.481699 0.500000
O O21 0.622882 0.852514 0.500000
#
# Coordination Sequence:
#
# PCOD8236814 Si02
#       8
#     8   8   8   8   8   8   8   8
#     4  10  22  38  59  84 114 155 194 230 281 342
#     4   9  20  38  57  80 112 146 185 232 279 333
#     4  11  23  37  58  88 114 142 186 242 287 326
#     4  10  19  37  62  82 105 148 196 232 275 337
#     4  10  22  39  59  85 118 152 189 238 289 335
#     4  10  21  41  61  79 114 158 191 225 281 349
#     4  10  22  38  55  84 120 148 184 238 288 330
#     4  10  20  38  61  82 111 153 191 229 285 346
#
# _framework density 19.224240000000002
#
# number of rings (size 3 to 8) (size 9 to 14) (size 15 to 20)
#    0.000    2.000    2.500    0.375    3.500    2.000 
#    0.000    1.875    0.000    0.000    0.000    0.000 
#    0.000    0.000    0.000    0.000    0.000    0.000 
#
# Total GULP energy -793619.861524 kJ/mol
# GULP energy per Si atom -12400.310336 kJ/mol
# Density = 1.918048 g / cm^3
# Si number density = 19.224240 Si / 1000 Ang^3
#
#
#
# Elastic Constant Matrix: (Units=GPa)
#
#
# Indices 1 2 3 4 5 6 
#
# 1 100.2504 34.7851 24.4630 0.0000 0.0000 0.0000
# 2 34.7851 123.0108 26.1422 0.0000 0.0000 0.0000
# 3 24.4630 26.1422 27.5772 0.0000 0.0000 0.0000
# 4 0.0000 0.0000 0.0000 31.5757 0.0000 0.0000
# 5 0.0000 0.0000 0.0000 0.0000 -10.1540 0.0000
# 6 0.0000 0.0000 0.0000 0.0000 0.0000 33.3343
#
#
#
# Elastic Compliance Matrix: (Units=1/GPa)
#
#
# Indices 1 2 3 4 5 6 
#
# 1 0.012957 -0.001529 -0.010044 0.000000 0.000000 0.000000
# 2 -0.001529 0.010361 -0.008465 0.000000 0.000000 0.000000
# 3 -0.010044 -0.008465 0.053196 0.000000 0.000000 0.000000
# 4 0.000000 0.000000 0.000000 0.031670 0.000000 0.000000
# 5 0.000000 0.000000 0.000000 0.000000 -0.098483 0.000000
# 6 0.000000 0.000000 0.000000 0.000000 0.000000 0.029999
#
#
# Mechanical properties :
#
#
# Convention : Reuss Voigt Hill
#
# Bulk Modulus (GPa) = 27.44451 46.84655 37.14553
# Shear Modulus (GPa) = 54.39458 21.98106 38.18782
#
# Velocity S-wave (km/s) = 5.32506 3.38509 4.46179
# Velocity P-wave (km/s) = 7.21909 6.30078 6.77551
#
# Compressibility (1/GPa) = 0.03643717
#
# Stress axis : x y z
#
# Youngs Moduli (GPa) = 77.18123 96.51725 18.79847
#
# Poissons Ratio (x) = 0.14761 0.18880
# Poissons Ratio (y) = 0.11804 0.15913
# Poissons Ratio (z) = 0.77518 0.81702
#
# Static dielectric constant tensor:
#      x y z
#    x 3.717840 0.000000 0.000000 
#    y 0.000000 3.657330 0.000000 
#    z 0.000000 0.000000 3.291640 
# 
# 
# High freq. dielectric constant tensor:
#      x y z
#    x 1.757320 0.000000 0.000000 
#    y 0.000000 1.760730 0.000000 
#    z 0.000000 0.000000 1.722790 
# 
# From -- ./inp_files/6804.got.cif
#   From: 2010.06.25/outbox.cif.g09.slc.cpg/sg58_4_cif.got.tgz:6804.got - 2010.06.26 21:38:00.
