data_PCOD8236241
_publ_section_title
;
Structure prediction by ZEFSAII (Michael W. Deem and Ramdas Pophale) SiO2 
 PCOD8236241
Probable space group: P N N M
;
_chemical_formula_sum "Si O2"
_cell_formula_units_Z 64
_cell_length_a 33.697595
_cell_length_b 11.768958
_cell_length_c 9.099265
_cell_angle_alpha 90.000000
_cell_angle_beta 90.000000
_cell_angle_gamma 90.000000
_cell_volume 3608.637290
_symmetry_space_group_name_H-M "P N N M"
_symmetry_group_IT_number 58
_symmetry_cell_setting 'orthorhombic'
loop_
_space_group_symop_operation_xyz
x,y,z
-x,-y,z
1/2+x,1/2-y,1/2-z
1/2-x,1/2+y,1/2-z
-x,-y,-z
x,y,-z
1/2-x,1/2+y,1/2+z
1/2+x,1/2-y,1/2+z
loop_
_atom_site_type_symbol
_atom_site_label
_atom_site_fract_x
_atom_site_fract_y
_atom_site_fract_z
Si Si1 0.229673 0.203179 0.326781
Si Si2 0.948643 0.110703 0.173871
Si Si3 0.672143 0.094371 0.171871
Si Si4 0.964223 0.857421 0.826583
Si Si5 0.307856 0.156061 0.168853
Si Si6 0.370349 0.346602 0.169257
Si Si7 0.610813 0.234685 0.331909
Si Si8 0.831217 0.944646 0.830514
O O1 0.229734 0.183100 0.500000
O O2 0.207050 0.319025 0.283401
O O3 0.274098 0.214512 0.267047
O O4 0.208775 0.095660 0.250071
O O5 0.913653 0.172861 0.260952
O O6 0.990346 0.172978 0.214488
O O7 0.951704 0.981437 0.232605
O O8 0.940048 0.116467 0.000000
O O9 0.630470 0.132655 0.242112
O O10 0.683819 0.970230 0.230182
O O11 0.664813 0.092116 0.000000
O O12 0.933574 0.760988 0.769331
O O13 0.959925 0.866570 0.000000
O O14 0.348001 0.227252 0.184794
O O15 0.293362 0.152319 0.000000
O O16 0.345962 0.440757 0.256627
O O17 0.374209 0.384056 0.000000
O O18 0.609532 0.195199 0.500000
O O19 0.635007 0.350769 0.313120
O O20 0.821096 0.969035 0.000000
#
# Coordination Sequence:
#
# PCOD8236241 Si02
#       8
#     8   8   8   8   8   8   8   8
#     4  10  21  36  56  81 102 124 167 223 263 304
#     4   9  16  30  51  74 106 142 173 207 257 319
#     4   9  20  38  54  72 100 134 171 211 256 307
#     4   8  14  27  50  78 105 136 171 207 255 314
#     4  10  23  40  54  71 102 143 176 210 261 310
#     4  11  22  34  50  76 109 141 176 219 258 301
#     4   9  16  30  53  79 102 130 167 210 256 305
#     4  10  19  33  54  76 104 139 170 203 258 319
#
# _framework density 17.735226000000001
#
# number of rings (size 3 to 8) (size 9 to 14) (size 15 to 20)
#    0.000    2.500    1.250    1.875    1.750    2.500 
#    0.000    1.875    0.000    0.750    0.000    5.250 
#    0.000    0.000    0.000    0.000    0.000    0.000 
#
# Total GULP energy -793550.291386 kJ/mol
# GULP energy per Si atom -12399.223303 kJ/mol
# Density = 1.769486 g / cm^3
# Si number density = 17.735226 Si / 1000 Ang^3
#
#
#
# Elastic Constant Matrix: (Units=GPa)
#
#
# Indices 1 2 3 4 5 6 
#
# 1 130.2054 43.1210 47.9941 0.0000 0.0000 0.0000
# 2 43.1210 79.3379 36.8833 0.0000 0.0000 0.0000
# 3 47.9941 36.8833 71.1113 0.0000 0.0000 0.0000
# 4 0.0000 0.0000 0.0000 21.4509 0.0000 0.0000
# 5 0.0000 0.0000 0.0000 0.0000 30.4648 0.0000
# 6 0.0000 0.0000 0.0000 0.0000 0.0000 22.0124
#
#
#
# Elastic Compliance Matrix: (Units=1/GPa)
#
#
# Indices 1 2 3 4 5 6 
#
# 1 0.010835 -0.003280 -0.005611 0.000000 0.000000 0.000000
# 2 -0.003280 0.017602 -0.006916 0.000000 0.000000 0.000000
# 3 -0.005611 -0.006916 0.021437 0.000000 0.000000 0.000000
# 4 0.000000 0.000000 0.000000 0.046618 0.000000 0.000000
# 5 0.000000 0.000000 0.000000 0.000000 0.032825 0.000000
# 6 0.000000 0.000000 0.000000 0.000000 0.000000 0.045429
#
#
# Mechanical properties :
#
#
# Convention : Reuss Voigt Hill
#
# Bulk Modulus (GPa) = 54.76746 59.62794 57.19770
# Shear Modulus (GPa) = 23.53533 24.96271 24.24902
#
# Velocity S-wave (km/s) = 3.64681 3.75576 3.70169
# Velocity P-wave (km/s) = 6.97710 7.24582 7.11273
#
# Compressibility (1/GPa) = 0.01825902
#
# Stress axis : x y z
#
# Youngs Moduli (GPa) = 92.29497 56.81087 46.64918
#
# Poissons Ratio (x) = 0.18635 0.26176
# Poissons Ratio (y) = 0.30275 0.32262
# Poissons Ratio (z) = 0.51789 0.39290
#
# Static dielectric constant tensor:
#      x y z
#    x 3.527020 0.000000 0.000000 
#    y 0.000000 3.138650 0.000000 
#    z 0.000000 0.000000 3.195360 
# 
# 
# High freq. dielectric constant tensor:
#      x y z
#    x 1.692630 0.000000 0.000000 
#    y 0.000000 1.659100 0.000000 
#    z 0.000000 0.000000 1.675810 
# 
# From -- ./inp_files/10944.got.cif
#   From: 2010.06.25/outbox.cif.g09.slc.cpg/sg58_6_cif.got.tgz:10944.got - 2010.06.26 21:38:00.
