data_PCOD8236517
_publ_section_title
;
Structure prediction by ZEFSAII (Michael W. Deem and Ramdas Pophale) SiO2 
 PCOD8236517
Probable space group: P N N M
;
_chemical_formula_sum "Si O2"
_cell_formula_units_Z 40
_cell_length_a 4.952327
_cell_length_b 16.358579
_cell_length_c 23.357901
_cell_angle_alpha 90.000000
_cell_angle_beta 90.000000
_cell_angle_gamma 90.000000
_cell_volume 1892.294392
_symmetry_space_group_name_H-M "P N N M"
_symmetry_group_IT_number 58
_symmetry_cell_setting 'orthorhombic'
loop_
_space_group_symop_operation_xyz
x,y,z
-x,-y,z
1/2+x,1/2-y,1/2-z
1/2-x,1/2+y,1/2-z
-x,-y,-z
x,y,-z
1/2-x,1/2+y,1/2+z
1/2+x,1/2-y,1/2+z
loop_
_atom_site_type_symbol
_atom_site_label
_atom_site_fract_x
_atom_site_fract_y
_atom_site_fract_z
Si Si1 0.581517 0.318993 0.435969
Si Si2 0.491464 0.096878 0.734965
Si Si3 0.909357 0.789367 0.436004
Si Si4 0.500559 0.597210 0.165443
Si Si5 0.248848 0.053857 0.154064
O O1 0.493071 0.346398 0.500000
O O2 0.369343 0.250893 0.413283
O O3 0.594511 0.397994 0.395769
O O4 0.878782 0.283235 0.436920
O O5 0.281112 0.130346 0.689058
O O6 0.383440 0.117175 0.799241
O O7 0.780137 0.128807 0.712529
O O8 0.500000 0.000000 0.735160
O O9 0.869068 0.826023 0.500000
O O10 0.027597 0.861534 0.396450
O O11 0.500000 0.500000 0.156550
O O12 0.500000 0.000000 0.129948
O O13 0.000000 0.000000 0.181866
#
# Coordination Sequence:
#
# PCOD8236517 Si02
#       5
#     8   8   8   8   8
#     4  10  22  39  57  81 117 154 186 231 291 341
#     4   9  18  33  53  80 110 141 177 228 287 327
#     4  10  21  38  57  80 115 153 186 230 290 341
#     4  10  19  34  58  82 108 144 187 229 273 334
#     4  11  21  36  60  85 111 147 193 238 283 343
#
# _framework density 21.138361
#
# number of rings (size 3 to 8) (size 9 to 14) (size 15 to 20)
#    0.000    2.000    0.000    5.400    0.000    1.200 
#    0.000    4.000    0.000    7.200    0.000    0.000 
#    0.000    0.000    0.000    0.000    0.000    0.000 
#
# Total GULP energy -495584.511042 kJ/mol
# GULP energy per Si atom -12389.612776 kJ/mol
# Density = 2.109025 g / cm^3
# Si number density = 21.138361 Si / 1000 Ang^3
#
#
#
# Elastic Constant Matrix: (Units=GPa)
#
#
# Indices 1 2 3 4 5 6 
#
# 1 97.9661 19.3803 22.7117 0.0000 0.0000 0.0000
# 2 19.3803 45.5207 46.1952 0.0000 0.0000 0.0000
# 3 22.7117 46.1952 114.4873 0.0000 0.0000 0.0000
# 4 0.0000 0.0000 0.0000 24.1437 0.0000 0.0000
# 5 0.0000 0.0000 0.0000 0.0000 33.0025 0.0000
# 6 0.0000 0.0000 0.0000 0.0000 0.0000 25.1306
#
#
#
# Elastic Compliance Matrix: (Units=1/GPa)
#
#
# Indices 1 2 3 4 5 6 
#
# 1 0.011163 -0.004243 -0.000503 0.000000 0.000000 0.000000
# 2 -0.004243 0.038813 -0.014819 0.000000 0.000000 0.000000
# 3 -0.000503 -0.014819 0.014814 0.000000 0.000000 0.000000
# 4 0.000000 0.000000 0.000000 0.041419 0.000000 0.000000
# 5 0.000000 0.000000 0.000000 0.000000 0.030301 0.000000
# 6 0.000000 0.000000 0.000000 0.000000 0.000000 0.039792
#
#
# Mechanical properties :
#
#
# Convention : Reuss Voigt Hill
#
# Bulk Modulus (GPa) = 38.96937 48.28316 43.62627
# Shear Modulus (GPa) = 22.32290 27.76782 25.04536
#
# Velocity S-wave (km/s) = 3.25320 3.62832 3.44587
# Velocity P-wave (km/s) = 5.70846 6.35956 6.04279
#
# Compressibility (1/GPa) = 0.02566118
#
# Stress axis : x y z
#
# Youngs Moduli (GPa) = 89.57791 25.76437 67.50430
#
# Poissons Ratio (x) = 0.10931 0.03393
# Poissons Ratio (y) = 0.38005 1.00037
# Poissons Ratio (z) = 0.04503 0.38181
#
# Static dielectric constant tensor:
#      x y z
#    x 4.261560 0.000000 0.000000 
#    y 0.000000 3.265320 0.000000 
#    z 0.000000 0.000000 4.235770 
# 
# 
# High freq. dielectric constant tensor:
#      x y z
#    x 1.855320 0.000000 0.000000 
#    y 0.000000 1.779590 0.000000 
#    z 0.000000 0.000000 1.829720 
# 
# From -- ./inp_files/24176.got.cif
#   From: 2010.06.25/outbox.cif.g09.slc.cpg/sg58_13_cif.got.tgz:24176.got - 2010.06.26 21:38:00.
