data_PCOD8236511
_publ_section_title
;
Structure prediction by ZEFSAII (Michael W. Deem and Ramdas Pophale) SiO2 
 PCOD8236511
Probable space group: P N N M
;
_chemical_formula_sum "Si O2"
_cell_formula_units_Z 48
_cell_length_a 12.306475
_cell_length_b 21.562332
_cell_length_c 9.225856
_cell_angle_alpha 90.000000
_cell_angle_beta 90.000000
_cell_angle_gamma 90.000000
_cell_volume 2448.139010
_symmetry_space_group_name_H-M "P N N M"
_symmetry_group_IT_number 58
_symmetry_cell_setting 'orthorhombic'
loop_
_space_group_symop_operation_xyz
x,y,z
-x,-y,z
1/2+x,1/2-y,1/2-z
1/2-x,1/2+y,1/2-z
-x,-y,-z
x,y,-z
1/2-x,1/2+y,1/2+z
1/2+x,1/2-y,1/2+z
loop_
_atom_site_type_symbol
_atom_site_label
_atom_site_fract_x
_atom_site_fract_y
_atom_site_fract_z
Si Si1 0.155964 0.171829 0.832851
Si Si2 0.090248 0.308074 0.166720
Si Si3 0.138768 0.638798 0.828287
Si Si4 0.486640 0.430138 0.672294
Si Si5 0.248962 0.892567 0.829486
Si Si6 0.874798 0.484826 0.336103
O O1 0.085856 0.234127 0.813435
O O2 0.265079 0.179703 0.739509
O O3 0.085329 0.113496 0.775032
O O4 0.188173 0.161820 0.000000
O O5 0.192797 0.335207 0.252421
O O6 0.976726 0.335018 0.227515
O O7 0.104580 0.327133 0.000000
O O8 0.155958 0.569143 0.773757
O O9 0.146915 0.641871 0.000000
O O10 0.500000 0.500000 0.735428
O O11 0.484225 0.433471 0.500000
O O12 0.374584 0.398982 0.726294
O O13 0.308822 0.955597 0.785244
O O14 0.255512 0.880341 0.000000
O O15 0.842288 0.465332 0.500000
O O16 0.000000 0.500000 0.325322
#
# Coordination Sequence:
#
# PCOD8236511 Si02
#       6
#     8   8   8   8   8   8
#     4  10  22  40  60  81 113 154 194 239 291 347
#     4  10  23  39  55  83 119 155 189 235 296 347
#     4  11  23  38  59  86 117 152 192 238 292 348
#     4   9  18  35  61  88 111 143 192 246 293 338
#     4  10  20  35  61  89 115 152 196 240 285 346
#     4  10  19  34  57  88 118 149 192 237 286 341
#
# _framework density 19.606729000000001
#
# number of rings (size 3 to 8) (size 9 to 14) (size 15 to 20)
#    0.000    2.000    1.667    1.500    2.333    5.000 
#    0.000    0.833    0.000    2.000    0.000    0.000 
#    0.000    0.000    0.000    0.000    0.000    0.000 
#
# Total GULP energy -595317.573555 kJ/mol
# GULP energy per Si atom -12402.449449 kJ/mol
# Density = 1.956210 g / cm^3
# Si number density = 19.606729 Si / 1000 Ang^3
#
#
#
# Elastic Constant Matrix: (Units=GPa)
#
#
# Indices 1 2 3 4 5 6 
#
# 1 122.3267 45.8872 29.8845 0.0000 0.0000 0.0000
# 2 45.8872 100.7796 31.6552 0.0000 0.0000 0.0000
# 3 29.8845 31.6552 45.0197 0.0000 0.0000 0.0000
# 4 0.0000 0.0000 0.0000 481.5187 0.0000 0.0000
# 5 0.0000 0.0000 0.0000 0.0000 5071.4548 0.0000
# 6 0.0000 0.0000 0.0000 0.0000 0.0000 27.8838
#
#
#
# Elastic Compliance Matrix: (Units=1/GPa)
#
#
# Indices 1 2 3 4 5 6 
#
# 1 0.010570 -0.003348 -0.004662 0.000000 0.000000 0.000000
# 2 -0.003348 0.013796 -0.007478 0.000000 0.000000 0.000000
# 3 -0.004662 -0.007478 0.030565 0.000000 0.000000 0.000000
# 4 0.000000 0.000000 0.000000 0.002077 0.000000 0.000000
# 5 0.000000 0.000000 0.000000 0.000000 0.000197 0.000000
# 6 0.000000 0.000000 0.000000 0.000000 0.000000 0.035863
#
#
# Mechanical properties :
#
#
# Convention : Reuss Voigt Hill
#
# Bulk Modulus (GPa) = 41.74569 53.66444 47.70506
# Shear Modulus (GPa) = 37.87038 1126.88474 582.37756
#
# Velocity S-wave (km/s) = 4.39965 23.99983 17.25324
# Velocity P-wave (km/s) = 6.86636 28.20317 20.52517
#
# Compressibility (1/GPa) = 0.02395457
#
# Stress axis : x y z
#
# Youngs Moduli (GPa) = 94.60940 72.48460 32.71699
#
# Poissons Ratio (x) = 0.24270 0.15253
# Poissons Ratio (y) = 0.31678 0.24465
# Poissons Ratio (z) = 0.44107 0.54203
#
# Static dielectric constant tensor:
#      x y z
#    x 3.755160 0.000000 0.000000 
#    y 0.000000 3.537560 0.000000 
#    z 0.000000 0.000000 3.289170 
# 
# 
# High freq. dielectric constant tensor:
#      x y z
#    x 1.777480 0.000000 0.000000 
#    y 0.000000 1.770750 0.000000 
#    z 0.000000 0.000000 1.731030 
# 
# From -- ./inp_files/4238.got.cif
#   From: 2010.06.25/outbox.cif.g09.slc.cpg/sg58_3_cif.got.tgz:4238.got - 2010.06.26 21:38:00.
