data_PCOD8236415
_publ_section_title
;
Structure prediction by ZEFSAII (Michael W. Deem and Ramdas Pophale) SiO2 
 PCOD8236415
Probable space group: P N N M
;
_chemical_formula_sum "Si O2"
_cell_formula_units_Z 52
_cell_length_a 17.067708
_cell_length_b 8.938901
_cell_length_c 17.980107
_cell_angle_alpha 90.000000
_cell_angle_beta 90.000000
_cell_angle_gamma 90.000000
_cell_volume 2743.162932
_symmetry_space_group_name_H-M "P N N M"
_symmetry_group_IT_number 58
_symmetry_cell_setting 'orthorhombic'
loop_
_space_group_symop_operation_xyz
x,y,z
-x,-y,z
1/2+x,1/2-y,1/2-z
1/2-x,1/2+y,1/2-z
-x,-y,-z
x,y,-z
1/2-x,1/2+y,1/2+z
1/2+x,1/2-y,1/2+z
loop_
_atom_site_type_symbol
_atom_site_label
_atom_site_fract_x
_atom_site_fract_y
_atom_site_fract_z
Si Si1 0.720234 0.119096 0.500000
Si Si2 0.404068 0.122701 0.500000
Si Si3 0.300601 0.866021 0.852767
Si Si4 0.858750 0.142598 0.760273
Si Si5 0.264541 0.701318 0.000000
Si Si6 0.223324 0.697700 0.361034
Si Si7 0.376063 0.687552 0.270574
Si Si8 0.015829 0.664158 0.843752
O O1 0.631147 0.048995 0.500000
O O2 0.735871 0.224540 0.430487
O O3 0.779594 0.977963 0.500000
O O4 0.329634 0.235253 0.500000
O O5 0.458809 0.154609 0.570388
O O6 0.216632 0.856282 0.813368
O O7 0.369994 0.800986 0.799799
O O8 0.317118 0.037466 0.877748
O O9 0.303279 0.767939 0.926842
O O10 0.839915 0.192853 0.676147
O O11 0.917556 0.261966 0.794613
O O12 0.900605 0.981948 0.750143
O O13 0.289351 0.669494 0.300662
O O14 0.435186 0.744937 0.333966
O O15 0.000000 0.500000 0.811710
#
# Coordination Sequence:
#
# PCOD8236415 Si02
#       8
#     4   4   8   8   4   8   8   8
#     4  10  19  34  54  84 111 152 187 234 296 339
#     4  10  23  36  58  82 124 164 194 232 300 352
#     4  10  19  36  57  85 106 150 195 251 292 343
#     4  10  20  37  54  79 112 150 195 247 291 348
#     4  10  19  34  59  79 118 146 194 236 295 337
#     4  10  20  34  57  80 111 143 200 246 290 346
#     4  10  22  34  56  80 112 151 198 240 296 347
#     4  12  22  37  55  82 119 160 196 234 289 356
#
# _framework density 18.956219000000001
#
# number of rings (size 3 to 8) (size 9 to 14) (size 15 to 20)
#    0.462    1.231    1.538    3.923    0.000    4.308 
#    0.000    2.308    0.000    0.923    0.000    6.462 
#    0.000    0.000    0.000    0.000    0.000    0.000 
#
# Total GULP energy -644459.102884 kJ/mol
# GULP energy per Si atom -12393.444286 kJ/mol
# Density = 1.891307 g / cm^3
# Si number density = 18.956219 Si / 1000 Ang^3
#
#
#
# Elastic Constant Matrix: (Units=GPa)
#
#
# Indices 1 2 3 4 5 6 
#
# 1 59.8734 35.9019 36.7347 0.0000 0.0000 0.0000
# 2 35.9019 136.9735 51.4159 0.0000 0.0000 0.0000
# 3 36.7347 51.4159 101.4863 0.0000 0.0000 0.0000
# 4 0.0000 0.0000 0.0000 31.1225 0.0000 0.0000
# 5 0.0000 0.0000 0.0000 0.0000 33.5053 0.0000
# 6 0.0000 0.0000 0.0000 0.0000 0.0000 32.4693
#
#
#
# Elastic Compliance Matrix: (Units=1/GPa)
#
#
# Indices 1 2 3 4 5 6 
#
# 1 0.022789 -0.003552 -0.006449 0.000000 0.000000 0.000000
# 2 -0.003552 0.009569 -0.003562 0.000000 0.000000 0.000000
# 3 -0.006449 -0.003562 0.013993 0.000000 0.000000 0.000000
# 4 0.000000 0.000000 0.000000 0.032131 0.000000 0.000000
# 5 0.000000 0.000000 0.000000 0.000000 0.029846 0.000000
# 6 0.000000 0.000000 0.000000 0.000000 0.000000 0.030798
#
#
# Mechanical properties :
#
#
# Convention : Reuss Voigt Hill
#
# Bulk Modulus (GPa) = 52.02026 60.71537 56.36781
# Shear Modulus (GPa) = 28.95861 31.03813 29.99837
#
# Velocity S-wave (km/s) = 3.91277 4.05082 3.98239
# Velocity P-wave (km/s) = 6.92206 7.34695 7.13766
#
# Compressibility (1/GPa) = 0.01922328
#
# Stress axis : x y z
#
# Youngs Moduli (GPa) = 43.88128 104.50561 71.46679
#
# Poissons Ratio (x) = 0.37124 0.46089
# Poissons Ratio (y) = 0.15588 0.25457
# Poissons Ratio (z) = 0.28299 0.37225
#
# Static dielectric constant tensor:
#      x y z
#    x 3.214770 0.000000 0.000000 
#    y 0.000000 3.788910 0.000000 
#    z 0.000000 0.000000 3.354310 
# 
# 
# High freq. dielectric constant tensor:
#      x y z
#    x 1.705180 0.000000 0.000000 
#    y 0.000000 1.754570 0.000000 
#    z 0.000000 0.000000 1.728030 
# 
# From -- ./inp_files/27278.got.cif
#   From: 2010.06.25/outbox.cif.g09.slc.cpg/sg58_14_cif.got.tgz:27278.got - 2010.06.26 21:38:00.
