data_PCOD8236852
_publ_section_title
;
Structure prediction by ZEFSAII (Michael W. Deem and Ramdas Pophale) SiO2 
 PCOD8236852
Probable space group: P N N M
;
_chemical_formula_sum "Si O2"
_cell_formula_units_Z 56
_cell_length_a 21.065819
_cell_length_b 15.276102
_cell_length_c 8.871520
_cell_angle_alpha 90.000000
_cell_angle_beta 90.000000
_cell_angle_gamma 90.000000
_cell_volume 2854.887071
_symmetry_space_group_name_H-M "P N N M"
_symmetry_group_IT_number 58
_symmetry_cell_setting 'orthorhombic'
loop_
_space_group_symop_operation_xyz
x,y,z
-x,-y,z
1/2+x,1/2-y,1/2-z
1/2-x,1/2+y,1/2-z
-x,-y,-z
x,y,-z
1/2-x,1/2+y,1/2+z
1/2+x,1/2-y,1/2+z
loop_
_atom_site_type_symbol
_atom_site_label
_atom_site_fract_x
_atom_site_fract_y
_atom_site_fract_z
Si Si1 0.664301 0.200562 0.179047
Si Si2 0.473649 0.368170 0.833323
Si Si3 0.319083 0.996309 0.178799
Si Si4 0.549541 0.926003 0.164392
Si Si5 0.897439 0.972076 0.666635
Si Si6 0.209829 0.126148 0.823341
Si Si7 0.972042 0.713430 0.172914
O O1 0.689059 0.104767 0.235859
O O2 0.708726 0.277899 0.245792
O O3 0.591322 0.214393 0.226955
O O4 0.666615 0.207574 0.000000
O O5 0.411516 0.426376 0.791261
O O6 0.535415 0.426792 0.838402
O O7 0.483465 0.296371 0.705569
O O8 0.463484 0.326154 0.000000
O O9 0.386363 0.033568 0.234739
O O10 0.265651 0.063171 0.241028
O O11 0.316734 0.993680 0.000000
O O12 0.518646 0.865537 0.289914
O O13 0.500000 0.000000 0.128904
O O14 0.563095 0.880121 0.000000
O O15 0.865377 0.965208 0.500000
O O16 0.854808 0.926057 0.792102
O O17 0.217396 0.142070 0.000000
O O18 0.950974 0.710894 0.000000
#
# Coordination Sequence:
#
# PCOD8236852 Si02
#       7
#     8   8   8   8   8   8   8
#     4  11  21  40  65  85 110 158 207 236 281 361
#     4   9  18  34  56  81 113 152 198 239 277 344
#     4   9  21  41  63  85 115 155 199 243 292 352
#     4  10  19  38  65  85 108 152 199 238 288 355
#     4   9  18  34  57  83 111 151 198 237 280 344
#     4  11  22  38  60  90 123 153 193 250 304 349
#     4  12  23  34  55  91 123 146 183 245 305 346
#
# _framework density 19.615487000000002
#
# number of rings (size 3 to 8) (size 9 to 14) (size 15 to 20)
#    0.000    1.857    2.857    3.000    0.000    0.857 
#    2.571    5.714    0.000    0.000    0.000    0.000 
#    0.000    0.000    0.000    0.000    0.000    0.000 
#
# Total GULP energy -693963.914419 kJ/mol
# GULP energy per Si atom -12392.212757 kJ/mol
# Density = 1.957084 g / cm^3
# Si number density = 19.615487 Si / 1000 Ang^3
#
#
#
# Elastic Constant Matrix: (Units=GPa)
#
#
# Indices 1 2 3 4 5 6 
#
# 1 76.8310 52.2606 18.7451 0.0000 0.0000 0.0000
# 2 52.2606 139.8935 40.2874 0.0000 0.0000 0.0000
# 3 18.7451 40.2874 73.9149 0.0000 0.0000 0.0000
# 4 0.0000 0.0000 0.0000 31.1979 0.0000 0.0000
# 5 0.0000 0.0000 0.0000 0.0000 14.6575 0.0000
# 6 0.0000 0.0000 0.0000 0.0000 0.0000 34.0441
#
#
#
# Elastic Compliance Matrix: (Units=1/GPa)
#
#
# Indices 1 2 3 4 5 6 
#
# 1 0.017517 -0.006245 -0.001039 0.000000 0.000000 0.000000
# 2 -0.006245 0.010705 -0.004251 0.000000 0.000000 0.000000
# 3 -0.001039 -0.004251 0.016110 0.000000 0.000000 0.000000
# 4 0.000000 0.000000 0.000000 0.032053 0.000000 0.000000
# 5 0.000000 0.000000 0.000000 0.000000 0.068225 0.000000
# 6 0.000000 0.000000 0.000000 0.000000 0.000000 0.029374
#
#
# Mechanical properties :
#
#
# Convention : Reuss Voigt Hill
#
# Bulk Modulus (GPa) = 47.03118 57.02506 52.02812
# Shear Modulus (GPa) = 24.49298 27.93632 26.21465
#
# Velocity S-wave (km/s) = 3.53747 3.77795 3.65968
# Velocity P-wave (km/s) = 6.38071 6.94011 6.66628
#
# Compressibility (1/GPa) = 0.02126249
#
# Stress axis : x y z
#
# Youngs Moduli (GPa) = 57.08873 93.41026 62.07451
#
# Poissons Ratio (x) = 0.58331 0.06447
# Poissons Ratio (y) = 0.35650 0.26390
# Poissons Ratio (z) = 0.05929 0.39712
#
# Static dielectric constant tensor:
#      x y z
#    x 3.651650 0.000000 0.000000 
#    y 0.000000 3.824590 0.000000 
#    z 0.000000 0.000000 3.365530 
# 
# 
# High freq. dielectric constant tensor:
#      x y z
#    x 1.743650 0.000000 0.000000 
#    y 0.000000 1.775570 0.000000 
#    z 0.000000 0.000000 1.744250 
# 
# From -- ./inp_files/9078.got.cif
#   From: 2010.06.25/outbox.cif.g09.slc.cpg/sg58_5_cif.got.tgz:9078.got - 2010.06.26 21:38:00.
