data_PCOD8236414
_publ_section_title
;
Structure prediction by ZEFSAII (Michael W. Deem and Ramdas Pophale) SiO2 
 PCOD8236414
Probable space group: P N N M
;
_chemical_formula_sum "Si O2"
_cell_formula_units_Z 56
_cell_length_a 15.101776
_cell_length_b 11.749536
_cell_length_c 16.770070
_cell_angle_alpha 90.000000
_cell_angle_beta 90.000000
_cell_angle_gamma 90.000000
_cell_volume 2975.662116
_symmetry_space_group_name_H-M "P N N M"
_symmetry_group_IT_number 58
_symmetry_cell_setting 'orthorhombic'
loop_
_space_group_symop_operation_xyz
x,y,z
-x,-y,z
1/2+x,1/2-y,1/2-z
1/2-x,1/2+y,1/2-z
-x,-y,-z
x,y,-z
1/2-x,1/2+y,1/2+z
1/2+x,1/2-y,1/2+z
loop_
_atom_site_type_symbol
_atom_site_label
_atom_site_fract_x
_atom_site_fract_y
_atom_site_fract_z
Si Si1 0.452127 0.116734 0.784762
Si Si2 0.782384 0.395852 0.820836
Si Si3 0.696675 0.118616 0.407608
Si Si4 0.174621 0.055233 0.832319
Si Si5 0.821171 0.311622 0.408104
Si Si6 0.462569 0.749333 0.654430
Si Si7 0.648502 0.687163 0.406231
O O1 0.373440 0.085945 0.725222
O O2 0.414926 0.172591 0.865229
O O3 0.514782 0.211936 0.744640
O O4 0.500000 0.000000 0.807596
O O5 0.777215 0.490318 0.889139
O O6 0.702089 0.416534 0.759037
O O7 0.780207 0.274146 0.866332
O O8 0.700123 0.141626 0.500000
O O9 0.770823 0.202366 0.369634
O O10 0.598463 0.149431 0.378806
O O11 0.255130 0.082838 0.892528
O O12 0.087240 0.128941 0.849355
O O13 0.151354 0.924861 0.850900
O O14 0.843775 0.298768 0.500000
O O15 0.550248 0.740035 0.600208
O O16 0.670141 0.665328 0.500000
#
# Coordination Sequence:
#
# PCOD8236414 Si02
#       7
#     8   8   8   8   8   8   8
#     4  10  19  34  54  81 114 145 190 234 279 340
#     4  10  22  35  56  82 113 149 189 230 277 337
#     4  10  19  35  57  80 110 145 186 228 279 338
#     4  10  22  36  58  80 115 150 190 229 279 344
#     4   9  20  35  55  81 107 145 190 232 275 328
#     4  10  21  35  55  85 113 149 183 230 290 338
#     4  11  23  37  56  86 120 147 186 237 290 343
#
# _framework density 18.819341000000001
#
# number of rings (size 3 to 8) (size 9 to 14) (size 15 to 20)
#    0.000    2.000    1.429    1.714    8.000    2.571 
#    0.000    2.143    0.000    1.714    0.000    2.000 
#    0.000    0.000    0.000    0.000    0.000    0.000 
#
# Total GULP energy -694253.633953 kJ/mol
# GULP energy per Si atom -12397.386321 kJ/mol
# Density = 1.877651 g / cm^3
# Si number density = 18.819341 Si / 1000 Ang^3
#
#
#
# Elastic Constant Matrix: (Units=GPa)
#
#
# Indices 1 2 3 4 5 6 
#
# 1 34.4863 10.1281 31.1623 0.0000 0.0000 0.0000
# 2 10.1281 94.0421 30.3100 0.0000 0.0000 0.0000
# 3 31.1623 30.3100 93.4592 0.0000 0.0000 0.0000
# 4 0.0000 0.0000 0.0000 28.1341 0.0000 0.0000
# 5 0.0000 0.0000 0.0000 0.0000 26.3921 0.0000
# 6 0.0000 0.0000 0.0000 0.0000 0.0000 21.1681
#
#
#
# Elastic Compliance Matrix: (Units=1/GPa)
#
#
# Indices 1 2 3 4 5 6 
#
# 1 0.041501 -0.000011 -0.013834 0.000000 0.000000 0.000000
# 2 -0.000011 0.011875 -0.003848 0.000000 0.000000 0.000000
# 3 -0.013834 -0.003848 0.016560 0.000000 0.000000 0.000000
# 4 0.000000 0.000000 0.000000 0.035544 0.000000 0.000000
# 5 0.000000 0.000000 0.000000 0.000000 0.037890 0.000000
# 6 0.000000 0.000000 0.000000 0.000000 0.000000 0.047241
#
#
# Mechanical properties :
#
#
# Convention : Reuss Voigt Hill
#
# Bulk Modulus (GPa) = 28.94266 40.57650 34.75958
# Shear Modulus (GPa) = 21.05142 25.16466 23.10804
#
# Velocity S-wave (km/s) = 3.34818 3.66070 3.50792
# Velocity P-wave (km/s) = 5.50997 6.28295 5.90911
#
# Compressibility (1/GPa) = 0.03455108
#
# Stress axis : x y z
#
# Youngs Moduli (GPa) = 24.09581 84.21219 60.38474
#
# Poissons Ratio (x) = 0.00090 0.83538
# Poissons Ratio (y) = 0.00026 0.23233
# Poissons Ratio (z) = 0.33335 0.32401
#
# Static dielectric constant tensor:
#      x y z
#    x 3.423520 0.000000 0.000000 
#    y 0.000000 3.483460 0.000000 
#    z 0.000000 0.000000 3.364720 
# 
# 
# High freq. dielectric constant tensor:
#      x y z
#    x 1.715100 0.000000 0.000000 
#    y 0.000000 1.736410 0.000000 
#    z 0.000000 0.000000 1.725740 
# 
# From -- ./inp_files/22175.got.cif
#   From: 2010.06.25/outbox.cif.g09.slc.cpg/sg58_12_cif.got.tgz:22175.got - 2010.06.26 21:38:00.
