data_PCOD8236436
_publ_section_title
;
Structure prediction by ZEFSAII (Michael W. Deem and Ramdas Pophale) SiO2 
 PCOD8236436
Probable space group: P N N M
;
_chemical_formula_sum "Si O2"
_cell_formula_units_Z 48
_cell_length_a 17.667185
_cell_length_b 16.429590
_cell_length_c 9.205095
_cell_angle_alpha 90.000000
_cell_angle_beta 90.000000
_cell_angle_gamma 90.000000
_cell_volume 2671.913273
_symmetry_space_group_name_H-M "P N N M"
_symmetry_group_IT_number 58
_symmetry_cell_setting 'orthorhombic'
loop_
_space_group_symop_operation_xyz
x,y,z
-x,-y,z
1/2+x,1/2-y,1/2-z
1/2-x,1/2+y,1/2-z
-x,-y,-z
x,y,-z
1/2-x,1/2+y,1/2+z
1/2+x,1/2-y,1/2+z
loop_
_atom_site_type_symbol
_atom_site_label
_atom_site_fract_x
_atom_site_fract_y
_atom_site_fract_z
Si Si1 0.334368 0.820208 0.166714
Si Si2 0.102712 0.175364 0.829900
Si Si3 0.986525 0.590398 0.330323
Si Si4 0.449795 0.235092 0.333512
Si Si5 0.333698 0.369525 0.666617
Si Si6 0.086885 0.012202 0.670949
O O1 0.338509 0.741641 0.269352
O O2 0.400716 0.883665 0.206859
O O3 0.255410 0.864659 0.194895
O O4 0.342026 0.791446 0.000000
O O5 0.017772 0.203759 0.791776
O O6 0.119720 0.090972 0.750752
O O7 0.116071 0.163795 0.000000
O O8 0.003463 0.591902 0.500000
O O9 0.000000 0.500000 0.267090
O O10 0.046239 0.652718 0.259367
O O11 0.456627 0.208523 0.500000
O O12 0.371598 0.281778 0.300498
O O13 0.351837 0.394699 0.500000
O O14 0.365764 0.435205 0.776818
O O15 0.097196 0.023080 0.500000
O O16 0.000000 0.000000 0.715208
#
# Coordination Sequence:
#
# PCOD8236436 Si02
#       6
#     8   8   8   8   8   8
#     4   9  19  36  56  76 107 143 176 221 275 319
#     4  10  19  34  56  78 104 140 181 218 260 321
#     4   9  18  34  55  77 102 136 178 220 260 313
#     4   9  18  32  53  77 100 134 175 215 261 315
#     4  10  20  36  55  77 110 144 177 221 274 326
#     4  11  22  34  54  83 112 142 181 224 268 320
#
# _framework density 17.964655
#
# number of rings (size 3 to 8) (size 9 to 14) (size 15 to 20)
#    0.000    2.333    1.667    1.000    0.000    3.000 
#    3.000    0.000    0.000    0.000    0.000    0.000 
#    0.000    0.000    0.000    0.000    0.000    0.000 
#
# Total GULP energy -595355.444575 kJ/mol
# GULP energy per Si atom -12403.238429 kJ/mol
# Density = 1.792377 g / cm^3
# Si number density = 17.964655 Si / 1000 Ang^3
#
#
#
# Elastic Constant Matrix: (Units=GPa)
#
#
# Indices 1 2 3 4 5 6 
#
# 1 79.0526 43.8062 33.0881 0.0000 0.0000 0.0000
# 2 43.8062 135.4470 58.8293 0.0000 0.0000 0.0000
# 3 33.0881 58.8293 72.3421 0.0000 0.0000 0.0000
# 4 0.0000 0.0000 0.0000 36.9444 0.0000 0.0000
# 5 0.0000 0.0000 0.0000 0.0000 20.4782 0.0000
# 6 0.0000 0.0000 0.0000 0.0000 0.0000 20.3036
#
#
#
# Elastic Compliance Matrix: (Units=1/GPa)
#
#
# Indices 1 2 3 4 5 6 
#
# 1 0.016486 -0.003180 -0.004954 0.000000 0.000000 0.000000
# 2 -0.003180 0.012028 -0.008327 0.000000 0.000000 0.000000
# 3 -0.004954 -0.008327 0.022861 0.000000 0.000000 0.000000
# 4 0.000000 0.000000 0.000000 0.027068 0.000000 0.000000
# 5 0.000000 0.000000 0.000000 0.000000 0.048832 0.000000
# 6 0.000000 0.000000 0.000000 0.000000 0.000000 0.049252
#
#
# Mechanical properties :
#
#
# Convention : Reuss Voigt Hill
#
# Bulk Modulus (GPa) = 54.19423 62.03212 58.11317
# Shear Modulus (GPa) = 23.19109 25.61977 24.40543
#
# Velocity S-wave (km/s) = 3.59685 3.78050 3.68982
# Velocity P-wave (km/s) = 6.89075 7.32539 7.11139
#
# Compressibility (1/GPa) = 0.01845215
#
# Stress axis : x y z
#
# Youngs Moduli (GPa) = 60.65902 83.13883 43.74311
#
# Poissons Ratio (x) = 0.26438 0.21672
# Poissons Ratio (y) = 0.19289 0.36424
# Poissons Ratio (z) = 0.30052 0.69229
#
# Static dielectric constant tensor:
#      x y z
#    x 3.246330 0.000000 0.000000 
#    y 0.000000 3.297920 0.000000 
#    z 0.000000 0.000000 3.317170 
# 
# 
# High freq. dielectric constant tensor:
#      x y z
#    x 1.680780 0.000000 0.000000 
#    y 0.000000 1.695950 0.000000 
#    z 0.000000 0.000000 1.696620 
# 
# From -- ./inp_files/5770.got.cif
#   From: 2010.06.25/outbox.cif.g09.slc.cpg/sg58_3_cif.got.tgz:5770.got - 2010.06.26 21:38:00.
