data_PCOD8236570
_publ_section_title
;
Structure prediction by ZEFSAII (Michael W. Deem and Ramdas Pophale) SiO2 
 PCOD8236570
Probable space group: P N N M
;
_chemical_formula_sum "Si O2"
_cell_formula_units_Z 40
_cell_length_a 23.585881
_cell_length_b 5.026524
_cell_length_c 18.462228
_cell_angle_alpha 90.000000
_cell_angle_beta 90.000000
_cell_angle_gamma 90.000000
_cell_volume 2188.789383
_symmetry_space_group_name_H-M "P N N M"
_symmetry_group_IT_number 58
_symmetry_cell_setting 'orthorhombic'
loop_
_space_group_symop_operation_xyz
x,y,z
-x,-y,z
1/2+x,1/2-y,1/2-z
1/2-x,1/2+y,1/2-z
-x,-y,-z
x,y,-z
1/2-x,1/2+y,1/2+z
1/2+x,1/2-y,1/2+z
loop_
_atom_site_type_symbol
_atom_site_label
_atom_site_fract_x
_atom_site_fract_y
_atom_site_fract_z
Si Si1 0.264130 0.933526 0.155819
Si Si2 0.644942 0.971616 0.500000
Si Si3 0.320193 0.433180 0.218485
Si Si4 0.562676 0.461005 0.723986
Si Si5 0.062203 0.538378 0.129440
Si Si6 0.218573 0.028679 0.000000
O O1 0.289484 0.640446 0.165643
O O2 0.204765 0.961188 0.199715
O O3 0.256034 0.979366 0.070963
O O4 0.309399 0.140879 0.187476
O O5 0.608945 0.031117 0.429095
O O6 0.698490 0.166770 0.500000
O O7 0.664943 0.667559 0.500000
O O8 0.387775 0.480612 0.218413
O O9 0.500000 0.500000 0.759644
O O10 0.569982 0.158942 0.697310
O O11 0.569036 0.659533 0.655934
O O12 0.000000 0.500000 0.094552
#
# Coordination Sequence:
#
# PCOD8236570 Si02
#       6
#     8   4   8   8   8   4
#     4  10  21  34  53  75 103 134 171 213 257 309
#     4  12  21  32  50  68 104 144 175 206 242 302
#     4  10  19  35  54  76 101 134 170 211 261 308
#     4  10  20  34  53  76 102 131 172 219 258 302
#     4  10  20  32  47  72 104 139 174 208 245 291
#     4  12  24  36  51  78 103 136 178 216 260 304
#
# _framework density 18.274941999999999
#
# number of rings (size 3 to 8) (size 9 to 14) (size 15 to 20)
#    0.000    1.600    0.000    6.300    0.000    3.200 
#    0.000    4.000    0.000    0.000    0.000    4.200 
#    0.000    0.000    0.000    0.000    0.000    0.000 
#
# Total GULP energy -496144.241448 kJ/mol
# GULP energy per Si atom -12403.606036 kJ/mol
# Density = 1.823335 g / cm^3
# Si number density = 18.274942 Si / 1000 Ang^3
#
#
#
# Elastic Constant Matrix: (Units=GPa)
#
#
# Indices 1 2 3 4 5 6 
#
# 1 102.8459 3.7237 29.8666 0.0000 0.0000 0.0000
# 2 3.7237 65.2225 0.5437 0.0000 0.0000 0.0000
# 3 29.8666 0.5437 81.4056 0.0000 0.0000 0.0000
# 4 0.0000 0.0000 0.0000 14.2103 0.0000 0.0000
# 5 0.0000 0.0000 0.0000 0.0000 21.7693 0.0000
# 6 0.0000 0.0000 0.0000 0.0000 0.0000 23.8451
#
#
#
# Elastic Compliance Matrix: (Units=1/GPa)
#
#
# Indices 1 2 3 4 5 6 
#
# 1 0.010905 -0.000589 -0.003997 0.000000 0.000000 0.000000
# 2 -0.000589 0.015365 0.000114 0.000000 0.000000 0.000000
# 3 -0.003997 0.000114 0.013750 0.000000 0.000000 0.000000
# 4 0.000000 0.000000 0.000000 0.070372 0.000000 0.000000
# 5 0.000000 0.000000 0.000000 0.000000 0.045936 0.000000
# 6 0.000000 0.000000 0.000000 0.000000 0.000000 0.041937
#
#
# Mechanical properties :
#
#
# Convention : Reuss Voigt Hill
#
# Bulk Modulus (GPa) = 32.18077 35.30468 33.74272
# Shear Modulus (GPa) = 22.98121 26.32093 24.65107
#
# Velocity S-wave (km/s) = 3.55001 3.79921 3.67672
# Velocity P-wave (km/s) = 5.86949 6.21337 6.04387
#
# Compressibility (1/GPa) = 0.03107446
#
# Stress axis : x y z
#
# Youngs Moduli (GPa) = 91.69778 65.08372 72.72789
#
# Poissons Ratio (x) = 0.03835 0.29070
# Poissons Ratio (y) = 0.05404 -0.00826
# Poissons Ratio (z) = 0.36653 -0.00739
#
# Static dielectric constant tensor:
#      x y z
#    x 3.394640 0.000000 0.000000 
#    y 0.000000 3.542900 0.000000 
#    z 0.000000 0.000000 2.969590 
# 
# 
# High freq. dielectric constant tensor:
#      x y z
#    x 1.704930 0.000000 0.000000 
#    y 0.000000 1.734200 0.000000 
#    z 0.000000 0.000000 1.663680 
# 
# From -- ./inp_files/18485.got.cif
#   From: 2010.06.25/outbox.cif.g09.slc.cpg/sg58_10_cif.got.tgz:18485.got - 2010.06.26 21:38:00.
