data_PCOD8236326
_publ_section_title
;
Structure prediction by ZEFSAII (Michael W. Deem and Ramdas Pophale) SiO2 
 PCOD8236326
Probable space group: P N N M
;
_chemical_formula_sum "Si O2"
_cell_formula_units_Z 64
_cell_length_a 14.431974
_cell_length_b 24.869408
_cell_length_c 9.371884
_cell_angle_alpha 90.000000
_cell_angle_beta 90.000000
_cell_angle_gamma 90.000000
_cell_volume 3363.706462
_symmetry_space_group_name_H-M "P N N M"
_symmetry_group_IT_number 58
_symmetry_cell_setting 'orthorhombic'
loop_
_space_group_symop_operation_xyz
x,y,z
-x,-y,z
1/2+x,1/2-y,1/2-z
1/2-x,1/2+y,1/2-z
-x,-y,-z
x,y,-z
1/2-x,1/2+y,1/2+z
1/2+x,1/2-y,1/2+z
loop_
_atom_site_type_symbol
_atom_site_label
_atom_site_fract_x
_atom_site_fract_y
_atom_site_fract_z
Si Si1 0.704166 0.108168 0.164748
Si Si2 0.407209 0.367178 0.330037
Si Si3 0.939773 0.947348 0.840645
Si Si4 0.254212 0.187899 0.669105
Si Si5 0.736539 0.432959 0.167706
Si Si6 0.887121 0.722948 0.335668
Si Si7 0.103791 0.484758 0.167574
Si Si8 0.435259 0.246537 0.330338
O O1 0.810155 0.106641 0.223093
O O2 0.672166 0.169321 0.183569
O O3 0.638654 0.068716 0.254019
O O4 0.698753 0.090177 0.000000
O O5 0.403865 0.367588 0.500000
O O6 0.495213 0.400817 0.273188
O O7 0.420389 0.306905 0.272694
O O8 0.851349 0.959739 0.743386
O O9 0.906574 0.931326 0.000000
O O10 0.000000 0.000000 0.848296
O O11 0.257143 0.187944 0.500000
O O12 0.243980 0.127599 0.728301
O O13 0.170848 0.225812 0.721443
O O14 0.349959 0.211603 0.726758
O O15 0.829335 0.465472 0.206876
O O16 0.718456 0.433680 0.000000
O O17 0.915858 0.730975 0.500000
O O18 0.976408 0.718428 0.237892
O O19 0.000000 0.500000 0.218395
O O20 0.104826 0.472370 0.000000
O O21 0.445174 0.245468 0.500000
#
# Coordination Sequence:
#
# PCOD8236326 Si02
#       8
#     8   8   8   8   8   8   8   8
#     4  10  20  37  60  82 109 145 185 227 274 329
#     4   9  17  33  56  82 110 143 183 224 268 327
#     4  10  20  34  55  82 110 140 177 222 271 322
#     4   9  18  35  57  79 108 147 182 215 268 332
#     4  10  21  37  56  79 109 145 183 224 273 325
#     4  10  20  35  55  83 114 142 179 228 275 322
#     4  10  23  40  57  80 110 145 188 235 275 320
#     4  10  19  33  56  80 105 145 188 220 266 331
#
# _framework density 19.026630999999998
#
# number of rings (size 3 to 8) (size 9 to 14) (size 15 to 20)
#    0.000    2.250    1.250    1.500    1.750    2.500 
#    0.000    2.500    0.000    0.000    0.000    0.000 
#    0.000    0.000    0.000    0.000    0.000    0.000 
#
# Total GULP energy -793619.755152 kJ/mol
# GULP energy per Si atom -12400.308674 kJ/mol
# Density = 1.898333 g / cm^3
# Si number density = 19.026631 Si / 1000 Ang^3
#
#
#
# Elastic Constant Matrix: (Units=GPa)
#
#
# Indices 1 2 3 4 5 6 
#
# 1 132.5219 29.5869 38.0592 0.0000 0.0000 0.0000
# 2 29.5869 89.1032 26.4807 0.0000 0.0000 0.0000
# 3 38.0592 26.4807 35.1706 0.0000 0.0000 0.0000
# 4 0.0000 0.0000 0.0000 13.6405 0.0000 0.0000
# 5 0.0000 0.0000 0.0000 0.0000 28.4332 0.0000
# 6 0.0000 0.0000 0.0000 0.0000 0.0000 35.8047
#
#
#
# Elastic Compliance Matrix: (Units=1/GPa)
#
#
# Indices 1 2 3 4 5 6 
#
# 1 0.010950 -0.000147 -0.011738 0.000000 0.000000 0.000000
# 2 -0.000147 0.014460 -0.010728 0.000000 0.000000 0.000000
# 3 -0.011738 -0.010728 0.049212 0.000000 0.000000 0.000000
# 4 0.000000 0.000000 0.000000 0.073311 0.000000 0.000000
# 5 0.000000 0.000000 0.000000 0.000000 0.035170 0.000000
# 6 0.000000 0.000000 0.000000 0.000000 0.000000 0.027929
#
#
# Mechanical properties :
#
#
# Convention : Reuss Voigt Hill
#
# Bulk Modulus (GPa) = 34.01885 49.44993 41.73439
# Shear Modulus (GPa) = 18.79286 26.42028 22.60657
#
# Velocity S-wave (km/s) = 3.14620 3.73043 3.45070
# Velocity P-wave (km/s) = 5.57822 6.67840 6.15295
#
# Compressibility (1/GPa) = 0.02939546
#
# Stress axis : x y z
#
# Youngs Moduli (GPa) = 91.32437 69.15580 20.32007
#
# Poissons Ratio (x) = 0.01020 0.23852
# Poissons Ratio (y) = 0.01347 0.21799
# Poissons Ratio (z) = 1.07199 0.74189
#
# Static dielectric constant tensor:
#      x y z
#    x 3.619290 0.000000 0.000000 
#    y 0.000000 3.669770 0.000000 
#    z 0.000000 0.000000 3.148600 
# 
# 
# High freq. dielectric constant tensor:
#      x y z
#    x 1.752290 0.000000 0.000000 
#    y 0.000000 1.751870 0.000000 
#    z 0.000000 0.000000 1.701920 
# 
# From -- ./inp_files/6740.got.cif
#   From: 2010.06.25/outbox.cif.g09.slc.cpg/sg58_4_cif.got.tgz:6740.got - 2010.06.26 21:38:00.
