data_PCOD8236459
_publ_section_title
;
Structure prediction by ZEFSAII (Michael W. Deem and Ramdas Pophale) SiO2 
 PCOD8236459
Probable space group: P N N M
;
_chemical_formula_sum "Si O2"
_cell_formula_units_Z 64
_cell_length_a 13.487921
_cell_length_b 24.419972
_cell_length_c 9.065007
_cell_angle_alpha 90.000000
_cell_angle_beta 90.000000
_cell_angle_gamma 90.000000
_cell_volume 2985.783537
_symmetry_space_group_name_H-M "P N N M"
_symmetry_group_IT_number 58
_symmetry_cell_setting 'orthorhombic'
loop_
_space_group_symop_operation_xyz
x,y,z
-x,-y,z
1/2+x,1/2-y,1/2-z
1/2-x,1/2+y,1/2-z
-x,-y,-z
x,y,-z
1/2-x,1/2+y,1/2+z
1/2+x,1/2-y,1/2+z
loop_
_atom_site_type_symbol
_atom_site_label
_atom_site_fract_x
_atom_site_fract_y
_atom_site_fract_z
Si Si1 0.717229 0.956125 0.665914
Si Si2 0.952133 0.947022 0.665044
Si Si3 0.591349 0.158297 0.677261
Si Si4 0.592100 0.039864 0.826198
Si Si5 0.772559 0.233517 0.330506
Si Si6 0.219476 0.646173 0.661802
Si Si7 0.007803 0.752113 0.670201
Si Si8 0.440460 0.651855 0.658921
O O1 0.674981 0.962007 0.500000
O O2 0.834602 0.951755 0.663060
O O3 0.669277 0.900551 0.736499
O O4 0.688250 0.008741 0.763123
O O5 0.993898 0.941071 0.500000
O O6 0.997237 0.894779 0.750175
O O7 0.000000 0.000000 0.741948
O O8 0.584290 0.155898 0.500000
O O9 0.584505 0.097693 0.742696
O O10 0.694062 0.189011 0.732384
O O11 0.499558 0.193116 0.747308
O O12 0.500000 0.000000 0.790274
O O13 0.603665 0.050398 0.000000
O O14 0.742148 0.242956 0.500000
O O15 0.776038 0.294459 0.258130
O O16 0.887228 0.215516 0.312252
O O17 0.164514 0.649131 0.500000
O O18 0.331677 0.627585 0.633686
O O19 0.979438 0.743951 0.500000
O O20 0.929888 0.791609 0.750909
O O21 0.492187 0.662362 0.500000
#
# Coordination Sequence:
#
# PCOD8236459 Si02
#       8
#     8   8   8   8   8   8   8   8
#     4  10  21  37  59  89 117 150 200 256 304 351
#     4   9  19  36  58  85 119 158 198 242 300 369
#     4  11  23  44  67  92 127 163 207 262 311 360
#     4  11  26  46  65  87 121 169 214 255 312 376
#     4   9  20  38  61  87 120 162 197 237 307 375
#     4   9  17  35  59  81 112 154 195 238 300 368
#     4  11  22  37  60  90 122 161 204 243 303 377
#     4  10  19  34  56  82 116 154 195 245 297 348
#
# _framework density 21.434909999999999
#
# number of rings (size 3 to 8) (size 9 to 14) (size 15 to 20)
#    0.000    2.000    1.250    1.875    1.750    3.250 
#    0.000    8.125    0.000    0.000    0.000    0.000 
#    0.000    0.000    0.000    0.000    0.000    0.000 
#
# Total GULP energy -792980.056647 kJ/mol
# GULP energy per Si atom -12390.313385 kJ/mol
# Density = 2.138612 g / cm^3
# Si number density = 21.434910 Si / 1000 Ang^3
#
#
#
# Elastic Constant Matrix: (Units=GPa)
#
#
# Indices 1 2 3 4 5 6 
#
# 1 34.2822 18.8569 24.7422 0.0000 0.0000 0.0000
# 2 18.8569 173.1772 76.6988 0.0000 0.0000 0.0000
# 3 24.7422 76.6988 136.7249 0.0000 0.0000 0.0000
# 4 0.0000 0.0000 0.0000 38.5859 0.0000 0.0000
# 5 0.0000 0.0000 0.0000 0.0000 14.3488 0.0000
# 6 0.0000 0.0000 0.0000 0.0000 0.0000 32.4899
#
#
#
# Elastic Compliance Matrix: (Units=1/GPa)
#
#
# Indices 1 2 3 4 5 6 
#
# 1 0.033767 -0.001291 -0.005386 0.000000 0.000000 0.000000
# 2 -0.001291 0.007733 -0.004104 0.000000 0.000000 0.000000
# 3 -0.005386 -0.004104 0.010591 0.000000 0.000000 0.000000
# 4 0.000000 0.000000 0.000000 0.025916 0.000000 0.000000
# 5 0.000000 0.000000 0.000000 0.000000 0.069692 0.000000
# 6 0.000000 0.000000 0.000000 0.000000 0.000000 0.030779
#
#
# Mechanical properties :
#
#
# Convention : Reuss Voigt Hill
#
# Bulk Modulus (GPa) = 32.75724 64.97554 48.86639
# Shear Modulus (GPa) = 23.78486 32.01069 27.89778
#
# Velocity S-wave (km/s) = 3.33473 3.86863 3.61156
# Velocity P-wave (km/s) = 5.49023 7.09464 6.34336
#
# Compressibility (1/GPa) = 0.03052760
#
# Stress axis : x y z
#
# Youngs Moduli (GPa) = 29.61440 129.32024 94.41986
#
# Poissons Ratio (x) = 0.16699 0.50857
# Poissons Ratio (y) = 0.03824 0.38751
# Poissons Ratio (z) = 0.15951 0.53075
#
# Static dielectric constant tensor:
#      x y z
#    x 3.699480 0.000000 0.000000 
#    y 0.000000 3.965270 0.000000 
#    z 0.000000 0.000000 4.070820 
# 
# 
# High freq. dielectric constant tensor:
#      x y z
#    x 1.821520 0.000000 0.000000 
#    y 0.000000 1.850550 0.000000 
#    z 0.000000 0.000000 1.834180 
# 
# From -- ./inp_files/6883.got.cif
#   From: 2010.06.25/outbox.cif.g09.slc.cpg/sg58_4_cif.got.tgz:6883.got - 2010.06.26 21:38:00.
