data_PCOD8236306
_publ_section_title
;
Structure prediction by ZEFSAII (Michael W. Deem and Ramdas Pophale) SiO2 
 PCOD8236306
Probable space group: P N N M
;
_chemical_formula_sum "Si O2"
_cell_formula_units_Z 56
_cell_length_a 19.634651
_cell_length_b 17.494018
_cell_length_c 8.771687
_cell_angle_alpha 90.000000
_cell_angle_beta 90.000000
_cell_angle_gamma 90.000000
_cell_volume 3012.977452
_symmetry_space_group_name_H-M "P N N M"
_symmetry_group_IT_number 58
_symmetry_cell_setting 'orthorhombic'
loop_
_space_group_symop_operation_xyz
x,y,z
-x,-y,z
1/2+x,1/2-y,1/2-z
1/2-x,1/2+y,1/2-z
-x,-y,-z
x,y,-z
1/2-x,1/2+y,1/2+z
1/2+x,1/2-y,1/2+z
loop_
_atom_site_type_symbol
_atom_site_label
_atom_site_fract_x
_atom_site_fract_y
_atom_site_fract_z
Si Si1 0.118327 0.783249 0.325551
Si Si2 0.462395 0.700414 0.825330
Si Si3 0.692505 0.569896 0.182517
Si Si4 0.569284 0.465459 0.180417
Si Si5 0.090678 0.618450 0.319491
Si Si6 0.836946 0.535749 0.679719
Si Si7 0.448280 0.858317 0.678642
O O1 0.138479 0.774692 0.500000
O O2 0.170854 0.845341 0.256680
O O3 0.122533 0.697912 0.252077
O O4 0.042544 0.816447 0.306722
O O5 0.423130 0.623769 0.773864
O O6 0.438597 0.769338 0.718630
O O7 0.446031 0.722596 0.000000
O O8 0.635129 0.510587 0.239565
O O9 0.760526 0.545249 0.265515
O O10 0.701227 0.567992 0.000000
O O11 0.500000 0.500000 0.252998
O O12 0.564260 0.473421 0.000000
O O13 0.081418 0.625457 0.500000
O O14 0.138873 0.548959 0.271605
O O15 0.015511 0.605271 0.253137
O O16 0.842676 0.547358 0.500000
O O17 0.882432 0.598241 0.761989
O O18 0.454045 0.868588 0.500000
#
# Coordination Sequence:
#
# PCOD8236306 Si02
#       7
#     8   8   8   8   8   8   8
#     4   8  14  29  55  81 104 137 177 217 262 318
#     4   9  16  31  56  84 113 142 179 219 265 326
#     4  10  19  33  55  82 113 146 183 225 269 317
#     4   9  15  28  56  87 110 142 185 224 263 318
#     4   9  19  37  61  83 104 140 184 224 273 335
#     4  11  23  39  55  76 111 150 187 223 274 338
#     4  11  22  36  57  84 110 138 180 235 283 323
#
# _framework density 18.586265000000001
#
# number of rings (size 3 to 8) (size 9 to 14) (size 15 to 20)
#    0.000    2.429    1.429    3.000    0.000    2.857 
#    2.571    3.571    0.000    0.857    0.000    0.000 
#    0.000    0.000    0.000    0.000    0.000    0.000 
#
# Total GULP energy -694210.028504 kJ/mol
# GULP energy per Si atom -12396.607652 kJ/mol
# Density = 1.854396 g / cm^3
# Si number density = 18.586265 Si / 1000 Ang^3
#
#
#
# Elastic Constant Matrix: (Units=GPa)
#
#
# Indices 1 2 3 4 5 6 
#
# 1 113.5059 77.2387 23.5040 0.0000 0.0000 0.0000
# 2 77.2387 121.1817 27.6232 0.0000 0.0000 0.0000
# 3 23.5040 27.6232 37.1695 0.0000 0.0000 0.0000
# 4 0.0000 0.0000 0.0000 13.5335 0.0000 0.0000
# 5 0.0000 0.0000 0.0000 0.0000 27.2311 0.0000
# 6 0.0000 0.0000 0.0000 0.0000 0.0000 15.8798
#
#
#
# Elastic Compliance Matrix: (Units=1/GPa)
#
#
# Indices 1 2 3 4 5 6 
#
# 1 0.015836 -0.009404 -0.003025 0.000000 0.000000 0.000000
# 2 -0.009404 0.015519 -0.005587 0.000000 0.000000 0.000000
# 3 -0.003025 -0.005587 0.032969 0.000000 0.000000 0.000000
# 4 0.000000 0.000000 0.000000 0.073891 0.000000 0.000000
# 5 0.000000 0.000000 0.000000 0.000000 0.036723 0.000000
# 6 0.000000 0.000000 0.000000 0.000000 0.000000 0.062973
#
#
# Mechanical properties :
#
#
# Convention : Reuss Voigt Hill
#
# Bulk Modulus (GPa) = 35.34562 58.73209 47.03886
# Shear Modulus (GPa) = 17.64460 20.89495 19.26977
#
# Velocity S-wave (km/s) = 3.08447 3.35657 3.22339
# Velocity P-wave (km/s) = 5.63415 6.83304 6.26235
#
# Compressibility (1/GPa) = 0.02829204
#
# Stress axis : x y z
#
# Youngs Moduli (GPa) = 63.14902 64.43564 30.33174
#
# Poissons Ratio (x) = 0.60593 0.09175
# Poissons Ratio (y) = 0.59383 0.16947
# Poissons Ratio (z) = 0.19103 0.36001
#
# Static dielectric constant tensor:
#      x y z
#    x 3.285200 0.000000 0.000000 
#    y 0.000000 4.013470 0.000000 
#    z 0.000000 0.000000 3.061340 
# 
# 
# High freq. dielectric constant tensor:
#      x y z
#    x 1.705490 0.000000 0.000000 
#    y 0.000000 1.742030 0.000000 
#    z 0.000000 0.000000 1.684940 
# 
# From -- ./inp_files/9164.got.cif
#   From: 2010.06.25/outbox.cif.g09.slc.cpg/sg58_5_cif.got.tgz:9164.got - 2010.06.26 21:38:00.
