data_PCOD8236978
_publ_section_title
;
Structure prediction by ZEFSAII (Michael W. Deem and Ramdas Pophale) SiO2 
 PCOD8236978
Probable space group: P N N M
;
_chemical_formula_sum "Si O2"
_cell_formula_units_Z 64
_cell_length_a 19.323299
_cell_length_b 19.731095
_cell_length_c 9.133481
_cell_angle_alpha 90.000000
_cell_angle_beta 90.000000
_cell_angle_gamma 90.000000
_cell_volume 3482.320915
_symmetry_space_group_name_H-M "P N N M"
_symmetry_group_IT_number 58
_symmetry_cell_setting 'orthorhombic'
loop_
_space_group_symop_operation_xyz
x,y,z
-x,-y,z
1/2+x,1/2-y,1/2-z
1/2-x,1/2+y,1/2-z
-x,-y,-z
x,y,-z
1/2-x,1/2+y,1/2+z
1/2+x,1/2-y,1/2+z
loop_
_atom_site_type_symbol
_atom_site_label
_atom_site_fract_x
_atom_site_fract_y
_atom_site_fract_z
Si Si1 0.206977 0.004933 0.826629
Si Si2 0.473215 0.926011 0.829844
Si Si3 0.072690 0.674087 0.825773
Si Si4 0.594601 0.690329 0.170537
Si Si5 0.817731 0.602574 0.329675
Si Si6 0.248718 0.285536 0.834093
Si Si7 0.712122 0.862281 0.830152
Si Si8 0.069471 0.961696 0.328428
O O1 0.239336 0.076673 0.778796
O O2 0.259474 0.947943 0.766432
O O3 0.132565 0.996864 0.754260
O O4 0.197905 0.000783 0.000000
O O5 0.508769 0.870746 0.727388
O O6 0.392412 0.926723 0.791133
O O7 0.500000 0.000000 0.789177
O O8 0.487163 0.908483 0.000000
O O9 0.060128 0.750292 0.766128
O O10 0.142593 0.640313 0.764542
O O11 0.075712 0.676013 0.000000
O O12 0.675566 0.687211 0.209108
O O13 0.561703 0.617801 0.212764
O O14 0.583673 0.708270 0.000000
O O15 0.807450 0.610405 0.500000
O O16 0.808664 0.677087 0.262249
O O17 0.243317 0.205494 0.805379
O O18 0.231807 0.303706 0.000000
O O19 0.689530 0.869834 0.000000
O O20 0.083576 0.969588 0.500000
O O21 0.000000 0.000000 0.279370
#
# Coordination Sequence:
#
# PCOD8236978 Si02
#       8
#     8   8   8   8   8   8   8   8
#     4  10  20  36  59  85 112 143 184 229 275 329
#     4  10  21  39  59  78 109 153 193 227 276 345
#     4  11  22  35  56  87 116 146 189 240 280 321
#     4   9  18  36  59  79 108 151 188 220 273 340
#     4  10  20  33  55  83 107 139 183 231 274 324
#     4   9  17  32  55  78 104 142 181 221 269 324
#     4   9  19  37  58  80 111 152 188 220 272 339
#     4  10  21  38  59  83 112 146 186 231 281 335
#
# _framework density 18.378547000000001
#
# number of rings (size 3 to 8) (size 9 to 14) (size 15 to 20)
#    0.000    2.250    1.250    2.625    0.000    6.000 
#    2.250    1.250    0.000    0.000    0.000    0.000 
#    0.000    0.000    0.000    0.000    0.000    0.000 
#
# Total GULP energy -793713.060978 kJ/mol
# GULP energy per Si atom -12401.766578 kJ/mol
# Density = 1.833672 g / cm^3
# Si number density = 18.378547 Si / 1000 Ang^3
#
#
#
# Elastic Constant Matrix: (Units=GPa)
#
#
# Indices 1 2 3 4 5 6 
#
# 1 100.5784 64.5876 50.4181 0.0000 0.0000 0.0000
# 2 64.5876 131.7208 51.7305 0.0000 0.0000 0.0000
# 3 50.4181 51.7305 65.9042 0.0000 0.0000 0.0000
# 4 0.0000 0.0000 0.0000 24.5058 0.0000 0.0000
# 5 0.0000 0.0000 0.0000 0.0000 27.7251 0.0000
# 6 0.0000 0.0000 0.0000 0.0000 0.0000 31.6378
#
#
#
# Elastic Compliance Matrix: (Units=1/GPa)
#
#
# Indices 1 2 3 4 5 6 
#
# 1 0.018135 -0.004978 -0.009966 0.000000 0.000000 0.000000
# 2 -0.004978 0.012342 -0.005879 0.000000 0.000000 0.000000
# 3 -0.009966 -0.005879 0.027412 0.000000 0.000000 0.000000
# 4 0.000000 0.000000 0.000000 0.040807 0.000000 0.000000
# 5 0.000000 0.000000 0.000000 0.000000 0.036068 0.000000
# 6 0.000000 0.000000 0.000000 0.000000 0.000000 0.031608
#
#
# Mechanical properties :
#
#
# Convention : Reuss Voigt Hill
#
# Bulk Modulus (GPa) = 61.56671 70.18619 65.87645
# Shear Modulus (GPa) = 23.42654 25.53822 24.48238
#
# Velocity S-wave (km/s) = 3.57412 3.73173 3.65378
# Velocity P-wave (km/s) = 7.11368 7.53922 7.32954
#
# Compressibility (1/GPa) = 0.01624254
#
# Stress axis : x y z
#
# Youngs Moduli (GPa) = 55.14112 81.02608 36.47996
#
# Poissons Ratio (x) = 0.40338 0.36356
# Poissons Ratio (y) = 0.27452 0.21446
# Poissons Ratio (z) = 0.54954 0.47634
#
# Static dielectric constant tensor:
#      x y z
#    x 3.242890 0.000000 0.000000 
#    y 0.000000 3.621830 0.000000 
#    z 0.000000 0.000000 3.230920 
# 
# 
# High freq. dielectric constant tensor:
#      x y z
#    x 1.700070 0.000000 0.000000 
#    y 0.000000 1.726070 0.000000 
#    z 0.000000 0.000000 1.700920 
# 
# From -- ./inp_files/8407.got.cif
#   From: 2010.06.25/outbox.cif.g09.slc.cpg/sg58_5_cif.got.tgz:8407.got - 2010.06.26 21:38:00.
