data_PCOD8236368
_publ_section_title
;
Structure prediction by ZEFSAII (Michael W. Deem and Ramdas Pophale) SiO2 
 PCOD8236368
Probable space group: P N N M
;
_chemical_formula_sum "Si O2"
_cell_formula_units_Z 48
_cell_length_a 19.898091
_cell_length_b 14.796103
_cell_length_c 8.464239
_cell_angle_alpha 90.000000
_cell_angle_beta 90.000000
_cell_angle_gamma 90.000000
_cell_volume 2491.992187
_symmetry_space_group_name_H-M "P N N M"
_symmetry_group_IT_number 58
_symmetry_cell_setting 'orthorhombic'
loop_
_space_group_symop_operation_xyz
x,y,z
-x,-y,z
1/2+x,1/2-y,1/2-z
1/2-x,1/2+y,1/2-z
-x,-y,-z
x,y,-z
1/2-x,1/2+y,1/2+z
1/2+x,1/2-y,1/2+z
loop_
_atom_site_type_symbol
_atom_site_label
_atom_site_fract_x
_atom_site_fract_y
_atom_site_fract_z
Si Si1 0.189716 0.623477 0.315174
Si Si2 0.456072 0.079706 0.184027
Si Si3 0.561646 0.434497 0.683151
Si Si4 0.301472 0.497855 0.817798
Si Si5 0.666916 0.688221 0.315132
Si Si6 0.520450 0.718670 0.815341
O O1 0.181885 0.644613 0.500000
O O2 0.119778 0.582271 0.247061
O O3 0.249527 0.554761 0.285899
O O4 0.204092 0.718676 0.229168
O O5 0.492503 0.175299 0.215098
O O6 0.500000 0.000000 0.265913
O O7 0.450270 0.058496 0.000000
O O8 0.500000 0.500000 0.721713
O O9 0.581846 0.436839 0.500000
O O10 0.624016 0.466317 0.786229
O O11 0.541269 0.333451 0.734499
O O12 0.294457 0.393111 0.771428
O O13 0.283279 0.510853 0.000000
O O14 0.670831 0.670331 0.500000
O O15 0.589599 0.687704 0.263632
O O16 0.524501 0.695965 0.000000
#
# Coordination Sequence:
#
# PCOD8236368 Si02
#       6
#     8   8   8   8   8   8
#     4  10  21  39  61  86 117 152 195 244 294 351
#     4   8  16  34  60  87 114 148 188 233 283 343
#     4  11  22  36  57  85 117 152 192 240 297 351
#     4  12  24  39  60  85 117 155 197 244 297 355
#     4  11  21  37  60  84 113 153 196 236 292 353
#     4  10  19  33  57  86 115 149 192 239 290 347
#
# _framework density 19.261696000000001
#
# number of rings (size 3 to 8) (size 9 to 14) (size 15 to 20)
#    0.000    1.667    1.667    5.500    0.000    0.667 
#    3.000    0.000    0.000   17.000    0.000    0.000 
#    0.000    0.000    0.000    0.000    0.000    0.000 
#
# Total GULP energy -595336.419179 kJ/mol
# GULP energy per Si atom -12402.842066 kJ/mol
# Density = 1.921786 g / cm^3
# Si number density = 19.261696 Si / 1000 Ang^3
#
#
#
# Elastic Constant Matrix: (Units=GPa)
#
#
# Indices 1 2 3 4 5 6 
#
# 1 70.1044 51.1274 11.2469 0.0000 0.0000 0.0000
# 2 51.1274 116.8121 14.7057 0.0000 0.0000 0.0000
# 3 11.2469 14.7057 61.0692 0.0000 0.0000 0.0000
# 4 0.0000 0.0000 0.0000 27.3880 0.0000 0.0000
# 5 0.0000 0.0000 0.0000 0.0000 25.7482 0.0000
# 6 0.0000 0.0000 0.0000 0.0000 0.0000 26.1469
#
#
#
# Elastic Compliance Matrix: (Units=1/GPa)
#
#
# Indices 1 2 3 4 5 6 
#
# 1 0.021126 -0.009030 -0.001716 0.000000 0.000000 0.000000
# 2 -0.009030 0.012689 -0.001392 0.000000 0.000000 0.000000
# 3 -0.001716 -0.001392 0.017026 0.000000 0.000000 0.000000
# 4 0.000000 0.000000 0.000000 0.036512 0.000000 0.000000
# 5 0.000000 0.000000 0.000000 0.000000 0.038838 0.000000
# 6 0.000000 0.000000 0.000000 0.000000 0.000000 0.038245
#
#
# Mechanical properties :
#
#
# Convention : Reuss Voigt Hill
#
# Bulk Modulus (GPa) = 37.64677 44.68286 41.16481
# Shear Modulus (GPa) = 25.30777 27.25034 26.27905
#
# Velocity S-wave (km/s) = 3.62870 3.76539 3.69767
# Velocity P-wave (km/s) = 6.09458 6.49248 6.29667
#
# Compressibility (1/GPa) = 0.02656270
#
# Stress axis : x y z
#
# Youngs Moduli (GPa) = 47.33580 78.81111 58.73307
#
# Poissons Ratio (x) = 0.71170 0.10079
# Poissons Ratio (y) = 0.42746 0.08178
# Poissons Ratio (z) = 0.08123 0.10973
#
# Static dielectric constant tensor:
#      x y z
#    x 3.406030 0.000000 0.000000 
#    y 0.000000 3.804240 0.000000 
#    z 0.000000 0.000000 3.420230 
# 
# 
# High freq. dielectric constant tensor:
#      x y z
#    x 1.730630 0.000000 0.000000 
#    y 0.000000 1.761340 0.000000 
#    z 0.000000 0.000000 1.747290 
# 
# From -- ./inp_files/7747.got.cif
#   From: 2010.06.25/outbox.cif.g09.slc.cpg/sg58_4_cif.got.tgz:7747.got - 2010.06.26 21:38:00.
