data_PCOD8236410
_publ_section_title
;
Structure prediction by ZEFSAII (Michael W. Deem and Ramdas Pophale) SiO2 
 PCOD8236410
Probable space group: P N N M
;
_chemical_formula_sum "Si O2"
_cell_formula_units_Z 48
_cell_length_a 7.515325
_cell_length_b 26.844272
_cell_length_c 13.421898
_cell_angle_alpha 90.000000
_cell_angle_beta 90.000000
_cell_angle_gamma 90.000000
_cell_volume 2707.779719
_symmetry_space_group_name_H-M "P N N M"
_symmetry_group_IT_number 58
_symmetry_cell_setting 'orthorhombic'
loop_
_space_group_symop_operation_xyz
x,y,z
-x,-y,z
1/2+x,1/2-y,1/2-z
1/2-x,1/2+y,1/2-z
-x,-y,-z
x,y,-z
1/2-x,1/2+y,1/2+z
1/2+x,1/2-y,1/2+z
loop_
_atom_site_type_symbol
_atom_site_label
_atom_site_fract_x
_atom_site_fract_y
_atom_site_fract_z
Si Si1 0.218591 0.613907 0.614383
Si Si2 0.514852 0.557150 0.274376
Si Si3 0.493033 0.359238 0.115374
Si Si4 0.812652 0.608745 0.614531
Si Si5 0.294868 0.193408 0.277084
Si Si6 0.700360 0.194259 0.733664
O O1 0.265294 0.624931 0.500000
O O2 0.347760 0.571835 0.657159
O O3 0.245006 0.665808 0.672573
O O4 0.018325 0.593557 0.626816
O O5 0.500000 0.500000 0.243452
O O6 0.519094 0.588615 0.173025
O O7 0.695771 0.565112 0.336744
O O8 0.680699 0.332258 0.135975
O O9 0.333897 0.322358 0.146946
O O10 0.475874 0.371593 0.000000
O O11 0.759258 0.615805 0.500000
O O12 0.768636 0.660797 0.668467
O O13 0.500614 0.188692 0.307667
O O14 0.236863 0.249876 0.265933
#
# Coordination Sequence:
#
# PCOD8236410 Si02
#       6
#     8   8   8   8   8   8
#     4   9  19  34  52  77 108 139 172 214 266 325
#     4  10  21  37  56  77 103 136 177 228 274 313
#     4  10  22  38  55  78 108 143 184 222 260 313
#     4   9  19  34  52  77 108 139 172 214 266 325
#     4  10  19  34  54  78 112 144 178 217 260 312
#     4  10  19  34  54  78 112 144 178 217 260 312
#
# _framework density 17.726700000000001
#
# number of rings (size 3 to 8) (size 9 to 14) (size 15 to 20)
#    0.000    2.333    1.667    0.500    0.000    4.333 
#    0.000    1.667    0.000    0.000    0.000    9.333 
#    0.000    0.000    0.000    0.000    0.000    0.000 
#
# Total GULP energy -595322.557328 kJ/mol
# GULP energy per Si atom -12402.553278 kJ/mol
# Density = 1.768635 g / cm^3
# Si number density = 17.726700 Si / 1000 Ang^3
#
#
#
# Elastic Constant Matrix: (Units=GPa)
#
#
# Indices 1 2 3 4 5 6 
#
# 1 71.4877 3.6497 19.1879 0.0000 0.0000 0.0000
# 2 3.6497 77.1775 9.1430 0.0000 0.0000 0.0000
# 3 19.1879 9.1430 101.9572 0.0000 0.0000 0.0000
# 4 0.0000 0.0000 0.0000 10.7788 0.0000 0.0000
# 5 0.0000 0.0000 0.0000 0.0000 22.7838 0.0000
# 6 0.0000 0.0000 0.0000 0.0000 0.0000 23.1633
#
#
#
# Elastic Compliance Matrix: (Units=1/GPa)
#
#
# Indices 1 2 3 4 5 6 
#
# 1 0.014743 -0.000372 -0.002741 0.000000 0.000000 0.000000
# 2 -0.000372 0.013106 -0.001105 0.000000 0.000000 0.000000
# 3 -0.002741 -0.001105 0.010423 0.000000 0.000000 0.000000
# 4 0.000000 0.000000 0.000000 0.092775 0.000000 0.000000
# 5 0.000000 0.000000 0.000000 0.000000 0.043891 0.000000
# 6 0.000000 0.000000 0.000000 0.000000 0.000000 0.043172
#
#
# Mechanical properties :
#
#
# Convention : Reuss Voigt Hill
#
# Bulk Modulus (GPa) = 33.51852 34.95375 34.23613
# Shear Modulus (GPa) = 21.14240 25.92130 23.53185
#
# Velocity S-wave (km/s) = 3.45728 3.82812 3.64741
# Velocity P-wave (km/s) = 5.90648 6.26899 6.09044
#
# Compressibility (1/GPa) = 0.02983425
#
# Stress axis : x y z
#
# Youngs Moduli (GPa) = 67.82788 76.30280 95.94138
#
# Poissons Ratio (x) = 0.02842 0.26300
# Poissons Ratio (y) = 0.02526 0.10603
# Poissons Ratio (z) = 0.18593 0.08433
#
# Static dielectric constant tensor:
#      x y z
#    x 3.660150 0.000000 0.000000 
#    y 0.000000 3.093640 0.000000 
#    z 0.000000 0.000000 3.162010 
# 
# 
# High freq. dielectric constant tensor:
#      x y z
#    x 1.707060 0.000000 0.000000 
#    y 0.000000 1.675210 0.000000 
#    z 0.000000 0.000000 1.672990 
# 
# From -- ./inp_files/13085.got.cif
#   From: 2010.06.25/outbox.cif.g09.slc.cpg/sg58_7_cif.got.tgz:13085.got - 2010.06.26 21:38:00.
