data_PCOD8236110
_publ_section_title
;
Structure prediction by ZEFSAII (Michael W. Deem and Ramdas Pophale) SiO2 
 PCOD8236110
Probable space group: P N N M
;
_chemical_formula_sum "Si O2"
_cell_formula_units_Z 48
_cell_length_a 31.018732
_cell_length_b 8.931379
_cell_length_c 9.296809
_cell_angle_alpha 90.000000
_cell_angle_beta 90.000000
_cell_angle_gamma 90.000000
_cell_volume 2575.588445
_symmetry_space_group_name_H-M "P N N M"
_symmetry_group_IT_number 58
_symmetry_cell_setting 'orthorhombic'
loop_
_space_group_symop_operation_xyz
x,y,z
-x,-y,z
1/2+x,1/2-y,1/2-z
1/2-x,1/2+y,1/2-z
-x,-y,-z
x,y,-z
1/2-x,1/2+y,1/2+z
1/2+x,1/2-y,1/2+z
loop_
_atom_site_type_symbol
_atom_site_label
_atom_site_fract_x
_atom_site_fract_y
_atom_site_fract_z
Si Si1 0.206996 0.326726 0.833598
Si Si2 0.950792 0.827698 0.837431
Si Si3 0.631411 0.338844 0.830315
Si Si4 0.790801 0.372319 0.334676
Si Si5 0.873519 0.183862 0.667318
Si Si6 0.545362 0.683196 0.661164
O O1 0.169910 0.248278 0.743545
O O2 0.215721 0.490289 0.771452
O O3 0.250799 0.236659 0.815076
O O4 0.193252 0.337850 0.000000
O O5 0.913640 0.771378 0.729509
O O6 0.997600 0.763726 0.787344
O O7 0.952869 0.005453 0.832966
O O8 0.940434 0.774084 0.000000
O O9 0.636074 0.512854 0.787661
O O10 0.633201 0.312043 0.000000
O O11 0.794857 0.426558 0.500000
O O12 0.833339 0.283814 0.284957
O O13 0.882285 0.193102 0.500000
O O14 0.916606 0.250011 0.741029
O O15 0.553347 0.741088 0.500000
#
# Coordination Sequence:
#
# PCOD8236110 Si02
#       6
#     8   8   8   8   8   8
#     4  11  23  38  57  79 103 134 172 212 256 307
#     4   8  14  26  44  70 104 138 173 212 253 298
#     4  10  19  32  52  78 108 140 174 213 257 304
#     4  10  22  39  56  76 104 135 168 210 257 305
#     4   9  18  32  51  76 106 138 172 211 255 305
#     4   8  14  25  44  71 103 137 172 212 254 297
#
# _framework density 18.636519
#
# number of rings (size 3 to 8) (size 9 to 14) (size 15 to 20)
#    0.000    2.667    0.000    3.000    0.000    4.667 
#    0.000    3.333    0.000    1.000    0.000    7.000 
#    0.000    0.000    0.000    0.000    0.000    0.000 
#
# Total GULP energy -595060.752968 kJ/mol
# GULP energy per Si atom -12397.099020 kJ/mol
# Density = 1.859410 g / cm^3
# Si number density = 18.636519 Si / 1000 Ang^3
#
#
#
# Elastic Constant Matrix: (Units=GPa)
#
#
# Indices 1 2 3 4 5 6 
#
# 1 160.4241 46.2625 72.6805 0.0000 0.0000 0.0000
# 2 46.2625 64.1754 45.7732 0.0000 0.0000 0.0000
# 3 72.6805 45.7732 95.2763 0.0000 0.0000 0.0000
# 4 0.0000 0.0000 0.0000 22.1704 0.0000 0.0000
# 5 0.0000 0.0000 0.0000 0.0000 37.7380 0.0000
# 6 0.0000 0.0000 0.0000 0.0000 0.0000 24.0200
#
#
#
# Elastic Compliance Matrix: (Units=1/GPa)
#
#
# Indices 1 2 3 4 5 6 
#
# 1 0.009811 -0.002638 -0.006216 0.000000 0.000000 0.000000
# 2 -0.002638 0.024415 -0.009717 0.000000 0.000000 0.000000
# 3 -0.006216 -0.009717 0.019906 0.000000 0.000000 0.000000
# 4 0.000000 0.000000 0.000000 0.045105 0.000000 0.000000
# 5 0.000000 0.000000 0.000000 0.000000 0.026499 0.000000
# 6 0.000000 0.000000 0.000000 0.000000 0.000000 0.041632
#
#
# Mechanical properties :
#
#
# Convention : Reuss Voigt Hill
#
# Bulk Modulus (GPa) = 58.86399 72.14537 65.50468
# Shear Modulus (GPa) = 23.78989 27.12964 25.45976
#
# Velocity S-wave (km/s) = 3.57672 3.81954 3.70012
# Velocity P-wave (km/s) = 6.97933 7.63202 7.31296
#
# Compressibility (1/GPa) = 0.01698832
#
# Stress axis : x y z
#
# Youngs Moduli (GPa) = 101.92955 40.95881 50.23584
#
# Poissons Ratio (x) = 0.10807 0.31229
# Poissons Ratio (y) = 0.26893 0.48813
# Poissons Ratio (z) = 0.63364 0.39799
#
# Static dielectric constant tensor:
#      x y z
#    x 3.949530 0.000000 0.000000 
#    y 0.000000 3.112660 0.000000 
#    z 0.000000 0.000000 3.541790 
# 
# 
# High freq. dielectric constant tensor:
#      x y z
#    x 1.744350 0.000000 0.000000 
#    y 0.000000 1.683550 0.000000 
#    z 0.000000 0.000000 1.723170 
# 
# From -- ./inp_files/2947.got.cif
#   From: 2010.06.25/outbox.cif.g09.slc.cpg/sg58_2_cif.got.tgz:2947.got - 2010.06.26 21:38:00.
