data_PCOD8236418
_publ_section_title
;
Structure prediction by ZEFSAII (Michael W. Deem and Ramdas Pophale) SiO2 
 PCOD8236418
Probable space group: P N N M
;
_chemical_formula_sum "Si O2"
_cell_formula_units_Z 64
_cell_length_a 24.691347
_cell_length_b 14.806810
_cell_length_c 8.927734
_cell_angle_alpha 90.000000
_cell_angle_beta 90.000000
_cell_angle_gamma 90.000000
_cell_volume 3263.980297
_symmetry_space_group_name_H-M "P N N M"
_symmetry_group_IT_number 58
_symmetry_cell_setting 'orthorhombic'
loop_
_space_group_symop_operation_xyz
x,y,z
-x,-y,z
1/2+x,1/2-y,1/2-z
1/2-x,1/2+y,1/2-z
-x,-y,-z
x,y,-z
1/2-x,1/2+y,1/2+z
1/2+x,1/2-y,1/2+z
loop_
_atom_site_type_symbol
_atom_site_label
_atom_site_fract_x
_atom_site_fract_y
_atom_site_fract_z
Si Si1 0.738665 0.624718 0.821527
Si Si2 0.526457 0.594874 0.177078
Si Si3 0.555978 0.255107 0.176574
Si Si4 0.765563 0.329028 0.676101
Si Si5 0.171404 0.498054 0.678767
Si Si6 0.366608 0.442110 0.329443
Si Si7 0.354419 0.644204 0.331576
Si Si8 0.551546 0.053897 0.178142
O O1 0.728548 0.727193 0.761294
O O2 0.792972 0.581959 0.751347
O O3 0.687027 0.569061 0.767936
O O4 0.744098 0.621309 0.000000
O O5 0.500000 0.500000 0.224053
O O6 0.488909 0.675683 0.237852
O O7 0.583714 0.611867 0.257116
O O8 0.535752 0.599361 0.000000
O O9 0.615372 0.285186 0.226734
O O10 0.544983 0.155497 0.239871
O O11 0.555173 0.255532 0.000000
O O12 0.772656 0.325094 0.500000
O O13 0.808987 0.402703 0.737071
O O14 0.706980 0.365879 0.724168
O O15 0.177626 0.489377 0.500000
O O16 0.108977 0.487739 0.731024
O O17 0.356520 0.410250 0.500000
O O18 0.382876 0.547162 0.323207
O O19 0.355614 0.683078 0.500000
O O20 0.500000 0.000000 0.244519
O O21 0.549711 0.052546 0.000000
#
# Coordination Sequence:
#
# PCOD8236418 Si02
#       8
#     8   8   8   8   8   8   8   8
#     4  11  22  36  57  85 116 148 186 231 283 341
#     4  10  20  34  52  78 115 149 181 227 280 335
#     4  10  20  34  55  83 111 143 187 234 281 328
#     4   9  19  35  55  80 110 150 189 224 280 341
#     4  10  19  37  61  83 113 149 191 238 282 337
#     4  11  22  36  56  80 112 150 187 228 278 337
#     4  10  19  34  55  78 109 146 185 225 273 337
#     4   9  19  35  58  86 110 142 191 240 278 323
#
# _framework density 19.607961
#
# number of rings (size 3 to 8) (size 9 to 14) (size 15 to 20)
#    0.000    2.000    2.500    1.500    0.000    2.250 
#    0.000    5.625    0.000    1.500    0.000    0.000 
#    0.000    0.000    0.000    0.000    0.000    0.000 
#
# Total GULP energy -793461.245784 kJ/mol
# GULP energy per Si atom -12397.831965 kJ/mol
# Density = 1.956333 g / cm^3
# Si number density = 19.607961 Si / 1000 Ang^3
#
#
#
# Elastic Constant Matrix: (Units=GPa)
#
#
# Indices 1 2 3 4 5 6 
#
# 1 149.4590 72.1042 24.7620 0.0000 0.0000 0.0000
# 2 72.1042 145.1453 24.4514 0.0000 0.0000 0.0000
# 3 24.7620 24.4514 29.5509 0.0000 0.0000 0.0000
# 4 0.0000 0.0000 0.0000 18.4314 0.0000 0.0000
# 5 0.0000 0.0000 0.0000 0.0000 27.4533 0.0000
# 6 0.0000 0.0000 0.0000 0.0000 0.0000 32.9450
#
#
#
# Elastic Compliance Matrix: (Units=1/GPa)
#
#
# Indices 1 2 3 4 5 6 
#
# 1 0.009313 -0.003848 -0.004619 0.000000 0.000000 0.000000
# 2 -0.003848 0.009596 -0.004715 0.000000 0.000000 0.000000
# 3 -0.004619 -0.004715 0.041612 0.000000 0.000000 0.000000
# 4 0.000000 0.000000 0.000000 0.054255 0.000000 0.000000
# 5 0.000000 0.000000 0.000000 0.000000 0.036426 0.000000
# 6 0.000000 0.000000 0.000000 0.000000 0.000000 0.030354
#
#
# Mechanical properties :
#
#
# Convention : Reuss Voigt Hill
#
# Bulk Modulus (GPa) = 29.27829 62.97671 46.12750
# Shear Modulus (GPa) = 22.79927 29.28844 26.04386
#
# Velocity S-wave (km/s) = 3.41362 3.86904 3.64844
# Velocity P-wave (km/s) = 5.52280 7.22128 6.42838
#
# Compressibility (1/GPa) = 0.03415500
#
# Stress axis : x y z
#
# Youngs Moduli (GPa) = 107.38196 104.21460 24.03136
#
# Poissons Ratio (x) = 0.40102 0.11101
# Poissons Ratio (y) = 0.41321 0.11331
# Poissons Ratio (z) = 0.49604 0.49140
#
# Static dielectric constant tensor:
#      x y z
#    x 3.645820 0.000000 0.000000 
#    y 0.000000 3.889010 0.000000 
#    z 0.000000 0.000000 3.231530 
# 
# 
# High freq. dielectric constant tensor:
#      x y z
#    x 1.770320 0.000000 0.000000 
#    y 0.000000 1.769250 0.000000 
#    z 0.000000 0.000000 1.728990 
# 
# From -- ./inp_files/6783.got.cif
#   From: 2010.06.25/outbox.cif.g09.slc.cpg/sg58_4_cif.got.tgz:6783.got - 2010.06.26 21:38:00.
