data_PCOD8236728
_publ_section_title
;
Structure prediction by ZEFSAII (Michael W. Deem and Ramdas Pophale) SiO2 
 PCOD8236728
Probable space group: P N N M
;
_chemical_formula_sum "Si O2"
_cell_formula_units_Z 64
_cell_length_a 23.823850
_cell_length_b 15.371584
_cell_length_c 8.962106
_cell_angle_alpha 90.000000
_cell_angle_beta 90.000000
_cell_angle_gamma 90.000000
_cell_volume 3282.015630
_symmetry_space_group_name_H-M "P N N M"
_symmetry_group_IT_number 58
_symmetry_cell_setting 'orthorhombic'
loop_
_space_group_symop_operation_xyz
x,y,z
-x,-y,z
1/2+x,1/2-y,1/2-z
1/2-x,1/2+y,1/2-z
-x,-y,-z
x,y,-z
1/2-x,1/2+y,1/2+z
1/2+x,1/2-y,1/2+z
loop_
_atom_site_type_symbol
_atom_site_label
_atom_site_fract_x
_atom_site_fract_y
_atom_site_fract_z
Si Si1 0.313969 0.495132 0.677236
Si Si2 0.114190 0.338111 0.323122
Si Si3 0.687917 0.001162 0.823264
Si Si4 0.618069 0.337424 0.672973
Si Si5 0.505790 0.599291 0.327856
Si Si6 0.497974 0.899174 0.324962
Si Si7 0.615751 0.650926 0.829611
Si Si8 0.390690 0.153076 0.171620
O O1 0.315273 0.491152 0.500000
O O2 0.250879 0.500190 0.741799
O O3 0.348151 0.579154 0.734138
O O4 0.342379 0.407625 0.735046
O O5 0.110760 0.337242 0.500000
O O6 0.155556 0.413649 0.264066
O O7 0.138239 0.246443 0.264974
O O8 0.052682 0.353122 0.258701
O O9 0.655528 0.914997 0.768448
O O10 0.690971 0.002595 0.000000
O O11 0.631776 0.321872 0.500000
O O12 0.552181 0.351215 0.699150
O O13 0.500000 0.500000 0.276366
O O14 0.524748 0.603300 0.500000
O O15 0.552156 0.645321 0.227673
O O16 0.489642 0.884918 0.500000
O O17 0.554815 0.853332 0.274261
O O18 0.500000 0.000000 0.280438
O O19 0.635487 0.750850 0.813790
O O20 0.617596 0.619812 0.000000
O O21 0.407186 0.132319 0.000000
#
# Coordination Sequence:
#
# PCOD8236728 Si02
#       8
#     8   8   8   8   8   8   8   8
#     4  10  21  41  63  81 109 155 199 236 283 342
#     4  11  22  37  60  87 117 154 190 233 286 343
#     4   9  20  39  62  83 109 152 201 235 276 344
#     4  10  21  37  60  87 115 149 189 237 286 339
#     4  10  19  36  59  83 111 151 194 227 277 347
#     4  11  22  36  58  89 120 151 189 235 285 338
#     4  11  23  36  57  90 119 147 185 239 293 336
#     4  10  21  39  60  85 117 154 192 232 286 346
#
# _framework density 19.500212000000001
#
# number of rings (size 3 to 8) (size 9 to 14) (size 15 to 20)
#    0.000    1.750    2.500    1.875    0.000    5.750 
#    0.000    3.125    0.000    0.000    0.000    0.000 
#    0.000    0.000    0.000    0.000    0.000    0.000 
#
# Total GULP energy -793877.327730 kJ/mol
# GULP energy per Si atom -12404.333246 kJ/mol
# Density = 1.945583 g / cm^3
# Si number density = 19.500212 Si / 1000 Ang^3
#
#
#
# Elastic Constant Matrix: (Units=GPa)
#
#
# Indices 1 2 3 4 5 6 
#
# 1 126.9639 55.1613 27.2504 0.0000 0.0000 0.0000
# 2 55.1613 145.7366 41.2019 0.0000 0.0000 0.0000
# 3 27.2504 41.2019 47.0505 0.0000 0.0000 0.0000
# 4 0.0000 0.0000 0.0000 33.2106 0.0000 0.0000
# 5 0.0000 0.0000 0.0000 0.0000 4.4593 0.0000
# 6 0.0000 0.0000 0.0000 0.0000 0.0000 12.1334
#
#
#
# Elastic Compliance Matrix: (Units=1/GPa)
#
#
# Indices 1 2 3 4 5 6 
#
# 1 0.009780 -0.002791 -0.003220 0.000000 0.000000 0.000000
# 2 -0.002791 0.009916 -0.007067 0.000000 0.000000 0.000000
# 3 -0.003220 -0.007067 0.029307 0.000000 0.000000 0.000000
# 4 0.000000 0.000000 0.000000 0.030111 0.000000 0.000000
# 5 0.000000 0.000000 0.000000 0.000000 0.224252 0.000000
# 6 0.000000 0.000000 0.000000 0.000000 0.000000 0.082417
#
#
# Mechanical properties :
#
#
# Convention : Reuss Voigt Hill
#
# Bulk Modulus (GPa) = 43.76952 62.99757 53.38355
# Shear Modulus (GPa) = 11.91739 23.03648 17.47693
#
# Velocity S-wave (km/s) = 2.47481 3.44080 2.99698
# Velocity P-wave (km/s) = 5.53720 6.93986 6.27783
#
# Compressibility (1/GPa) = 0.02284695
#
# Stress axis : x y z
#
# Youngs Moduli (GPa) = 102.24795 100.84558 34.12150
#
# Poissons Ratio (x) = 0.28151 0.10987
# Poissons Ratio (y) = 0.28542 0.24113
# Poissons Ratio (z) = 0.32923 0.71265
#
# Static dielectric constant tensor:
#      x y z
#    x 3.616350 0.000000 0.000000 
#    y 0.000000 3.755490 0.000000 
#    z 0.000000 0.000000 3.367050 
# 
# 
# High freq. dielectric constant tensor:
#      x y z
#    x 1.754450 0.000000 0.000000 
#    y 0.000000 1.777080 0.000000 
#    z 0.000000 0.000000 1.742010 
# 
# From -- ./inp_files/10067.got.cif
#   From: 2010.06.25/outbox.cif.g09.slc.cpg/sg58_6_cif.got.tgz:10067.got - 2010.06.26 21:38:00.
