data_PCOD8236256
_publ_section_title
;
Structure prediction by ZEFSAII (Michael W. Deem and Ramdas Pophale) SiO2 
 PCOD8236256
Probable space group: P N N M
;
_chemical_formula_sum "Si O2"
_cell_formula_units_Z 48
_cell_length_a 14.452398
_cell_length_b 12.378086
_cell_length_c 14.248605
_cell_angle_alpha 90.000000
_cell_angle_beta 90.000000
_cell_angle_gamma 90.000000
_cell_volume 2548.976055
_symmetry_space_group_name_H-M "P N N M"
_symmetry_group_IT_number 58
_symmetry_cell_setting 'orthorhombic'
loop_
_space_group_symop_operation_xyz
x,y,z
-x,-y,z
1/2+x,1/2-y,1/2-z
1/2-x,1/2+y,1/2-z
-x,-y,-z
x,y,-z
1/2-x,1/2+y,1/2+z
1/2+x,1/2-y,1/2+z
loop_
_atom_site_type_symbol
_atom_site_label
_atom_site_fract_x
_atom_site_fract_y
_atom_site_fract_z
Si Si1 0.769454 0.400506 0.397660
Si Si2 0.275426 0.509697 0.209682
Si Si3 0.584313 0.268504 0.601266
Si Si4 0.037667 0.116617 0.278240
Si Si5 0.599919 0.023327 0.393308
Si Si6 0.627506 0.685427 0.890446
O O1 0.795253 0.451352 0.500000
O O2 0.759066 0.493314 0.318664
O O3 0.671451 0.344547 0.406417
O O4 0.845297 0.309320 0.370061
O O5 0.353790 0.602652 0.194263
O O6 0.183536 0.543597 0.152997
O O7 0.312685 0.393665 0.175969
O O8 0.530636 0.271913 0.500000
O O9 0.520807 0.307350 0.687390
O O10 0.622473 0.149037 0.619389
O O11 0.980878 0.168202 0.364838
O O12 0.000000 0.000000 0.249190
O O13 0.595854 0.984157 0.500000
O O14 0.500000 0.000000 0.345590
O O15 0.643334 0.655582 0.000000
#
# Coordination Sequence:
#
# PCOD8236256 Si02
#       6
#     8   8   8   8   8   8
#     4   9  18  33  54  75 100 140 178 213 262 321
#     4  10  19  33  54  79 104 137 179 223 262 313
#     4   9  17  33  52  73 105 137 173 215 260 315
#     4   9  20  32  50  83 105 133 175 219 268 310
#     4  10  20  32  50  77 103 136 177 218 264 312
#     4  10  19  34  55  79 108 141 178 216 266 326
#
# _framework density 18.83109
#
# number of rings (size 3 to 8) (size 9 to 14) (size 15 to 20)
#    0.000    2.500    1.667    0.500    2.333    4.000 
#    0.000    2.500    0.000    3.500    0.000    0.000 
#    0.000    0.000    0.000    0.000    0.000    0.000 
#
# Total GULP energy -594737.048340 kJ/mol
# GULP energy per Si atom -12390.355174 kJ/mol
# Density = 1.878823 g / cm^3
# Si number density = 18.831090 Si / 1000 Ang^3
#
#
#
# Elastic Constant Matrix: (Units=GPa)
#
#
# Indices 1 2 3 4 5 6 
#
# 1 107.7705 17.3938 55.3056 0.0000 0.0000 0.0000
# 2 17.3938 39.5096 51.2235 0.0000 0.0000 0.0000
# 3 55.3056 51.2235 128.1171 0.0000 0.0000 0.0000
# 4 0.0000 0.0000 0.0000 28.8566 0.0000 0.0000
# 5 0.0000 0.0000 0.0000 0.0000 68.9781 0.0000
# 6 0.0000 0.0000 0.0000 0.0000 0.0000 15.0989
#
#
#
# Elastic Compliance Matrix: (Units=1/GPa)
#
#
# Indices 1 2 3 4 5 6 
#
# 1 0.012088 0.002997 -0.006417 0.000000 0.000000 0.000000
# 2 0.002997 0.053293 -0.022601 0.000000 0.000000 0.000000
# 3 -0.006417 -0.022601 0.019612 0.000000 0.000000 0.000000
# 4 0.000000 0.000000 0.000000 0.034654 0.000000 0.000000
# 5 0.000000 0.000000 0.000000 0.000000 0.014497 0.000000
# 6 0.000000 0.000000 0.000000 0.000000 0.000000 0.066230
#
#
# Mechanical properties :
#
#
# Convention : Reuss Voigt Hill
#
# Bulk Modulus (GPa) = 30.34764 58.13812 44.24288
# Shear Modulus (GPa) = 18.98257 32.68500 25.83379
#
# Velocity S-wave (km/s) = 3.17842 4.17069 3.70789
# Velocity P-wave (km/s) = 5.44247 7.35753 6.47124
#
# Compressibility (1/GPa) = 0.03295149
#
# Stress axis : x y z
#
# Youngs Moduli (GPa) = 82.72625 18.76416 50.98998
#
# Poissons Ratio (x) = -0.05624 0.32718
# Poissons Ratio (y) = -0.24795 1.15244
# Poissons Ratio (z) = 0.53082 0.42410
#
# Static dielectric constant tensor:
#      x y z
#    x 3.637540 0.000000 0.000000 
#    y 0.000000 3.191410 0.000000 
#    z 0.000000 0.000000 4.117310 
# 
# 
# High freq. dielectric constant tensor:
#      x y z
#    x 1.728420 0.000000 0.000000 
#    y 0.000000 1.696260 0.000000 
#    z 0.000000 0.000000 1.732250 
# 
# From -- ./inp_files/15569.got.cif
#   From: 2010.06.25/outbox.cif.g09.slc.cpg/sg58_8_cif.got.tgz:15569.got - 2010.06.26 21:38:00.
