data_PCOD8236057
_publ_section_title
;
Structure prediction by ZEFSAII (Michael W. Deem and Ramdas Pophale) SiO2 
 PCOD8236057
Probable space group: P N N M
;
_chemical_formula_sum "Si O2"
_cell_formula_units_Z 56
_cell_length_a 13.551246
_cell_length_b 29.066993
_cell_length_c 8.453388
_cell_angle_alpha 90.000000
_cell_angle_beta 90.000000
_cell_angle_gamma 90.000000
_cell_volume 3329.738581
_symmetry_space_group_name_H-M "P N N M"
_symmetry_group_IT_number 58
_symmetry_cell_setting 'orthorhombic'
loop_
_space_group_symop_operation_xyz
x,y,z
-x,-y,z
1/2+x,1/2-y,1/2-z
1/2-x,1/2+y,1/2-z
-x,-y,-z
x,y,-z
1/2-x,1/2+y,1/2+z
1/2+x,1/2-y,1/2+z
loop_
_atom_site_type_symbol
_atom_site_label
_atom_site_fract_x
_atom_site_fract_y
_atom_site_fract_z
Si Si1 0.883465 0.496413 0.325819
Si Si2 0.204807 0.682235 0.685911
Si Si3 0.785823 0.684480 0.815196
Si Si4 0.614766 0.097559 0.814242
Si Si5 0.401317 0.269637 0.315043
Si Si6 0.888680 0.770086 0.685023
Si Si7 0.601359 0.903297 0.683041
O O1 0.839139 0.486129 0.500000
O O2 0.847320 0.546432 0.264030
O O3 0.000000 0.500000 0.339736
O O4 0.854515 0.454713 0.209632
O O5 0.186601 0.683700 0.500000
O O6 0.132175 0.718605 0.767945
O O7 0.317851 0.694134 0.725169
O O8 0.182698 0.631984 0.753879
O O9 0.818621 0.632465 0.784819
O O10 0.682012 0.693403 0.729458
O O11 0.869064 0.718373 0.745931
O O12 0.773006 0.694171 0.000000
O O13 0.499696 0.104629 0.777127
O O14 0.629744 0.105903 0.000000
O O15 0.423737 0.271284 0.500000
O O16 0.499290 0.283638 0.220637
O O17 0.865817 0.772759 0.500000
O O18 0.580160 0.895384 0.500000
#
# Coordination Sequence:
#
# PCOD8236057 Si02
#       7
#     8   8   8   8   8   8   8
#     4   8  16  30  46  65  92 125 158 192 234 282
#     4  11  21  34  50  70  95 126 162 196 234 279
#     4  11  21  33  49  72  97 125 161 196 234 279
#     4  10  19  32  48  68  96 129 161 195 236 281
#     4  11  21  35  51  70  96 126 159 195 236 279
#     4  11  21  35  51  70  96 125 158 197 238 278
#     4  11  20  30  46  70  98 127 159 196 237 281
#
# _framework density 16.818138000000001
#
# number of rings (size 3 to 8) (size 9 to 14) (size 15 to 20)
#    0.000    1.571    0.000   10.286    0.000    3.143 
#    0.000    0.000    0.000    0.000    0.000    1.000 
#    0.000    8.000    0.000    0.000    0.000    0.000 
#
# Total GULP energy -694498.682361 kJ/mol
# GULP energy per Si atom -12401.762185 kJ/mol
# Density = 1.677986 g / cm^3
# Si number density = 16.818138 Si / 1000 Ang^3
#
#
#
# Elastic Constant Matrix: (Units=GPa)
#
#
# Indices 1 2 3 4 5 6 
#
# 1 68.4292 35.5311 3.2120 0.0000 0.0000 0.0000
# 2 35.5311 113.6958 20.1597 0.0000 0.0000 0.0000
# 3 3.2120 20.1597 76.7805 0.0000 0.0000 0.0000
# 4 0.0000 0.0000 0.0000 28.1086 0.0000 0.0000
# 5 0.0000 0.0000 0.0000 0.0000 25.2412 0.0000
# 6 0.0000 0.0000 0.0000 0.0000 0.0000 21.8793
#
#
#
# Elastic Compliance Matrix: (Units=1/GPa)
#
#
# Indices 1 2 3 4 5 6 
#
# 1 0.017484 -0.005595 0.000738 0.000000 0.000000 0.000000
# 2 -0.005595 0.011015 -0.002658 0.000000 0.000000 0.000000
# 3 0.000738 -0.002658 0.013691 0.000000 0.000000 0.000000
# 4 0.000000 0.000000 0.000000 0.035576 0.000000 0.000000
# 5 0.000000 0.000000 0.000000 0.000000 0.039618 0.000000
# 6 0.000000 0.000000 0.000000 0.000000 0.000000 0.045705
#
#
# Mechanical properties :
#
#
# Convention : Reuss Voigt Hill
#
# Bulk Modulus (GPa) = 36.81915 41.85679 39.33797
# Shear Modulus (GPa) = 26.71316 28.37931 27.54624
#
# Velocity S-wave (km/s) = 3.98974 4.11228 4.05147
# Velocity P-wave (km/s) = 6.56994 6.89128 6.73253
#
# Compressibility (1/GPa) = 0.02715978
#
# Stress axis : x y z
#
# Youngs Moduli (GPa) = 57.19513 90.78435 73.03956
#
# Poissons Ratio (x) = 0.50791 -0.05387
# Poissons Ratio (y) = 0.31999 0.19415
# Poissons Ratio (z) = -0.04218 0.24131
#
# Static dielectric constant tensor:
#      x y z
#    x 2.911570 0.000000 0.000000 
#    y 0.000000 3.488170 0.000000 
#    z 0.000000 0.000000 3.260510 
# 
# 
# High freq. dielectric constant tensor:
#      x y z
#    x 1.613390 0.000000 0.000000 
#    y 0.000000 1.645370 0.000000 
#    z 0.000000 0.000000 1.667830 
# 
# From -- ./inp_files/7101.got.cif
#   From: 2010.06.25/outbox.cif.g09.slc.cpg/sg58_4_cif.got.tgz:7101.got - 2010.06.26 21:38:00.
