data_PCOD8236900
_publ_section_title
;
Structure prediction by ZEFSAII (Michael W. Deem and Ramdas Pophale) SiO2 
 PCOD8236900
Probable space group: P N N M
;
_chemical_formula_sum "Si O2"
_cell_formula_units_Z 36
_cell_length_a 11.185281
_cell_length_b 16.600985
_cell_length_c 10.542725
_cell_angle_alpha 90.000000
_cell_angle_beta 90.000000
_cell_angle_gamma 90.000000
_cell_volume 1957.643626
_symmetry_space_group_name_H-M "P N N M"
_symmetry_group_IT_number 58
_symmetry_cell_setting 'orthorhombic'
loop_
_space_group_symop_operation_xyz
x,y,z
-x,-y,z
1/2+x,1/2-y,1/2-z
1/2-x,1/2+y,1/2-z
-x,-y,-z
x,y,-z
1/2-x,1/2+y,1/2+z
1/2+x,1/2-y,1/2+z
loop_
_atom_site_type_symbol
_atom_site_label
_atom_site_fract_x
_atom_site_fract_y
_atom_site_fract_z
Si Si1 0.144413 0.850914 0.860219
Si Si2 0.274101 0.562340 0.142580
Si Si3 0.000000 0.000000 0.210968
Si Si4 0.575821 0.824997 0.353749
Si Si5 0.327572 0.890967 0.354511
O O1 0.067108 0.770725 0.834201
O O2 0.233460 0.853166 0.742639
O O3 0.060699 0.929663 0.870758
O O4 0.207078 0.843611 0.000000
O O5 0.399547 0.545751 0.208690
O O6 0.197397 0.635758 0.206277
O O7 0.184571 0.486705 0.148923
O O8 0.310952 0.583965 0.000000
O O9 0.580523 0.850298 0.500000
O O10 0.455884 0.865045 0.298413
O O11 0.306053 0.859494 0.500000
#
# Coordination Sequence:
#
# PCOD8236900 Si02
#       5
#     8   8   4   8   8
#     4  10  21  35  52  75 107 144 175 209 260 314
#     4   9  17  31  53  81 105 132 171 219 265 306
#     4  10  20  32  52  76 107 144 175 210 255 314
#     4   9  18  32  53  77 104 137 173 215 263 311
#     4   9  18  34  55  77 101 130 174 221 259 304
#
# _framework density 18.389455000000002
#
# number of rings (size 3 to 8) (size 9 to 14) (size 15 to 20)
#    0.000    2.667    0.000    1.333    3.111    3.556 
#    0.000    1.111    0.000   12.000    0.000    0.000 
#    0.000    0.000    0.000    0.000    0.000    0.000 
#
# Total GULP energy -446004.476625 kJ/mol
# GULP energy per Si atom -12389.013240 kJ/mol
# Density = 1.834760 g / cm^3
# Si number density = 18.389455 Si / 1000 Ang^3
#
#
#
# Elastic Constant Matrix: (Units=GPa)
#
#
# Indices 1 2 3 4 5 6 
#
# 1 106.8470 39.9254 36.4148 0.0000 0.0000 0.0000
# 2 39.9254 79.0379 24.4220 0.0000 0.0000 0.0000
# 3 36.4148 24.4220 73.9182 0.0000 0.0000 0.0000
# 4 0.0000 0.0000 0.0000 18.9819 0.0000 0.0000
# 5 0.0000 0.0000 0.0000 0.0000 12.2971 0.0000
# 6 0.0000 0.0000 0.0000 0.0000 0.0000 20.1480
#
#
#
# Elastic Compliance Matrix: (Units=1/GPa)
#
#
# Indices 1 2 3 4 5 6 
#
# 1 0.012830 -0.005043 -0.004654 0.000000 0.000000 0.000000
# 2 -0.005043 0.016073 -0.002826 0.000000 0.000000 0.000000
# 3 -0.004654 -0.002826 0.016755 0.000000 0.000000 0.000000
# 4 0.000000 0.000000 0.000000 0.052682 0.000000 0.000000
# 5 0.000000 0.000000 0.000000 0.000000 0.081320 0.000000
# 6 0.000000 0.000000 0.000000 0.000000 0.000000 0.049633
#
#
# Mechanical properties :
#
#
# Convention : Reuss Voigt Hill
#
# Bulk Modulus (GPa) = 48.51710 51.25860 49.88785
# Shear Modulus (GPa) = 19.14179 20.88813 20.01496
#
# Velocity S-wave (km/s) = 3.22982 3.37393 3.30266
# Velocity P-wave (km/s) = 6.35211 6.56600 6.45994
#
# Compressibility (1/GPa) = 0.02061129
#
# Stress axis : x y z
#
# Youngs Moduli (GPa) = 77.94392 62.21743 59.68342
#
# Poissons Ratio (x) = 0.31374 0.27779
# Poissons Ratio (y) = 0.39305 0.16867
# Poissons Ratio (z) = 0.36278 0.17583
#
# Static dielectric constant tensor:
#      x y z
#    x 3.399660 0.000000 0.000000 
#    y 0.000000 3.467930 0.000000 
#    z 0.000000 0.000000 3.217220 
# 
# 
# High freq. dielectric constant tensor:
#      x y z
#    x 1.708770 0.000000 0.000000 
#    y 0.000000 1.722150 0.000000 
#    z 0.000000 0.000000 1.684790 
# 
# From -- ./inp_files/14011.got.cif
#   From: 2010.06.25/outbox.cif.g09.slc.cpg/sg58_8_cif.got.tgz:14011.got - 2010.06.26 21:38:00.
