data_PCOD8236830
_publ_section_title
;
Structure prediction by ZEFSAII (Michael W. Deem and Ramdas Pophale) SiO2 
 PCOD8236830
Probable space group: P N N M
;
_chemical_formula_sum "Si O2"
_cell_formula_units_Z 64
_cell_length_a 11.874593
_cell_length_b 30.603925
_cell_length_c 8.975972
_cell_angle_alpha 90.000000
_cell_angle_beta 90.000000
_cell_angle_gamma 90.000000
_cell_volume 3261.950387
_symmetry_space_group_name_H-M "P N N M"
_symmetry_group_IT_number 58
_symmetry_cell_setting 'orthorhombic'
loop_
_space_group_symop_operation_xyz
x,y,z
-x,-y,z
1/2+x,1/2-y,1/2-z
1/2-x,1/2+y,1/2-z
-x,-y,-z
x,y,-z
1/2-x,1/2+y,1/2+z
1/2+x,1/2-y,1/2+z
loop_
_atom_site_type_symbol
_atom_site_label
_atom_site_fract_x
_atom_site_fract_y
_atom_site_fract_z
Si Si1 0.239814 0.803915 0.176155
Si Si2 0.723055 0.456828 0.675985
Si Si3 0.016657 0.830670 0.330254
Si Si4 0.346608 0.123750 0.675187
Si Si5 0.785455 0.792317 0.323716
Si Si6 0.753934 0.044616 0.324797
Si Si7 0.505374 0.430928 0.169066
Si Si8 0.891525 0.626903 0.173802
O O1 0.121584 0.824333 0.223004
O O2 0.246948 0.754490 0.239926
O O3 0.342673 0.831538 0.240692
O O4 0.249607 0.804453 0.000000
O O5 0.729750 0.456069 0.500000
O O6 0.789166 0.415837 0.740065
O O7 0.780793 0.500894 0.737514
O O8 0.592755 0.456610 0.727347
O O9 0.053937 0.820680 0.500000
O O10 0.970485 0.879653 0.317687
O O11 0.914999 0.799866 0.275791
O O12 0.323081 0.117956 0.500000
O O13 0.295417 0.169292 0.737257
O O14 0.477938 0.123219 0.712624
O O15 0.776695 0.792702 0.500000
O O16 0.743262 0.035923 0.500000
O O17 0.879198 0.059095 0.278356
O O18 0.669423 0.082668 0.272778
O O19 0.524479 0.447036 0.000000
O O20 0.869145 0.634559 0.000000
#
# Coordination Sequence:
#
# PCOD8236830 Si02
#       8
#     8   8   8   8   8   8   8   8
#     4  11  23  37  58  92 128 156 188 241 307 353
#     4  12  25  38  57  89 123 152 189 240 306 361
#     4  10  19  38  64  86 115 157 203 242 282 341
#     4  10  21  42  66  83 111 157 206 247 282 338
#     4   9  20  38  60  87 119 157 195 238 292 345
#     4  10  21  39  61  87 115 151 202 244 287 346
#     4  10  19  37  64  87 115 156 199 243 286 340
#     4  10  22  41  65  88 112 155 208 247 281 343
#
# _framework density 19.620165
#
# number of rings (size 3 to 8) (size 9 to 14) (size 15 to 20)
#    0.000    1.750    2.500    1.875    1.750    4.000 
#    0.000    4.375    0.000    0.000    0.000    0.000 
#    0.000    0.000    0.000    0.000    0.000    0.000 
#
# Total GULP energy -793837.582437 kJ/mol
# GULP energy per Si atom -12403.712226 kJ/mol
# Density = 1.957551 g / cm^3
# Si number density = 19.620165 Si / 1000 Ang^3
#
#
#
# Elastic Constant Matrix: (Units=GPa)
#
#
# Indices 1 2 3 4 5 6 
#
# 1 100.6073 48.9241 42.1180 0.0000 0.0000 0.0000
# 2 48.9241 130.0070 50.4298 0.0000 0.0000 0.0000
# 3 42.1180 50.4298 65.5752 0.0000 0.0000 0.0000
# 4 0.0000 0.0000 0.0000 25.1501 0.0000 0.0000
# 5 0.0000 0.0000 0.0000 0.0000 19.4769 0.0000
# 6 0.0000 0.0000 0.0000 0.0000 0.0000 24.7647
#
#
#
# Elastic Compliance Matrix: (Units=1/GPa)
#
#
# Indices 1 2 3 4 5 6 
#
# 1 0.014173 -0.002569 -0.007127 0.000000 0.000000 0.000000
# 2 -0.002569 0.011428 -0.007138 0.000000 0.000000 0.000000
# 3 -0.007127 -0.007138 0.025317 0.000000 0.000000 0.000000
# 4 0.000000 0.000000 0.000000 0.039761 0.000000 0.000000
# 5 0.000000 0.000000 0.000000 0.000000 0.051343 0.000000
# 6 0.000000 0.000000 0.000000 0.000000 0.000000 0.040380
#
#
# Mechanical properties :
#
#
# Convention : Reuss Voigt Hill
#
# Bulk Modulus (GPa) = 57.97663 64.34814 61.16239
# Shear Modulus (GPa) = 22.54080 24.19283 23.36682
#
# Velocity S-wave (km/s) = 3.39316 3.51530 3.45477
# Velocity P-wave (km/s) = 6.70560 7.02457 6.86694
#
# Compressibility (1/GPa) = 0.01724833
#
# Stress axis : x y z
#
# Youngs Moduli (GPa) = 70.55895 87.50817 39.49891
#
# Poissons Ratio (x) = 0.22478 0.28152
# Poissons Ratio (y) = 0.18124 0.28196
# Poissons Ratio (z) = 0.50290 0.62467
#
# Static dielectric constant tensor:
#      x y z
#    x 3.602190 0.000000 0.000000 
#    y 0.000000 3.864150 0.000000 
#    z 0.000000 0.000000 3.312460 
# 
# 
# High freq. dielectric constant tensor:
#      x y z
#    x 1.769270 0.000000 0.000000 
#    y 0.000000 1.780510 0.000000 
#    z 0.000000 0.000000 1.736580 
# 
# From -- ./inp_files/4778.got.cif
#   From: 2010.06.25/outbox.cif.g09.slc.cpg/sg58_3_cif.got.tgz:4778.got - 2010.06.26 21:38:00.
