data_PCOD8236793
_publ_section_title
;
Structure prediction by ZEFSAII (Michael W. Deem and Ramdas Pophale) SiO2 
 PCOD8236793
Probable space group: P N N M
;
_chemical_formula_sum "Si O2"
_cell_formula_units_Z 28
_cell_length_a 11.475297
_cell_length_b 17.122593
_cell_length_c 7.507583
_cell_angle_alpha 90.000000
_cell_angle_beta 90.000000
_cell_angle_gamma 90.000000
_cell_volume 1475.141260
_symmetry_space_group_name_H-M "P N N M"
_symmetry_group_IT_number 58
_symmetry_cell_setting 'orthorhombic'
loop_
_space_group_symop_operation_xyz
x,y,z
-x,-y,z
1/2+x,1/2-y,1/2-z
1/2-x,1/2+y,1/2-z
-x,-y,-z
x,y,-z
1/2-x,1/2+y,1/2+z
1/2+x,1/2-y,1/2+z
loop_
_atom_site_type_symbol
_atom_site_label
_atom_site_fract_x
_atom_site_fract_y
_atom_site_fract_z
Si Si1 0.557371 0.336841 0.000000
Si Si2 0.571173 0.921495 0.203866
Si Si3 0.248409 0.544817 0.000000
Si Si4 0.874989 0.693997 0.696326
Si Si5 0.784174 0.138502 0.500000
O O1 0.593946 0.286053 0.824808
O O2 0.421269 0.352333 0.000000
O O3 0.621733 0.419973 0.000000
O O4 0.685441 0.923015 0.324303
O O5 0.489497 0.850366 0.268685
O O6 0.500000 0.000000 0.233930
O O7 0.611376 0.910626 0.000000
O O8 0.250636 0.451856 0.000000
O O9 0.842841 0.658588 0.500000
O O10 0.766565 0.681624 0.826471
#
# Coordination Sequence:
#
# PCOD8236793 Si02
#       5
#     4   8   4   8   4
#     4  10  27  41  57  96 126 160 198 251 306 377
#     4  10  19  36  64  94 117 153 210 256 287 347
#     4  12  23  38  65  93 122 162 201 245 314 357
#     4   9  22  40  61  91 118 158 209 248 295 353
#     4  12  22  44  64  84 129 162 194 254 304 361
#
# _framework density 18.981233
#
# number of rings (size 3 to 8) (size 9 to 14) (size 15 to 20)
#    0.857    0.857    2.857    1.714    4.000    0.000 
#    2.571    0.000    0.000    3.429    0.000    0.000 
#    0.000    0.000    0.000    0.000    0.000    0.000 
#
# Total GULP energy -347126.251751 kJ/mol
# GULP energy per Si atom -12397.366134 kJ/mol
# Density = 1.893803 g / cm^3
# Si number density = 18.981233 Si / 1000 Ang^3
#
#
#
# Elastic Constant Matrix: (Units=GPa)
#
#
# Indices 1 2 3 4 5 6 
#
# 1 132.7894 14.1001 64.8810 0.0000 0.0000 0.0000
# 2 14.1001 39.9106 15.0512 0.0000 0.0000 0.0000
# 3 64.8810 15.0512 98.0742 0.0000 0.0000 0.0000
# 4 0.0000 0.0000 0.0000 4.1843 0.0000 0.0000
# 5 0.0000 0.0000 0.0000 0.0000 15.2717 0.0000
# 6 0.0000 0.0000 0.0000 0.0000 0.0000 36.2707
#
#
#
# Elastic Compliance Matrix: (Units=1/GPa)
#
#
# Indices 1 2 3 4 5 6 
#
# 1 0.011184 -0.001232 -0.007210 0.000000 0.000000 0.000000
# 2 -0.001232 0.026731 -0.003287 0.000000 0.000000 0.000000
# 3 -0.007210 -0.003287 0.015471 0.000000 0.000000 0.000000
# 4 0.000000 0.000000 0.000000 0.238990 0.000000 0.000000
# 5 0.000000 0.000000 0.000000 0.000000 0.065481 0.000000
# 6 0.000000 0.000000 0.000000 0.000000 0.000000 0.027570
#
#
# Mechanical properties :
#
#
# Convention : Reuss Voigt Hill
#
# Bulk Modulus (GPa) = 33.41433 50.98209 42.19821
# Shear Modulus (GPa) = 11.93712 22.92812 17.43262
#
# Velocity S-wave (km/s) = 2.51049 3.47931 3.03382
# Velocity P-wave (km/s) = 5.10348 6.56188 5.87809
#
# Compressibility (1/GPa) = 0.02992728
#
# Stress axis : x y z
#
# Youngs Moduli (GPa) = 89.41093 37.40968 64.63911
#
# Poissons Ratio (x) = 0.04610 0.46604
# Poissons Ratio (y) = 0.11018 0.21248
# Poissons Ratio (z) = 0.64464 0.12297
#
# Static dielectric constant tensor:
#      x y z
#    x 3.217810 0.000000 0.000000 
#    y 0.000000 3.524540 0.000000 
#    z 0.000000 0.000000 2.956390 
# 
# 
# High freq. dielectric constant tensor:
#      x y z
#    x 1.724870 0.000000 0.000000 
#    y 0.000000 1.738350 0.000000 
#    z 0.000000 0.000000 1.731470 
# 
# From -- ./inp_files/2029.got.cif
#   From: 2010.06.25/outbox.cif.g09.slc.cpg/sg58_2_cif.got.tgz:2029.got - 2010.06.26 21:38:00.
