data_PCOD8236484
_publ_section_title
;
Structure prediction by ZEFSAII (Michael W. Deem and Ramdas Pophale) SiO2 
 PCOD8236484
Probable space group: P N N M
;
_chemical_formula_sum "Si O2"
_cell_formula_units_Z 48
_cell_length_a 15.531434
_cell_length_b 21.078504
_cell_length_c 7.645459
_cell_angle_alpha 90.000000
_cell_angle_beta 90.000000
_cell_angle_gamma 90.000000
_cell_volume 2502.965732
_symmetry_space_group_name_H-M "P N N M"
_symmetry_group_IT_number 58
_symmetry_cell_setting 'orthorhombic'
loop_
_space_group_symop_operation_xyz
x,y,z
-x,-y,z
1/2+x,1/2-y,1/2-z
1/2-x,1/2+y,1/2-z
-x,-y,-z
x,y,-z
1/2-x,1/2+y,1/2+z
1/2+x,1/2-y,1/2+z
loop_
_atom_site_type_symbol
_atom_site_label
_atom_site_fract_x
_atom_site_fract_y
_atom_site_fract_z
Si Si1 0.575314 0.046263 0.791881
Si Si2 0.571812 0.187463 0.801924
Si Si3 0.633753 0.485900 0.500000
Si Si4 0.242205 0.820536 0.702376
Si Si5 0.446860 0.295752 0.207091
Si Si6 0.488416 0.394105 0.500000
Si Si7 0.260877 0.464218 0.802614
O O1 0.559205 0.117677 0.717708
O O2 0.660359 0.018335 0.702949
O O3 0.500000 0.000000 0.730982
O O4 0.587045 0.047788 0.000000
O O5 0.672379 0.209523 0.790894
O O6 0.505751 0.238272 0.718535
O O7 0.542380 0.183363 0.000000
O O8 0.586747 0.418112 0.500000
O O9 0.570293 0.544671 0.500000
O O10 0.690305 0.487605 0.675875
O O11 0.264454 0.822855 0.500000
O O12 0.155012 0.780531 0.741134
O O13 0.226638 0.892353 0.769550
O O14 0.472748 0.356300 0.320816
O O15 0.461790 0.310371 0.000000
O O16 0.296561 0.471764 0.000000
#
# Coordination Sequence:
#
# PCOD8236484 Si02
#       7
#     8   8   4   8   8   4   8
#     4   9  17  32  57  86 116 150 190 237 282 327
#     4   9  19  33  55  82 111 147 189 231 276 333
#     4  11  22  38  55  90 104 142 199 228 279 349
#     4   9  18  32  54  81 106 142 189 230 268 326
#     4  10  21  38  56  82 114 147 186 232 283 337
#     4  11  24  36  62  80 113 146 180 238 290 337
#     4  10  19  34  57  81 112 149 187 232 275 333
#
# _framework density 19.177250000000001
#
# number of rings (size 3 to 8) (size 9 to 14) (size 15 to 20)
#    0.000    2.333    2.500    0.000    3.500    1.000 
#    0.000    3.333    0.000    0.000    0.000    0.000 
#    0.000    0.000    0.000    0.000    0.000    0.000 
#
# Total GULP energy -594939.148656 kJ/mol
# GULP energy per Si atom -12394.565597 kJ/mol
# Density = 1.913360 g / cm^3
# Si number density = 19.177250 Si / 1000 Ang^3
#
#
#
# Elastic Constant Matrix: (Units=GPa)
#
#
# Indices 1 2 3 4 5 6 
#
# 1 143.5020 64.7933 28.5806 0.0000 0.0000 0.0000
# 2 64.7933 72.5100 22.0163 0.0000 0.0000 0.0000
# 3 28.5806 22.0163 64.9582 0.0000 0.0000 0.0000
# 4 0.0000 0.0000 0.0000 10.9509 0.0000 0.0000
# 5 0.0000 0.0000 0.0000 0.0000 11.2764 0.0000
# 6 0.0000 0.0000 0.0000 0.0000 0.0000 42.2684
#
#
#
# Elastic Compliance Matrix: (Units=1/GPa)
#
#
# Indices 1 2 3 4 5 6 
#
# 1 0.011870 -0.010056 -0.001814 0.000000 0.000000 0.000000
# 2 -0.010056 0.023893 -0.003673 0.000000 0.000000 0.000000
# 3 -0.001814 -0.003673 0.017438 0.000000 0.000000 0.000000
# 4 0.000000 0.000000 0.000000 0.091317 0.000000 0.000000
# 5 0.000000 0.000000 0.000000 0.000000 0.088681 0.000000
# 6 0.000000 0.000000 0.000000 0.000000 0.000000 0.023658
#
#
# Mechanical properties :
#
#
# Convention : Reuss Voigt Hill
#
# Bulk Modulus (GPa) = 45.22261 56.86119 51.04190
# Shear Modulus (GPa) = 16.93103 23.93780 20.43442
#
# Velocity S-wave (km/s) = 2.97454 3.53688 3.26783
# Velocity P-wave (km/s) = 5.95229 6.81132 6.39624
#
# Compressibility (1/GPa) = 0.02211283
#
# Stress axis : x y z
#
# Youngs Moduli (GPa) = 84.24266 41.85401 57.34646
#
# Poissons Ratio (x) = 0.42089 0.10405
# Poissons Ratio (y) = 0.84717 0.21065
# Poissons Ratio (z) = 0.15285 0.15374
#
# Static dielectric constant tensor:
#      x y z
#    x 3.725160 0.000000 0.000000 
#    y 0.000000 3.415150 0.000000 
#    z 0.000000 0.000000 3.426190 
# 
# 
# High freq. dielectric constant tensor:
#      x y z
#    x 1.753780 0.000000 0.000000 
#    y 0.000000 1.705570 0.000000 
#    z 0.000000 0.000000 1.747590 
# 
# From -- ./inp_files/6072.got.cif
#   From: 2010.06.25/outbox.cif.g09.slc.cpg/sg58_4_cif.got.tgz:6072.got - 2010.06.26 21:38:00.
