data_PCOD8236213
_publ_section_title
;
Structure prediction by ZEFSAII (Michael W. Deem and Ramdas Pophale) SiO2 
 PCOD8236213
Probable space group: P N N M
;
_chemical_formula_sum "Si O2"
_cell_formula_units_Z 64
_cell_length_a 16.929502
_cell_length_b 21.840901
_cell_length_c 9.059031
_cell_angle_alpha 90.000000
_cell_angle_beta 90.000000
_cell_angle_gamma 90.000000
_cell_volume 3349.627236
_symmetry_space_group_name_H-M "P N N M"
_symmetry_group_IT_number 58
_symmetry_cell_setting 'orthorhombic'
loop_
_space_group_symop_operation_xyz
x,y,z
-x,-y,z
1/2+x,1/2-y,1/2-z
1/2-x,1/2+y,1/2-z
-x,-y,-z
x,y,-z
1/2-x,1/2+y,1/2+z
1/2+x,1/2-y,1/2+z
loop_
_atom_site_type_symbol
_atom_site_label
_atom_site_fract_x
_atom_site_fract_y
_atom_site_fract_z
Si Si1 0.670267 0.527901 0.675715
Si Si2 0.548897 0.183632 0.173107
Si Si3 0.449418 0.389922 0.167184
Si Si4 0.377407 0.161057 0.824295
Si Si5 0.420126 0.686358 0.326078
Si Si6 0.222465 0.102423 0.826790
Si Si7 0.317512 0.287665 0.164315
Si Si8 0.290828 0.870567 0.170073
O O1 0.657855 0.529890 0.500000
O O2 0.589984 0.551688 0.751955
O O3 0.686228 0.459988 0.739639
O O4 0.747159 0.567990 0.725969
O O5 0.467698 0.151270 0.229598
O O6 0.566553 0.247262 0.255228
O O7 0.615379 0.131653 0.203103
O O8 0.543259 0.200344 0.000000
O O9 0.524005 0.366072 0.258410
O O10 0.386302 0.336508 0.164560
O O11 0.474195 0.407734 0.000000
O O12 0.312123 0.112651 0.764407
O O13 0.351606 0.226846 0.761636
O O14 0.375772 0.160987 0.000000
O O15 0.436748 0.690928 0.500000
O O16 0.331340 0.661993 0.292598
O O17 0.227968 0.091607 0.000000
O O18 0.242658 0.309943 0.254701
O O19 0.286527 0.274084 0.000000
O O20 0.272344 0.863206 0.000000
#
# Coordination Sequence:
#
# PCOD8236213 Si02
#       8
#     8   8   8   8   8   8   8   8
#     4   9  18  35  53  73 102 136 177 216 249 293
#     4  10  19  33  51  76 107 134 162 208 264 311
#     4  10  19  33  53  77 103 136 167 205 257 307
#     4   9  16  30  50  71  98 133 168 203 251 309
#     4  11  21  33  52  78 105 132 169 213 256 307
#     4   9  19  33  51  73 100 137 176 213 250 299
#     4   9  16  29  50  71  95 129 166 199 246 308
#     4   9  18  30  49  74 100 129 163 210 257 293
#
# _framework density 19.106604000000001
#
# number of rings (size 3 to 8) (size 9 to 14) (size 15 to 20)
#    0.000    2.500    1.250    1.500    0.000    2.500 
#    0.000    4.375    0.000    6.000    0.000    0.000 
#    0.000    5.000    0.000    0.000    0.000    0.000 
#
# Total GULP energy -793079.136797 kJ/mol
# GULP energy per Si atom -12391.861512 kJ/mol
# Density = 1.906312 g / cm^3
# Si number density = 19.106604 Si / 1000 Ang^3
#
#
#
# Elastic Constant Matrix: (Units=GPa)
#
#
# Indices 1 2 3 4 5 6 
#
# 1 104.7299 10.8280 30.1304 0.0000 0.0000 0.0000
# 2 10.8280 44.9140 15.0704 0.0000 0.0000 0.0000
# 3 30.1304 15.0704 43.5461 0.0000 0.0000 0.0000
# 4 0.0000 0.0000 0.0000 19.2910 0.0000 0.0000
# 5 0.0000 0.0000 0.0000 0.0000 19.4377 0.0000
# 6 0.0000 0.0000 0.0000 0.0000 0.0000 21.7170
#
#
#
# Elastic Compliance Matrix: (Units=1/GPa)
#
#
# Indices 1 2 3 4 5 6 
#
# 1 0.011922 -0.000120 -0.008207 0.000000 0.000000 0.000000
# 2 -0.000120 0.025191 -0.008635 0.000000 0.000000 0.000000
# 3 -0.008207 -0.008635 0.031631 0.000000 0.000000 0.000000
# 4 0.000000 0.000000 0.000000 0.051838 0.000000 0.000000
# 5 0.000000 0.000000 0.000000 0.000000 0.051446 0.000000
# 6 0.000000 0.000000 0.000000 0.000000 0.000000 0.046047
#
#
# Mechanical properties :
#
#
# Convention : Reuss Voigt Hill
#
# Bulk Modulus (GPa) = 28.71968 33.91639 31.31804
# Shear Modulus (GPa) = 18.96763 21.23323 20.10043
#
# Velocity S-wave (km/s) = 3.15417 3.33724 3.24700
# Velocity P-wave (km/s) = 5.32250 5.71307 5.52124
#
# Compressibility (1/GPa) = 0.03481933
#
# Stress axis : x y z
#
# Youngs Moduli (GPa) = 83.87806 39.69658 31.61414
#
# Poissons Ratio (x) = 0.00478 0.25947
# Poissons Ratio (y) = 0.01009 0.27298
# Poissons Ratio (z) = 0.68843 0.34277
#
# Static dielectric constant tensor:
#      x y z
#    x 3.860780 0.000000 0.000000 
#    y 0.000000 3.508270 0.000000 
#    z 0.000000 0.000000 3.341310 
# 
# 
# High freq. dielectric constant tensor:
#      x y z
#    x 1.754960 0.000000 0.000000 
#    y 0.000000 1.728160 0.000000 
#    z 0.000000 0.000000 1.710720 
# 
# From -- ./inp_files/6922.got.cif
#   From: 2010.06.25/outbox.cif.g09.slc.cpg/sg58_4_cif.got.tgz:6922.got - 2010.06.26 21:38:00.
