data_PCOD8236037
_publ_section_title
;
Structure prediction by ZEFSAII (Michael W. Deem and Ramdas Pophale) SiO2 
 PCOD8236037
Probable space group: P N N M
;
_chemical_formula_sum "Si O2"
_cell_formula_units_Z 28
_cell_length_a 22.969094
_cell_length_b 5.184486
_cell_length_c 14.039913
_cell_angle_alpha 90.000000
_cell_angle_beta 90.000000
_cell_angle_gamma 90.000000
_cell_volume 1671.914205
_symmetry_space_group_name_H-M "P N N M"
_symmetry_group_IT_number 58
_symmetry_cell_setting 'orthorhombic'
loop_
_space_group_symop_operation_xyz
x,y,z
-x,-y,z
1/2+x,1/2-y,1/2-z
1/2-x,1/2+y,1/2-z
-x,-y,-z
x,y,-z
1/2-x,1/2+y,1/2+z
1/2+x,1/2-y,1/2+z
loop_
_atom_site_type_symbol
_atom_site_label
_atom_site_fract_x
_atom_site_fract_y
_atom_site_fract_z
Si Si1 0.866651 0.218465 0.660704
Si Si2 0.251675 0.070020 0.105953
Si Si3 0.039343 0.749871 0.500000
Si Si4 0.826724 0.710130 0.256275
O O1 0.807538 0.240558 0.598473
O O2 0.922227 0.253954 0.594718
O O3 0.864974 0.446601 0.741396
O O4 0.868833 0.938767 0.708730
O O5 0.197077 0.222459 0.151549
O O6 0.270012 0.825751 0.173189
O O7 0.234174 0.976824 0.000000
O O8 0.000000 0.500000 0.500000
O O9 0.000000 0.000000 0.500000
#
# Coordination Sequence:
#
# PCOD8236037 Si02
#       4
#     8   8   4   8
#     4  10  19  35  48  66 111 137 163 228 257 301
#     4  10  19  31  53  74 109 145 176 204 263 327
#     4  12  24  36  54  80  98 144 198 218 266 328
#     4  10  19  33  47  77 102 147 175 201 265 333
#
# _framework density 16.747271999999999
#
# number of rings (size 3 to 8) (size 9 to 14) (size 15 to 20)
#    1.714    0.000    4.286    1.714    2.000    0.000 
#    0.000    0.000    0.000    0.000    0.000    0.000 
#    0.000   22.857    0.000    0.000    0.000    0.000 
#
# Total GULP energy -346876.415669 kJ/mol
# GULP energy per Si atom -12388.443417 kJ/mol
# Density = 1.670915 g / cm^3
# Si number density = 16.747272 Si / 1000 Ang^3
#
#
#
# Elastic Constant Matrix: (Units=GPa)
#
#
# Indices 1 2 3 4 5 6 
#
# 1 74.4665 29.4851 24.1268 0.0000 0.0000 0.0000
# 2 29.4851 114.4396 17.8377 0.0000 0.0000 0.0000
# 3 24.1268 17.8377 83.8010 0.0000 0.0000 0.0000
# 4 0.0000 0.0000 0.0000 14.9679 0.0000 0.0000
# 5 0.0000 0.0000 0.0000 0.0000 32.8666 0.0000
# 6 0.0000 0.0000 0.0000 0.0000 0.0000 29.6938
#
#
#
# Elastic Compliance Matrix: (Units=1/GPa)
#
#
# Indices 1 2 3 4 5 6 
#
# 1 0.016087 -0.003540 -0.003878 0.000000 0.000000 0.000000
# 2 -0.003540 0.009817 -0.001070 0.000000 0.000000 0.000000
# 3 -0.003878 -0.001070 0.013277 0.000000 0.000000 0.000000
# 4 0.000000 0.000000 0.000000 0.066810 0.000000 0.000000
# 5 0.000000 0.000000 0.000000 0.000000 0.030426 0.000000
# 6 0.000000 0.000000 0.000000 0.000000 0.000000 0.033677
#
#
# Mechanical properties :
#
#
# Convention : Reuss Voigt Hill
#
# Bulk Modulus (GPa) = 45.03640 46.17851 45.60745
# Shear Modulus (GPa) = 25.71046 28.92282 27.31664
#
# Velocity S-wave (km/s) = 3.92242 4.16025 4.04308
# Velocity P-wave (km/s) = 6.88941 7.12113 7.00623
#
# Compressibility (1/GPa) = 0.02220426
#
# Stress axis : x y z
#
# Youngs Moduli (GPa) = 62.16158 101.86165 75.31610
#
# Poissons Ratio (x) = 0.36063 0.29207
# Poissons Ratio (y) = 0.22007 0.08062
# Poissons Ratio (z) = 0.24106 0.10903
#
# Static dielectric constant tensor:
#      x y z
#    x 2.800970 0.000000 0.000000 
#    y 0.000000 3.163030 0.000000 
#    z 0.000000 0.000000 2.867610 
# 
# 
# High freq. dielectric constant tensor:
#      x y z
#    x 1.600570 0.000000 0.000000 
#    y 0.000000 1.657600 0.000000 
#    z 0.000000 0.000000 1.619230 
# 
# From -- ./inp_files/11453.got.cif
#   From: 2010.06.25/outbox.cif.g09.slc.cpg/sg58_6_cif.got.tgz:11453.got - 2010.06.26 21:38:00.
