data_PCOD8236641
_publ_section_title
;
Structure prediction by ZEFSAII (Michael W. Deem and Ramdas Pophale) SiO2 
 PCOD8236641
Probable space group: P N N M
;
_chemical_formula_sum "Si O2"
_cell_formula_units_Z 64
_cell_length_a 18.752800
_cell_length_b 19.815669
_cell_length_c 9.266847
_cell_angle_alpha 90.000000
_cell_angle_beta 90.000000
_cell_angle_gamma 90.000000
_cell_volume 3443.553651
_symmetry_space_group_name_H-M "P N N M"
_symmetry_group_IT_number 58
_symmetry_cell_setting 'orthorhombic'
loop_
_space_group_symop_operation_xyz
x,y,z
-x,-y,z
1/2+x,1/2-y,1/2-z
1/2-x,1/2+y,1/2-z
-x,-y,-z
x,y,-z
1/2-x,1/2+y,1/2+z
1/2+x,1/2-y,1/2+z
loop_
_atom_site_type_symbol
_atom_site_label
_atom_site_fract_x
_atom_site_fract_y
_atom_site_fract_z
Si Si1 0.706831 0.835329 0.330496
Si Si2 0.544550 0.824382 0.669395
Si Si3 0.305363 0.764244 0.330632
Si Si4 0.204556 0.033317 0.666270
Si Si5 0.815580 0.580580 0.834234
Si Si6 0.940218 0.947998 0.171529
Si Si7 0.047538 0.202360 0.830484
Si Si8 0.545596 0.066401 0.833702
O O1 0.711439 0.821736 0.500000
O O2 0.624774 0.838348 0.279723
O O3 0.741494 0.772814 0.249428
O O4 0.744820 0.904857 0.285838
O O5 0.534789 0.838082 0.500000
O O6 0.521336 0.747613 0.709406
O O7 0.490847 0.872479 0.751573
O O8 0.297952 0.750764 0.500000
O O9 0.298147 0.842757 0.292859
O O10 0.380325 0.736229 0.268344
O O11 0.182056 0.041771 0.500000
O O12 0.135119 0.030627 0.764022
O O13 0.245340 0.963443 0.692986
O O14 0.877443 0.551556 0.733569
O O15 0.840982 0.574650 0.000000
O O16 0.961808 0.873511 0.229855
O O17 0.933253 0.949908 0.000000
O O18 0.000000 0.000000 0.226489
O O19 0.056824 0.198370 0.000000
O O20 0.500000 0.000000 0.811879
O O21 0.554014 0.086275 0.000000
#
# Coordination Sequence:
#
# PCOD8236641 Si02
#       8
#     8   8   8   8   8   8   8   8
#     4  10  21  35  56  86 114 146 185 231 281 331
#     4  10  20  37  59  81 110 149 194 234 274 334
#     4  10  19  35  59  81 107 147 187 226 276 334
#     4  10  21  37  56  82 115 148 187 231 278 334
#     4  10  21  38  59  82 109 148 192 228 274 339
#     4  10  21  37  59  85 112 148 192 232 280 335
#     4   9  17  34  58  82 107 144 188 229 274 329
#     4  11  23  36  52  81 117 147 181 231 286 334
#
# _framework density 18.585453000000001
#
# number of rings (size 3 to 8) (size 9 to 14) (size 15 to 20)
#    0.000    2.000    2.500    1.125    0.000    4.750 
#    0.000    1.875    0.000    0.000    0.000    0.000 
#    0.000    0.000    0.000    0.000    0.000    0.000 
#
# Total GULP energy -793746.581994 kJ/mol
# GULP energy per Si atom -12402.290344 kJ/mol
# Density = 1.854315 g / cm^3
# Si number density = 18.585453 Si / 1000 Ang^3
#
#
#
# Elastic Constant Matrix: (Units=GPa)
#
#
# Indices 1 2 3 4 5 6 
#
# 1 110.0201 63.1262 32.5022 0.0000 0.0000 0.0000
# 2 63.1262 134.5084 38.7682 0.0000 0.0000 0.0000
# 3 32.5022 38.7682 38.6822 0.0000 0.0000 0.0000
# 4 0.0000 0.0000 0.0000 19.2047 0.0000 0.0000
# 5 0.0000 0.0000 0.0000 0.0000 31.7210 0.0000
# 6 0.0000 0.0000 0.0000 0.0000 0.0000 33.9059
#
#
#
# Elastic Compliance Matrix: (Units=1/GPa)
#
#
# Indices 1 2 3 4 5 6 
#
# 1 0.013708 -0.004378 -0.007130 0.000000 0.000000 0.000000
# 2 -0.004378 0.011853 -0.008200 0.000000 0.000000 0.000000
# 3 -0.007130 -0.008200 0.040061 0.000000 0.000000 0.000000
# 4 0.000000 0.000000 0.000000 0.052071 0.000000 0.000000
# 5 0.000000 0.000000 0.000000 0.000000 0.031525 0.000000
# 6 0.000000 0.000000 0.000000 0.000000 0.000000 0.029493
#
#
# Mechanical properties :
#
#
# Convention : Reuss Voigt Hill
#
# Bulk Modulus (GPa) = 38.16106 61.33377 49.74741
# Shear Modulus (GPa) = 22.03987 26.88724 24.46356
#
# Velocity S-wave (km/s) = 3.44738 3.80765 3.63199
# Velocity P-wave (km/s) = 6.03516 7.23903 6.66434
#
# Compressibility (1/GPa) = 0.02620472
#
# Stress axis : x y z
#
# Youngs Moduli (GPa) = 72.95236 84.36868 24.96200
#
# Poissons Ratio (x) = 0.36938 0.17797
# Poissons Ratio (y) = 0.31940 0.20470
# Poissons Ratio (z) = 0.52013 0.69186
#
# Static dielectric constant tensor:
#      x y z
#    x 3.420420 0.000000 0.000000 
#    y 0.000000 4.083270 0.000000 
#    z 0.000000 0.000000 3.247550 
# 
# 
# High freq. dielectric constant tensor:
#      x y z
#    x 1.723030 0.000000 0.000000 
#    y 0.000000 1.734590 0.000000 
#    z 0.000000 0.000000 1.701340 
# 
# From -- ./inp_files/8292.got.cif
#   From: 2010.06.25/outbox.cif.g09.slc.cpg/sg58_5_cif.got.tgz:8292.got - 2010.06.26 21:38:00.
