data_PCOD8236644
_publ_section_title
;
Structure prediction by ZEFSAII (Michael W. Deem and Ramdas Pophale) SiO2 
 PCOD8236644
Probable space group: P N N M
;
_chemical_formula_sum "Si O2"
_cell_formula_units_Z 48
_cell_length_a 30.720881
_cell_length_b 10.369362
_cell_length_c 7.878014
_cell_angle_alpha 90.000000
_cell_angle_beta 90.000000
_cell_angle_gamma 90.000000
_cell_volume 2509.588124
_symmetry_space_group_name_H-M "P N N M"
_symmetry_group_IT_number 58
_symmetry_cell_setting 'orthorhombic'
loop_
_space_group_symop_operation_xyz
x,y,z
-x,-y,z
1/2+x,1/2-y,1/2-z
1/2-x,1/2+y,1/2-z
-x,-y,-z
x,y,-z
1/2-x,1/2+y,1/2+z
1/2+x,1/2-y,1/2+z
loop_
_atom_site_type_symbol
_atom_site_label
_atom_site_fract_x
_atom_site_fract_y
_atom_site_fract_z
Si Si1 0.530376 0.621627 0.192786
Si Si2 0.492500 0.199785 0.500000
Si Si3 0.625596 0.656444 0.193034
Si Si4 0.280766 0.088251 0.306001
Si Si5 0.127007 0.546954 0.691604
Si Si6 0.572986 0.035723 0.500000
Si Si7 0.717623 0.622991 0.308956
O O1 0.500000 0.500000 0.214195
O O2 0.514494 0.724855 0.326429
O O3 0.580639 0.580774 0.231234
O O4 0.527665 0.677786 0.000000
O O5 0.543108 0.161657 0.500000
O O6 0.458882 0.084473 0.500000
O O7 0.665338 0.602699 0.304656
O O8 0.615697 0.805413 0.235113
O O9 0.640927 0.640659 0.000000
O O10 0.295535 0.105375 0.500000
O O11 0.320965 0.026830 0.203630
O O12 0.240072 0.991519 0.296571
O O13 0.270062 0.233612 0.236877
O O14 0.112187 0.509481 0.500000
O O15 0.102373 0.459660 0.829848
O O16 0.734313 0.607840 0.500000
#
# Coordination Sequence:
#
# PCOD8236644 Si02
#       7
#     8   4   8   8   8   4   8
#     4  10  21  38  60  84 112 150 196 244 291 342
#     4  11  23  36  58  84 121 145 194 240 292 343
#     4   9  18  33  56  82 107 144 191 235 280 335
#     4  10  20  36  58  84 116 149 190 240 285 343
#     4  10  19  35  59  82 113 152 192 231 280 343
#     4  11  22  36  56  88 114 154 188 238 283 344
#     4  10  21  34  56  85 114 150 190 236 290 342
#
# _framework density 19.126643999999999
#
# number of rings (size 3 to 8) (size 9 to 14) (size 15 to 20)
#    0.000    2.000    2.500    1.250    2.333    2.667 
#    0.000    3.333    0.000    4.000    0.000    0.000 
#    0.000    0.000    0.000    0.000    0.000    0.000 
#
# Total GULP energy -595067.729613 kJ/mol
# GULP energy per Si atom -12397.244367 kJ/mol
# Density = 1.908311 g / cm^3
# Si number density = 19.126644 Si / 1000 Ang^3
#
#
#
# Elastic Constant Matrix: (Units=GPa)
#
#
# Indices 1 2 3 4 5 6 
#
# 1 122.7033 56.7196 37.0712 0.0000 0.0000 0.0000
# 2 56.7196 69.0293 26.2906 0.0000 0.0000 0.0000
# 3 37.0712 26.2906 86.7694 0.0000 0.0000 0.0000
# 4 0.0000 0.0000 0.0000 19.7321 0.0000 0.0000
# 5 0.0000 0.0000 0.0000 0.0000 28.9763 0.0000
# 6 0.0000 0.0000 0.0000 0.0000 0.0000 35.5222
#
#
#
# Elastic Compliance Matrix: (Units=1/GPa)
#
#
# Indices 1 2 3 4 5 6 
#
# 1 0.013702 -0.010207 -0.002761 0.000000 0.000000 0.000000
# 2 -0.010207 0.023980 -0.002905 0.000000 0.000000 0.000000
# 3 -0.002761 -0.002905 0.013585 0.000000 0.000000 0.000000
# 4 0.000000 0.000000 0.000000 0.050679 0.000000 0.000000
# 5 0.000000 0.000000 0.000000 0.000000 0.034511 0.000000
# 6 0.000000 0.000000 0.000000 0.000000 0.000000 0.028151
#
#
# Mechanical properties :
#
#
# Convention : Reuss Voigt Hill
#
# Bulk Modulus (GPa) = 51.22937 57.62940 54.42938
# Shear Modulus (GPa) = 24.64736 27.40750 26.02743
#
# Velocity S-wave (km/s) = 3.59366 3.78954 3.69290
# Velocity P-wave (km/s) = 6.63789 7.02448 6.83392
#
# Compressibility (1/GPa) = 0.01952005
#
# Stress axis : x y z
#
# Youngs Moduli (GPa) = 72.98080 41.70169 73.61193
#
# Poissons Ratio (x) = 0.42565 0.20327
# Poissons Ratio (y) = 0.74492 0.21384
# Poissons Ratio (z) = 0.20153 0.12114
#
# Static dielectric constant tensor:
#      x y z
#    x 3.557480 0.000000 0.000000 
#    y 0.000000 3.232150 0.000000 
#    z 0.000000 0.000000 3.572660 
# 
# 
# High freq. dielectric constant tensor:
#      x y z
#    x 1.748880 0.000000 0.000000 
#    y 0.000000 1.702970 0.000000 
#    z 0.000000 0.000000 1.756580 
# 
# From -- ./inp_files/10776.got.cif
#   From: 2010.06.25/outbox.cif.g09.slc.cpg/sg58_6_cif.got.tgz:10776.got - 2010.06.26 21:38:00.
