data_PCOD8236220
_publ_section_title
;
Structure prediction by ZEFSAII (Michael W. Deem and Ramdas Pophale) SiO2 
 PCOD8236220
Probable space group: P N N M
;
_chemical_formula_sum "Si O2"
_cell_formula_units_Z 48
_cell_length_a 5.059701
_cell_length_b 14.262162
_cell_length_c 32.321660
_cell_angle_alpha 90.000000
_cell_angle_beta 90.000000
_cell_angle_gamma 90.000000
_cell_volume 2332.404528
_symmetry_space_group_name_H-M "P N N M"
_symmetry_group_IT_number 58
_symmetry_cell_setting 'orthorhombic'
loop_
_space_group_symop_operation_xyz
x,y,z
-x,-y,z
1/2+x,1/2-y,1/2-z
1/2-x,1/2+y,1/2-z
-x,-y,-z
x,y,-z
1/2-x,1/2+y,1/2+z
1/2+x,1/2-y,1/2+z
loop_
_atom_site_type_symbol
_atom_site_label
_atom_site_fract_x
_atom_site_fract_y
_atom_site_fract_z
Si Si1 0.086227 0.845563 0.356131
Si Si2 0.918959 0.337215 0.594242
Si Si3 0.601468 0.902442 0.400842
Si Si4 0.329541 0.245693 0.223050
Si Si5 0.598155 0.719364 0.451278
Si Si6 0.763319 0.439851 0.672038
O O1 0.002487 0.747083 0.375650
O O2 0.382453 0.869726 0.368457
O O3 0.082566 0.832226 0.306579
O O4 0.867523 0.919084 0.373378
O O5 0.690488 0.313107 0.561929
O O6 0.833036 0.422878 0.623507
O O7 0.186887 0.353270 0.567857
O O8 0.648303 0.827074 0.437101
O O9 0.500000 0.000000 0.421109
O O10 0.583067 0.218145 0.250127
O O11 0.227495 0.156620 0.196819
O O12 0.623268 0.716263 0.500000
O O13 0.500000 0.500000 0.675146
O O14 0.000000 0.500000 0.692027
#
# Coordination Sequence:
#
# PCOD8236220 Si02
#       6
#     8   8   8   8   8   8
#     4   9  19  35  53  74 102 146 188 216 261 329
#     4   9  19  35  56  78 105 143 184 221 267 330
#     4  10  19  33  52  77 109 144 187 229 265 316
#     4  11  22  39  60  83 114 147 180 224 281 339
#     4  10  19  33  55  81 109 144 184 226 276 332
#     4  11  22  39  63  87 110 142 190 236 272 321
#
# _framework density 20.579619999999998
#
# number of rings (size 3 to 8) (size 9 to 14) (size 15 to 20)
#    0.000    2.000    0.000    4.000    0.000    5.667 
#    0.000    8.333    0.000   16.000    0.000    0.000 
#    0.000    0.000    0.000    0.000    0.000    0.000 
#
# Total GULP energy -595067.184349 kJ/mol
# GULP energy per Si atom -12397.233007 kJ/mol
# Density = 2.053278 g / cm^3
# Si number density = 20.579620 Si / 1000 Ang^3
#
#
#
# Elastic Constant Matrix: (Units=GPa)
#
#
# Indices 1 2 3 4 5 6 
#
# 1 125.3895 11.1454 38.9099 0.0000 0.0000 0.0000
# 2 11.1454 43.4444 10.0778 0.0000 0.0000 0.0000
# 3 38.9099 10.0778 106.8890 0.0000 0.0000 0.0000
# 4 0.0000 0.0000 0.0000 13.1203 0.0000 0.0000
# 5 0.0000 0.0000 0.0000 0.0000 18.9997 0.0000
# 6 0.0000 0.0000 0.0000 0.0000 0.0000 34.3983
#
#
#
# Elastic Compliance Matrix: (Units=1/GPa)
#
#
# Indices 1 2 3 4 5 6 
#
# 1 0.009098 -0.001601 -0.003161 0.000000 0.000000 0.000000
# 2 -0.001601 0.023814 -0.001663 0.000000 0.000000 0.000000
# 3 -0.003161 -0.001663 0.010663 0.000000 0.000000 0.000000
# 4 0.000000 0.000000 0.000000 0.076218 0.000000 0.000000
# 5 0.000000 0.000000 0.000000 0.000000 0.052632 0.000000
# 6 0.000000 0.000000 0.000000 0.000000 0.000000 0.029071
#
#
# Mechanical properties :
#
#
# Convention : Reuss Voigt Hill
#
# Bulk Modulus (GPa) = 32.54501 43.99880 38.27190
# Shear Modulus (GPa) = 22.26297 27.67630 24.96964
#
# Velocity S-wave (km/s) = 3.29264 3.67119 3.48705
# Velocity P-wave (km/s) = 5.50489 6.27665 5.90339
#
# Compressibility (1/GPa) = 0.03072667
#
# Stress axis : x y z
#
# Youngs Moduli (GPa) = 109.90983 41.99160 93.78274
#
# Poissons Ratio (x) = 0.06722 0.29645
# Poissons Ratio (y) = 0.17595 0.15592
# Poissons Ratio (z) = 0.34743 0.06981
#
# Static dielectric constant tensor:
#      x y z
#    x 3.865760 0.000000 0.000000 
#    y 0.000000 3.714430 0.000000 
#    z 0.000000 0.000000 3.640140 
# 
# 
# High freq. dielectric constant tensor:
#      x y z
#    x 1.826390 0.000000 0.000000 
#    y 0.000000 1.785400 0.000000 
#    z 0.000000 0.000000 1.790260 
# 
# From -- ./inp_files/32825.got.cif
#   From: 2010.06.25/outbox.cif.g09.slc.cpg/sg58_17_cif.got.tgz:32825.got - 2010.06.26 21:38:00.
