data_PCOD8236201
_publ_section_title
;
Structure prediction by ZEFSAII (Michael W. Deem and Ramdas Pophale) SiO2 
 PCOD8236201
Probable space group: P N N M
;
_chemical_formula_sum "Si O2"
_cell_formula_units_Z 64
_cell_length_a 20.816936
_cell_length_b 11.833600
_cell_length_c 13.113118
_cell_angle_alpha 90.000000
_cell_angle_beta 90.000000
_cell_angle_gamma 90.000000
_cell_volume 3230.276228
_symmetry_space_group_name_H-M "P N N M"
_symmetry_group_IT_number 58
_symmetry_cell_setting 'orthorhombic'
loop_
_space_group_symop_operation_xyz
x,y,z
-x,-y,z
1/2+x,1/2-y,1/2-z
1/2-x,1/2+y,1/2-z
-x,-y,-z
x,y,-z
1/2-x,1/2+y,1/2+z
1/2+x,1/2-y,1/2+z
loop_
_atom_site_type_symbol
_atom_site_label
_atom_site_fract_x
_atom_site_fract_y
_atom_site_fract_z
Si Si1 0.753934 0.673970 0.818774
Si Si2 0.621058 0.290131 0.613092
Si Si3 0.176294 0.531609 0.884622
Si Si4 0.485714 0.777919 0.883541
Si Si5 0.058099 0.424024 0.200349
Si Si6 0.269555 0.722773 0.113700
Si Si7 0.891683 0.908604 0.315872
Si Si8 0.385701 0.339476 0.880678
O O1 0.804571 0.753604 0.876774
O O2 0.762478 0.546527 0.857191
O O3 0.769291 0.678067 0.697191
O O4 0.681567 0.712904 0.842315
O O5 0.609386 0.338614 0.500000
O O6 0.573267 0.183600 0.629466
O O7 0.605858 0.387180 0.694282
O O8 0.120224 0.506004 0.802938
O O9 0.201014 0.659344 0.876825
O O10 0.152384 0.505260 0.000000
O O11 0.456842 0.878853 0.814397
O O12 0.448161 0.660333 0.870719
O O13 0.559577 0.752183 0.853096
O O14 0.480131 0.819470 0.000000
O O15 0.000000 0.500000 0.157583
O O16 0.325561 0.633194 0.134672
O O17 0.277685 0.774300 0.000000
O O18 0.901436 0.041590 0.327464
O O19 0.383310 0.362766 0.000000
#
# Coordination Sequence:
#
# PCOD8236201 Si02
#       8
#     8   8   8   8   8   8   8   8
#     4  10  19  32  57  80 110 139 179 229 271 315
#     4   9  19  36  56  81 109 143 184 223 272 326
#     4  10  20  36  58  82 105 141 185 223 266 320
#     4  10  22  36  53  80 112 145 178 219 273 326
#     4  10  21  35  56  77 107 145 183 226 264 315
#     4  10  20  34  56  82 111 141 176 223 273 318
#     4  10  19  34  58  83 108 142 179 222 269 325
#     4  11  20  33  57  82 106 139 182 226 268 320
#
# _framework density 19.812548
#
# number of rings (size 3 to 8) (size 9 to 14) (size 15 to 20)
#    0.000    2.000    1.250    4.500    1.750    2.250 
#    0.000    0.625    0.000    7.500    0.000    0.000 
#    0.000    0.000    0.000    0.000    0.000    0.000 
#
# Total GULP energy -793395.341768 kJ/mol
# GULP energy per Si atom -12396.802215 kJ/mol
# Density = 1.976745 g / cm^3
# Si number density = 19.812548 Si / 1000 Ang^3
#
#
#
# Elastic Constant Matrix: (Units=GPa)
#
#
# Indices 1 2 3 4 5 6 
#
# 1 118.2592 18.2238 41.8642 0.0000 0.0000 0.0000
# 2 18.2238 32.8511 29.7957 0.0000 0.0000 0.0000
# 3 41.8642 29.7957 130.3742 0.0000 0.0000 0.0000
# 4 0.0000 0.0000 0.0000 21.8272 0.0000 0.0000
# 5 0.0000 0.0000 0.0000 0.0000 25.8464 0.0000
# 6 0.0000 0.0000 0.0000 0.0000 0.0000 18.2904
#
#
#
# Elastic Compliance Matrix: (Units=1/GPa)
#
#
# Indices 1 2 3 4 5 6 
#
# 1 0.009810 -0.003261 -0.002405 0.000000 0.000000 0.000000
# 2 -0.003261 0.039484 -0.007977 0.000000 0.000000 0.000000
# 3 -0.002405 -0.007977 0.010265 0.000000 0.000000 0.000000
# 4 0.000000 0.000000 0.000000 0.045814 0.000000 0.000000
# 5 0.000000 0.000000 0.000000 0.000000 0.038690 0.000000
# 6 0.000000 0.000000 0.000000 0.000000 0.000000 0.054673
#
#
# Mechanical properties :
#
#
# Convention : Reuss Voigt Hill
#
# Bulk Modulus (GPa) = 30.98383 51.25020 41.11702
# Shear Modulus (GPa) = 21.11666 25.96618 23.54142
#
# Velocity S-wave (km/s) = 3.26824 3.62414 3.45078
# Velocity P-wave (km/s) = 5.46939 6.59062 6.05601
#
# Compressibility (1/GPa) = 0.03227490
#
# Stress axis : x y z
#
# Youngs Moduli (GPa) = 101.93894 25.32669 97.41457
#
# Poissons Ratio (x) = 0.08258 0.23426
# Poissons Ratio (y) = 0.33240 0.77704
# Poissons Ratio (z) = 0.24514 0.20202
#
# Static dielectric constant tensor:
#      x y z
#    x 3.781540 0.000000 0.000000 
#    y 0.000000 3.214190 0.000000 
#    z 0.000000 0.000000 3.630740 
# 
# 
# High freq. dielectric constant tensor:
#      x y z
#    x 1.779780 0.000000 0.000000 
#    y 0.000000 1.737830 0.000000 
#    z 0.000000 0.000000 1.772760 
# 
# From -- ./inp_files/16533.got.cif
#   From: 2010.06.25/outbox.cif.g09.slc.cpg/sg58_9_cif.got.tgz:16533.got - 2010.06.26 21:38:00.
