data_PCOD8236056
_publ_section_title
;
Structure prediction by ZEFSAII (Michael W. Deem and Ramdas Pophale) SiO2 
 PCOD8236056
Probable space group: P N N M
;
_chemical_formula_sum "Si O2"
_cell_formula_units_Z 32
_cell_length_a 14.030557
_cell_length_b 5.178505
_cell_length_c 26.920854
_cell_angle_alpha 90.000000
_cell_angle_beta 90.000000
_cell_angle_gamma 90.000000
_cell_volume 1955.996823
_symmetry_space_group_name_H-M "P N N M"
_symmetry_group_IT_number 58
_symmetry_cell_setting 'orthorhombic'
loop_
_space_group_symop_operation_xyz
x,y,z
-x,-y,z
1/2+x,1/2-y,1/2-z
1/2-x,1/2+y,1/2-z
-x,-y,-z
x,y,-z
1/2-x,1/2+y,1/2+z
1/2+x,1/2-y,1/2+z
loop_
_atom_site_type_symbol
_atom_site_label
_atom_site_fract_x
_atom_site_fract_y
_atom_site_fract_z
Si Si1 0.301534 0.700001 0.356188
Si Si2 0.393902 0.907533 0.266055
Si Si3 0.561176 0.245892 0.442896
Si Si4 0.233049 0.188372 0.313097
O O1 0.342549 0.734603 0.411267
O O2 0.253705 0.421456 0.350994
O O3 0.387489 0.730551 0.315755
O O4 0.223086 0.926006 0.345696
O O5 0.320611 0.150325 0.273309
O O6 0.362588 0.743569 0.217788
O O7 0.500000 0.000000 0.256948
O O8 0.500000 0.500000 0.433687
O O9 0.592244 0.216036 0.500000
O O10 0.500000 0.000000 0.425244
#
# Coordination Sequence:
#
# PCOD8236056 Si02
#       4
#     8   8   8   8
#     4  10  19  32  47  66  98 127 162 194 239 284
#     4  10  20  33  50  68  98 136 158 204 244 282
#     4  10  20  32  47  71  97 126 168 203 237 296
#     4  10  20  34  44  73  96 123 172 202 223 304
#
# _framework density 16.359946000000001
#
# number of rings (size 3 to 8) (size 9 to 14) (size 15 to 20)
#    1.500    0.500    2.500    2.250    3.500    0.000 
#    0.000    0.000    0.000    0.000    0.000    0.000 
#    0.000    6.000    0.000    0.000    0.000    0.000 
#
# Total GULP energy -396581.181797 kJ/mol
# GULP energy per Si atom -12393.161931 kJ/mol
# Density = 1.632271 g / cm^3
# Si number density = 16.359946 Si / 1000 Ang^3
#
#
#
# Elastic Constant Matrix: (Units=GPa)
#
#
# Indices 1 2 3 4 5 6 
#
# 1 41.6678 -2.1149 6.1739 0.0000 0.0000 0.0000
# 2 -2.1149 96.7313 11.0176 0.0000 0.0000 0.0000
# 3 6.1739 11.0176 64.0345 0.0000 0.0000 0.0000
# 4 0.0000 0.0000 0.0000 52.0149 0.0000 0.0000
# 5 0.0000 0.0000 0.0000 0.0000 32.8897 0.0000
# 6 0.0000 0.0000 0.0000 0.0000 0.0000 16.0448
#
#
#
# Elastic Compliance Matrix: (Units=1/GPa)
#
#
# Indices 1 2 3 4 5 6 
#
# 1 0.024410 0.000818 -0.002494 0.000000 0.000000 0.000000
# 2 0.000818 0.010572 -0.001898 0.000000 0.000000 0.000000
# 3 -0.002494 -0.001898 0.016184 0.000000 0.000000 0.000000
# 4 0.000000 0.000000 0.000000 0.019225 0.000000 0.000000
# 5 0.000000 0.000000 0.000000 0.000000 0.030405 0.000000
# 6 0.000000 0.000000 0.000000 0.000000 0.000000 0.062325
#
#
# Mechanical properties :
#
#
# Convention : Reuss Voigt Hill
#
# Bulk Modulus (GPa) = 22.71828 25.84298 24.28063
# Shear Modulus (GPa) = 27.03545 32.68035 29.85790
#
# Velocity S-wave (km/s) = 4.06955 4.47428 4.27671
# Velocity P-wave (km/s) = 5.99986 6.52097 6.26584
#
# Compressibility (1/GPa) = 0.04401742
#
# Stress axis : x y z
#
# Youngs Moduli (GPa) = 40.96610 94.58991 61.79097
#
# Poissons Ratio (x) = -0.07736 0.15412
# Poissons Ratio (y) = -0.03350 0.11727
# Poissons Ratio (z) = 0.10218 0.17952
#
# Static dielectric constant tensor:
#      x y z
#    x 2.586220 0.000000 0.000000 
#    y 0.000000 3.257820 0.000000 
#    z 0.000000 0.000000 2.919800 
# 
# 
# High freq. dielectric constant tensor:
#      x y z
#    x 1.577620 0.000000 0.000000 
#    y 0.000000 1.650370 0.000000 
#    z 0.000000 0.000000 1.609550 
# 
# From -- ./inp_files/32634.got.cif
#   From: 2010.06.25/outbox.cif.g09.slc.cpg/sg58_17_cif.got.tgz:32634.got - 2010.06.26 21:38:00.
