data_PCOD8236912
_publ_section_title
;
Structure prediction by ZEFSAII (Michael W. Deem and Ramdas Pophale) SiO2 
 PCOD8236912
Probable space group: P N N M
;
_chemical_formula_sum "Si O2"
_cell_formula_units_Z 48
_cell_length_a 12.143424
_cell_length_b 24.033574
_cell_length_c 8.756527
_cell_angle_alpha 90.000000
_cell_angle_beta 90.000000
_cell_angle_gamma 90.000000
_cell_volume 2555.591348
_symmetry_space_group_name_H-M "P N N M"
_symmetry_group_IT_number 58
_symmetry_cell_setting 'orthorhombic'
loop_
_space_group_symop_operation_xyz
x,y,z
-x,-y,z
1/2+x,1/2-y,1/2-z
1/2-x,1/2+y,1/2-z
-x,-y,-z
x,y,-z
1/2-x,1/2+y,1/2+z
1/2+x,1/2-y,1/2+z
loop_
_atom_site_type_symbol
_atom_site_label
_atom_site_fract_x
_atom_site_fract_y
_atom_site_fract_z
Si Si1 0.356694 0.855324 0.681906
Si Si2 0.783676 0.919164 0.682334
Si Si3 0.717813 0.542599 0.820946
Si Si4 0.334722 0.287863 0.319467
Si Si5 0.479130 0.380061 0.820580
Si Si6 0.898414 0.334343 0.818461
O O1 0.350975 0.852027 0.500000
O O2 0.311159 0.915029 0.741247
O O3 0.280521 0.806303 0.746396
O O4 0.479855 0.847561 0.745114
O O5 0.784407 0.921218 0.500000
O O6 0.684993 0.880989 0.745474
O O7 0.898955 0.893507 0.739016
O O8 0.769024 0.981277 0.752079
O O9 0.597397 0.566874 0.782169
O O10 0.733072 0.536481 0.000000
O O11 0.323519 0.290260 0.500000
O O12 0.436186 0.326068 0.267585
O O13 0.359241 0.225725 0.260542
O O14 0.475622 0.366766 0.000000
O O15 0.900128 0.336097 0.000000
#
# Coordination Sequence:
#
# PCOD8236912 Si02
#       6
#     8   8   8   8   8   8
#     4   9  18  34  52  71  96 126 161 199 242 288
#     4   9  16  27  47  76 104 125 155 201 245 285
#     4   8  14  26  47  74  99 124 156 197 243 286
#     4  10  20  33  49  70  98 130 165 200 238 283
#     4   9  17  30  51  76  99 127 162 199 241 285
#     4   9  19  31  45  71 102 129 158 199 242 284
#
# _framework density 18.782346
#
# number of rings (size 3 to 8) (size 9 to 14) (size 15 to 20)
#    0.000    3.000    0.000    2.000    2.333    2.667 
#    0.000    4.167    0.000    9.000    0.000    4.667 
#    0.000    0.000    0.000    0.000    0.000    0.000 
#
# Total GULP energy -595066.085905 kJ/mol
# GULP energy per Si atom -12397.210123 kJ/mol
# Density = 1.873960 g / cm^3
# Si number density = 18.782346 Si / 1000 Ang^3
#
#
#
# Elastic Constant Matrix: (Units=GPa)
#
#
# Indices 1 2 3 4 5 6 
#
# 1 188.4338 94.8842 14.7950 0.0000 0.0000 0.0000
# 2 94.8842 139.9425 13.0352 0.0000 0.0000 0.0000
# 3 14.7950 13.0352 17.8405 0.0000 0.0000 0.0000
# 4 0.0000 0.0000 0.0000 20.5247 0.0000 0.0000
# 5 0.0000 0.0000 0.0000 0.0000 16.2693 0.0000
# 6 0.0000 0.0000 0.0000 0.0000 0.0000 23.7850
#
#
#
# Elastic Compliance Matrix: (Units=1/GPa)
#
#
# Indices 1 2 3 4 5 6 
#
# 1 0.008199 -0.005285 -0.002938 0.000000 0.000000 0.000000
# 2 -0.005285 0.011075 -0.003709 0.000000 0.000000 0.000000
# 3 -0.002938 -0.003709 0.061198 0.000000 0.000000 0.000000
# 4 0.000000 0.000000 0.000000 0.048722 0.000000 0.000000
# 5 0.000000 0.000000 0.000000 0.000000 0.061466 0.000000
# 6 0.000000 0.000000 0.000000 0.000000 0.000000 0.042043
#
#
# Mechanical properties :
#
#
# Convention : Reuss Voigt Hill
#
# Bulk Modulus (GPa) = 17.66517 65.73840 41.70178
# Shear Modulus (GPa) = 18.15306 27.01595 22.58451
#
# Velocity S-wave (km/s) = 3.11222 3.79670 3.47137
# Velocity P-wave (km/s) = 4.72654 7.36858 6.19016
#
# Compressibility (1/GPa) = 0.05660858
#
# Stress axis : x y z
#
# Youngs Moduli (GPa) = 121.96600 90.29397 16.34038
#
# Poissons Ratio (x) = 0.47725 0.04800
# Poissons Ratio (y) = 0.64465 0.06060
# Poissons Ratio (z) = 0.35828 0.33488
#
# Static dielectric constant tensor:
#      x y z
#    x 3.682280 0.000000 0.000000 
#    y 0.000000 3.746320 0.000000 
#    z 0.000000 0.000000 2.888980 
# 
# 
# High freq. dielectric constant tensor:
#      x y z
#    x 1.736720 0.000000 0.000000 
#    y 0.000000 1.740430 0.000000 
#    z 0.000000 0.000000 1.670890 
# 
# From -- ./inp_files/4179.got.cif
#   From: 2010.06.25/outbox.cif.g09.slc.cpg/sg58_3_cif.got.tgz:4179.got - 2010.06.26 21:38:00.
