data_PCOD8236716
_publ_section_title
;
Structure prediction by ZEFSAII (Michael W. Deem and Ramdas Pophale) SiO2 
 PCOD8236716
Probable space group: P N N M
;
_chemical_formula_sum "Si O2"
_cell_formula_units_Z 64
_cell_length_a 28.161795
_cell_length_b 12.821085
_cell_length_c 8.972952
_cell_angle_alpha 90.000000
_cell_angle_beta 90.000000
_cell_angle_gamma 90.000000
_cell_volume 3239.816827
_symmetry_space_group_name_H-M "P N N M"
_symmetry_group_IT_number 58
_symmetry_cell_setting 'orthorhombic'
loop_
_space_group_symop_operation_xyz
x,y,z
-x,-y,z
1/2+x,1/2-y,1/2-z
1/2-x,1/2+y,1/2-z
-x,-y,-z
x,y,-z
1/2-x,1/2+y,1/2+z
1/2+x,1/2-y,1/2+z
loop_
_atom_site_type_symbol
_atom_site_label
_atom_site_fract_x
_atom_site_fract_y
_atom_site_fract_z
Si Si1 0.205998 0.456688 0.824814
Si Si2 0.560480 0.328780 0.324796
Si Si3 0.101384 0.389276 0.174663
Si Si4 0.926060 0.412568 0.666173
Si Si5 0.293395 0.362106 0.671980
Si Si6 0.037225 0.804637 0.322924
Si Si7 0.181927 0.656672 0.667665
Si Si8 0.891356 0.042018 0.828585
O O1 0.156331 0.402496 0.779398
O O2 0.248611 0.382038 0.777394
O O3 0.213501 0.563125 0.733482
O O4 0.207733 0.479792 0.000000
O O5 0.551039 0.322059 0.500000
O O6 0.583929 0.222235 0.263218
O O7 0.510835 0.350658 0.244303
O O8 0.595222 0.424065 0.284152
O O9 0.068224 0.481887 0.238859
O O10 0.095166 0.394005 0.000000
O O11 0.943463 0.439028 0.500000
O O12 0.956288 0.315517 0.732254
O O13 0.872051 0.377361 0.665416
O O14 0.277388 0.359589 0.500000
O O15 0.314049 0.251423 0.719208
O O16 0.334912 0.447136 0.697822
O O17 0.035775 0.808248 0.500000
O O18 0.081038 0.875236 0.271946
O O19 0.199490 0.683898 0.500000
O O20 0.904579 0.065397 0.000000
#
# Coordination Sequence:
#
# PCOD8236716 Si02
#       8
#     8   8   8   8   8   8   8   8
#     4  10  21  37  58  86 116 151 193 240 293 351
#     4  10  22  40  58  81 115 155 194 234 288 347
#     4   9  20  38  59  82 113 153 195 237 285 347
#     4   9  19  35  57  82 112 147 186 235 290 340
#     4  11  22  36  58  88 115 149 195 241 291 351
#     4  11  22  37  58  87 116 148 192 242 296 345
#     4  10  19  36  58  80 111 151 188 237 292 342
#     4  10  22  39  59  82 115 155 196 239 285 347
#
# _framework density 19.754203
#
# number of rings (size 3 to 8) (size 9 to 14) (size 15 to 20)
#    0.000    2.000    1.250    1.875    0.000    6.500 
#    0.000    5.000    0.000    0.000    0.000    0.000 
#    0.000    0.000    0.000    0.000    0.000    0.000 
#
# Total GULP energy -793706.403843 kJ/mol
# GULP energy per Si atom -12401.662560 kJ/mol
# Density = 1.970924 g / cm^3
# Si number density = 19.754203 Si / 1000 Ang^3
#
#
#
# Elastic Constant Matrix: (Units=GPa)
#
#
# Indices 1 2 3 4 5 6 
#
# 1 48.5049 14.8523 24.0725 0.0000 0.0000 0.0000
# 2 14.8523 101.8622 23.5643 0.0000 0.0000 0.0000
# 3 24.0725 23.5643 51.9739 0.0000 0.0000 0.0000
# 4 0.0000 0.0000 0.0000 32.0705 0.0000 0.0000
# 5 0.0000 0.0000 0.0000 0.0000 24.2380 0.0000
# 6 0.0000 0.0000 0.0000 0.0000 0.0000 21.8131
#
#
#
# Elastic Compliance Matrix: (Units=1/GPa)
#
#
# Indices 1 2 3 4 5 6 
#
# 1 0.026892 -0.001162 -0.011929 0.000000 0.000000 0.000000
# 2 -0.001162 0.011018 -0.004457 0.000000 0.000000 0.000000
# 3 -0.011929 -0.004457 0.026786 0.000000 0.000000 0.000000
# 4 0.000000 0.000000 0.000000 0.031181 0.000000 0.000000
# 5 0.000000 0.000000 0.000000 0.000000 0.041258 0.000000
# 6 0.000000 0.000000 0.000000 0.000000 0.000000 0.045844
#
#
# Mechanical properties :
#
#
# Convention : Reuss Voigt Hill
#
# Bulk Modulus (GPa) = 33.78285 36.36881 35.07583
# Shear Modulus (GPa) = 21.93540 24.94778 23.44159
#
# Velocity S-wave (km/s) = 3.33591 3.55760 3.44854
# Velocity P-wave (km/s) = 5.65477 5.94357 5.80097
#
# Compressibility (1/GPa) = 0.02960082
#
# Stress axis : x y z
#
# Youngs Moduli (GPa) = 37.18522 90.76328 37.33230
#
# Poissons Ratio (x) = 0.10542 0.44534
# Poissons Ratio (y) = 0.04319 0.16640
# Poissons Ratio (z) = 0.44358 0.40456
#
# Static dielectric constant tensor:
#      x y z
#    x 3.509000 0.000000 0.000000 
#    y 0.000000 3.787770 0.000000 
#    z 0.000000 0.000000 3.593390 
# 
# 
# High freq. dielectric constant tensor:
#      x y z
#    x 1.763050 0.000000 0.000000 
#    y 0.000000 1.777210 0.000000 
#    z 0.000000 0.000000 1.768110 
# 
# From -- ./inp_files/11054.got.cif
#   From: 2010.06.25/outbox.cif.g09.slc.cpg/sg58_6_cif.got.tgz:11054.got - 2010.06.26 21:38:00.
