data_PCOD8236690
_publ_section_title
;
Structure prediction by ZEFSAII (Michael W. Deem and Ramdas Pophale) SiO2 
 PCOD8236690
Probable space group: P N N M
;
_chemical_formula_sum "Si O2"
_cell_formula_units_Z 64
_cell_length_a 11.959171
_cell_length_b 30.303622
_cell_length_c 9.197124
_cell_angle_alpha 90.000000
_cell_angle_beta 90.000000
_cell_angle_gamma 90.000000
_cell_volume 3333.094736
_symmetry_space_group_name_H-M "P N N M"
_symmetry_group_IT_number 58
_symmetry_cell_setting 'orthorhombic'
loop_
_space_group_symop_operation_xyz
x,y,z
-x,-y,z
1/2+x,1/2-y,1/2-z
1/2-x,1/2+y,1/2-z
-x,-y,-z
x,y,-z
1/2-x,1/2+y,1/2+z
1/2+x,1/2-y,1/2+z
loop_
_atom_site_type_symbol
_atom_site_label
_atom_site_fract_x
_atom_site_fract_y
_atom_site_fract_z
Si Si1 0.642188 0.620662 0.670639
Si Si2 0.263205 0.956702 0.669129
Si Si3 0.383385 0.629772 0.671364
Si Si4 0.708381 0.201738 0.830897
Si Si5 0.257750 0.056531 0.330210
Si Si6 0.998305 0.673420 0.164769
Si Si7 0.997395 0.571870 0.165023
Si Si8 0.758324 0.300646 0.830171
O O1 0.660198 0.614551 0.500000
O O2 0.681639 0.575991 0.747065
O O3 0.513694 0.628494 0.709686
O O4 0.711480 0.662962 0.729604
O O5 0.264421 0.942885 0.500000
O O6 0.391050 0.954208 0.731970
O O7 0.217610 0.006204 0.690014
O O8 0.361462 0.629120 0.500000
O O9 0.325925 0.587268 0.742369
O O10 0.336982 0.675203 0.737753
O O11 0.587242 0.201873 0.757832
O O12 0.762993 0.248790 0.795900
O O13 0.689057 0.194818 0.000000
O O14 0.256305 0.070881 0.500000
O O15 0.382811 0.061722 0.261476
O O16 0.964743 0.622750 0.179126
O O17 0.123756 0.679668 0.222526
O O18 0.990988 0.690560 0.000000
O O19 0.012105 0.556189 0.000000
O O20 0.736403 0.310114 0.000000
#
# Coordination Sequence:
#
# PCOD8236690 Si02
#       8
#     8   8   8   8   8   8   8   8
#     4  10  23  41  57  78 115 156 187 230 288 338
#     4  10  20  35  60  89 112 145 192 234 276 336
#     4  11  24  40  59  82 112 152 195 235 280 337
#     4  10  22  39  59  84 115 150 188 230 282 336
#     4  10  20  37  60  85 116 149 184 232 287 337
#     4  10  19  35  62  87 113 149 186 230 285 335
#     4   9  16  32  57  86 115 143 179 227 283 334
#     4  10  22  40  61  85 115 151 188 232 285 336
#
# _framework density 19.201374999999999
#
# number of rings (size 3 to 8) (size 9 to 14) (size 15 to 20)
#    0.000    2.000    2.500    0.750    1.750    4.500 
#    0.000    3.125    0.000    1.500    0.000    0.000 
#    0.000    0.000    0.000    0.000    0.000    0.000 
#
# Total GULP energy -793636.219065 kJ/mol
# GULP energy per Si atom -12400.565923 kJ/mol
# Density = 1.915767 g / cm^3
# Si number density = 19.201375 Si / 1000 Ang^3
#
#
#
# Elastic Constant Matrix: (Units=GPa)
#
#
# Indices 1 2 3 4 5 6 
#
# 1 119.6962 45.3898 48.2953 0.0000 0.0000 0.0000
# 2 45.3898 98.9448 38.1192 0.0000 0.0000 0.0000
# 3 48.2953 38.1192 50.0692 0.0000 0.0000 0.0000
# 4 0.0000 0.0000 0.0000 29.1521 0.0000 0.0000
# 5 0.0000 0.0000 0.0000 0.0000 31.1830 0.0000
# 6 0.0000 0.0000 0.0000 0.0000 0.0000 29.0332
#
#
#
# Elastic Compliance Matrix: (Units=1/GPa)
#
#
# Indices 1 2 3 4 5 6 
#
# 1 0.013879 -0.001711 -0.012085 0.000000 0.000000 0.000000
# 2 -0.001711 0.014512 -0.009398 0.000000 0.000000 0.000000
# 3 -0.012085 -0.009398 0.038784 0.000000 0.000000 0.000000
# 4 0.000000 0.000000 0.000000 0.034303 0.000000 0.000000
# 5 0.000000 0.000000 0.000000 0.000000 0.032069 0.000000
# 6 0.000000 0.000000 0.000000 0.000000 0.000000 0.034443
#
#
# Mechanical properties :
#
#
# Convention : Reuss Voigt Hill
#
# Bulk Modulus (GPa) = 48.10578 59.14653 53.62616
# Shear Modulus (GPa) = 22.59293 27.00074 24.79684
#
# Velocity S-wave (km/s) = 3.43393 3.75399 3.59752
# Velocity P-wave (km/s) = 6.38985 7.04699 6.72645
#
# Compressibility (1/GPa) = 0.02078752
#
# Stress axis : x y z
#
# Youngs Moduli (GPa) = 72.04904 68.90697 25.78376
#
# Poissons Ratio (x) = 0.11792 0.31159
# Poissons Ratio (y) = 0.12329 0.24232
# Poissons Ratio (z) = 0.87070 0.64759
#
# Static dielectric constant tensor:
#      x y z
#    x 3.588310 0.000000 0.000000 
#    y 0.000000 3.568700 0.000000 
#    z 0.000000 0.000000 3.306410 
# 
# 
# High freq. dielectric constant tensor:
#      x y z
#    x 1.754040 0.000000 0.000000 
#    y 0.000000 1.758170 0.000000 
#    z 0.000000 0.000000 1.718170 
# 
# From -- ./inp_files/4769.got.cif
#   From: 2010.06.25/outbox.cif.g09.slc.cpg/sg58_3_cif.got.tgz:4769.got - 2010.06.26 21:38:00.
