data_PCOD8236625
_publ_section_title
;
Structure prediction by ZEFSAII (Michael W. Deem and Ramdas Pophale) SiO2 
 PCOD8236625
Probable space group: P N N M
;
_chemical_formula_sum "Si O2"
_cell_formula_units_Z 48
_cell_length_a 14.345160
_cell_length_b 20.195798
_cell_length_c 8.790378
_cell_angle_alpha 90.000000
_cell_angle_beta 90.000000
_cell_angle_gamma 90.000000
_cell_volume 2546.677584
_symmetry_space_group_name_H-M "P N N M"
_symmetry_group_IT_number 58
_symmetry_cell_setting 'orthorhombic'
loop_
_space_group_symop_operation_xyz
x,y,z
-x,-y,z
1/2+x,1/2-y,1/2-z
1/2-x,1/2+y,1/2-z
-x,-y,-z
x,y,-z
1/2-x,1/2+y,1/2+z
1/2+x,1/2-y,1/2+z
loop_
_atom_site_type_symbol
_atom_site_label
_atom_site_fract_x
_atom_site_fract_y
_atom_site_fract_z
Si Si1 0.169467 0.575439 0.679452
Si Si2 0.516029 0.119276 0.680365
Si Si3 0.787177 0.558462 0.820468
Si Si4 0.674540 0.672049 0.319974
Si Si5 0.221565 0.206657 0.178618
Si Si6 0.484313 0.731816 0.678700
O O1 0.166817 0.568095 0.500000
O O2 0.065072 0.576020 0.744219
O O3 0.225266 0.514008 0.749560
O O4 0.223354 0.641642 0.730241
O O5 0.503634 0.116064 0.500000
O O6 0.614149 0.088760 0.731269
O O7 0.511219 0.193877 0.746275
O O8 0.704203 0.603872 0.758025
O O9 0.779016 0.553969 0.000000
O O10 0.677943 0.663186 0.500000
O O11 0.742729 0.731010 0.272469
O O12 0.570289 0.688412 0.259181
O O13 0.112834 0.196451 0.220875
O O14 0.233859 0.221975 0.000000
O O15 0.494712 0.739576 0.500000
#
# Coordination Sequence:
#
# PCOD8236625 Si02
#       6
#     8   8   8   8   8   8
#     4  11  23  36  56  86 118 147 187 239 281 324
#     4  10  19  35  58  82 112 152 187 220 277 347
#     4  11  23  39  58  79 114 157 190 224 279 346
#     4  11  21  35  59  86 111 141 186 238 276 320
#     4  10  20  38  59  81 113 152 187 223 276 339
#     4   9  18  35  58  83 111 145 187 224 270 339
#
# _framework density 18.848087
#
# number of rings (size 3 to 8) (size 9 to 14) (size 15 to 20)
#    0.000    1.667    3.333    2.000    0.000    4.000 
#    0.000    2.500    0.000    5.000    0.000    0.000 
#    0.000    0.000    0.000    0.000    0.000    0.000 
#
# Total GULP energy -595363.654212 kJ/mol
# GULP energy per Si atom -12403.409463 kJ/mol
# Density = 1.880519 g / cm^3
# Si number density = 18.848087 Si / 1000 Ang^3
#
#
#
# Elastic Constant Matrix: (Units=GPa)
#
#
# Indices 1 2 3 4 5 6 
#
# 1 77.8192 3.2843 11.2023 0.0000 0.0000 0.0000
# 2 3.2843 70.6191 18.7681 0.0000 0.0000 0.0000
# 3 11.2023 18.7681 38.0802 0.0000 0.0000 0.0000
# 4 0.0000 0.0000 0.0000 31.6164 0.0000 0.0000
# 5 0.0000 0.0000 0.0000 0.0000 24.2790 0.0000
# 6 0.0000 0.0000 0.0000 0.0000 0.0000 29.5297
#
#
#
# Elastic Compliance Matrix: (Units=1/GPa)
#
#
# Indices 1 2 3 4 5 6 
#
# 1 0.013433 0.000490 -0.004193 0.000000 0.000000 0.000000
# 2 0.000490 0.016313 -0.008184 0.000000 0.000000 0.000000
# 3 -0.004193 -0.008184 0.031527 0.000000 0.000000 0.000000
# 4 0.000000 0.000000 0.000000 0.031629 0.000000 0.000000
# 5 0.000000 0.000000 0.000000 0.000000 0.041188 0.000000
# 6 0.000000 0.000000 0.000000 0.000000 0.000000 0.033864
#
#
# Mechanical properties :
#
#
# Convention : Reuss Voigt Hill
#
# Bulk Modulus (GPa) = 26.66761 28.11421 27.39091
# Shear Modulus (GPa) = 24.48237 27.30261 25.89249
#
# Velocity S-wave (km/s) = 3.60798 3.81013 3.71043
# Velocity P-wave (km/s) = 5.61570 5.85702 5.73763
#
# Compressibility (1/GPa) = 0.03749867
#
# Stress axis : x y z
#
# Youngs Moduli (GPa) = 74.44217 61.30195 31.71852
#
# Poissons Ratio (x) = -0.03002 0.13300
# Poissons Ratio (y) = -0.03645 0.25958
# Poissons Ratio (z) = 0.31214 0.50169
#
# Static dielectric constant tensor:
#      x y z
#    x 3.657790 0.000000 0.000000 
#    y 0.000000 3.525640 0.000000 
#    z 0.000000 0.000000 3.273260 
# 
# 
# High freq. dielectric constant tensor:
#      x y z
#    x 1.733690 0.000000 0.000000 
#    y 0.000000 1.732990 0.000000 
#    z 0.000000 0.000000 1.719380 
# 
# From -- ./inp_files/5825.got.cif
#   From: 2010.06.25/outbox.cif.g09.slc.cpg/sg58_3_cif.got.tgz:5825.got - 2010.06.26 21:38:00.
