data_PCOD8236505
_publ_section_title
;
Structure prediction by ZEFSAII (Michael W. Deem and Ramdas Pophale) SiO2 
 PCOD8236505
Probable space group: P N N M
;
_chemical_formula_sum "Si O2"
_cell_formula_units_Z 64
_cell_length_a 19.939079
_cell_length_b 19.887945
_cell_length_c 8.715103
_cell_angle_alpha 90.000000
_cell_angle_beta 90.000000
_cell_angle_gamma 90.000000
_cell_volume 3455.950621
_symmetry_space_group_name_H-M "P N N M"
_symmetry_group_IT_number 58
_symmetry_cell_setting 'orthorhombic'
loop_
_space_group_symop_operation_xyz
x,y,z
-x,-y,z
1/2+x,1/2-y,1/2-z
1/2-x,1/2+y,1/2-z
-x,-y,-z
x,y,-z
1/2-x,1/2+y,1/2+z
1/2+x,1/2-y,1/2+z
loop_
_atom_site_type_symbol
_atom_site_label
_atom_site_fract_x
_atom_site_fract_y
_atom_site_fract_z
Si Si1 0.339413 0.548202 0.678339
Si Si2 0.334931 0.941464 0.819028
Si Si3 0.804801 0.408241 0.323694
Si Si4 0.914158 0.323863 0.180247
Si Si5 0.025509 0.073624 0.319864
Si Si6 0.416882 0.328561 0.318497
Si Si7 0.301574 0.408888 0.180810
Si Si8 0.525544 0.073384 0.318535
O O1 0.343972 0.527644 0.500000
O O2 0.275025 0.595823 0.706447
O O3 0.404845 0.588572 0.732386
O O4 0.333353 0.480688 0.777190
O O5 0.275050 0.901890 0.735288
O O6 0.404762 0.909948 0.765044
O O7 0.331975 0.019348 0.767909
O O8 0.324777 0.933999 0.000000
O O9 0.822399 0.397459 0.500000
O O10 0.841127 0.349327 0.231694
O O11 0.926485 0.248177 0.236086
O O12 0.972599 0.372147 0.245229
O O13 0.915421 0.327612 0.000000
O O14 0.037608 0.079229 0.500000
O O15 0.972519 0.128521 0.267998
O O16 0.000000 0.000000 0.271915
O O17 0.425159 0.337159 0.500000
O O18 0.343181 0.351214 0.266703
O O19 0.306921 0.398143 0.000000
O O20 0.536463 0.078202 0.500000
O O21 0.500000 0.000000 0.269412
#
# Coordination Sequence:
#
# PCOD8236505 Si02
#       8
#     8   8   8   8   8   8   8   8
#     4  10  20  35  57  86 115 145 183 231 284 333
#     4  10  20  34  55  85 115 145 186 233 282 333
#     4   9  19  34  54  82 113 145 184 228 277 333
#     4  10  22  38  57  83 114 152 192 231 283 343
#     4  11  22  36  57  87 115 145 191 238 283 336
#     4  11  23  39  58  81 114 153 191 232 284 345
#     4  11  21  35  56  83 112 145 186 233 282 335
#     4  10  19  34  57  85 116 150 190 236 284 332
#
# _framework density 18.518782999999999
#
# number of rings (size 3 to 8) (size 9 to 14) (size 15 to 20)
#    0.000    1.750    2.500    3.375    0.000    4.750 
#    0.000    1.250    0.000    1.500    0.000    0.000 
#    0.000    0.000    0.000    0.000    0.000    0.000 
#
# Total GULP energy -793828.519058 kJ/mol
# GULP energy per Si atom -12403.570610 kJ/mol
# Density = 1.847663 g / cm^3
# Si number density = 18.518783 Si / 1000 Ang^3
#
#
#
# Elastic Constant Matrix: (Units=GPa)
#
#
# Indices 1 2 3 4 5 6 
#
# 1 136.4706 56.9998 24.0630 0.0000 0.0000 0.0000
# 2 56.9998 108.0744 24.1490 0.0000 0.0000 0.0000
# 3 24.0630 24.1490 34.6065 0.0000 0.0000 0.0000
# 4 0.0000 0.0000 0.0000 19.2504 0.0000 0.0000
# 5 0.0000 0.0000 0.0000 0.0000 37.5279 0.0000
# 6 0.0000 0.0000 0.0000 0.0000 0.0000 26.4707
#
#
#
# Elastic Compliance Matrix: (Units=1/GPa)
#
#
# Indices 1 2 3 4 5 6 
#
# 1 0.009802 -0.004321 -0.003801 0.000000 0.000000 0.000000
# 2 -0.004321 0.012867 -0.005974 0.000000 0.000000 0.000000
# 3 -0.003801 -0.005974 0.035708 0.000000 0.000000 0.000000
# 4 0.000000 0.000000 0.000000 0.051947 0.000000 0.000000
# 5 0.000000 0.000000 0.000000 0.000000 0.026647 0.000000
# 6 0.000000 0.000000 0.000000 0.000000 0.000000 0.037778
#
#
# Mechanical properties :
#
#
# Convention : Reuss Voigt Hill
#
# Bulk Modulus (GPa) = 33.12847 54.39724 43.76285
# Shear Modulus (GPa) = 23.47400 28.24579 25.85989
#
# Velocity S-wave (km/s) = 3.56417 3.90968 3.74092
# Velocity P-wave (km/s) = 5.90472 7.05824 6.50709
#
# Compressibility (1/GPa) = 0.03018552
#
# Stress axis : x y z
#
# Youngs Moduli (GPa) = 102.01630 77.72094 28.00486
#
# Poissons Ratio (x) = 0.33580 0.10644
# Poissons Ratio (y) = 0.44077 0.16731
# Poissons Ratio (z) = 0.38776 0.46432
#
# Static dielectric constant tensor:
#      x y z
#    x 3.597750 0.000000 0.000000 
#    y 0.000000 3.341220 0.000000 
#    z 0.000000 0.000000 3.347810 
# 
# 
# High freq. dielectric constant tensor:
#      x y z
#    x 1.733630 0.000000 0.000000 
#    y 0.000000 1.687940 0.000000 
#    z 0.000000 0.000000 1.723600 
# 
# From -- ./inp_files/8413.got.cif
#   From: 2010.06.25/outbox.cif.g09.slc.cpg/sg58_5_cif.got.tgz:8413.got - 2010.06.26 21:38:00.
