data_PCOD8236894
_publ_section_title
;
Structure prediction by ZEFSAII (Michael W. Deem and Ramdas Pophale) SiO2 
 PCOD8236894
Probable space group: P N N M
;
_chemical_formula_sum "Si O2"
_cell_formula_units_Z 36
_cell_length_a 10.395245
_cell_length_b 15.883884
_cell_length_c 12.920212
_cell_angle_alpha 90.000000
_cell_angle_beta 90.000000
_cell_angle_gamma 90.000000
_cell_volume 2133.344910
_symmetry_space_group_name_H-M "P N N M"
_symmetry_group_IT_number 58
_symmetry_cell_setting 'orthorhombic'
loop_
_space_group_symop_operation_xyz
x,y,z
-x,-y,z
1/2+x,1/2-y,1/2-z
1/2-x,1/2+y,1/2-z
-x,-y,-z
x,y,-z
1/2-x,1/2+y,1/2+z
1/2+x,1/2-y,1/2+z
loop_
_atom_site_type_symbol
_atom_site_label
_atom_site_fract_x
_atom_site_fract_y
_atom_site_fract_z
Si Si1 0.179728 0.870941 0.877936
Si Si2 0.283785 0.541526 0.116072
Si Si3 0.000000 0.000000 0.231620
Si Si4 0.589064 0.810991 0.382601
Si Si5 0.402363 0.927392 0.264498
O O1 0.133853 0.779283 0.839948
O O2 0.317879 0.894678 0.830746
O O3 0.196896 0.874347 0.000000
O O4 0.070532 0.935144 0.842832
O O5 0.401420 0.549213 0.194855
O O6 0.212973 0.630113 0.121777
O O7 0.187888 0.465727 0.146007
O O8 0.333645 0.523640 0.000000
O O9 0.536729 0.804075 0.500000
O O10 0.476472 0.847254 0.310746
O O11 0.500000 0.000000 0.224668
#
# Coordination Sequence:
#
# PCOD8236894 Si02
#       5
#     8   8   4   8   8
#     4  10  21  34  50  72 100 135 169 200 240 288
#     4   9  17  31  52  78 101 125 160 201 251 291
#     4  10  20  32  50  74 100 138 160 200 240 290
#     4   9  18  32  52  74  98 126 159 204 246 291
#     4   9  18  33  53  74  97 130 164 202 247 292
#
# _framework density 16.874908000000001
#
# number of rings (size 3 to 8) (size 9 to 14) (size 15 to 20)
#    0.000    2.667    0.000    1.333    3.111    3.111 
#    0.000    0.000    0.000    1.333    0.000    0.000 
#    0.000    0.000    0.000    0.000    0.000    0.000 
#
# Total GULP energy -446428.072295 kJ/mol
# GULP energy per Si atom -12400.779786 kJ/mol
# Density = 1.683650 g / cm^3
# Si number density = 16.874908 Si / 1000 Ang^3
#
#
#
# Elastic Constant Matrix: (Units=GPa)
#
#
# Indices 1 2 3 4 5 6 
#
# 1 101.2251 53.7407 48.9865 0.0000 0.0000 0.0000
# 2 53.7407 113.6521 55.9512 0.0000 0.0000 0.0000
# 3 48.9865 55.9512 87.1678 0.0000 0.0000 0.0000
# 4 0.0000 0.0000 0.0000 22.1222 0.0000 0.0000
# 5 0.0000 0.0000 0.0000 0.0000 22.2954 0.0000
# 6 0.0000 0.0000 0.0000 0.0000 0.0000 22.9923
#
#
#
# Elastic Compliance Matrix: (Units=1/GPa)
#
#
# Indices 1 2 3 4 5 6 
#
# 1 0.014859 -0.004262 -0.005615 0.000000 0.000000 0.000000
# 2 -0.004262 0.014086 -0.006646 0.000000 0.000000 0.000000
# 3 -0.005615 -0.006646 0.018894 0.000000 0.000000 0.000000
# 4 0.000000 0.000000 0.000000 0.045204 0.000000 0.000000
# 5 0.000000 0.000000 0.000000 0.000000 0.044852 0.000000
# 6 0.000000 0.000000 0.000000 0.000000 0.000000 0.043493
#
#
# Mechanical properties :
#
#
# Convention : Reuss Voigt Hill
#
# Bulk Modulus (GPa) = 67.60209 68.82241 68.21225
# Shear Modulus (GPa) = 22.79315 23.03976 22.91645
#
# Velocity S-wave (km/s) = 3.67919 3.69904 3.68913
# Velocity P-wave (km/s) = 7.62865 7.68871 7.65874
#
# Compressibility (1/GPa) = 0.01479244
#
# Stress axis : x y z
#
# Youngs Moduli (GPa) = 67.30035 70.99202 52.92769
#
# Poissons Ratio (x) = 0.30256 0.29717
# Poissons Ratio (y) = 0.28683 0.35178
# Poissons Ratio (z) = 0.37787 0.47185
#
# Static dielectric constant tensor:
#      x y z
#    x 3.191520 0.000000 0.000000 
#    y 0.000000 3.183630 0.000000 
#    z 0.000000 0.000000 3.084240 
# 
# 
# High freq. dielectric constant tensor:
#      x y z
#    x 1.653490 0.000000 0.000000 
#    y 0.000000 1.653190 0.000000 
#    z 0.000000 0.000000 1.646370 
# 
# From -- ./inp_files/14007.got.cif
#   From: 2010.06.25/outbox.cif.g09.slc.cpg/sg58_8_cif.got.tgz:14007.got - 2010.06.26 21:38:00.
