data_PCOD8236753
_publ_section_title
;
Structure prediction by ZEFSAII (Michael W. Deem and Ramdas Pophale) SiO2 
 PCOD8236753
Probable space group: P N N M
;
_chemical_formula_sum "Si O2"
_cell_formula_units_Z 64
_cell_length_a 18.590123
_cell_length_b 19.784585
_cell_length_c 9.231540
_cell_angle_alpha 90.000000
_cell_angle_beta 90.000000
_cell_angle_gamma 90.000000
_cell_volume 3395.340736
_symmetry_space_group_name_H-M "P N N M"
_symmetry_group_IT_number 58
_symmetry_cell_setting 'orthorhombic'
loop_
_space_group_symop_operation_xyz
x,y,z
-x,-y,z
1/2+x,1/2-y,1/2-z
1/2-x,1/2+y,1/2-z
-x,-y,-z
x,y,-z
1/2-x,1/2+y,1/2+z
1/2+x,1/2-y,1/2+z
loop_
_atom_site_type_symbol
_atom_site_label
_atom_site_fract_x
_atom_site_fract_y
_atom_site_fract_z
Si Si1 0.705363 0.853118 0.171531
Si Si2 0.546077 0.813658 0.831018
Si Si3 0.311761 0.761671 0.328512
Si Si4 0.208920 0.033076 0.668131
Si Si5 0.809329 0.587306 0.832947
Si Si6 0.938580 0.947022 0.168226
Si Si7 0.036615 0.206345 0.169341
Si Si8 0.550184 0.060263 0.830159
O O1 0.623077 0.842318 0.217536
O O2 0.749278 0.787790 0.226833
O O3 0.734968 0.918264 0.252912
O O4 0.713965 0.864851 0.000000
O O5 0.528865 0.744169 0.748401
O O6 0.486028 0.868599 0.789617
O O7 0.546897 0.797184 0.000000
O O8 0.313237 0.759835 0.500000
O O9 0.295355 0.837199 0.271412
O O10 0.388030 0.735011 0.268539
O O11 0.204100 0.053223 0.500000
O O12 0.130720 0.036946 0.737233
O O13 0.237361 0.956524 0.687894
O O14 0.873890 0.552428 0.747292
O O15 0.832604 0.590891 0.000000
O O16 0.968624 0.872861 0.204892
O O17 0.916473 0.951986 0.000000
O O18 0.000000 0.000000 0.209884
O O19 0.029453 0.220644 0.000000
O O20 0.500000 0.000000 0.773536
O O21 0.563492 0.052977 0.000000
#
# Coordination Sequence:
#
# PCOD8236753 Si02
#       8
#     8   8   8   8   8   8   8   8
#     4  10  20  38  61  82 111 154 196 230 279 346
#     4  10  21  34  55  87 116 146 188 239 288 335
#     4   9  17  34  59  80 102 146 195 227 268 334
#     4  11  23  37  57  87 120 149 187 240 291 338
#     4  10  21  36  54  80 111 146 186 226 276 335
#     4  10  22  41  64  87 113 152 199 237 283 349
#     4  10  19  36  61  83 109 150 191 232 282 341
#     4  10  20  34  51  77 111 145 184 228 275 328
#
# _framework density 18.849359
#
# number of rings (size 3 to 8) (size 9 to 14) (size 15 to 20)
#    0.000    2.000    2.500    1.125    0.000    4.500 
#    0.000    1.875    0.000    0.000    0.000    0.000 
#    0.000    0.000    0.000    0.000    0.000    0.000 
#
# Total GULP energy -793783.270060 kJ/mol
# GULP energy per Si atom -12402.863595 kJ/mol
# Density = 1.880646 g / cm^3
# Si number density = 18.849359 Si / 1000 Ang^3
#
#
#
# Elastic Constant Matrix: (Units=GPa)
#
#
# Indices 1 2 3 4 5 6 
#
# 1 104.7214 45.3963 47.7793 0.0000 0.0000 0.0000
# 2 45.3963 126.9401 44.0524 0.0000 0.0000 0.0000
# 3 47.7793 44.0524 52.6143 0.0000 0.0000 0.0000
# 4 0.0000 0.0000 0.0000 25.6193 0.0000 0.0000
# 5 0.0000 0.0000 0.0000 0.0000 29.5791 0.0000
# 6 0.0000 0.0000 0.0000 0.0000 0.0000 36.7457
#
#
#
# Elastic Compliance Matrix: (Units=1/GPa)
#
#
# Indices 1 2 3 4 5 6 
#
# 1 0.016391 -0.000981 -0.014063 0.000000 0.000000 0.000000
# 2 -0.000981 0.011163 -0.008455 0.000000 0.000000 0.000000
# 3 -0.014063 -0.008455 0.038856 0.000000 0.000000 0.000000
# 4 0.000000 0.000000 0.000000 0.039033 0.000000 0.000000
# 5 0.000000 0.000000 0.000000 0.000000 0.033808 0.000000
# 6 0.000000 0.000000 0.000000 0.000000 0.000000 0.027214
#
#
# Mechanical properties :
#
#
# Convention : Reuss Voigt Hill
#
# Bulk Modulus (GPa) = 51.51743 62.08132 56.79937
# Shear Modulus (GPa) = 22.73411 28.19199 25.46305
#
# Velocity S-wave (km/s) = 3.47665 3.87156 3.67941
# Velocity P-wave (km/s) = 6.59596 7.27958 6.94618
#
# Compressibility (1/GPa) = 0.01941091
#
# Stress axis : x y z
#
# Youngs Moduli (GPa) = 61.00993 89.58221 25.73599
#
# Poissons Ratio (x) = 0.08791 0.36192
# Poissons Ratio (y) = 0.05987 0.21760
# Poissons Ratio (z) = 0.85797 0.75744
#
# Static dielectric constant tensor:
#      x y z
#    x 3.438880 0.000000 0.000000 
#    y 0.000000 3.683390 0.000000 
#    z 0.000000 0.000000 3.241870 
# 
# 
# High freq. dielectric constant tensor:
#      x y z
#    x 1.732400 0.000000 0.000000 
#    y 0.000000 1.746160 0.000000 
#    z 0.000000 0.000000 1.711730 
# 
# From -- ./inp_files/8294.got.cif
#   From: 2010.06.25/outbox.cif.g09.slc.cpg/sg58_5_cif.got.tgz:8294.got - 2010.06.26 21:38:00.
