data_PCOD8236534
_publ_section_title
;
Structure prediction by ZEFSAII (Michael W. Deem and Ramdas Pophale) SiO2 
 PCOD8236534
Probable space group: P N N M
;
_chemical_formula_sum "Si O2"
_cell_formula_units_Z 48
_cell_length_a 14.752452
_cell_length_b 14.538280
_cell_length_c 12.198712
_cell_angle_alpha 90.000000
_cell_angle_beta 90.000000
_cell_angle_gamma 90.000000
_cell_volume 2616.322146
_symmetry_space_group_name_H-M "P N N M"
_symmetry_group_IT_number 58
_symmetry_cell_setting 'orthorhombic'
loop_
_space_group_symop_operation_xyz
x,y,z
-x,-y,z
1/2+x,1/2-y,1/2-z
1/2-x,1/2+y,1/2-z
-x,-y,-z
x,y,-z
1/2-x,1/2+y,1/2+z
1/2+x,1/2-y,1/2+z
loop_
_atom_site_type_symbol
_atom_site_label
_atom_site_fract_x
_atom_site_fract_y
_atom_site_fract_z
Si Si1 0.959099 0.768219 0.713650
Si Si2 0.426815 0.626634 0.000000
Si Si3 0.433327 0.922861 0.123303
Si Si4 0.331096 0.318216 0.205008
Si Si5 0.365881 0.430897 0.000000
Si Si6 0.187653 0.169289 0.868954
Si Si7 0.227880 0.963876 0.877442
O O1 0.909432 0.814730 0.609402
O O2 0.940974 0.660387 0.707071
O O3 0.911555 0.801687 0.825481
O O4 0.065824 0.785509 0.715531
O O5 0.356513 0.541364 0.000000
O O6 0.529104 0.592868 0.000000
O O7 0.335311 0.966987 0.124200
O O8 0.500000 0.000000 0.168472
O O9 0.461568 0.891436 0.000000
O O10 0.265830 0.230351 0.189172
O O11 0.308648 0.376189 0.312470
O O12 0.316635 0.388081 0.104802
O O13 0.197110 0.063096 0.832047
O O14 0.193731 0.181146 0.000000
O O15 0.190168 0.950800 0.000000
#
# Coordination Sequence:
#
# PCOD8236534 Si02
#       7
#     8   4   8   8   4   8   8
#     4  11  21  35  60  87 118 155 200 244 299 356
#     4   9  18  32  53  86 115 140 191 244 302 340
#     4  10  19  34  58  87 115 145 192 253 303 345
#     4  11  21  37  59  86 118 157 198 247 296 355
#     4   9  18  32  54  82 114 150 186 241 292 352
#     4  11  23  40  61  87 122 162 200 242 304 366
#     4  10  22  38  58  86 118 154 198 246 297 359
#
# _framework density 18.346366
#
# number of rings (size 3 to 8) (size 9 to 14) (size 15 to 20)
#    0.000    1.667    3.333    2.000    0.000    4.000 
#    0.000    1.667    0.000    0.500    0.000    0.000 
#    0.000    0.000    0.000    0.000    0.000    0.000 
#
# Total GULP energy -595209.900377 kJ/mol
# GULP energy per Si atom -12400.206258 kJ/mol
# Density = 1.830461 g / cm^3
# Si number density = 18.346366 Si / 1000 Ang^3
#
#
#
# Elastic Constant Matrix: (Units=GPa)
#
#
# Indices 1 2 3 4 5 6 
#
# 1 60.3026 13.5180 24.8004 0.0000 0.0000 0.0000
# 2 13.5180 100.8437 42.4490 0.0000 0.0000 0.0000
# 3 24.8004 42.4490 73.1288 0.0000 0.0000 0.0000
# 4 0.0000 0.0000 0.0000 30.7016 0.0000 0.0000
# 5 0.0000 0.0000 0.0000 0.0000 32.1115 0.0000
# 6 0.0000 0.0000 0.0000 0.0000 0.0000 31.6951
#
#
#
# Elastic Compliance Matrix: (Units=1/GPa)
#
#
# Indices 1 2 3 4 5 6 
#
# 1 0.019275 0.000222 -0.006666 0.000000 0.000000 0.000000
# 2 0.000222 0.013125 -0.007694 0.000000 0.000000 0.000000
# 3 -0.006666 -0.007694 0.020401 0.000000 0.000000 0.000000
# 4 0.000000 0.000000 0.000000 0.032572 0.000000 0.000000
# 5 0.000000 0.000000 0.000000 0.000000 0.031142 0.000000
# 6 0.000000 0.000000 0.000000 0.000000 0.000000 0.031551
#
#
# Mechanical properties :
#
#
# Convention : Reuss Voigt Hill
#
# Bulk Modulus (GPa) = 40.77333 43.97887 42.37610
# Shear Modulus (GPa) = 27.09801 29.13549 28.11675
#
# Velocity S-wave (km/s) = 3.84738 3.98939 3.91903
# Velocity P-wave (km/s) = 6.48142 6.72635 6.60502
#
# Compressibility (1/GPa) = 0.02452584
#
# Stress axis : x y z
#
# Youngs Moduli (GPa) = 51.88185 76.18854 49.01665
#
# Poissons Ratio (x) = -0.01692 0.32672
# Poissons Ratio (y) = -0.01152 0.37714
# Poissons Ratio (z) = 0.34582 0.58621
#
# Static dielectric constant tensor:
#      x y z
#    x 3.262770 0.000000 0.000000 
#    y 0.000000 3.527880 0.000000 
#    z 0.000000 0.000000 3.434100 
# 
# 
# High freq. dielectric constant tensor:
#      x y z
#    x 1.700620 0.000000 0.000000 
#    y 0.000000 1.727290 0.000000 
#    z 0.000000 0.000000 1.701020 
# 
# From -- ./inp_files/15611.got.cif
#   From: 2010.06.25/outbox.cif.g09.slc.cpg/sg58_8_cif.got.tgz:15611.got - 2010.06.26 21:38:00.
