data_PCOD8236933
_publ_section_title
;
Structure prediction by ZEFSAII (Michael W. Deem and Ramdas Pophale) SiO2 
 PCOD8236933
Probable space group: P N N M
;
_chemical_formula_sum "Si O2"
_cell_formula_units_Z 48
_cell_length_a 13.617325
_cell_length_b 23.517656
_cell_length_c 8.724762
_cell_angle_alpha 90.000000
_cell_angle_beta 90.000000
_cell_angle_gamma 90.000000
_cell_volume 2794.083786
_symmetry_space_group_name_H-M "P N N M"
_symmetry_group_IT_number 58
_symmetry_cell_setting 'orthorhombic'
loop_
_space_group_symop_operation_xyz
x,y,z
-x,-y,z
1/2+x,1/2-y,1/2-z
1/2-x,1/2+y,1/2-z
-x,-y,-z
x,y,-z
1/2-x,1/2+y,1/2+z
1/2+x,1/2-y,1/2+z
loop_
_atom_site_type_symbol
_atom_site_label
_atom_site_fract_x
_atom_site_fract_y
_atom_site_fract_z
Si Si1 0.607105 0.231510 0.677567
Si Si2 0.398990 0.559662 0.821162
Si Si3 0.279192 0.669404 0.177836
Si Si4 0.393450 0.441854 0.320891
Si Si5 0.096693 0.723399 0.678105
Si Si6 0.294564 0.338659 0.824402
O O1 0.609970 0.249045 0.500000
O O2 0.635393 0.286703 0.775816
O O3 0.500279 0.209701 0.725437
O O4 0.683148 0.180398 0.708713
O O5 0.316083 0.606079 0.785768
O O6 0.498003 0.576290 0.731959
O O7 0.358636 0.498843 0.765745
O O8 0.424787 0.557523 0.000000
O O9 0.180644 0.678869 0.274677
O O10 0.255033 0.677925 0.000000
O O11 0.393676 0.454305 0.500000
O O12 0.317698 0.391634 0.283943
O O13 0.073773 0.715580 0.500000
O O14 0.132647 0.786937 0.715870
O O15 0.308751 0.357295 0.000000
#
# Coordination Sequence:
#
# PCOD8236933 Si02
#       6
#     8   8   8   8   8   8
#     4  10  20  33  51  74 101 132 164 201 243 289
#     4  10  20  34  51  70  98 133 162 195 242 294
#     4  10  20  33  51  74  99 130 166 201 242 291
#     4  11  21  31  49  75  99 126 162 204 243 282
#     4  10  20  33  51  74 101 132 163 200 245 291
#     4   9  19  34  49  69  99 133 163 193 239 293
#
# _framework density 17.179155000000002
#
# number of rings (size 3 to 8) (size 9 to 14) (size 15 to 20)
#    0.000    2.000    0.000    6.500    0.000   10.667 
#    0.000    0.000    0.000    1.000    0.000    7.000 
#    0.000    0.000    0.000    0.000    0.000    0.000 
#
# Total GULP energy -595393.696735 kJ/mol
# GULP energy per Si atom -12404.035349 kJ/mol
# Density = 1.714005 g / cm^3
# Si number density = 17.179155 Si / 1000 Ang^3
#
#
#
# Elastic Constant Matrix: (Units=GPa)
#
#
# Indices 1 2 3 4 5 6 
#
# 1 95.9050 43.7012 22.5361 0.0000 0.0000 0.0000
# 2 43.7012 94.3208 32.2483 0.0000 0.0000 0.0000
# 3 22.5361 32.2483 51.1777 0.0000 0.0000 0.0000
# 4 0.0000 0.0000 0.0000 27.7359 0.0000 0.0000
# 5 0.0000 0.0000 0.0000 0.0000 30.1807 0.0000
# 6 0.0000 0.0000 0.0000 0.0000 0.0000 22.2268
#
#
#
# Elastic Compliance Matrix: (Units=1/GPa)
#
#
# Indices 1 2 3 4 5 6 
#
# 1 0.013473 -0.005371 -0.002548 0.000000 0.000000 0.000000
# 2 -0.005371 0.015655 -0.007499 0.000000 0.000000 0.000000
# 3 -0.002548 -0.007499 0.025387 0.000000 0.000000 0.000000
# 4 0.000000 0.000000 0.000000 0.036054 0.000000 0.000000
# 5 0.000000 0.000000 0.000000 0.000000 0.033134 0.000000
# 6 0.000000 0.000000 0.000000 0.000000 0.000000 0.044991
#
#
# Mechanical properties :
#
#
# Convention : Reuss Voigt Hill
#
# Bulk Modulus (GPa) = 42.23381 48.70831 45.47106
# Shear Modulus (GPa) = 24.10513 25.55653 24.83083
#
# Velocity S-wave (km/s) = 3.74994 3.86119 3.80597
# Velocity P-wave (km/s) = 6.58689 6.94932 6.77053
#
# Compressibility (1/GPa) = 0.02367771
#
# Stress axis : x y z
#
# Youngs Moduli (GPa) = 74.22061 63.87851 39.38959
#
# Poissons Ratio (x) = 0.34311 0.10038
# Poissons Ratio (y) = 0.39866 0.29539
# Poissons Ratio (z) = 0.18915 0.47904
#
# Static dielectric constant tensor:
#      x y z
#    x 3.105180 0.000000 0.000000 
#    y 0.000000 3.126470 0.000000 
#    z 0.000000 0.000000 3.300070 
# 
# 
# High freq. dielectric constant tensor:
#      x y z
#    x 1.652180 0.000000 0.000000 
#    y 0.000000 1.650730 0.000000 
#    z 0.000000 0.000000 1.678700 
# 
# From -- ./inp_files/4262.got.cif
#   From: 2010.06.25/outbox.cif.g09.slc.cpg/sg58_3_cif.got.tgz:4262.got - 2010.06.26 21:38:00.
