data_PCOD8236777
_publ_section_title
;
Structure prediction by ZEFSAII (Michael W. Deem and Ramdas Pophale) SiO2 
 PCOD8236777
Probable space group: P N N M
;
_chemical_formula_sum "Si O2"
_cell_formula_units_Z 64
_cell_length_a 23.951789
_cell_length_b 15.575766
_cell_length_c 8.637207
_cell_angle_alpha 90.000000
_cell_angle_beta 90.000000
_cell_angle_gamma 90.000000
_cell_volume 3222.260883
_symmetry_space_group_name_H-M "P N N M"
_symmetry_group_IT_number 58
_symmetry_cell_setting 'orthorhombic'
loop_
_space_group_symop_operation_xyz
x,y,z
-x,-y,z
1/2+x,1/2-y,1/2-z
1/2-x,1/2+y,1/2-z
-x,-y,-z
x,y,-z
1/2-x,1/2+y,1/2+z
1/2+x,1/2-y,1/2+z
loop_
_atom_site_type_symbol
_atom_site_label
_atom_site_fract_x
_atom_site_fract_y
_atom_site_fract_z
Si Si1 0.392090 0.896297 0.820952
Si Si2 0.496941 0.171189 0.681693
Si Si3 0.721131 0.845177 0.317719
Si Si4 0.497755 0.364077 0.683864
Si Si5 0.587490 0.496059 0.684268
Si Si6 0.288034 0.497711 0.315979
Si Si7 0.611753 0.904823 0.821308
Si Si8 0.773794 0.668769 0.316851
O O1 0.443113 0.870151 0.712798
O O2 0.338813 0.839352 0.769788
O O3 0.376188 0.995117 0.792666
O O4 0.408192 0.880867 0.000000
O O5 0.484580 0.169463 0.500000
O O6 0.495713 0.267885 0.750244
O O7 0.450715 0.115449 0.768093
O O8 0.729412 0.852956 0.500000
O O9 0.751881 0.921880 0.233192
O O10 0.655553 0.848200 0.276573
O O11 0.747811 0.756988 0.252884
O O12 0.499662 0.360757 0.500000
O O13 0.553328 0.412900 0.744779
O O14 0.443291 0.416738 0.740085
O O15 0.589034 0.495086 0.500000
O O16 0.649631 0.493655 0.753670
O O17 0.289465 0.494344 0.500000
O O18 0.261012 0.410985 0.247000
O O19 0.618907 0.880920 0.000000
O O20 0.768284 0.665429 0.500000
#
# Coordination Sequence:
#
# PCOD8236777 Si02
#       8
#     8   8   8   8   8   8   8   8
#     4  10  21  41  61  78 108 153 196 229 274 348
#     4  11  23  35  57  90 118 141 181 241 295 333
#     4  11  23  38  60  89 120 150 189 245 296 335
#     4   8  16  31  49  81 116 146 182 230 280 325
#     4   8  15  29  54  79 109 149 191 226 264 329
#     4  10  19  36  62  86 112 154 198 232 280 353
#     4  11  23  42  63  81 109 153 197 232 278 348
#     4   9  20  38  59  84 115 157 196 230 287 354
#
# _framework density 19.861830999999999
#
# number of rings (size 3 to 8) (size 9 to 14) (size 15 to 20)
#    0.000    2.250    1.250    2.250    3.500    2.500 
#    0.000    1.875    0.000    0.000    0.000    4.375 
#    0.000    0.000    0.000    0.000    0.000    0.000 
#
# Total GULP energy -793634.043987 kJ/mol
# GULP energy per Si atom -12400.531937 kJ/mol
# Density = 1.981662 g / cm^3
# Si number density = 19.861831 Si / 1000 Ang^3
#
#
#
# Elastic Constant Matrix: (Units=GPa)
#
#
# Indices 1 2 3 4 5 6 
#
# 1 128.3692 44.5214 9.5306 0.0000 0.0000 0.0000
# 2 44.5214 112.1285 18.3021 0.0000 0.0000 0.0000
# 3 9.5306 18.3021 17.0086 0.0000 0.0000 0.0000
# 4 0.0000 0.0000 0.0000 19.4572 0.0000 0.0000
# 5 0.0000 0.0000 0.0000 0.0000 14.0171 0.0000
# 6 0.0000 0.0000 0.0000 0.0000 0.0000 30.1965
#
#
#
# Elastic Compliance Matrix: (Units=1/GPa)
#
#
# Indices 1 2 3 4 5 6 
#
# 1 0.009064 -0.003360 -0.001463 0.000000 0.000000 0.000000
# 2 -0.003360 0.012064 -0.011099 0.000000 0.000000 0.000000
# 3 -0.001463 -0.011099 0.071557 0.000000 0.000000 0.000000
# 4 0.000000 0.000000 0.000000 0.051395 0.000000 0.000000
# 5 0.000000 0.000000 0.000000 0.000000 0.071341 0.000000
# 6 0.000000 0.000000 0.000000 0.000000 0.000000 0.033116
#
#
# Mechanical properties :
#
#
# Convention : Reuss Voigt Hill
#
# Bulk Modulus (GPa) = 16.43642 44.69049 30.56345
# Shear Modulus (GPa) = 16.62996 25.07765 20.85380
#
# Velocity S-wave (km/s) = 2.89672 3.55717 3.24380
# Velocity P-wave (km/s) = 4.41377 6.27860 5.42688
#
# Compressibility (1/GPa) = 0.06084052
#
# Stress axis : x y z
#
# Youngs Moduli (GPa) = 110.32620 82.89063 13.97490
#
# Poissons Ratio (x) = 0.27852 0.02045
# Poissons Ratio (y) = 0.37071 0.15511
# Poissons Ratio (z) = 0.16144 0.91999
#
# Static dielectric constant tensor:
#      x y z
#    x 3.836490 0.000000 0.000000 
#    y 0.000000 3.891090 0.000000 
#    z 0.000000 0.000000 3.163750 
# 
# 
# High freq. dielectric constant tensor:
#      x y z
#    x 1.790010 0.000000 0.000000 
#    y 0.000000 1.783180 0.000000 
#    z 0.000000 0.000000 1.732530 
# 
# From -- ./inp_files/9997.got.cif
#   From: 2010.06.25/outbox.cif.g09.slc.cpg/sg58_5_cif.got.tgz:9997.got - 2010.06.26 21:38:00.
