data_PCOD8236228
_publ_section_title
;
Structure prediction by ZEFSAII (Michael W. Deem and Ramdas Pophale) SiO2 
 PCOD8236228
Probable space group: P N N M
;
_chemical_formula_sum "Si O2"
_cell_formula_units_Z 48
_cell_length_a 13.320563
_cell_length_b 13.438334
_cell_length_c 13.416006
_cell_angle_alpha 90.000000
_cell_angle_beta 90.000000
_cell_angle_gamma 90.000000
_cell_volume 2401.547913
_symmetry_space_group_name_H-M "P N N M"
_symmetry_group_IT_number 58
_symmetry_cell_setting 'orthorhombic'
loop_
_space_group_symop_operation_xyz
x,y,z
-x,-y,z
1/2+x,1/2-y,1/2-z
1/2-x,1/2+y,1/2-z
-x,-y,-z
x,y,-z
1/2-x,1/2+y,1/2+z
1/2+x,1/2-y,1/2+z
loop_
_atom_site_type_symbol
_atom_site_label
_atom_site_fract_x
_atom_site_fract_y
_atom_site_fract_z
Si Si1 0.619002 0.492352 0.115693
Si Si2 0.520975 0.314192 0.385424
Si Si3 0.731712 0.420522 0.611192
Si Si4 0.029187 0.603971 0.886538
Si Si5 0.678110 0.616537 0.705662
Si Si6 0.265269 0.164277 0.308598
O O1 0.500000 0.500000 0.132879
O O2 0.678076 0.575794 0.180418
O O3 0.660319 0.384515 0.153896
O O4 0.645851 0.509271 0.000000
O O5 0.484945 0.310411 0.500000
O O6 0.622019 0.374396 0.373249
O O7 0.531087 0.200255 0.343712
O O8 0.437629 0.370352 0.322210
O O9 0.773583 0.399355 0.500000
O O10 0.727802 0.538200 0.629846
O O11 0.798423 0.368472 0.696152
O O12 0.147679 0.625429 0.880819
O O13 0.000000 0.500000 0.830583
O O14 0.996127 0.591550 0.000000
O O15 0.743243 0.716425 0.692425
#
# Coordination Sequence:
#
# PCOD8236228 Si02
#       6
#     8   8   8   8   8   8
#     4  10  21  37  57  83 116 151 186 227 280 345
#     4   9  17  30  51  77 103 133 174 224 272 320
#     4  10  20  33  51  77 107 139 176 220 272 326
#     4   9  18  33  54  80 108 140 181 229 278 324
#     4  10  19  33  53  76 104 139 181 227 274 323
#     4  10  21  35  54  79 109 143 182 229 277 331
#
# _framework density 19.987109
#
# number of rings (size 3 to 8) (size 9 to 14) (size 15 to 20)
#    0.000    2.333    0.000    3.500    0.000    6.667 
#    0.000    1.667    0.000    0.500    0.000    0.000 
#    0.000    0.000    0.000    0.000    0.000    0.000 
#
# Total GULP energy -594880.398699 kJ/mol
# GULP energy per Si atom -12393.341640 kJ/mol
# Density = 1.994162 g / cm^3
# Si number density = 19.987109 Si / 1000 Ang^3
#
#
#
# Elastic Constant Matrix: (Units=GPa)
#
#
# Indices 1 2 3 4 5 6 
#
# 1 42.3823 33.3425 3.4096 0.0000 0.0000 0.0000
# 2 33.3425 146.1001 22.0729 0.0000 0.0000 0.0000
# 3 3.4096 22.0729 78.9244 0.0000 0.0000 0.0000
# 4 0.0000 0.0000 0.0000 19.6489 0.0000 0.0000
# 5 0.0000 0.0000 0.0000 0.0000 20.4772 0.0000
# 6 0.0000 0.0000 0.0000 0.0000 0.0000 33.8202
#
#
#
# Elastic Compliance Matrix: (Units=1/GPa)
#
#
# Indices 1 2 3 4 5 6 
#
# 1 0.028787 -0.006663 0.000620 0.000000 0.000000 0.000000
# 2 -0.006663 0.008689 -0.002142 0.000000 0.000000 0.000000
# 3 0.000620 -0.002142 0.013243 0.000000 0.000000 0.000000
# 4 0.000000 0.000000 0.000000 0.050893 0.000000 0.000000
# 5 0.000000 0.000000 0.000000 0.000000 0.048835 0.000000
# 6 0.000000 0.000000 0.000000 0.000000 0.000000 0.029568
#
#
# Mechanical properties :
#
#
# Convention : Reuss Voigt Hill
#
# Bulk Modulus (GPa) = 29.11428 42.78407 35.94917
# Shear Modulus (GPa) = 24.05753 28.69473 26.37613
#
# Velocity S-wave (km/s) = 3.47313 3.79312 3.63665
# Velocity P-wave (km/s) = 5.53911 6.37464 5.97150
#
# Compressibility (1/GPa) = 0.03434741
#
# Stress axis : x y z
#
# Youngs Moduli (GPa) = 34.73796 115.08874 75.51345
#
# Poissons Ratio (x) = 0.76687 -0.04681
# Poissons Ratio (y) = 0.23147 0.16176
# Poissons Ratio (z) = -0.02153 0.24654
#
# Static dielectric constant tensor:
#      x y z
#    x 3.221200 0.000000 0.000000 
#    y 0.000000 3.969940 0.000000 
#    z 0.000000 0.000000 3.820340 
# 
# 
# High freq. dielectric constant tensor:
#      x y z
#    x 1.740580 0.000000 0.000000 
#    y 0.000000 1.796020 0.000000 
#    z 0.000000 0.000000 1.777430 
# 
# From -- ./inp_files/22104.got.cif
#   From: 2010.06.25/outbox.cif.g09.slc.cpg/sg58_12_cif.got.tgz:22104.got - 2010.06.26 21:38:00.
