data_PCOD8236566
_publ_section_title
;
Structure prediction by ZEFSAII (Michael W. Deem and Ramdas Pophale) SiO2 
 PCOD8236566
Probable space group: P N N M
;
_chemical_formula_sum "Si O2"
_cell_formula_units_Z 64
_cell_length_a 15.053585
_cell_length_b 11.465183
_cell_length_c 18.260091
_cell_angle_alpha 90.000000
_cell_angle_beta 90.000000
_cell_angle_gamma 90.000000
_cell_volume 3151.547577
_symmetry_space_group_name_H-M "P N N M"
_symmetry_group_IT_number 58
_symmetry_cell_setting 'orthorhombic'
loop_
_space_group_symop_operation_xyz
x,y,z
-x,-y,z
1/2+x,1/2-y,1/2-z
1/2-x,1/2+y,1/2-z
-x,-y,-z
x,y,-z
1/2-x,1/2+y,1/2+z
1/2+x,1/2-y,1/2+z
loop_
_atom_site_type_symbol
_atom_site_label
_atom_site_fract_x
_atom_site_fract_y
_atom_site_fract_z
Si Si1 0.090176 0.936147 0.819272
Si Si2 0.332647 0.794657 0.202835
Si Si3 0.099826 0.048554 0.673835
Si Si4 0.682731 0.784451 0.080505
Si Si5 0.139411 0.724110 0.738054
Si Si6 0.755621 0.544325 0.080623
Si Si7 0.900935 0.512808 0.804636
Si Si8 0.252188 0.955581 0.916008
O O1 0.074191 0.804895 0.787517
O O2 0.151158 0.934656 0.890657
O O3 0.138324 0.004316 0.752192
O O4 0.000000 0.000000 0.841836
O O5 0.394126 0.688657 0.175050
O O6 0.240667 0.752495 0.238835
O O7 0.317445 0.876926 0.132493
O O8 0.387550 0.864550 0.264033
O O9 0.160381 0.998315 0.609689
O O10 0.000000 0.000000 0.663687
O O11 0.621479 0.753181 0.150980
O O12 0.758667 0.685090 0.078377
O O13 0.728031 0.908303 0.094222
O O14 0.633083 0.783953 0.000000
O O15 0.118618 0.589372 0.747629
O O16 0.835886 0.494555 0.127488
O O17 0.767270 0.491147 0.000000
O O18 0.000000 0.500000 0.835388
O O19 0.261802 0.916130 0.000000
#
# Coordination Sequence:
#
# PCOD8236566 Si02
#       8
#     8   8   8   8   8   8   8   8
#     4  10  22  36  60  91 126 159 209 267 314 375
#     4  11  22  40  64  92 127 166 214 271 320 379
#     4  11  23  40  67  95 123 164 219 273 320 378
#     4  10  19  34  63  88 116 162 210 257 319 380
#     4  11  20  41  65  88 126 169 217 260 324 378
#     4  11  23  42  63  90 130 173 211 265 325 385
#     4  12  26  39  65  99 127 170 219 265 320 389
#     4  10  21  38  62  89 122 168 210 258 325 384
#
# _framework density 20.307483999999999
#
# number of rings (size 3 to 8) (size 9 to 14) (size 15 to 20)
#    0.000    1.250    5.000    1.500    3.500    1.250 
#    0.000    0.000    0.000    1.875    0.000    0.000 
#    0.000    0.000    0.000    0.000    0.000    0.000 
#
# Total GULP energy -793345.909823 kJ/mol
# GULP energy per Si atom -12396.029841 kJ/mol
# Density = 2.026126 g / cm^3
# Si number density = 20.307484 Si / 1000 Ang^3
#
#
#
# Elastic Constant Matrix: (Units=GPa)
#
#
# Indices 1 2 3 4 5 6 
#
# 1 102.1902 35.6518 40.2913 0.0000 0.0000 0.0000
# 2 35.6518 105.9997 16.0824 0.0000 0.0000 0.0000
# 3 40.2913 16.0824 119.5643 0.0000 0.0000 0.0000
# 4 0.0000 0.0000 0.0000 27.4500 0.0000 0.0000
# 5 0.0000 0.0000 0.0000 0.0000 12.5968 0.0000
# 6 0.0000 0.0000 0.0000 0.0000 0.0000 27.4772
#
#
#
# Elastic Compliance Matrix: (Units=1/GPa)
#
#
# Indices 1 2 3 4 5 6 
#
# 1 0.012530 -0.003648 -0.003732 0.000000 0.000000 0.000000
# 2 -0.003648 0.010693 -0.000209 0.000000 0.000000 0.000000
# 3 -0.003732 -0.000209 0.009649 0.000000 0.000000 0.000000
# 4 0.000000 0.000000 0.000000 0.036430 0.000000 0.000000
# 5 0.000000 0.000000 0.000000 0.000000 0.079385 0.000000
# 6 0.000000 0.000000 0.000000 0.000000 0.000000 0.036394
#
#
# Mechanical properties :
#
#
# Convention : Reuss Voigt Hill
#
# Bulk Modulus (GPa) = 56.51478 56.86723 56.69101
# Shear Modulus (GPa) = 24.25349 29.22005 26.73677
#
# Velocity S-wave (km/s) = 3.45963 3.79737 3.63243
# Velocity P-wave (km/s) = 6.62183 6.87682 6.75053
#
# Compressibility (1/GPa) = 0.01769449
#
# Stress axis : x y z
#
# Youngs Moduli (GPa) = 79.81051 93.52203 103.63455
#
# Poissons Ratio (x) = 0.34117 0.38672
# Poissons Ratio (y) = 0.29115 0.02165
# Poissons Ratio (z) = 0.29782 0.01954
#
# Static dielectric constant tensor:
#      x y z
#    x 3.378840 0.000000 0.000000 
#    y 0.000000 3.948150 0.000000 
#    z 0.000000 0.000000 3.810950 
# 
# 
# High freq. dielectric constant tensor:
#      x y z
#    x 1.762570 0.000000 0.000000 
#    y 0.000000 1.813230 0.000000 
#    z 0.000000 0.000000 1.792140 
# 
# From -- ./inp_files/26346.got.cif
#   From: 2010.06.25/outbox.cif.g09.slc.cpg/sg58_14_cif.got.tgz:26346.got - 2010.06.26 21:38:00.
