data_PCOD8236339
_publ_section_title
;
Structure prediction by ZEFSAII (Michael W. Deem and Ramdas Pophale) SiO2 
 PCOD8236339
Probable space group: P N N M
;
_chemical_formula_sum "Si O2"
_cell_formula_units_Z 48
_cell_length_a 10.486040
_cell_length_b 31.214760
_cell_length_c 7.678972
_cell_angle_alpha 90.000000
_cell_angle_beta 90.000000
_cell_angle_gamma 90.000000
_cell_volume 2513.475140
_symmetry_space_group_name_H-M "P N N M"
_symmetry_group_IT_number 58
_symmetry_cell_setting 'orthorhombic'
loop_
_space_group_symop_operation_xyz
x,y,z
-x,-y,z
1/2+x,1/2-y,1/2-z
1/2-x,1/2+y,1/2-z
-x,-y,-z
x,y,-z
1/2-x,1/2+y,1/2+z
1/2+x,1/2-y,1/2+z
loop_
_atom_site_type_symbol
_atom_site_label
_atom_site_fract_x
_atom_site_fract_y
_atom_site_fract_z
Si Si1 0.305005 0.508157 0.000000
Si Si2 0.837352 0.377529 0.702760
Si Si3 0.053597 0.124983 0.197503
Si Si4 0.868972 0.284577 0.705836
Si Si5 0.883738 0.469672 0.297901
Si Si6 0.040242 0.928251 0.500000
Si Si7 0.918222 0.780291 0.703819
O O1 0.231436 0.516523 0.821774
O O2 0.424801 0.538815 0.000000
O O3 0.334534 0.457514 0.000000
O O4 0.826763 0.368460 0.500000
O O5 0.694288 0.387351 0.768628
O O6 0.889428 0.332984 0.784697
O O7 0.921824 0.419778 0.744115
O O8 0.956121 0.101559 0.327677
O O9 0.041448 0.176237 0.200105
O O10 0.028067 0.108992 0.000000
O O11 0.878658 0.284750 0.500000
O O12 0.728722 0.267082 0.758886
O O13 0.984174 0.255528 0.779536
O O14 0.842740 0.474064 0.500000
O O15 0.000000 0.500000 0.250500
O O16 0.937999 0.786895 0.500000
#
# Coordination Sequence:
#
# PCOD8236339 Si02
#       7
#     4   8   8   8   8   4   8
#     4  11  23  36  56  82 121 139 188 242 284 333
#     4   8  15  31  54  78 105 142 188 230 270 326
#     4  10  19  35  58  80 111 148 188 229 275 339
#     4   9  19  34  54  80 113 148 186 235 282 334
#     4  10  20  36  59  82 109 149 193 236 284 336
#     4  11  22  36  56  86 110 152 184 230 283 342
#     4  10  19  33  56  83 113 148 190 236 282 339
#
# _framework density 19.097066000000002
#
# number of rings (size 3 to 8) (size 9 to 14) (size 15 to 20)
#    0.000    2.333    2.500    1.750    0.000    2.000 
#    0.000    3.333    0.000    2.000    0.000    0.000 
#    0.000    0.000    0.000    0.000    0.000    0.000 
#
# Total GULP energy -594825.336005 kJ/mol
# GULP energy per Si atom -12392.194500 kJ/mol
# Density = 1.905360 g / cm^3
# Si number density = 19.097066 Si / 1000 Ang^3
#
#
#
# Elastic Constant Matrix: (Units=GPa)
#
#
# Indices 1 2 3 4 5 6 
#
# 1 75.4440 65.1234 12.0382 0.0000 0.0000 0.0000
# 2 65.1234 140.9394 23.9387 0.0000 0.0000 0.0000
# 3 12.0382 23.9387 63.8677 0.0000 0.0000 0.0000
# 4 0.0000 0.0000 0.0000 18.6403 0.0000 0.0000
# 5 0.0000 0.0000 0.0000 0.0000 20.7435 0.0000
# 6 0.0000 0.0000 0.0000 0.0000 0.0000 38.9396
#
#
#
# Elastic Compliance Matrix: (Units=1/GPa)
#
#
# Indices 1 2 3 4 5 6 
#
# 1 0.022057 -0.010131 -0.000360 0.000000 0.000000 0.000000
# 2 -0.010131 0.012231 -0.002675 0.000000 0.000000 0.000000
# 3 -0.000360 -0.002675 0.016728 0.000000 0.000000 0.000000
# 4 0.000000 0.000000 0.000000 0.053647 0.000000 0.000000
# 5 0.000000 0.000000 0.000000 0.000000 0.048208 0.000000
# 6 0.000000 0.000000 0.000000 0.000000 0.000000 0.025681
#
#
# Mechanical properties :
#
#
# Convention : Reuss Voigt Hill
#
# Bulk Modulus (GPa) = 40.51192 53.60575 47.05883
# Shear Modulus (GPa) = 23.46193 27.60806 25.53500
#
# Velocity S-wave (km/s) = 3.50889 3.80632 3.66063
# Velocity P-wave (km/s) = 6.13809 6.88829 6.52398
#
# Compressibility (1/GPa) = 0.02468409
#
# Stress axis : x y z
#
# Youngs Moduli (GPa) = 45.33664 81.76204 59.78068
#
# Poissons Ratio (x) = 0.82831 0.02154
# Poissons Ratio (y) = 0.45929 0.15990
# Poissons Ratio (z) = 0.01634 0.21869
#
# Static dielectric constant tensor:
#      x y z
#    x 3.367160 0.000000 0.000000 
#    y 0.000000 3.909830 0.000000 
#    z 0.000000 0.000000 3.403770 
# 
# 
# High freq. dielectric constant tensor:
#      x y z
#    x 1.701230 0.000000 0.000000 
#    y 0.000000 1.755010 0.000000 
#    z 0.000000 0.000000 1.745130 
# 
# From -- ./inp_files/3074.got.cif
#   From: 2010.06.25/outbox.cif.g09.slc.cpg/sg58_2_cif.got.tgz:3074.got - 2010.06.26 21:38:00.
