data_PCOD8236608
_publ_section_title
;
Structure prediction by ZEFSAII (Michael W. Deem and Ramdas Pophale) SiO2 
 PCOD8236608
Probable space group: P N N M
;
_chemical_formula_sum "Si O2"
_cell_formula_units_Z 56
_cell_length_a 18.892937
_cell_length_b 12.070904
_cell_length_c 13.552127
_cell_angle_alpha 90.000000
_cell_angle_beta 90.000000
_cell_angle_gamma 90.000000
_cell_volume 3090.628003
_symmetry_space_group_name_H-M "P N N M"
_symmetry_group_IT_number 58
_symmetry_cell_setting 'orthorhombic'
loop_
_space_group_symop_operation_xyz
x,y,z
-x,-y,z
1/2+x,1/2-y,1/2-z
1/2-x,1/2+y,1/2-z
-x,-y,-z
x,y,-z
1/2-x,1/2+y,1/2+z
1/2+x,1/2-y,1/2+z
loop_
_atom_site_type_symbol
_atom_site_label
_atom_site_fract_x
_atom_site_fract_y
_atom_site_fract_z
Si Si1 0.825225 0.282948 0.614244
Si Si2 0.852706 0.614472 0.801959
Si Si3 0.998213 0.666991 0.111178
Si Si4 0.188149 0.144951 0.227392
Si Si5 0.709796 0.540612 0.113085
Si Si6 0.449845 0.592346 0.386186
Si Si7 0.568849 0.937646 0.796073
O O1 0.804420 0.291856 0.500000
O O2 0.764501 0.347837 0.674923
O O3 0.833207 0.152706 0.643470
O O4 0.901377 0.340796 0.633690
O O5 0.919632 0.620697 0.874040
O O6 0.835312 0.729860 0.746348
O O7 0.791140 0.572726 0.872735
O O8 0.868671 0.527590 0.714935
O O9 0.994933 0.797173 0.130377
O O10 0.051868 0.612314 0.188186
O O11 0.023724 0.639288 0.000000
O O12 0.128628 0.091987 0.157999
O O13 0.190243 0.067231 0.323432
O O14 0.695210 0.508308 0.000000
O O15 0.500000 0.500000 0.336371
O O16 0.437238 0.566146 0.500000
O O17 0.500000 0.000000 0.842001
#
# Coordination Sequence:
#
# PCOD8236608 Si02
#       7
#     8   8   8   8   8   8   8
#     4  10  21  37  55  78 107 146 188 223 266 327
#     4   9  18  34  53  79 108 142 174 220 275 323
#     4   9  18  31  51  80 111 139 177 222 276 329
#     4  10  19  35  58  76 109 144 180 219 272 324
#     4  10  20  34  57  81 108 140 181 226 270 321
#     4   9  18  32  52  81 110 142 178 218 272 328
#     4  10  20  34  54  80 109 143 183 225 272 317
#
# _framework density 18.119295000000001
#
# number of rings (size 3 to 8) (size 9 to 14) (size 15 to 20)
#    0.000    2.429    1.429    0.857    2.000    6.857 
#    0.000    0.714    0.000    5.571    0.000    0.000 
#    0.000    0.000    0.000    0.000    0.000    0.000 
#
# Total GULP energy -694033.593925 kJ/mol
# GULP energy per Si atom -12393.457034 kJ/mol
# Density = 1.807806 g / cm^3
# Si number density = 18.119295 Si / 1000 Ang^3
#
#
#
# Elastic Constant Matrix: (Units=GPa)
#
#
# Indices 1 2 3 4 5 6 
#
# 1 59.9062 38.3473 32.1517 0.0000 0.0000 0.0000
# 2 38.3473 103.5303 53.4380 0.0000 0.0000 0.0000
# 3 32.1517 53.4380 69.0541 0.0000 0.0000 0.0000
# 4 0.0000 0.0000 0.0000 30.0492 0.0000 0.0000
# 5 0.0000 0.0000 0.0000 0.0000 19.2257 0.0000
# 6 0.0000 0.0000 0.0000 0.0000 0.0000 33.3499
#
#
#
# Elastic Compliance Matrix: (Units=1/GPa)
#
#
# Indices 1 2 3 4 5 6 
#
# 1 0.023798 -0.005154 -0.007092 0.000000 0.000000 0.000000
# 2 -0.005154 0.017199 -0.010910 0.000000 0.000000 0.000000
# 3 -0.007092 -0.010910 0.026226 0.000000 0.000000 0.000000
# 4 0.000000 0.000000 0.000000 0.033279 0.000000 0.000000
# 5 0.000000 0.000000 0.000000 0.000000 0.052014 0.000000
# 6 0.000000 0.000000 0.000000 0.000000 0.000000 0.029985
#
#
# Mechanical properties :
#
#
# Convention : Reuss Voigt Hill
#
# Bulk Modulus (GPa) = 47.82043 53.37385 50.59714
# Shear Modulus (GPa) = 21.20579 23.76186 22.48382
#
# Velocity S-wave (km/s) = 3.42474 3.62527 3.52643
# Velocity P-wave (km/s) = 6.48751 6.85889 6.67578
#
# Compressibility (1/GPa) = 0.02091156
#
# Stress axis : x y z
#
# Youngs Moduli (GPa) = 42.01975 58.14126 38.12977
#
# Poissons Ratio (x) = 0.29968 0.27041
# Poissons Ratio (y) = 0.21658 0.41600
# Poissons Ratio (z) = 0.29800 0.63433
#
# Static dielectric constant tensor:
#      x y z
#    x 3.312850 0.000000 0.000000 
#    y 0.000000 3.702660 0.000000 
#    z 0.000000 0.000000 3.070040 
# 
# 
# High freq. dielectric constant tensor:
#      x y z
#    x 1.695490 0.000000 0.000000 
#    y 0.000000 1.719930 0.000000 
#    z 0.000000 0.000000 1.671370 
# 
# From -- ./inp_files/14583.got.cif
#   From: 2010.06.25/outbox.cif.g09.slc.cpg/sg58_8_cif.got.tgz:14583.got - 2010.06.26 21:38:00.
