data_PCOD8236742
_publ_section_title
;
Structure prediction by ZEFSAII (Michael W. Deem and Ramdas Pophale) SiO2 
 PCOD8236742
Probable space group: P N N M
;
_chemical_formula_sum "Si O2"
_cell_formula_units_Z 64
_cell_length_a 18.774631
_cell_length_b 19.993504
_cell_length_c 9.019786
_cell_angle_alpha 90.000000
_cell_angle_beta 90.000000
_cell_angle_gamma 90.000000
_cell_volume 3385.763024
_symmetry_space_group_name_H-M "P N N M"
_symmetry_group_IT_number 58
_symmetry_cell_setting 'orthorhombic'
loop_
_space_group_symop_operation_xyz
x,y,z
-x,-y,z
1/2+x,1/2-y,1/2-z
1/2-x,1/2+y,1/2-z
-x,-y,-z
x,y,-z
1/2-x,1/2+y,1/2+z
1/2+x,1/2-y,1/2+z
loop_
_atom_site_type_symbol
_atom_site_label
_atom_site_fract_x
_atom_site_fract_y
_atom_site_fract_z
Si Si1 0.454682 0.562997 0.171945
Si Si2 0.313409 0.741404 0.324238
Si Si3 0.058624 0.817604 0.670004
Si Si4 0.794694 0.159760 0.824704
Si Si5 0.556820 0.052395 0.824480
Si Si6 0.810824 0.910113 0.174795
Si Si7 0.714151 0.027982 0.175766
Si Si8 0.047521 0.295986 0.671709
O O1 0.500000 0.500000 0.225327
O O2 0.496479 0.630587 0.209069
O O3 0.382649 0.559581 0.262044
O O4 0.435433 0.558148 0.000000
O O5 0.309988 0.748704 0.500000
O O6 0.250901 0.783127 0.251772
O O7 0.299060 0.665493 0.271473
O O8 0.390284 0.764998 0.270092
O O9 0.084018 0.825889 0.500000
O O10 0.123852 0.831366 0.777982
O O11 0.026114 0.743841 0.697892
O O12 0.765130 0.088149 0.769653
O O13 0.788226 0.167439 0.000000
O O14 0.634995 0.036999 0.756922
O O15 0.533665 0.127478 0.780861
O O16 0.500000 0.000000 0.756184
O O17 0.559084 0.043914 0.000000
O O18 0.745847 0.957059 0.230399
O O19 0.817327 0.913461 0.000000
O O20 0.709410 0.030508 0.000000
O O21 0.071579 0.291292 0.500000
#
# Coordination Sequence:
#
# PCOD8236742 Si02
#       8
#     8   8   8   8   8   8   8   8
#     4  10  20  34  53  79 114 151 183 225 278 337
#     4  11  22  36  57  84 115 151 191 236 286 338
#     4  10  21  35  54  83 115 146 189 236 280 335
#     4  11  22  37  59  83 112 151 192 235 286 344
#     4   9  17  31  57  87 109 139 187 240 287 329
#     4  10  21  35  55  82 112 148 189 236 279 330
#     4   9  18  34  55  82 113 145 190 240 280 330
#     4  10  19  36  60  83 111 151 192 233 284 342
#
# _framework density 18.902681999999999
#
# number of rings (size 3 to 8) (size 9 to 14) (size 15 to 20)
#    0.000    2.000    2.500    1.500    0.000    2.750 
#    0.000    4.375    0.000    0.375    0.000    0.000 
#    0.000    0.000    0.000    0.000    0.000    0.000 
#
# Total GULP energy -793679.370311 kJ/mol
# GULP energy per Si atom -12401.240161 kJ/mol
# Density = 1.885966 g / cm^3
# Si number density = 18.902682 Si / 1000 Ang^3
#
#
#
# Elastic Constant Matrix: (Units=GPa)
#
#
# Indices 1 2 3 4 5 6 
#
# 1 102.3310 63.9821 12.8107 0.0000 0.0000 0.0000
# 2 63.9821 161.9901 29.3935 0.0000 0.0000 0.0000
# 3 12.8107 29.3935 18.2706 0.0000 0.0000 0.0000
# 4 0.0000 0.0000 0.0000 21.4320 0.0000 0.0000
# 5 0.0000 0.0000 0.0000 0.0000 32.1706 0.0000
# 6 0.0000 0.0000 0.0000 0.0000 0.0000 34.0436
#
#
#
# Elastic Compliance Matrix: (Units=1/GPa)
#
#
# Indices 1 2 3 4 5 6 
#
# 1 0.012996 -0.004914 -0.001206 0.000000 0.000000 0.000000
# 2 -0.004914 0.010576 -0.013570 0.000000 0.000000 0.000000
# 3 -0.001206 -0.013570 0.077409 0.000000 0.000000 0.000000
# 4 0.000000 0.000000 0.000000 0.046659 0.000000 0.000000
# 5 0.000000 0.000000 0.000000 0.000000 0.031084 0.000000
# 6 0.000000 0.000000 0.000000 0.000000 0.000000 0.029374
#
#
# Mechanical properties :
#
#
# Convention : Reuss Voigt Hill
#
# Bulk Modulus (GPa) = 16.23349 54.99603 35.61476
# Shear Modulus (GPa) = 18.65583 29.28960 23.97271
#
# Velocity S-wave (km/s) = 3.14497 3.94063 3.56507
# Velocity P-wave (km/s) = 4.66844 7.06132 5.98567
#
# Compressibility (1/GPa) = 0.06160106
#
# Stress axis : x y z
#
# Youngs Moduli (GPa) = 76.94818 94.55023 12.91838
#
# Poissons Ratio (x) = 0.46463 0.01559
# Poissons Ratio (y) = 0.37813 0.17530
# Poissons Ratio (z) = 0.09283 1.28300
#
# Static dielectric constant tensor:
#      x y z
#    x 3.549380 0.000000 0.000000 
#    y 0.000000 3.834600 0.000000 
#    z 0.000000 0.000000 3.202440 
# 
# 
# High freq. dielectric constant tensor:
#      x y z
#    x 1.737090 0.000000 0.000000 
#    y 0.000000 1.752240 0.000000 
#    z 0.000000 0.000000 1.703510 
# 
# From -- ./inp_files/9252.got.cif
#   From: 2010.06.25/outbox.cif.g09.slc.cpg/sg58_5_cif.got.tgz:9252.got - 2010.06.26 21:38:00.
