data_PCOD8236854
_publ_section_title
;
Structure prediction by ZEFSAII (Michael W. Deem and Ramdas Pophale) SiO2 
 PCOD8236854
Probable space group: P N N M
;
_chemical_formula_sum "Si O2"
_cell_formula_units_Z 56
_cell_length_a 16.204507
_cell_length_b 11.013391
_cell_length_c 14.756997
_cell_angle_alpha 90.000000
_cell_angle_beta 90.000000
_cell_angle_gamma 90.000000
_cell_volume 2633.630661
_symmetry_space_group_name_H-M "P N N M"
_symmetry_group_IT_number 58
_symmetry_cell_setting 'orthorhombic'
loop_
_space_group_symop_operation_xyz
x,y,z
-x,-y,z
1/2+x,1/2-y,1/2-z
1/2-x,1/2+y,1/2-z
-x,-y,-z
x,y,-z
1/2-x,1/2+y,1/2+z
1/2+x,1/2-y,1/2+z
loop_
_atom_site_type_symbol
_atom_site_label
_atom_site_fract_x
_atom_site_fract_y
_atom_site_fract_z
Si Si1 0.260576 0.183555 0.895944
Si Si2 0.325802 0.216992 0.399240
Si Si3 0.897258 0.729814 0.781850
Si Si4 0.840995 0.079160 0.659339
Si Si5 0.319643 0.016309 0.252975
Si Si6 0.454792 0.378185 0.680034
Si Si7 0.140941 0.176608 0.596609
O O1 0.177832 0.211869 0.838695
O O2 0.318581 0.301655 0.897502
O O3 0.311937 0.075723 0.846957
O O4 0.239734 0.147697 0.000000
O O5 0.345621 0.167127 0.500000
O O6 0.348835 0.117100 0.324703
O O7 0.376100 0.341474 0.381479
O O8 0.228652 0.245011 0.390485
O O9 0.889540 0.586975 0.762153
O O10 0.911517 0.793287 0.684422
O O11 0.982398 0.764249 0.831064
O O12 0.923866 0.100289 0.717311
O O13 0.767786 0.045289 0.728081
O O14 0.850175 0.968928 0.589252
O O15 0.500000 0.500000 0.643896
O O16 0.101575 0.218703 0.500000
#
# Coordination Sequence:
#
# PCOD8236854 Si02
#       7
#     8   8   8   8   8   8   8
#     4  11  21  39  66  91 118 161 218 267 304 359
#     4  10  21  39  65  90 119 163 210 255 303 365
#     4  11  23  37  60  94 129 165 198 256 313 381
#     4  10  19  39  63  89 117 166 212 256 301 363
#     4  10  20  40  63  85 121 160 214 254 303 356
#     4  12  22  39  63  90 135 166 194 247 324 381
#     4  10  19  38  65  91 117 159 215 261 299 354
#
# _framework density 21.263423
#
# number of rings (size 3 to 8) (size 9 to 14) (size 15 to 20)
#    0.000    1.429    5.714    1.286    0.000    5.429 
#    0.000    6.429    0.000    0.857    0.000    0.000 
#    0.000    0.000    0.000    0.000    0.000    0.000 
#
# Total GULP energy -694039.718274 kJ/mol
# GULP energy per Si atom -12393.566398 kJ/mol
# Density = 2.121503 g / cm^3
# Si number density = 21.263423 Si / 1000 Ang^3
#
#
#
# Elastic Constant Matrix: (Units=GPa)
#
#
# Indices 1 2 3 4 5 6 
#
# 1 51.6479 23.7049 1.3844 0.0000 0.0000 0.0000
# 2 23.7049 72.3691 20.1482 0.0000 0.0000 0.0000
# 3 1.3844 20.1482 126.1341 0.0000 0.0000 0.0000
# 4 0.0000 0.0000 0.0000 9.3095 0.0000 0.0000
# 5 0.0000 0.0000 0.0000 0.0000 7.4888 0.0000
# 6 0.0000 0.0000 0.0000 0.0000 0.0000 35.8665
#
#
#
# Elastic Compliance Matrix: (Units=1/GPa)
#
#
# Indices 1 2 3 4 5 6 
#
# 1 0.022906 -0.007779 0.000991 0.000000 0.000000 0.000000
# 2 -0.007779 0.017103 -0.002647 0.000000 0.000000 0.000000
# 3 0.000991 -0.002647 0.008340 0.000000 0.000000 0.000000
# 4 0.000000 0.000000 0.000000 0.107418 0.000000 0.000000
# 5 0.000000 0.000000 0.000000 0.000000 0.133532 0.000000
# 6 0.000000 0.000000 0.000000 0.000000 0.000000 0.027881
#
#
# Mechanical properties :
#
#
# Convention : Reuss Voigt Hill
#
# Bulk Modulus (GPa) = 33.92136 37.84735 35.88436
# Shear Modulus (GPa) = 14.45611 24.19387 19.32499
#
# Velocity S-wave (km/s) = 2.61024 3.37681 3.01796
# Velocity P-wave (km/s) = 5.00720 5.74819 5.39044
#
# Compressibility (1/GPa) = 0.02947995
#
# Stress axis : x y z
#
# Youngs Moduli (GPa) = 43.65753 58.46970 119.90483
#
# Poissons Ratio (x) = 0.45482 -0.11885
# Poissons Ratio (y) = 0.33960 0.31734
# Poissons Ratio (z) = -0.04327 0.15474
#
# Static dielectric constant tensor:
#      x y z
#    x 3.604280 0.000000 0.000000 
#    y 0.000000 3.941040 0.000000 
#    z 0.000000 0.000000 3.735700 
# 
# 
# High freq. dielectric constant tensor:
#      x y z
#    x 1.809200 0.000000 0.000000 
#    y 0.000000 1.832700 0.000000 
#    z 0.000000 0.000000 1.825810 
# 
# From -- ./inp_files/22200.got.cif
#   From: 2010.06.25/outbox.cif.g09.slc.cpg/sg58_12_cif.got.tgz:22200.got - 2010.06.26 21:38:00.
