data_PCOD8236678
_publ_section_title
;
Structure prediction by ZEFSAII (Michael W. Deem and Ramdas Pophale) SiO2 
 PCOD8236678
Probable space group: P N N M
;
_chemical_formula_sum "Si O2"
_cell_formula_units_Z 64
_cell_length_a 23.111561
_cell_length_b 9.298579
_cell_length_c 14.415353
_cell_angle_alpha 90.000000
_cell_angle_beta 90.000000
_cell_angle_gamma 90.000000
_cell_volume 3097.926763
_symmetry_space_group_name_H-M "P N N M"
_symmetry_group_IT_number 58
_symmetry_cell_setting 'orthorhombic'
loop_
_space_group_symop_operation_xyz
x,y,z
-x,-y,z
1/2+x,1/2-y,1/2-z
1/2-x,1/2+y,1/2-z
-x,-y,-z
x,y,-z
1/2-x,1/2+y,1/2+z
1/2+x,1/2-y,1/2+z
loop_
_atom_site_type_symbol
_atom_site_label
_atom_site_fract_x
_atom_site_fract_y
_atom_site_fract_z
Si Si1 0.065534 0.011168 0.103422
Si Si2 0.894824 0.146222 0.273211
Si Si3 0.686005 0.158156 0.101419
Si Si4 0.318477 0.933837 0.711389
Si Si5 0.913513 0.870286 0.604436
Si Si6 0.497602 0.841343 0.783390
Si Si7 0.726615 0.759831 0.728671
Si Si8 0.573918 0.160299 0.604874
O O1 0.090054 0.171982 0.105621
O O2 0.104254 0.914890 0.169306
O O3 0.067797 0.945940 0.000000
O O4 0.000000 0.000000 0.141853
O O5 0.830226 0.204753 0.280793
O O6 0.938130 0.278525 0.285565
O O7 0.910985 0.025906 0.348371
O O8 0.656222 0.060153 0.181955
O O9 0.651258 0.308533 0.100202
O O10 0.753537 0.186016 0.130552
O O11 0.683728 0.083424 0.000000
O O12 0.279399 0.787278 0.701515
O O13 0.370203 0.931589 0.637518
O O14 0.277613 0.072735 0.702648
O O15 0.938500 0.887021 0.500000
O O16 0.954341 0.763820 0.662685
O O17 0.478742 0.862809 0.675751
O O18 0.500000 0.000000 0.830111
O O19 0.556814 0.111950 0.500000
#
# Coordination Sequence:
#
# PCOD8236678 Si02
#       8
#     8   8   8   8   8   8   8   8
#     4  10  19  35  60  91 123 164 209 248 298 368
#     4  12  22  38  64  92 127 165 206 261 310 377
#     4   9  20  39  68  90 120 162 205 258 316 366
#     4  10  21  42  62  87 127 165 206 259 312 365
#     4  11  23  44  70  92 120 166 219 266 314 371
#     4  12  24  40  64  94 131 169 203 255 325 372
#     4  10  23  38  65  91 127 162 209 255 313 380
#     4  11  22  39  64  94 128 166 209 256 311 374
#
# _framework density 20.658978000000001
#
# number of rings (size 3 to 8) (size 9 to 14) (size 15 to 20)
#    0.750    0.625    3.750    1.875    1.750    2.500 
#    0.000    3.125    0.000    0.000    0.000    0.000 
#    0.000    0.000    0.000    0.000    0.000    0.000 
#
# Total GULP energy -792840.261364 kJ/mol
# GULP energy per Si atom -12388.129084 kJ/mol
# Density = 2.061196 g / cm^3
# Si number density = 20.658978 Si / 1000 Ang^3
#
#
#
# Elastic Constant Matrix: (Units=GPa)
#
#
# Indices 1 2 3 4 5 6 
#
# 1 86.6513 15.5338 29.6587 0.0000 0.0000 0.0000
# 2 15.5338 70.2095 19.7176 0.0000 0.0000 0.0000
# 3 29.6587 19.7176 122.1585 0.0000 0.0000 0.0000
# 4 0.0000 0.0000 0.0000 10.4772 0.0000 0.0000
# 5 0.0000 0.0000 0.0000 0.0000 22.2769 0.0000
# 6 0.0000 0.0000 0.0000 0.0000 0.0000 35.8843
#
#
#
# Elastic Compliance Matrix: (Units=1/GPa)
#
#
# Indices 1 2 3 4 5 6 
#
# 1 0.012865 -0.002063 -0.002791 0.000000 0.000000 0.000000
# 2 -0.002063 0.015250 -0.001961 0.000000 0.000000 0.000000
# 3 -0.002791 -0.001961 0.009180 0.000000 0.000000 0.000000
# 4 0.000000 0.000000 0.000000 0.095445 0.000000 0.000000
# 5 0.000000 0.000000 0.000000 0.000000 0.044890 0.000000
# 6 0.000000 0.000000 0.000000 0.000000 0.000000 0.027867
#
#
# Mechanical properties :
#
#
# Convention : Reuss Voigt Hill
#
# Bulk Modulus (GPa) = 42.25206 45.42660 43.83933
# Shear Modulus (GPa) = 22.02493 28.00162 25.01328
#
# Velocity S-wave (km/s) = 3.26869 3.68560 3.48339
# Velocity P-wave (km/s) = 5.89426 6.33625 6.11925
#
# Compressibility (1/GPa) = 0.02366749
#
# Stress axis : x y z
#
# Youngs Moduli (GPa) = 77.72747 65.57325 108.93129
#
# Poissons Ratio (x) = 0.13526 0.30399
# Poissons Ratio (y) = 0.16033 0.21358
# Poissons Ratio (z) = 0.21691 0.12857
#
# Static dielectric constant tensor:
#      x y z
#    x 3.645650 0.000000 0.000000 
#    y 0.000000 3.692660 0.000000 
#    z 0.000000 0.000000 3.831390 
# 
# 
# High freq. dielectric constant tensor:
#      x y z
#    x 1.802480 0.000000 0.000000 
#    y 0.000000 1.799430 0.000000 
#    z 0.000000 0.000000 1.797250 
# 
# From -- ./inp_files/23537.got.cif
#   From: 2010.06.25/outbox.cif.g09.slc.cpg/sg58_12_cif.got.tgz:23537.got - 2010.06.26 21:38:00.
