data_PCOD8236619
_publ_section_title
;
Structure prediction by ZEFSAII (Michael W. Deem and Ramdas Pophale) SiO2 
 PCOD8236619
Probable space group: P N N M
;
_chemical_formula_sum "Si O2"
_cell_formula_units_Z 64
_cell_length_a 15.854149
_cell_length_b 23.128310
_cell_length_c 8.394693
_cell_angle_alpha 90.000000
_cell_angle_beta 90.000000
_cell_angle_gamma 90.000000
_cell_volume 3078.163283
_symmetry_space_group_name_H-M "P N N M"
_symmetry_group_IT_number 58
_symmetry_cell_setting 'orthorhombic'
loop_
_space_group_symop_operation_xyz
x,y,z
-x,-y,z
1/2+x,1/2-y,1/2-z
1/2-x,1/2+y,1/2-z
-x,-y,-z
x,y,-z
1/2-x,1/2+y,1/2+z
1/2+x,1/2-y,1/2+z
loop_
_atom_site_type_symbol
_atom_site_label
_atom_site_fract_x
_atom_site_fract_y
_atom_site_fract_z
Si Si1 0.246133 0.303615 0.185193
Si Si2 0.190516 0.694254 0.812425
Si Si3 0.482832 0.147544 0.679196
Si Si4 0.429580 0.957191 0.182917
Si Si5 0.743354 0.569604 0.688626
Si Si6 0.904382 0.987668 0.310363
Si Si7 0.576687 0.244495 0.818005
Si Si8 0.642243 0.362949 0.813592
O O1 0.319606 0.256155 0.221411
O O2 0.273401 0.368029 0.233334
O O3 0.169253 0.282100 0.293652
O O4 0.221562 0.303538 0.000000
O O5 0.115083 0.649726 0.776304
O O6 0.269778 0.659213 0.741097
O O7 0.198016 0.707239 0.000000
O O8 0.498289 0.125516 0.500000
O O9 0.534926 0.107435 0.798602
O O10 0.513384 0.213499 0.697587
O O11 0.333183 0.958189 0.252310
O O12 0.500000 0.000000 0.265701
O O13 0.423562 0.974751 0.000000
O O14 0.749118 0.577057 0.500000
O O15 0.663792 0.530498 0.734281
O O16 0.896590 0.992101 0.500000
O O17 0.885218 0.923916 0.240035
O O18 0.000000 0.000000 0.255164
O O19 0.573228 0.313032 0.779162
O O20 0.549930 0.233293 0.000000
O O21 0.654551 0.371920 0.000000
#
# Coordination Sequence:
#
# PCOD8236619 Si02
#       8
#     8   8   8   8   8   8   8   8
#     4  11  21  36  59  87 114 149 200 249 296 357
#     4   9  20  37  56  83 119 157 191 236 300 367
#     4  11  22  35  57  91 123 154 199 245 293 359
#     4  10  23  41  60  85 122 166 208 250 304 369
#     4  11  23  40  63  88 122 166 202 249 310 365
#     4  10  22  40  62  89 118 153 205 261 303 355
#     4  10  19  35  58  81 115 159 193 239 302 358
#     4   8  17  36  59  79 110 154 195 237 297 354
#
# _framework density 20.791620000000002
#
# number of rings (size 3 to 8) (size 9 to 14) (size 15 to 20)
#    0.000    2.000    1.250    3.000    1.750    3.000 
#    0.000    4.375    0.000    0.000    0.000    0.000 
#    0.000    0.000    0.000    0.000    0.000    0.000 
#
# Total GULP energy -793178.657954 kJ/mol
# GULP energy per Si atom -12393.416531 kJ/mol
# Density = 2.074430 g / cm^3
# Si number density = 20.791620 Si / 1000 Ang^3
#
#
#
# Elastic Constant Matrix: (Units=GPa)
#
#
# Indices 1 2 3 4 5 6 
#
# 1 122.1581 59.0836 19.8753 0.0000 0.0000 0.0000
# 2 59.0836 143.1094 16.3515 0.0000 0.0000 0.0000
# 3 19.8753 16.3515 35.3676 0.0000 0.0000 0.0000
# 4 0.0000 0.0000 0.0000 23.2368 0.0000 0.0000
# 5 0.0000 0.0000 0.0000 0.0000 20.6700 0.0000
# 6 0.0000 0.0000 0.0000 0.0000 0.0000 28.0674
#
#
#
# Elastic Compliance Matrix: (Units=1/GPa)
#
#
# Indices 1 2 3 4 5 6 
#
# 1 0.010796 -0.003974 -0.004230 0.000000 0.000000 0.000000
# 2 -0.003974 0.008840 -0.001854 0.000000 0.000000 0.000000
# 3 -0.004230 -0.001854 0.031509 0.000000 0.000000 0.000000
# 4 0.000000 0.000000 0.000000 0.043035 0.000000 0.000000
# 5 0.000000 0.000000 0.000000 0.000000 0.048379 0.000000
# 6 0.000000 0.000000 0.000000 0.000000 0.000000 0.035629
#
#
# Mechanical properties :
#
#
# Convention : Reuss Voigt Hill
#
# Bulk Modulus (GPa) = 32.22717 54.58400 43.40558
# Shear Modulus (GPa) = 23.96392 28.08316 26.02354
#
# Velocity S-wave (km/s) = 3.39864 3.67917 3.54168
# Velocity P-wave (km/s) = 5.56190 6.66020 6.13568
#
# Compressibility (1/GPa) = 0.03102972
#
# Stress axis : x y z
#
# Youngs Moduli (GPa) = 92.62316 113.11975 31.73736
#
# Poissons Ratio (x) = 0.44955 0.13425
# Poissons Ratio (y) = 0.36809 0.05883
# Poissons Ratio (z) = 0.39179 0.20970
#
# Static dielectric constant tensor:
#      x y z
#    x 3.970020 0.000000 0.000000 
#    y 0.000000 4.019060 0.000000 
#    z 0.000000 0.000000 3.450150 
# 
# 
# High freq. dielectric constant tensor:
#      x y z
#    x 1.810480 0.000000 0.000000 
#    y 0.000000 1.820190 0.000000 
#    z 0.000000 0.000000 1.790450 
# 
# From -- ./inp_files/6759.got.cif
#   From: 2010.06.25/outbox.cif.g09.slc.cpg/sg58_4_cif.got.tgz:6759.got - 2010.06.26 21:38:00.
