data_PCOD8236397
_publ_section_title
;
Structure prediction by ZEFSAII (Michael W. Deem and Ramdas Pophale) SiO2 
 PCOD8236397
Probable space group: P N N M
;
_chemical_formula_sum "Si O2"
_cell_formula_units_Z 64
_cell_length_a 9.759678
_cell_length_b 13.978095
_cell_length_c 24.568524
_cell_angle_alpha 90.000000
_cell_angle_beta 90.000000
_cell_angle_gamma 90.000000
_cell_volume 3351.679964
_symmetry_space_group_name_H-M "P N N M"
_symmetry_group_IT_number 58
_symmetry_cell_setting 'orthorhombic'
loop_
_space_group_symop_operation_xyz
x,y,z
-x,-y,z
1/2+x,1/2-y,1/2-z
1/2-x,1/2+y,1/2-z
-x,-y,-z
x,y,-z
1/2-x,1/2+y,1/2+z
1/2+x,1/2-y,1/2+z
loop_
_atom_site_type_symbol
_atom_site_label
_atom_site_fract_x
_atom_site_fract_y
_atom_site_fract_z
Si Si1 0.687378 0.579652 0.372713
Si Si2 0.211101 0.862628 0.751288
Si Si3 0.840651 0.974589 0.327206
Si Si4 0.154264 0.969177 0.558928
Si Si5 0.403512 0.687327 0.750322
Si Si6 0.448748 0.895559 0.063631
Si Si7 0.611022 0.369530 0.371159
Si Si8 0.187152 0.747356 0.562651
O O1 0.709954 0.583845 0.308484
O O2 0.809851 0.630298 0.404850
O O3 0.677647 0.468973 0.390812
O O4 0.548099 0.634873 0.388228
O O5 0.340471 0.792493 0.749421
O O6 0.067603 0.806978 0.740039
O O7 0.238425 0.943521 0.706093
O O8 0.826230 0.871879 0.298187
O O9 0.781049 0.973165 0.389553
O O10 0.000000 0.000000 0.328882
O O11 0.229519 0.988160 0.500000
O O12 0.155385 0.857359 0.573680
O O13 0.000000 0.000000 0.550943
O O14 0.373121 0.635079 0.693676
O O15 0.557002 0.815110 0.081114
O O16 0.500000 0.000000 0.081950
O O17 0.416933 0.892701 0.000000
O O18 0.683613 0.281237 0.400708
O O19 0.222616 0.726117 0.500000
#
# Coordination Sequence:
#
# PCOD8236397 Si02
#       8
#     8   8   8   8   8   8   8   8
#     4  10  20  33  51  74 109 146 184 220 275 329
#     4  10  20  35  52  78 106 142 182 224 268 326
#     4   9  17  32  53  74 103 142 174 213 267 321
#     4   9  18  32  52  80 107 134 178 230 274 321
#     4  10  20  35  55  77 108 142 182 221 272 322
#     4  10  20  34  50  76 113 144 174 221 274 325
#     4  10  19  34  53  74 107 150 184 228 263 329
#     4  10  20  34  55  82 109 142 187 231 274 328
#
# _framework density 19.094902999999999
#
# number of rings (size 3 to 8) (size 9 to 14) (size 15 to 20)
#    0.000    2.250    2.500    0.750    0.000    4.500 
#    0.000    1.875    0.000    0.000    0.000    2.625 
#    0.000   22.000    0.000    0.000    0.000    0.000 
#
# Total GULP energy -793438.735241 kJ/mol
# GULP energy per Si atom -12397.480238 kJ/mol
# Density = 1.905144 g / cm^3
# Si number density = 19.094903 Si / 1000 Ang^3
#
#
#
# Elastic Constant Matrix: (Units=GPa)
#
#
# Indices 1 2 3 4 5 6 
#
# 1 66.9809 18.0621 34.0827 0.0000 0.0000 0.0000
# 2 18.0621 55.4615 21.2822 0.0000 0.0000 0.0000
# 3 34.0827 21.2822 95.7122 0.0000 0.0000 0.0000
# 4 0.0000 0.0000 0.0000 24.2512 0.0000 0.0000
# 5 0.0000 0.0000 0.0000 0.0000 25.5908 0.0000
# 6 0.0000 0.0000 0.0000 0.0000 0.0000 29.1498
#
#
#
# Elastic Compliance Matrix: (Units=1/GPa)
#
#
# Indices 1 2 3 4 5 6 
#
# 1 0.018983 -0.003923 -0.005888 0.000000 0.000000 0.000000
# 2 -0.003923 0.020523 -0.003166 0.000000 0.000000 0.000000
# 3 -0.005888 -0.003166 0.013249 0.000000 0.000000 0.000000
# 4 0.000000 0.000000 0.000000 0.041235 0.000000 0.000000
# 5 0.000000 0.000000 0.000000 0.000000 0.039076 0.000000
# 6 0.000000 0.000000 0.000000 0.000000 0.000000 0.034306
#
#
# Mechanical properties :
#
#
# Convention : Reuss Voigt Hill
#
# Bulk Modulus (GPa) = 37.31211 40.55652 38.93431
# Shear Modulus (GPa) = 24.72064 25.44688 25.08376
#
# Velocity S-wave (km/s) = 3.60199 3.65451 3.62834
# Velocity P-wave (km/s) = 6.07304 6.25243 6.16339
#
# Compressibility (1/GPa) = 0.02680095
#
# Stress axis : x y z
#
# Youngs Moduli (GPa) = 52.67772 48.72532 75.47965
#
# Poissons Ratio (x) = 0.19115 0.44439
# Poissons Ratio (y) = 0.20666 0.23901
# Poissons Ratio (z) = 0.31014 0.15429
#
# Static dielectric constant tensor:
#      x y z
#    x 3.346870 0.000000 0.000000 
#    y 0.000000 3.480530 0.000000 
#    z 0.000000 0.000000 3.864390 
# 
# 
# High freq. dielectric constant tensor:
#      x y z
#    x 1.710460 0.000000 0.000000 
#    y 0.000000 1.733990 0.000000 
#    z 0.000000 0.000000 1.754320 
# 
# From -- ./inp_files/31639.got.cif
#   From: 2010.06.25/outbox.cif.g09.slc.cpg/sg58_16_cif.got.tgz:31639.got - 2010.06.26 21:38:00.
