data_PCOD8236329
_publ_section_title
;
Structure prediction by ZEFSAII (Michael W. Deem and Ramdas Pophale) SiO2 
 PCOD8236329
Probable space group: P N N M
;
_chemical_formula_sum "Si O2"
_cell_formula_units_Z 48
_cell_length_a 28.721012
_cell_length_b 10.198882
_cell_length_c 9.237603
_cell_angle_alpha 90.000000
_cell_angle_beta 90.000000
_cell_angle_gamma 90.000000
_cell_volume 2705.899107
_symmetry_space_group_name_H-M "P N N M"
_symmetry_group_IT_number 58
_symmetry_cell_setting 'orthorhombic'
loop_
_space_group_symop_operation_xyz
x,y,z
-x,-y,z
1/2+x,1/2-y,1/2-z
1/2-x,1/2+y,1/2-z
-x,-y,-z
x,y,-z
1/2-x,1/2+y,1/2+z
1/2+x,1/2-y,1/2+z
loop_
_atom_site_type_symbol
_atom_site_label
_atom_site_fract_x
_atom_site_fract_y
_atom_site_fract_z
Si Si1 0.375464 0.509446 0.333881
Si Si2 0.483416 0.137833 0.167588
Si Si3 0.613063 0.746426 0.835682
Si Si4 0.027094 0.126411 0.834246
Si Si5 0.282923 0.517903 0.170724
Si Si6 0.717490 0.785552 0.834436
O O1 0.360098 0.492178 0.500000
O O2 0.394206 0.371322 0.275478
O O3 0.417306 0.612488 0.318832
O O4 0.331677 0.560410 0.242113
O O5 0.427933 0.149888 0.193231
O O6 0.512632 0.248788 0.244639
O O7 0.500000 0.000000 0.233379
O O8 0.496303 0.147237 0.000000
O O9 0.662812 0.815437 0.811783
O O10 0.610852 0.690485 0.000000
O O11 0.012102 0.147169 0.000000
O O12 0.000000 0.000000 0.771514
O O13 0.271603 0.365852 0.208445
O O14 0.243458 0.613818 0.230236
O O15 0.287279 0.537085 0.000000
O O16 0.732675 0.811236 0.000000
#
# Coordination Sequence:
#
# PCOD8236329 Si02
#       6
#     8   8   8   8   8   8
#     4  10  19  33  56  81 108 139 178 225 271 317
#     4  10  21  36  54  79 113 147 181 222 268 318
#     4   9  18  34  55  78 108 144 182 221 265 318
#     4  10  20  35  55  81 109 139 180 224 264 315
#     4  10  21  37  57  82 110 139 179 223 267 323
#     4   9  19  36  56  78 108 141 178 224 269 318
#
# _framework density 17.739021000000001
#
# number of rings (size 3 to 8) (size 9 to 14) (size 15 to 20)
#    0.000    2.333    1.667    2.000    0.000    5.333 
#    3.000    0.000    0.000    0.000    0.000    0.000 
#    0.000    0.000    0.000    0.000    0.000    0.000 
#
# Total GULP energy -595222.268422 kJ/mol
# GULP energy per Si atom -12400.463925 kJ/mol
# Density = 1.769865 g / cm^3
# Si number density = 17.739021 Si / 1000 Ang^3
#
#
#
# Elastic Constant Matrix: (Units=GPa)
#
#
# Indices 1 2 3 4 5 6 
#
# 1 115.6315 70.7938 59.6283 0.0000 0.0000 0.0000
# 2 70.7938 119.6081 60.3093 0.0000 0.0000 0.0000
# 3 59.6283 60.3093 89.8548 0.0000 0.0000 0.0000
# 4 0.0000 0.0000 0.0000 32.2058 0.0000 0.0000
# 5 0.0000 0.0000 0.0000 0.0000 31.6804 0.0000
# 6 0.0000 0.0000 0.0000 0.0000 0.0000 30.0752
#
#
#
# Elastic Compliance Matrix: (Units=1/GPa)
#
#
# Indices 1 2 3 4 5 6 
#
# 1 0.015602 -0.006067 -0.006281 0.000000 0.000000 0.000000
# 2 -0.006067 0.014997 -0.006039 0.000000 0.000000 0.000000
# 3 -0.006281 -0.006039 0.019351 0.000000 0.000000 0.000000
# 4 0.000000 0.000000 0.000000 0.031050 0.000000 0.000000
# 5 0.000000 0.000000 0.000000 0.000000 0.031565 0.000000
# 6 0.000000 0.000000 0.000000 0.000000 0.000000 0.033250
#
#
# Mechanical properties :
#
#
# Convention : Reuss Voigt Hill
#
# Bulk Modulus (GPa) = 75.90819 78.50636 77.20728
# Shear Modulus (GPa) = 26.74046 27.74982 27.24514
#
# Velocity S-wave (km/s) = 3.88679 3.95946 3.92329
# Velocity P-wave (km/s) = 7.93898 8.07809 8.00883
#
# Compressibility (1/GPa) = 0.01317381
#
# Stress axis : x y z
#
# Youngs Moduli (GPa) = 64.09498 66.67998 51.67713
#
# Poissons Ratio (x) = 0.40457 0.32459
# Poissons Ratio (y) = 0.38888 0.31210
# Poissons Ratio (z) = 0.40259 0.40271
#
# Static dielectric constant tensor:
#      x y z
#    x 3.427970 0.000000 0.000000 
#    y 0.000000 3.164320 0.000000 
#    z 0.000000 0.000000 3.324670 
# 
# 
# High freq. dielectric constant tensor:
#      x y z
#    x 1.695930 0.000000 0.000000 
#    y 0.000000 1.664910 0.000000 
#    z 0.000000 0.000000 1.691110 
# 
# From -- ./inp_files/2860.got.cif
#   From: 2010.06.25/outbox.cif.g09.slc.cpg/sg58_2_cif.got.tgz:2860.got - 2010.06.26 21:38:00.
