data_PCOD8236363
_publ_section_title
;
Structure prediction by ZEFSAII (Michael W. Deem and Ramdas Pophale) SiO2 
 PCOD8236363
Probable space group: P N N M
;
_chemical_formula_sum "Si O2"
_cell_formula_units_Z 48
_cell_length_a 10.297223
_cell_length_b 28.263377
_cell_length_c 8.496589
_cell_angle_alpha 90.000000
_cell_angle_beta 90.000000
_cell_angle_gamma 90.000000
_cell_volume 2472.798795
_symmetry_space_group_name_H-M "P N N M"
_symmetry_group_IT_number 58
_symmetry_cell_setting 'orthorhombic'
loop_
_space_group_symop_operation_xyz
x,y,z
-x,-y,z
1/2+x,1/2-y,1/2-z
1/2-x,1/2+y,1/2-z
-x,-y,-z
x,y,-z
1/2-x,1/2+y,1/2+z
1/2+x,1/2-y,1/2+z
loop_
_atom_site_type_symbol
_atom_site_label
_atom_site_fract_x
_atom_site_fract_y
_atom_site_fract_z
Si Si1 0.260867 0.852269 0.315483
Si Si2 0.242178 0.641345 0.815226
Si Si3 0.356541 0.953312 0.681743
Si Si4 0.363288 0.050459 0.182309
Si Si5 0.994590 0.805513 0.313903
Si Si6 0.004976 0.698603 0.315707
O O1 0.285821 0.842615 0.500000
O O2 0.268635 0.908035 0.277196
O O3 0.119987 0.834929 0.259707
O O4 0.364899 0.823789 0.214096
O O5 0.239885 0.590208 0.731784
O O6 0.365930 0.669418 0.745314
O O7 0.112339 0.670271 0.780411
O O8 0.255606 0.633106 0.000000
O O9 0.345556 0.966887 0.500000
O O10 0.505472 0.941033 0.719971
O O11 0.306121 0.998306 0.781457
O O12 0.397530 0.054822 0.000000
O O13 0.983399 0.803850 0.500000
O O14 0.004219 0.752105 0.250028
O O15 0.038362 0.696146 0.500000
#
# Coordination Sequence:
#
# PCOD8236363 Si02
#       6
#     8   8   8   8   8   8
#     4  10  20  37  59  82 111 146 186 229 275 328
#     4  11  21  37  58  81 112 149 189 228 272 330
#     4  10  19  33  57  84 109 141 185 228 278 334
#     4  11  21  34  55  82 113 142 180 231 283 327
#     4   9  21  38  56  81 113 149 187 229 274 328
#     4  11  21  35  57  84 113 145 187 232 277 326
#
# _framework density 19.411203
#
# number of rings (size 3 to 8) (size 9 to 14) (size 15 to 20)
#    0.000    1.667    1.667    5.000    0.000    0.667 
#    0.000    5.833    0.000    5.000    0.000    0.000 
#    0.000    0.000    0.000    0.000    0.000    0.000 
#
# Total GULP energy -595365.147389 kJ/mol
# GULP energy per Si atom -12403.440571 kJ/mol
# Density = 1.936702 g / cm^3
# Si number density = 19.411203 Si / 1000 Ang^3
#
#
#
# Elastic Constant Matrix: (Units=GPa)
#
#
# Indices 1 2 3 4 5 6 
#
# 1 95.1249 56.7123 7.7894 0.0000 0.0000 0.0000
# 2 56.7123 160.1973 30.3080 0.0000 0.0000 0.0000
# 3 7.7894 30.3080 38.2027 0.0000 0.0000 0.0000
# 4 0.0000 0.0000 0.0000 27.2183 0.0000 0.0000
# 5 0.0000 0.0000 0.0000 0.0000 12.5894 0.0000
# 6 0.0000 0.0000 0.0000 0.0000 0.0000 16.1274
#
#
#
# Elastic Compliance Matrix: (Units=1/GPa)
#
#
# Indices 1 2 3 4 5 6 
#
# 1 0.013372 -0.004963 0.001211 0.000000 0.000000 0.000000
# 2 -0.004963 0.009187 -0.006276 0.000000 0.000000 0.000000
# 3 0.001211 -0.006276 0.030909 0.000000 0.000000 0.000000
# 4 0.000000 0.000000 0.000000 0.036740 0.000000 0.000000
# 5 0.000000 0.000000 0.000000 0.000000 0.079432 0.000000
# 6 0.000000 0.000000 0.000000 0.000000 0.000000 0.062006
#
#
# Mechanical properties :
#
#
# Convention : Reuss Voigt Hill
#
# Bulk Modulus (GPa) = 29.93066 53.68271 41.80669
# Shear Modulus (GPa) = 19.02300 24.43469 21.72885
#
# Velocity S-wave (km/s) = 3.13389 3.55180 3.34937
# Velocity P-wave (km/s) = 5.34301 6.67352 6.04499
#
# Compressibility (1/GPa) = 0.03341055
#
# Stress axis : x y z
#
# Youngs Moduli (GPa) = 74.78164 108.85258 32.35345
#
# Poissons Ratio (x) = 0.54024 -0.03918
# Poissons Ratio (y) = 0.37115 0.20306
# Poissons Ratio (z) = -0.09055 0.68319
#
# Static dielectric constant tensor:
#      x y z
#    x 3.441040 0.000000 0.000000 
#    y 0.000000 3.904260 0.000000 
#    z 0.000000 0.000000 3.370620 
# 
# 
# High freq. dielectric constant tensor:
#      x y z
#    x 1.733340 0.000000 0.000000 
#    y 0.000000 1.776450 0.000000 
#    z 0.000000 0.000000 1.746450 
# 
# From -- ./inp_files/2940.got.cif
#   From: 2010.06.25/outbox.cif.g09.slc.cpg/sg58_2_cif.got.tgz:2940.got - 2010.06.26 21:38:00.
