data_PCOD8236701
_publ_section_title
;
Structure prediction by ZEFSAII (Michael W. Deem and Ramdas Pophale) SiO2 
 PCOD8236701
Probable space group: P N N M
;
_chemical_formula_sum "Si O2"
_cell_formula_units_Z 64
_cell_length_a 7.857971
_cell_length_b 31.431682
_cell_length_c 13.143614
_cell_angle_alpha 90.000000
_cell_angle_beta 90.000000
_cell_angle_gamma 90.000000
_cell_volume 3246.331307
_symmetry_space_group_name_H-M "P N N M"
_symmetry_group_IT_number 58
_symmetry_cell_setting 'orthorhombic'
loop_
_space_group_symop_operation_xyz
x,y,z
-x,-y,z
1/2+x,1/2-y,1/2-z
1/2-x,1/2+y,1/2-z
-x,-y,-z
x,y,-z
1/2-x,1/2+y,1/2+z
1/2+x,1/2-y,1/2+z
loop_
_atom_site_type_symbol
_atom_site_label
_atom_site_fract_x
_atom_site_fract_y
_atom_site_fract_z
Si Si1 0.327549 0.853997 0.884980
Si Si2 0.800652 0.501931 0.886864
Si Si3 0.629015 0.713673 0.260212
Si Si4 0.282613 0.134530 0.890339
Si Si5 0.308608 0.909418 0.299843
Si Si6 0.008549 0.855093 0.614022
Si Si7 0.833413 0.772765 0.115735
Si Si8 0.707431 0.910539 0.688556
O O1 0.268291 0.812911 0.822302
O O2 0.527132 0.847977 0.892391
O O3 0.284105 0.896518 0.819151
O O4 0.248635 0.857276 0.000000
O O5 0.754003 0.541494 0.814170
O O6 0.736801 0.458865 0.833577
O O7 0.000000 0.500000 0.900831
O O8 0.718321 0.506795 0.000000
O O9 0.506329 0.683541 0.193091
O O10 0.699850 0.748818 0.185004
O O11 0.520073 0.739491 0.343640
O O12 0.169898 0.176174 0.871375
O O13 0.251612 0.098342 0.806894
O O14 0.236718 0.114023 0.000000
O O15 0.180423 0.882454 0.368941
O O16 0.506476 0.901822 0.335118
O O17 0.017775 0.837154 0.500000
O O18 0.831164 0.880849 0.622703
O O19 0.808171 0.757957 0.000000
#
# Coordination Sequence:
#
# PCOD8236701 Si02
#       8
#     8   8   8   8   8   8   8   8
#     4   9  18  35  59  82 108 147 189 231 284 340
#     4   9  17  31  53  80 113 154 194 234 286 340
#     4  11  22  38  58  83 116 142 189 240 284 356
#     4   9  18  35  58  80 105 144 188 232 284 340
#     4   9  20  35  55  81 117 152 190 240 282 338
#     4  11  22  36  56  84 113 149 192 236 285 342
#     4  11  22  38  60  82 112 149 184 235 297 346
#     4  10  19  36  56  81 113 153 192 237 284 345
#
# _framework density 19.714562999999998
#
# number of rings (size 3 to 8) (size 9 to 14) (size 15 to 20)
#    0.000    2.125    1.250    2.250    0.000    2.000 
#    0.000    3.750    0.000    3.750    0.000    2.625 
#    0.000    0.000    0.000    0.000    0.000    0.000 
#
# Total GULP energy -793160.300542 kJ/mol
# GULP energy per Si atom -12393.129696 kJ/mol
# Density = 1.966969 g / cm^3
# Si number density = 19.714563 Si / 1000 Ang^3
#
#
#
# Elastic Constant Matrix: (Units=GPa)
#
#
# Indices 1 2 3 4 5 6 
#
# 1 51.4944 -2.9724 14.4036 0.0000 0.0000 0.0000
# 2 -2.9724 37.7723 25.4199 0.0000 0.0000 0.0000
# 3 14.4036 25.4199 139.6353 0.0000 0.0000 0.0000
# 4 0.0000 0.0000 0.0000 30.7904 0.0000 0.0000
# 5 0.0000 0.0000 0.0000 0.0000 25.2057 0.0000
# 6 0.0000 0.0000 0.0000 0.0000 0.0000 23.0888
#
#
#
# Elastic Compliance Matrix: (Units=1/GPa)
#
#
# Indices 1 2 3 4 5 6 
#
# 1 0.020381 0.003440 -0.002729 0.000000 0.000000 0.000000
# 2 0.003440 0.030751 -0.005953 0.000000 0.000000 0.000000
# 3 -0.002729 -0.005953 0.008527 0.000000 0.000000 0.000000
# 4 0.000000 0.000000 0.000000 0.032478 0.000000 0.000000
# 5 0.000000 0.000000 0.000000 0.000000 0.039674 0.000000
# 6 0.000000 0.000000 0.000000 0.000000 0.000000 0.043311
#
#
# Mechanical properties :
#
#
# Convention : Reuss Voigt Hill
#
# Bulk Modulus (GPa) = 20.33488 33.62268 26.97878
# Shear Modulus (GPa) = 24.75287 28.62038 26.68663
#
# Velocity S-wave (km/s) = 3.54724 3.81430 3.68319
# Velocity P-wave (km/s) = 5.20713 6.04072 5.63935
#
# Compressibility (1/GPa) = 0.04917659
#
# Stress axis : x y z
#
# Youngs Moduli (GPa) = 49.06436 32.51886 117.27882
#
# Poissons Ratio (x) = -0.11187 0.32001
# Poissons Ratio (y) = -0.16879 0.69816
# Poissons Ratio (z) = 0.13388 0.19358
#
# Static dielectric constant tensor:
#      x y z
#    x 3.551560 0.000000 0.000000 
#    y 0.000000 3.563370 0.000000 
#    z 0.000000 0.000000 3.877960 
# 
# 
# High freq. dielectric constant tensor:
#      x y z
#    x 1.767040 0.000000 0.000000 
#    y 0.000000 1.748220 0.000000 
#    z 0.000000 0.000000 1.778590 
# 
# From -- ./inp_files/13423.got.cif
#   From: 2010.06.25/outbox.cif.g09.slc.cpg/sg58_7_cif.got.tgz:13423.got - 2010.06.26 21:38:00.
