data_PCOD8236169
_publ_section_title
;
Structure prediction by ZEFSAII (Michael W. Deem and Ramdas Pophale) SiO2 
 PCOD8236169
Probable space group: P N N M
;
_chemical_formula_sum "Si O2"
_cell_formula_units_Z 48
_cell_length_a 28.114039
_cell_length_b 10.375556
_cell_length_c 8.961972
_cell_angle_alpha 90.000000
_cell_angle_beta 90.000000
_cell_angle_gamma 90.000000
_cell_volume 2614.196353
_symmetry_space_group_name_H-M "P N N M"
_symmetry_group_IT_number 58
_symmetry_cell_setting 'orthorhombic'
loop_
_space_group_symop_operation_xyz
x,y,z
-x,-y,z
1/2+x,1/2-y,1/2-z
1/2-x,1/2+y,1/2-z
-x,-y,-z
x,y,-z
1/2-x,1/2+y,1/2+z
1/2+x,1/2-y,1/2+z
loop_
_atom_site_type_symbol
_atom_site_label
_atom_site_fract_x
_atom_site_fract_y
_atom_site_fract_z
Si Si1 0.352846 0.249705 0.326991
Si Si2 0.700919 0.496581 0.676800
Si Si3 0.190964 0.504328 0.676483
Si Si4 0.147625 0.237364 0.326765
Si Si5 0.047468 0.864907 0.174252
Si Si6 0.546587 0.362977 0.825827
O O1 0.341133 0.229273 0.500000
O O2 0.324163 0.373246 0.264803
O O3 0.337429 0.124564 0.238992
O O4 0.408972 0.268234 0.299127
O O5 0.697789 0.490497 0.500000
O O6 0.754978 0.495487 0.735081
O O7 0.674233 0.373536 0.738916
O O8 0.189420 0.512339 0.500000
O O9 0.165638 0.374472 0.733828
O O10 0.160080 0.219364 0.500000
O O11 0.091060 0.231155 0.298599
O O12 0.999719 0.802526 0.244551
O O13 0.058804 0.998844 0.255680
O O14 0.039894 0.892908 0.000000
O O15 0.535658 0.380609 0.000000
#
# Coordination Sequence:
#
# PCOD8236169 Si02
#       6
#     8   8   8   8   8   8
#     4  10  21  37  56  80 110 143 180 222 270 321
#     4  10  20  36  57  80 106 140 184 227 265 313
#     4  10  22  37  54  78 110 145 180 221 269 319
#     4  10  21  37  56  80 111 144 179 221 270 320
#     4  10  19  33  55  80 107 139 175 221 271 316
#     4  10  19  32  54  82 108 137 176 222 269 317
#
# _framework density 18.361281999999999
#
# number of rings (size 3 to 8) (size 9 to 14) (size 15 to 20)
#    0.000    2.000    1.667    3.000    0.000    5.333 
#    0.000    0.833    0.000    5.000    0.000    0.000 
#    0.000    0.000    0.000    0.000    0.000    0.000 
#
# Total GULP energy -595275.035054 kJ/mol
# GULP energy per Si atom -12401.563230 kJ/mol
# Density = 1.831949 g / cm^3
# Si number density = 18.361282 Si / 1000 Ang^3
#
#
#
# Elastic Constant Matrix: (Units=GPa)
#
#
# Indices 1 2 3 4 5 6 
#
# 1 142.0494 64.4308 40.5598 0.0000 0.0000 0.0000
# 2 64.4308 123.7458 28.0380 0.0000 0.0000 0.0000
# 3 40.5598 28.0380 50.6177 0.0000 0.0000 0.0000
# 4 0.0000 0.0000 0.0000 28.8915 0.0000 0.0000
# 5 0.0000 0.0000 0.0000 0.0000********** 0.0000
# 6 0.0000 0.0000 0.0000 0.0000 0.0000 14.1291
#
#
#
# Elastic Compliance Matrix: (Units=1/GPa)
#
#
# Indices 1 2 3 4 5 6 
#
# 1 0.010721 -0.004157 -0.006288 0.000000 0.000000 0.000000
# 2 -0.004157 0.010853 -0.002680 0.000000 0.000000 0.000000
# 3 -0.006288 -0.002680 0.026279 0.000000 0.000000 0.000000
# 4 0.000000 0.000000 0.000000 0.034612 0.000000 0.000000
# 5 0.000000 0.000000 0.000000 0.000000 0.000004 0.000000
# 6 0.000000 0.000000 0.000000 0.000000 0.000000 0.070776
#
#
# Mechanical properties :
#
#
# Convention : Reuss Voigt Hill
#
# Bulk Modulus (GPa) = 46.29232 64.71891 55.50562
# Shear Modulus (GPa) = 26.78143 51956.11719 25991.44931
#
# Velocity S-wave (km/s) = 3.82328 168.39831 119.10628
# Velocity P-wave (km/s) = 6.69004 194.54043 137.64218
#
# Compressibility (1/GPa) = 0.02160185
#
# Stress axis : x y z
#
# Youngs Moduli (GPa) = 93.27597 92.14018 38.05324
#
# Poissons Ratio (x) = 0.38306 0.23927
# Poissons Ratio (y) = 0.38778 0.10200
# Poissons Ratio (z) = 0.58650 0.24697
#
# Static dielectric constant tensor:
#      x y z
#    x 3.936140 0.000000 0.000000 
#    y 0.000000 3.279280 0.000000 
#    z 0.000000 0.000000 3.343640 
# 
# 
# High freq. dielectric constant tensor:
#      x y z
#    x 1.731930 0.000000 0.000000 
#    y 0.000000 1.694630 0.000000 
#    z 0.000000 0.000000 1.710460 
# 
# From -- ./inp_files/3006.got.cif
#   From: 2010.06.25/outbox.cif.g09.slc.cpg/sg58_2_cif.got.tgz:3006.got - 2010.06.26 21:38:00.
