data_PCOD8236235
_publ_section_title
;
Structure prediction by ZEFSAII (Michael W. Deem and Ramdas Pophale) SiO2 
 PCOD8236235
Probable space group: P N N M
;
_chemical_formula_sum "Si O2"
_cell_formula_units_Z 64
_cell_length_a 13.102294
_cell_length_b 27.342618
_cell_length_c 9.301481
_cell_angle_alpha 90.000000
_cell_angle_beta 90.000000
_cell_angle_gamma 90.000000
_cell_volume 3332.265054
_symmetry_space_group_name_H-M "P N N M"
_symmetry_group_IT_number 58
_symmetry_cell_setting 'orthorhombic'
loop_
_space_group_symop_operation_xyz
x,y,z
-x,-y,z
1/2+x,1/2-y,1/2-z
1/2-x,1/2+y,1/2-z
-x,-y,-z
x,y,-z
1/2-x,1/2+y,1/2+z
1/2+x,1/2-y,1/2+z
loop_
_atom_site_type_symbol
_atom_site_label
_atom_site_fract_x
_atom_site_fract_y
_atom_site_fract_z
Si Si1 0.885361 0.878627 0.334390
Si Si2 0.881542 0.118600 0.329290
Si Si3 0.280163 0.948099 0.168046
Si Si4 0.525973 0.201802 0.839385
Si Si5 0.506455 0.094582 0.171347
Si Si6 0.696708 0.273707 0.158394
Si Si7 0.285162 0.060984 0.832237
Si Si8 0.137441 0.772191 0.330349
O O1 0.867351 0.892218 0.500000
O O2 0.874401 0.820352 0.308926
O O3 0.800762 0.906818 0.243596
O O4 0.000503 0.893356 0.288628
O O5 0.865933 0.114864 0.500000
O O6 0.806712 0.080844 0.252961
O O7 0.853764 0.172847 0.269437
O O8 0.394451 0.935599 0.225086
O O9 0.260118 0.004805 0.198253
O O10 0.270234 0.935210 0.000000
O O11 0.518147 0.149245 0.762103
O O12 0.639911 0.221614 0.842588
O O13 0.461718 0.245164 0.764972
O O14 0.482621 0.193748 0.000000
O O15 0.399306 0.072462 0.227880
O O16 0.507947 0.093663 0.000000
O O17 0.775935 0.266197 0.285507
O O18 0.747393 0.280703 0.000000
O O19 0.280837 0.073485 0.000000
O O20 0.131680 0.777143 0.500000
#
# Coordination Sequence:
#
# PCOD8236235 Si02
#       8
#     8   8   8   8   8   8   8   8
#     4  10  21  38  57  79 113 153 190 228 275 335
#     4  10  21  38  57  79 113 153 190 228 275 335
#     4  10  21  37  58  84 111 142 187 241 289 333
#     4   9  16  29  51  76 103 137 172 203 256 323
#     4   9  17  32  56  84 112 141 177 226 284 343
#     4  10  19  33  53  78 108 142 178 218 263 317
#     4  10  21  37  58  84 111 142 187 241 289 333
#     4  10  19  33  53  78 108 142 178 218 263 317
#
# _framework density 19.206154999999999
#
# number of rings (size 3 to 8) (size 9 to 14) (size 15 to 20)
#    0.000    2.250    1.250    1.875    0.000    6.000 
#    0.000    3.750    0.000    6.000    0.000    0.000 
#    0.000    0.000    0.000    0.000    0.000    0.000 
#
# Total GULP energy -793037.096690 kJ/mol
# GULP energy per Si atom -12391.204636 kJ/mol
# Density = 1.916244 g / cm^3
# Si number density = 19.206155 Si / 1000 Ang^3
#
#
#
# Elastic Constant Matrix: (Units=GPa)
#
#
# Indices 1 2 3 4 5 6 
#
# 1 130.6255 49.8749 36.8060 0.0000 0.0000 0.0000
# 2 49.8749 102.3977 33.8301 0.0000 0.0000 0.0000
# 3 36.8060 33.8301 29.3677 0.0000 0.0000 0.0000
# 4 0.0000 0.0000 0.0000 27.4999 0.0000 0.0000
# 5 0.0000 0.0000 0.0000 0.0000 28.7717 0.0000
# 6 0.0000 0.0000 0.0000 0.0000 0.0000 37.1605
#
#
#
# Elastic Compliance Matrix: (Units=1/GPa)
#
#
# Indices 1 2 3 4 5 6 
#
# 1 0.011959 -0.001410 -0.013365 0.000000 0.000000 0.000000
# 2 -0.001410 0.015932 -0.016586 0.000000 0.000000 0.000000
# 3 -0.013365 -0.016586 0.069907 0.000000 0.000000 0.000000
# 4 0.000000 0.000000 0.000000 0.036364 0.000000 0.000000
# 5 0.000000 0.000000 0.000000 0.000000 0.034756 0.000000
# 6 0.000000 0.000000 0.000000 0.000000 0.000000 0.026910
#
#
# Mechanical properties :
#
#
# Convention : Reuss Voigt Hill
#
# Bulk Modulus (GPa) = 28.50826 55.93477 42.22151
# Shear Modulus (GPa) = 18.50184 28.14509 23.32347
#
# Velocity S-wave (km/s) = 3.10712 3.83223 3.48857
# Velocity P-wave (km/s) = 5.26762 6.98340 6.18529
#
# Compressibility (1/GPa) = 0.03507755
#
# Stress axis : x y z
#
# Youngs Moduli (GPa) = 83.61609 62.76566 14.30466
#
# Poissons Ratio (x) = 0.08848 0.19118
# Poissons Ratio (y) = 0.11787 0.23726
# Poissons Ratio (z) = 1.11750 1.04106
#
# Static dielectric constant tensor:
#      x y z
#    x 3.577230 0.000000 0.000000 
#    y 0.000000 3.677030 0.000000 
#    z 0.000000 0.000000 3.153030 
# 
# 
# High freq. dielectric constant tensor:
#      x y z
#    x 1.754790 0.000000 0.000000 
#    y 0.000000 1.760300 0.000000 
#    z 0.000000 0.000000 1.703220 
# 
# From -- ./inp_files/4680.got.cif
#   From: 2010.06.25/outbox.cif.g09.slc.cpg/sg58_3_cif.got.tgz:4680.got - 2010.06.26 21:38:00.
