data_PCOD8236867
_publ_section_title
;
Structure prediction by ZEFSAII (Michael W. Deem and Ramdas Pophale) SiO2 
 PCOD8236867
Probable space group: P N N M
;
_chemical_formula_sum "Si O2"
_cell_formula_units_Z 48
_cell_length_a 14.970078
_cell_length_b 9.696252
_cell_length_c 17.161786
_cell_angle_alpha 90.000000
_cell_angle_beta 90.000000
_cell_angle_gamma 90.000000
_cell_volume 2491.095857
_symmetry_space_group_name_H-M "P N N M"
_symmetry_group_IT_number 58
_symmetry_cell_setting 'orthorhombic'
loop_
_space_group_symop_operation_xyz
x,y,z
-x,-y,z
1/2+x,1/2-y,1/2-z
1/2-x,1/2+y,1/2-z
-x,-y,-z
x,y,-z
1/2-x,1/2+y,1/2+z
1/2+x,1/2-y,1/2+z
loop_
_atom_site_type_symbol
_atom_site_label
_atom_site_fract_x
_atom_site_fract_y
_atom_site_fract_z
Si Si1 0.534959 0.647911 0.411313
Si Si2 0.245579 0.004854 0.673658
Si Si3 0.657952 0.731585 0.729176
Si Si4 0.075539 0.103558 0.408989
Si Si5 0.510446 0.152277 0.188795
Si Si6 0.927297 0.612552 0.141405
O O1 0.500000 0.500000 0.383588
O O2 0.571239 0.643616 0.500000
O O3 0.613379 0.697468 0.354252
O O4 0.449166 0.748908 0.405911
O O5 0.273430 0.143468 0.718339
O O6 0.170884 0.038635 0.610276
O O7 0.209717 0.900705 0.739217
O O8 0.327485 0.940014 0.624059
O O9 0.584732 0.779506 0.791829
O O10 0.065713 0.125662 0.500000
O O11 0.064684 0.252857 0.370358
O O12 0.000000 0.000000 0.376715
O O13 0.568979 0.137961 0.266399
O O14 0.500000 0.000000 0.151055
O O15 0.000000 0.500000 0.115122
#
# Coordination Sequence:
#
# PCOD8236867 Si02
#       6
#     8   8   8   8   8   8
#     4  10  23  41  62  91 131 168 199 250 320 379
#     4  12  23  40  66  96 119 162 211 265 303 363
#     4  11  24  38  67  94 122 161 210 260 305 365
#     4  11  25  42  61  90 126 168 208 247 307 369
#     4  10  19  41  64  90 124 159 205 257 306 363
#     4  10  20  40  63  93 122 158 209 256 309 365
#
# _framework density 19.268629000000001
#
# number of rings (size 3 to 8) (size 9 to 14) (size 15 to 20)
#    0.000    1.333    6.667    1.000    7.000    2.000 
#    0.000    0.000    0.000    0.000    0.000    0.000 
#    0.000    0.000    0.000    0.000    0.000    0.000 
#
# Total GULP energy -595323.673676 kJ/mol
# GULP energy per Si atom -12402.576535 kJ/mol
# Density = 1.922477 g / cm^3
# Si number density = 19.268629 Si / 1000 Ang^3
#
#
#
# Elastic Constant Matrix: (Units=GPa)
#
#
# Indices 1 2 3 4 5 6 
#
# 1 126.8891 55.0361 27.0223 0.0000 0.0000 0.0000
# 2 55.0361 156.8774 44.3325 0.0000 0.0000 0.0000
# 3 27.0223 44.3325 38.8470 0.0000 0.0000 0.0000
# 4 0.0000 0.0000 0.0000 7.0251 0.0000 0.0000
# 5 0.0000 0.0000 0.0000 0.0000 14.9241 0.0000
# 6 0.0000 0.0000 0.0000 0.0000 0.0000 42.4818
#
#
#
# Elastic Compliance Matrix: (Units=1/GPa)
#
#
# Indices 1 2 3 4 5 6 
#
# 1 0.009748 -0.002219 -0.004248 0.000000 0.000000 0.000000
# 2 -0.002219 0.009914 -0.009770 0.000000 0.000000 0.000000
# 3 -0.004248 -0.009770 0.039847 0.000000 0.000000 0.000000
# 4 0.000000 0.000000 0.000000 0.142346 0.000000 0.000000
# 5 0.000000 0.000000 0.000000 0.000000 0.067006 0.000000
# 6 0.000000 0.000000 0.000000 0.000000 0.000000 0.023539
#
#
# Mechanical properties :
#
#
# Convention : Reuss Voigt Hill
#
# Bulk Modulus (GPa) = 36.99086 63.93282 50.46184
# Shear Modulus (GPa) = 14.97513 25.96771 20.47142
#
# Velocity S-wave (km/s) = 2.79081 3.67504 3.26302
# Velocity P-wave (km/s) = 5.44279 7.15959 6.35939
#
# Compressibility (1/GPa) = 0.02703370
#
# Stress axis : x y z
#
# Youngs Moduli (GPa) = 102.58288 100.86764 25.09612
#
# Poissons Ratio (x) = 0.22386 0.10661
# Poissons Ratio (y) = 0.22767 0.24519
# Poissons Ratio (z) = 0.43579 0.98549
#
# Static dielectric constant tensor:
#      x y z
#    x 3.572820 0.000000 0.000000 
#    y 0.000000 3.832460 0.000000 
#    z 0.000000 0.000000 3.169020 
# 
# 
# High freq. dielectric constant tensor:
#      x y z
#    x 1.749460 0.000000 0.000000 
#    y 0.000000 1.772000 0.000000 
#    z 0.000000 0.000000 1.724580 
# 
# From -- ./inp_files/26802.got.cif
#   From: 2010.06.25/outbox.cif.g09.slc.cpg/sg58_14_cif.got.tgz:26802.got - 2010.06.26 21:38:00.
