data_PCOD8236028
_publ_section_title
;
Structure prediction by ZEFSAII (Michael W. Deem and Ramdas Pophale) SiO2 
 PCOD8236028
Probable space group: P N N M
;
_chemical_formula_sum "Si O2"
_cell_formula_units_Z 40
_cell_length_a 16.487865
_cell_length_b 14.698293
_cell_length_c 9.190901
_cell_angle_alpha 90.000000
_cell_angle_beta 90.000000
_cell_angle_gamma 90.000000
_cell_volume 2227.354847
_symmetry_space_group_name_H-M "P N N M"
_symmetry_group_IT_number 58
_symmetry_cell_setting 'orthorhombic'
loop_
_space_group_symop_operation_xyz
x,y,z
-x,-y,z
1/2+x,1/2-y,1/2-z
1/2-x,1/2+y,1/2-z
-x,-y,-z
x,y,-z
1/2-x,1/2+y,1/2+z
1/2+x,1/2-y,1/2+z
loop_
_atom_site_type_symbol
_atom_site_label
_atom_site_fract_x
_atom_site_fract_y
_atom_site_fract_z
Si Si1 0.985907 0.272903 0.169361
Si Si2 0.099996 0.397716 0.664741
Si Si3 0.737714 0.520195 0.664822
Si Si4 0.131586 0.565842 0.830979
Si Si5 0.437148 0.424803 0.326867
O O1 0.907435 0.335896 0.196646
O O2 0.964678 0.173486 0.231629
O O3 0.063728 0.309420 0.256541
O O4 0.009305 0.269934 0.000000
O O5 0.066803 0.402874 0.500000
O O6 0.199089 0.394046 0.666301
O O7 0.074892 0.489834 0.752106
O O8 0.725675 0.484165 0.500000
O O9 0.777638 0.438343 0.760571
O O10 0.652261 0.551015 0.733464
O O11 0.136986 0.541707 0.000000
O O12 0.500000 0.500000 0.269100
O O13 0.434163 0.422006 0.500000
#
# Coordination Sequence:
#
# PCOD8236028 Si02
#       5
#     8   8   8   8   8
#     4  10  19  31  52  80 104 135 174 210 255 307
#     4   9  18  31  50  77 108 133 164 211 260 305
#     4   8  17  33  51  73 101 133 170 211 256 301
#     4   9  17  30  50  76 106 133 165 211 258 305
#     4   9  18  36  57  73 100 140 179 213 249 304
#
# _framework density 17.958523
#
# number of rings (size 3 to 8) (size 9 to 14) (size 15 to 20)
#    1.200    1.800    0.000    1.200    0.000    4.000 
#    3.600    1.000    0.000    1.200    0.000    0.000 
#    0.000    0.000    0.000    0.000    0.000    0.000 
#
# Total GULP energy -495574.930524 kJ/mol
# GULP energy per Si atom -12389.373263 kJ/mol
# Density = 1.791765 g / cm^3
# Si number density = 17.958523 Si / 1000 Ang^3
#
#
#
# Elastic Constant Matrix: (Units=GPa)
#
#
# Indices 1 2 3 4 5 6 
#
# 1 113.7595 67.1756 43.7648 0.0000 0.0000 0.0000
# 2 67.1756 126.0078 40.3386 0.0000 0.0000 0.0000
# 3 43.7648 40.3386 75.5363 0.0000 0.0000 0.0000
# 4 0.0000 0.0000 0.0000 12.1262 0.0000 0.0000
# 5 0.0000 0.0000 0.0000 0.0000 22.4805 0.0000
# 6 0.0000 0.0000 0.0000 0.0000 0.0000 11.1167
#
#
#
# Elastic Compliance Matrix: (Units=1/GPa)
#
#
# Indices 1 2 3 4 5 6 
#
# 1 0.014279 -0.005987 -0.005075 0.000000 0.000000 0.000000
# 2 -0.005987 0.012083 -0.002984 0.000000 0.000000 0.000000
# 3 -0.005075 -0.002984 0.017773 0.000000 0.000000 0.000000
# 4 0.000000 0.000000 0.000000 0.082466 0.000000 0.000000
# 5 0.000000 0.000000 0.000000 0.000000 0.044483 0.000000
# 6 0.000000 0.000000 0.000000 0.000000 0.000000 0.089954
#
#
# Mechanical properties :
#
#
# Convention : Reuss Voigt Hill
#
# Bulk Modulus (GPa) = 62.33857 68.65128 65.49492
# Shear Modulus (GPa) = 16.97919 20.07965 18.52942
#
# Velocity S-wave (km/s) = 3.07818 3.34745 3.21563
# Velocity P-wave (km/s) = 6.88633 7.29734 7.09481
#
# Compressibility (1/GPa) = 0.01604143
#
# Stress axis : x y z
#
# Youngs Moduli (GPa) = 70.03522 82.76076 56.26582
#
# Poissons Ratio (x) = 0.49550 0.28558
# Poissons Ratio (y) = 0.41931 0.16789
# Poissons Ratio (z) = 0.35546 0.24694
#
# Static dielectric constant tensor:
#      x y z
#    x 3.291360 0.000000 0.000000 
#    y 0.000000 3.119560 0.000000 
#    z 0.000000 0.000000 3.148530 
# 
# 
# High freq. dielectric constant tensor:
#      x y z
#    x 1.692550 0.000000 0.000000 
#    y 0.000000 1.666600 0.000000 
#    z 0.000000 0.000000 1.677640 
# 
# From -- ./inp_files/7581.got.cif
#   From: 2010.06.25/outbox.cif.g09.slc.cpg/sg58_4_cif.got.tgz:7581.got - 2010.06.26 21:38:00.
