data_PCOD8236067
_publ_section_title
;
Structure prediction by ZEFSAII (Michael W. Deem and Ramdas Pophale) SiO2 
 PCOD8236067
Probable space group: P N N M
;
_chemical_formula_sum "Si O2"
_cell_formula_units_Z 64
_cell_length_a 17.141520
_cell_length_b 10.975839
_cell_length_c 18.109069
_cell_angle_alpha 90.000000
_cell_angle_beta 90.000000
_cell_angle_gamma 90.000000
_cell_volume 3407.086669
_symmetry_space_group_name_H-M "P N N M"
_symmetry_group_IT_number 58
_symmetry_cell_setting 'orthorhombic'
loop_
_space_group_symop_operation_xyz
x,y,z
-x,-y,z
1/2+x,1/2-y,1/2-z
1/2-x,1/2+y,1/2-z
-x,-y,-z
x,y,-z
1/2-x,1/2+y,1/2+z
1/2+x,1/2-y,1/2+z
loop_
_atom_site_type_symbol
_atom_site_label
_atom_site_fract_x
_atom_site_fract_y
_atom_site_fract_z
Si Si1 0.962336 0.803845 0.416184
Si Si2 0.707271 0.559193 0.416504
Si Si3 0.656518 0.212640 0.726806
Si Si4 0.617687 0.070539 0.140807
Si Si5 0.611045 0.799799 0.145518
Si Si6 0.828466 0.173000 0.227109
Si Si7 0.584766 0.451059 0.784132
Si Si8 0.282987 0.719492 0.582657
O O1 0.957803 0.846721 0.500000
O O2 0.927428 0.669025 0.407486
O O3 0.917264 0.906583 0.369420
O O4 0.051565 0.797548 0.388783
O O5 0.696334 0.609128 0.500000
O O6 0.795753 0.567776 0.390774
O O7 0.655410 0.641801 0.359613
O O8 0.682888 0.417713 0.412216
O O9 0.614075 0.103999 0.771351
O O10 0.741330 0.223350 0.764347
O O11 0.606837 0.335136 0.734959
O O12 0.668038 0.193352 0.638601
O O13 0.579584 0.937000 0.132910
O O14 0.617137 0.776117 0.234609
O O15 0.692643 0.779012 0.104902
O O16 0.846595 0.050285 0.274492
O O17 0.500000 0.500000 0.757923
O O18 0.292658 0.771028 0.500000
#
# Coordination Sequence:
#
# PCOD8236067 Si02
#       8
#     8   8   8   8   8   8   8   8
#     4  11  22  34  51  78 115 151 179 222 277 335
#     4   9  16  29  52  77 100 131 175 239 291 318
#     4   9  19  33  55  76 104 147 191 227 282 335
#     4   9  19  32  51  75 107 142 189 228 269 333
#     4  10  19  32  49  77 104 150 187 219 273 335
#     4  10  19  34  54  76 108 145 189 232 271 343
#     4  11  21  38  54  81 113 149 186 233 285 338
#     4   9  16  28  49  75 103 133 181 233 278 328
#
# _framework density 18.784376999999999
#
# number of rings (size 3 to 8) (size 9 to 14) (size 15 to 20)
#    0.000    2.250    2.500    1.125    1.750    2.250 
#    0.000    0.625    0.000    2.250    0.000    0.000 
#    0.000    3.250    0.000    0.000    0.000    0.000 
#
# Total GULP energy -792883.130185 kJ/mol
# GULP energy per Si atom -12388.798909 kJ/mol
# Density = 1.874162 g / cm^3
# Si number density = 18.784377 Si / 1000 Ang^3
#
#
#
# Elastic Constant Matrix: (Units=GPa)
#
#
# Indices 1 2 3 4 5 6 
#
# 1 34.8684 18.6349 22.5120 0.0000 0.0000 0.0000
# 2 18.6349 50.4139 26.8103 0.0000 0.0000 0.0000
# 3 22.5120 26.8103 159.3823 0.0000 0.0000 0.0000
# 4 0.0000 0.0000 0.0000 22.1827 0.0000 0.0000
# 5 0.0000 0.0000 0.0000 0.0000 22.2166 0.0000
# 6 0.0000 0.0000 0.0000 0.0000 0.0000 30.3631
#
#
#
# Elastic Compliance Matrix: (Units=1/GPa)
#
#
# Indices 1 2 3 4 5 6 
#
# 1 0.037194 -0.012031 -0.003230 0.000000 0.000000 0.000000
# 2 -0.012031 0.025676 -0.002620 0.000000 0.000000 0.000000
# 3 -0.003230 -0.002620 0.007171 0.000000 0.000000 0.000000
# 4 0.000000 0.000000 0.000000 0.045080 0.000000 0.000000
# 5 0.000000 0.000000 0.000000 0.000000 0.045011 0.000000
# 6 0.000000 0.000000 0.000000 0.000000 0.000000 0.032935
#
#
# Mechanical properties :
#
#
# Convention : Reuss Voigt Hill
#
# Bulk Modulus (GPa) = 29.17098 42.28656 35.72877
# Shear Modulus (GPa) = 20.81120 26.73295 23.77208
#
# Velocity S-wave (km/s) = 3.33212 3.77656 3.56128
# Velocity P-wave (km/s) = 5.51064 6.44802 5.99767
#
# Compressibility (1/GPa) = 0.03428064
#
# Stress axis : x y z
#
# Youngs Moduli (GPa) = 26.88597 38.94679 139.44879
#
# Poissons Ratio (x) = 0.46856 0.45039
# Poissons Ratio (y) = 0.32346 0.36532
# Poissons Ratio (z) = 0.08684 0.10203
#
# Static dielectric constant tensor:
#      x y z
#    x 3.320310 0.000000 0.000000 
#    y 0.000000 3.554960 0.000000 
#    z 0.000000 0.000000 3.663410 
# 
# 
# High freq. dielectric constant tensor:
#      x y z
#    x 1.704440 0.000000 0.000000 
#    y 0.000000 1.716750 0.000000 
#    z 0.000000 0.000000 1.724860 
# 
# From -- ./inp_files/27400.got.cif
#   From: 2010.06.25/outbox.cif.g09.slc.cpg/sg58_14_cif.got.tgz:27400.got - 2010.06.26 21:38:00.
