data_PCOD8236421
_publ_section_title
;
Structure prediction by ZEFSAII (Michael W. Deem and Ramdas Pophale) SiO2 
 PCOD8236421
Probable space group: P N N M
;
_chemical_formula_sum "Si O2"
_cell_formula_units_Z 64
_cell_length_a 8.924712
_cell_length_b 24.215132
_cell_length_c 14.935794
_cell_angle_alpha 90.000000
_cell_angle_beta 90.000000
_cell_angle_gamma 90.000000
_cell_volume 3227.820431
_symmetry_space_group_name_H-M "P N N M"
_symmetry_group_IT_number 58
_symmetry_cell_setting 'orthorhombic'
loop_
_space_group_symop_operation_xyz
x,y,z
-x,-y,z
1/2+x,1/2-y,1/2-z
1/2-x,1/2+y,1/2-z
-x,-y,-z
x,y,-z
1/2-x,1/2+y,1/2+z
1/2+x,1/2-y,1/2+z
loop_
_atom_site_type_symbol
_atom_site_label
_atom_site_fract_x
_atom_site_fract_y
_atom_site_fract_z
Si Si1 0.165540 0.085994 0.253370
Si Si2 0.887362 0.452347 0.101331
Si Si3 0.676826 0.493696 0.400403
Si Si4 0.623786 0.709389 0.603223
Si Si5 0.829905 0.301606 0.237156
Si Si6 0.828689 0.097515 0.790399
Si Si7 0.206279 0.249754 0.096660
Si Si8 0.405815 0.859250 0.339686
O O1 0.241873 0.051505 0.334477
O O2 0.221913 0.059729 0.159070
O O3 0.207272 0.150099 0.260845
O O4 0.986056 0.080935 0.255970
O O5 0.000000 0.500000 0.134930
O O6 0.979648 0.395225 0.101842
O O7 0.831816 0.463861 0.000000
O O8 0.500000 0.500000 0.408971
O O9 0.747061 0.486739 0.500000
O O10 0.736403 0.549236 0.353441
O O11 0.676906 0.709015 0.500000
O O12 0.703175 0.761012 0.653213
O O13 0.665408 0.652433 0.650489
O O14 0.445549 0.715442 0.610868
O O15 0.824994 0.266123 0.327793
O O16 0.997209 0.325950 0.234264
O O17 0.714056 0.102569 0.708965
O O18 0.176165 0.315347 0.097082
O O19 0.276004 0.235194 0.000000
#
# Coordination Sequence:
#
# PCOD8236421 Si02
#       8
#     8   8   8   8   8   8   8   8
#     4  10  21  36  61  87 118 155 202 247 302 347
#     4  10  21  40  63  87 116 157 208 247 294 362
#     4   9  19  34  56  88 117 148 190 238 292 357
#     4  10  20  34  59  85 112 154 200 245 299 364
#     4  10  20  36  55  81 115 153 200 248 293 357
#     4  11  19  35  60  86 123 153 193 248 303 364
#     4  10  19  34  55  79 110 155 204 242 295 360
#     4  10  21  35  59  81 120 155 192 244 307 359
#
# _framework density 19.82762
#
# number of rings (size 3 to 8) (size 9 to 14) (size 15 to 20)
#    0.000    2.000    2.500    1.500    0.000    4.000 
#    0.000    2.500    0.000   12.750    0.000    0.000 
#    0.000    0.000    0.000    0.000    0.000    0.000 
#
# Total GULP energy -793479.623399 kJ/mol
# GULP energy per Si atom -12398.119116 kJ/mol
# Density = 1.978249 g / cm^3
# Si number density = 19.827620 Si / 1000 Ang^3
#
#
#
# Elastic Constant Matrix: (Units=GPa)
#
#
# Indices 1 2 3 4 5 6 
#
# 1 46.6336 13.3308 37.5153 0.0000 0.0000 0.0000
# 2 13.3308 83.2143 25.2283 0.0000 0.0000 0.0000
# 3 37.5153 25.2283 124.2274 0.0000 0.0000 0.0000
# 4 0.0000 0.0000 0.0000 29.9969 0.0000 0.0000
# 5 0.0000 0.0000 0.0000 0.0000 23.9063 0.0000
# 6 0.0000 0.0000 0.0000 0.0000 0.0000 32.5195
#
#
#
# Elastic Compliance Matrix: (Units=1/GPa)
#
#
# Indices 1 2 3 4 5 6 
#
# 1 0.028664 -0.002097 -0.008230 0.000000 0.000000 0.000000
# 2 -0.002097 0.012959 -0.001999 0.000000 0.000000 0.000000
# 3 -0.008230 -0.001999 0.010941 0.000000 0.000000 0.000000
# 4 0.000000 0.000000 0.000000 0.033337 0.000000 0.000000
# 5 0.000000 0.000000 0.000000 0.000000 0.041830 0.000000
# 6 0.000000 0.000000 0.000000 0.000000 0.000000 0.030751
#
#
# Mechanical properties :
#
#
# Convention : Reuss Voigt Hill
#
# Bulk Modulus (GPa) = 35.82571 45.13599 40.48085
# Shear Modulus (GPa) = 25.98243 29.15127 27.56685
#
# Velocity S-wave (km/s) = 3.62389 3.83853 3.73275
# Velocity P-wave (km/s) = 5.96808 6.51608 6.24809
#
# Compressibility (1/GPa) = 0.02791292
#
# Stress axis : x y z
#
# Youngs Moduli (GPa) = 34.88658 77.16668 91.39821
#
# Poissons Ratio (x) = 0.16180 0.75225
# Poissons Ratio (y) = 0.07315 0.18266
# Poissons Ratio (z) = 0.28713 0.15422
#
# Static dielectric constant tensor:
#      x y z
#    x 3.293310 0.000000 0.000000 
#    y 0.000000 3.790910 0.000000 
#    z 0.000000 0.000000 3.685030 
# 
# 
# High freq. dielectric constant tensor:
#      x y z
#    x 1.737860 0.000000 0.000000 
#    y 0.000000 1.789600 0.000000 
#    z 0.000000 0.000000 1.772810 
# 
# From -- ./inp_files/20308.got.cif
#   From: 2010.06.25/outbox.cif.g09.slc.cpg/sg58_11_cif.got.tgz:20308.got - 2010.06.26 21:38:00.
