data_PCOD8236629
_publ_section_title
;
Structure prediction by ZEFSAII (Michael W. Deem and Ramdas Pophale) SiO2 
 PCOD8236629
Probable space group: P N N M
;
_chemical_formula_sum "Si O2"
_cell_formula_units_Z 40
_cell_length_a 18.696367
_cell_length_b 12.534228
_cell_length_c 8.816217
_cell_angle_alpha 90.000000
_cell_angle_beta 90.000000
_cell_angle_gamma 90.000000
_cell_volume 2066.032201
_symmetry_space_group_name_H-M "P N N M"
_symmetry_group_IT_number 58
_symmetry_cell_setting 'orthorhombic'
loop_
_space_group_symop_operation_xyz
x,y,z
-x,-y,z
1/2+x,1/2-y,1/2-z
1/2-x,1/2+y,1/2-z
-x,-y,-z
x,y,-z
1/2-x,1/2+y,1/2+z
1/2+x,1/2-y,1/2+z
loop_
_atom_site_type_symbol
_atom_site_label
_atom_site_fract_x
_atom_site_fract_y
_atom_site_fract_z
Si Si1 0.612625 0.813420 0.680469
Si Si2 0.185577 0.887267 0.678566
Si Si3 0.952527 0.717702 0.819955
Si Si4 0.921489 0.954046 0.825413
Si Si5 0.158571 0.454991 0.819624
O O1 0.613056 0.806865 0.500000
O O2 0.664142 0.722429 0.742627
O O3 0.532468 0.797183 0.745010
O O4 0.641732 0.926580 0.740437
O O5 0.185073 0.869628 0.500000
O O6 0.264043 0.918510 0.738991
O O7 0.132546 0.982735 0.719585
O O8 0.920751 0.831691 0.770687
O O9 0.901195 0.625740 0.753854
O O10 0.956464 0.710954 0.000000
O O11 0.897288 0.965930 0.000000
O O12 0.000000 0.000000 0.803026
O O13 0.155878 0.453653 0.000000
#
# Coordination Sequence:
#
# PCOD8236629 Si02
#       5
#     8   8   8   8   8
#     4  10  19  37  61  81 104 140 189 232 267 316
#     4  11  23  36  52  82 119 148 175 218 283 337
#     4   9  17  33  59  85 105 135 185 236 270 308
#     4  10  19  35  58  83 107 140 189 229 262 314
#     4   9  20  35  55  83 112 142 180 227 278 329
#
# _framework density 19.360783000000001
#
# number of rings (size 3 to 8) (size 9 to 14) (size 15 to 20)
#    0.000    2.200    2.000    1.200    2.800    2.800 
#    0.000    1.000    0.000    6.000    0.000    0.000 
#    0.000    0.000    0.000    0.000    0.000    0.000 
#
# Total GULP energy -496060.079354 kJ/mol
# GULP energy per Si atom -12401.501984 kJ/mol
# Density = 1.931672 g / cm^3
# Si number density = 19.360783 Si / 1000 Ang^3
#
#
#
# Elastic Constant Matrix: (Units=GPa)
#
#
# Indices 1 2 3 4 5 6 
#
# 1 112.1610 82.9145 18.3667 0.0000 0.0000 0.0000
# 2 82.9145 191.8048 20.2261 0.0000 0.0000 0.0000
# 3 18.3667 20.2261 20.2841 0.0000 0.0000 0.0000
# 4 0.0000 0.0000 0.0000 21.8276 0.0000 0.0000
# 5 0.0000 0.0000 0.0000 0.0000 19.6019 0.0000
# 6 0.0000 0.0000 0.0000 0.0000 0.0000 34.4330
#
#
#
# Elastic Compliance Matrix: (Units=1/GPa)
#
#
# Indices 1 2 3 4 5 6 
#
# 1 0.014042 -0.005285 -0.007445 0.000000 0.000000 0.000000
# 2 -0.005285 0.007815 -0.003008 0.000000 0.000000 0.000000
# 3 -0.007445 -0.003008 0.059040 0.000000 0.000000 0.000000
# 4 0.000000 0.000000 0.000000 0.045813 0.000000 0.000000
# 5 0.000000 0.000000 0.000000 0.000000 0.051016 0.000000
# 6 0.000000 0.000000 0.000000 0.000000 0.000000 0.029042
#
#
# Mechanical properties :
#
#
# Convention : Reuss Voigt Hill
#
# Bulk Modulus (GPa) = 20.23371 63.02939 41.63155
# Shear Modulus (GPa) = 19.62967 28.68866 24.15916
#
# Velocity S-wave (km/s) = 3.18762 3.85358 3.53631
# Velocity P-wave (km/s) = 4.90117 7.24058 6.18253
#
# Compressibility (1/GPa) = 0.04942247
#
# Stress axis : x y z
#
# Youngs Moduli (GPa) = 71.21623 127.95197 16.93775
#
# Poissons Ratio (x) = 0.67623 0.12609
# Poissons Ratio (y) = 0.37638 0.05094
# Poissons Ratio (z) = 0.53017 0.38484
#
# Static dielectric constant tensor:
#      x y z
#    x 3.746470 0.000000 0.000000 
#    y 0.000000 3.832390 0.000000 
#    z 0.000000 0.000000 3.046080 
# 
# 
# High freq. dielectric constant tensor:
#      x y z
#    x 1.764370 0.000000 0.000000 
#    y 0.000000 1.774780 0.000000 
#    z 0.000000 0.000000 1.703090 
# 
# From -- ./inp_files/3769.got.cif
#   From: 2010.06.25/outbox.cif.g09.slc.cpg/sg58_2_cif.got.tgz:3769.got - 2010.06.26 21:38:00.
