data_PCOD8236676
_publ_section_title
;
Structure prediction by ZEFSAII (Michael W. Deem and Ramdas Pophale) SiO2 
 PCOD8236676
Probable space group: P N N M
;
_chemical_formula_sum "Si O2"
_cell_formula_units_Z 56
_cell_length_a 16.326160
_cell_length_b 19.897572
_cell_length_c 8.391037
_cell_angle_alpha 90.000000
_cell_angle_beta 90.000000
_cell_angle_gamma 90.000000
_cell_volume 2725.836291
_symmetry_space_group_name_H-M "P N N M"
_symmetry_group_IT_number 58
_symmetry_cell_setting 'orthorhombic'
loop_
_space_group_symop_operation_xyz
x,y,z
-x,-y,z
1/2+x,1/2-y,1/2-z
1/2-x,1/2+y,1/2-z
-x,-y,-z
x,y,-z
1/2-x,1/2+y,1/2+z
1/2+x,1/2-y,1/2+z
loop_
_atom_site_type_symbol
_atom_site_label
_atom_site_fract_x
_atom_site_fract_y
_atom_site_fract_z
Si Si1 0.564017 0.946102 0.689389
Si Si2 0.805571 0.110241 0.817150
Si Si3 0.503099 0.195075 0.686447
Si Si4 0.253375 0.025699 0.315342
Si Si5 0.143135 0.139579 0.185450
Si Si6 0.175814 0.278677 0.314091
Si Si7 0.532035 0.663278 0.815691
O O1 0.559371 0.948305 0.500000
O O2 0.540252 0.872103 0.751161
O O3 0.654599 0.964371 0.749558
O O4 0.500000 0.000000 0.761508
O O5 0.755954 0.177941 0.776101
O O6 0.900683 0.123303 0.784980
O O7 0.772072 0.051247 0.706043
O O8 0.793309 0.089062 0.000000
O O9 0.487390 0.205467 0.500000
O O10 0.599846 0.189621 0.718750
O O11 0.463881 0.257598 0.778759
O O12 0.246741 0.045933 0.500000
O O13 0.193632 0.072158 0.212848
O O14 0.193261 0.202782 0.256289
O O15 0.055924 0.132863 0.271695
O O16 0.127165 0.151453 0.000000
O O17 0.153620 0.277954 0.500000
O O18 0.550195 0.651107 0.000000
#
# Coordination Sequence:
#
# PCOD8236676 Si02
#       7
#     8   8   8   8   8   8   8
#     4   9  19  35  58  88 123 161 199 241 294 359
#     4  11  24  41  61  88 122 159 203 252 307 363
#     4  10  19  35  60  89 120 157 201 247 301 358
#     4  11  23  40  62  90 123 161 205 250 304 364
#     4  11  23  41  63  89 122 159 203 251 307 365
#     4  10  21  38  61  88 122 160 201 251 304 357
#     4  11  23  40  62  89 118 154 203 253 307 363
#
# _framework density 20.544153000000001
#
# number of rings (size 3 to 8) (size 9 to 14) (size 15 to 20)
#    0.000    1.571    0.000    6.857    2.000    4.000 
#    0.000    5.000    0.000    5.143    0.000    0.000 
#    0.000    0.000    0.000    0.000    0.000    0.000 
#
# Total GULP energy -694736.030394 kJ/mol
# GULP energy per Si atom -12406.000543 kJ/mol
# Density = 2.049739 g / cm^3
# Si number density = 20.544153 Si / 1000 Ang^3
#
#
#
# Elastic Constant Matrix: (Units=GPa)
#
#
# Indices 1 2 3 4 5 6 
#
# 1 110.2044 53.4955 16.5858 0.0000 0.0000 0.0000
# 2 53.4955 81.0404 21.7924 0.0000 0.0000 0.0000
# 3 16.5858 21.7924 54.6098 0.0000 0.0000 0.0000
# 4 0.0000 0.0000 0.0000 31.2842 0.0000 0.0000
# 5 0.0000 0.0000 0.0000 0.0000 19.0285 0.0000
# 6 0.0000 0.0000 0.0000 0.0000 0.0000 37.1493
#
#
#
# Elastic Compliance Matrix: (Units=1/GPa)
#
#
# Indices 1 2 3 4 5 6 
#
# 1 0.013370 -0.008664 -0.000604 0.000000 0.000000 0.000000
# 2 -0.008664 0.019437 -0.005125 0.000000 0.000000 0.000000
# 3 -0.000604 -0.005125 0.020540 0.000000 0.000000 0.000000
# 4 0.000000 0.000000 0.000000 0.031965 0.000000 0.000000
# 5 0.000000 0.000000 0.000000 0.000000 0.052553 0.000000
# 6 0.000000 0.000000 0.000000 0.000000 0.000000 0.026918
#
#
# Mechanical properties :
#
#
# Convention : Reuss Voigt Hill
#
# Bulk Modulus (GPa) = 40.71186 47.73355 44.22271
# Shear Modulus (GPa) = 24.78250 27.75780 26.27015
#
# Velocity S-wave (km/s) = 3.47696 3.67976 3.57979
# Velocity P-wave (km/s) = 5.99823 6.42956 6.21764
#
# Compressibility (1/GPa) = 0.02456287
#
# Stress axis : x y z
#
# Youngs Moduli (GPa) = 74.79219 51.44925 48.68504
#
# Poissons Ratio (x) = 0.44574 0.02938
# Poissons Ratio (y) = 0.64797 0.24951
# Poissons Ratio (z) = 0.04514 0.26368
#
# Static dielectric constant tensor:
#      x y z
#    x 3.737890 0.000000 0.000000 
#    y 0.000000 3.730250 0.000000 
#    z 0.000000 0.000000 3.576890 
# 
# 
# High freq. dielectric constant tensor:
#      x y z
#    x 1.807240 0.000000 0.000000 
#    y 0.000000 1.807820 0.000000 
#    z 0.000000 0.000000 1.799620 
# 
# From -- ./inp_files/6431.got.cif
#   From: 2010.06.25/outbox.cif.g09.slc.cpg/sg58_4_cif.got.tgz:6431.got - 2010.06.26 21:38:00.
