data_PCOD8236996
_publ_section_title
;
Structure prediction by ZEFSAII (Michael W. Deem and Ramdas Pophale) SiO2 
 PCOD8236996
Probable space group: P N N M
;
_chemical_formula_sum "Si O2"
_cell_formula_units_Z 56
_cell_length_a 11.981021
_cell_length_b 11.449375
_cell_length_c 24.140997
_cell_angle_alpha 90.000000
_cell_angle_beta 90.000000
_cell_angle_gamma 90.000000
_cell_volume 3311.546147
_symmetry_space_group_name_H-M "P N N M"
_symmetry_group_IT_number 58
_symmetry_cell_setting 'orthorhombic'
loop_
_space_group_symop_operation_xyz
x,y,z
-x,-y,z
1/2+x,1/2-y,1/2-z
1/2-x,1/2+y,1/2-z
-x,-y,-z
x,y,-z
1/2-x,1/2+y,1/2+z
1/2+x,1/2-y,1/2+z
loop_
_atom_site_type_symbol
_atom_site_label
_atom_site_fract_x
_atom_site_fract_y
_atom_site_fract_z
Si Si1 0.264871 0.529907 0.161104
Si Si2 0.007300 0.830907 0.204506
Si Si3 0.000000 0.000000 0.887120
Si Si4 0.666349 0.672299 0.437921
Si Si5 0.092591 0.404328 0.238206
Si Si6 0.109707 0.568064 0.936866
Si Si7 0.258075 0.795913 0.826722
Si Si8 0.500000 0.500000 0.198225
O O1 0.193715 0.450125 0.201755
O O2 0.214528 0.525749 0.099419
O O3 0.264979 0.659429 0.186115
O O4 0.391762 0.482212 0.159271
O O5 0.947291 0.901083 0.154018
O O6 0.139433 0.842397 0.194700
O O7 0.965835 0.698595 0.203578
O O8 0.978541 0.887124 0.263570
O O9 0.908962 0.058459 0.927211
O O10 0.716413 0.664967 0.500000
O O11 0.592973 0.791724 0.430854
O O12 0.766554 0.677765 0.392972
O O13 0.141089 0.361941 0.296840
O O14 0.000000 0.500000 0.251471
O O15 0.000000 0.500000 0.915219
O O16 0.135341 0.532424 0.000000
#
# Coordination Sequence:
#
# PCOD8236996 Si02
#       8
#     8   8   4   8   8   8   8   4
#     4  11  21  32  55  77 107 143 178 215 273 325
#     4  10  20  34  48  76 112 144 172 220 269 324
#     4   9  19  30  51  74 107 138 172 218 270 312
#     4   9  18  33  53  75 102 142 180 217 272 326
#     4  12  22  33  57  84 110 143 186 222 273 333
#     4   9  19  35  55  80 107 134 178 233 275 316
#     4  10  20  34  50  78 108 137 176 224 266 323
#     4  11  20  34  48  72 112 150 173 212 272 320
#
# _framework density 16.910529
#
# number of rings (size 3 to 8) (size 9 to 14) (size 15 to 20)
#    0.000    1.857    4.286    0.643    4.000    0.000 
#    0.000    0.357    0.000    0.429    0.000    0.000 
#    0.000    0.000    0.000    0.000    0.000    0.000 
#
# Total GULP energy -694241.891058 kJ/mol
# GULP energy per Si atom -12397.176626 kJ/mol
# Density = 1.687204 g / cm^3
# Si number density = 16.910529 Si / 1000 Ang^3
#
#
#
# Elastic Constant Matrix: (Units=GPa)
#
#
# Indices 1 2 3 4 5 6 
#
# 1 94.4497 30.4272 45.4475 0.0000 0.0000 0.0000
# 2 30.4272 89.8691 36.5401 0.0000 0.0000 0.0000
# 3 45.4475 36.5401 99.4753 0.0000 0.0000 0.0000
# 4 0.0000 0.0000 0.0000 21.7151 0.0000 0.0000
# 5 0.0000 0.0000 0.0000 0.0000 15.7414 0.0000
# 6 0.0000 0.0000 0.0000 0.0000 0.0000 22.0371
#
#
#
# Elastic Compliance Matrix: (Units=1/GPa)
#
#
# Indices 1 2 3 4 5 6 
#
# 1 0.014041 -0.002522 -0.005489 0.000000 0.000000 0.000000
# 2 -0.002522 0.013534 -0.003819 0.000000 0.000000 0.000000
# 3 -0.005489 -0.003819 0.013963 0.000000 0.000000 0.000000
# 4 0.000000 0.000000 0.000000 0.046051 0.000000 0.000000
# 5 0.000000 0.000000 0.000000 0.000000 0.063527 0.000000
# 6 0.000000 0.000000 0.000000 0.000000 0.000000 0.045378
#
#
# Mechanical properties :
#
#
# Convention : Reuss Voigt Hill
#
# Bulk Modulus (GPa) = 55.93285 56.51374 56.22329
# Shear Modulus (GPa) = 22.11277 23.32400 22.71839
#
# Velocity S-wave (km/s) = 3.62004 3.71787 3.66928
# Velocity P-wave (km/s) = 7.11481 7.20568 7.16039
#
# Compressibility (1/GPa) = 0.01787858
#
# Stress axis : x y z
#
# Youngs Moduli (GPa) = 71.21894 73.88750 71.61712
#
# Poissons Ratio (x) = 0.18637 0.39307
# Poissons Ratio (y) = 0.17964 0.27351
# Poissons Ratio (z) = 0.39089 0.28218
#
# Static dielectric constant tensor:
#      x y z
#    x 2.989170 0.000000 0.000000 
#    y 0.000000 3.304180 0.000000 
#    z 0.000000 0.000000 3.272640 
# 
# 
# High freq. dielectric constant tensor:
#      x y z
#    x 1.622450 0.000000 0.000000 
#    y 0.000000 1.661680 0.000000 
#    z 0.000000 0.000000 1.650480 
# 
# From -- ./inp_files/33614.got.cif
#   From: 2010.06.25/outbox.cif.g09.slc.cpg/sg58_17_cif.got.tgz:33614.got - 2010.06.26 21:38:00.
