data_PCOD8236029
_publ_section_title
;
Structure prediction by ZEFSAII (Michael W. Deem and Ramdas Pophale) SiO2 
 PCOD8236029
Probable space group: P N N M
;
_chemical_formula_sum "Si O2"
_cell_formula_units_Z 48
_cell_length_a 17.952615
_cell_length_b 16.340629
_cell_length_c 9.068004
_cell_angle_alpha 90.000000
_cell_angle_beta 90.000000
_cell_angle_gamma 90.000000
_cell_volume 2660.162643
_symmetry_space_group_name_H-M "P N N M"
_symmetry_group_IT_number 58
_symmetry_cell_setting 'orthorhombic'
loop_
_space_group_symop_operation_xyz
x,y,z
-x,-y,z
1/2+x,1/2-y,1/2-z
1/2-x,1/2+y,1/2-z
-x,-y,-z
x,y,-z
1/2-x,1/2+y,1/2+z
1/2+x,1/2-y,1/2+z
loop_
_atom_site_type_symbol
_atom_site_label
_atom_site_fract_x
_atom_site_fract_y
_atom_site_fract_z
Si Si1 0.058264 0.262378 0.825598
Si Si2 0.829700 0.849620 0.326169
Si Si3 0.089826 0.830392 0.168179
Si Si4 0.479452 0.093136 0.172272
Si Si5 0.416291 0.490875 0.173957
Si Si6 0.340327 0.161139 0.670230
O O1 0.134595 0.227651 0.757833
O O2 0.992318 0.199499 0.783783
O O3 0.039522 0.350365 0.755769
O O4 0.066081 0.273772 0.000000
O O5 0.840543 0.835622 0.500000
O O6 0.743629 0.858403 0.282745
O O7 0.868075 0.932833 0.269971
O O8 0.117451 0.906770 0.264206
O O9 0.147823 0.757555 0.195792
O O10 0.089299 0.858940 0.000000
O O11 0.395874 0.108133 0.230432
O O12 0.500000 0.000000 0.205229
O O13 0.482361 0.114004 0.000000
O O14 0.500000 0.500000 0.234804
O O15 0.414610 0.485413 0.000000
O O16 0.356211 0.138704 0.500000
#
# Coordination Sequence:
#
# PCOD8236029 Si02
#       6
#     8   8   8   8   8   8
#     4  10  20  34  56  82 107 140 183 223 271 328
#     4  10  20  36  55  78 114 149 179 223 277 326
#     4   9  18  33  52  75 102 138 177 217 263 316
#     4  10  21  38  60  83 107 141 187 233 278 328
#     4  10  19  31  52  81 108 140 178 216 262 318
#     4   9  20  38  57  78 109 147 182 224 280 327
#
# _framework density 18.04401
#
# number of rings (size 3 to 8) (size 9 to 14) (size 15 to 20)
#    0.000    2.333    1.667    2.000    0.000    5.667 
#    3.000    0.000    0.000    0.000    0.000    0.000 
#    0.000    0.000    0.000    0.000    0.000    0.000 
#
# Total GULP energy -595314.227385 kJ/mol
# GULP energy per Si atom -12402.379737 kJ/mol
# Density = 1.800294 g / cm^3
# Si number density = 18.044010 Si / 1000 Ang^3
#
#
#
# Elastic Constant Matrix: (Units=GPa)
#
#
# Indices 1 2 3 4 5 6 
#
# 1 105.3380 59.0021 42.2134 0.0000 0.0000 0.0000
# 2 59.0021 120.3971 55.5014 0.0000 0.0000 0.0000
# 3 42.2134 55.5014 67.8525 0.0000 0.0000 0.0000
# 4 0.0000 0.0000 0.0000 33.3455 0.0000 0.0000
# 5 0.0000 0.0000 0.0000 0.0000 23.6219 0.0000
# 6 0.0000 0.0000 0.0000 0.0000 0.0000 24.4971
#
#
#
# Elastic Compliance Matrix: (Units=1/GPa)
#
#
# Indices 1 2 3 4 5 6 
#
# 1 0.014067 -0.004590 -0.004997 0.000000 0.000000 0.000000
# 2 -0.004590 0.014831 -0.009276 0.000000 0.000000 0.000000
# 3 -0.004997 -0.009276 0.025434 0.000000 0.000000 0.000000
# 4 0.000000 0.000000 0.000000 0.029989 0.000000 0.000000
# 5 0.000000 0.000000 0.000000 0.000000 0.042334 0.000000
# 6 0.000000 0.000000 0.000000 0.000000 0.000000 0.040821
#
#
# Mechanical properties :
#
#
# Convention : Reuss Voigt Hill
#
# Bulk Modulus (GPa) = 60.21806 67.44681 63.83244
# Shear Modulus (GPa) = 23.72624 25.41761 24.57192
#
# Velocity S-wave (km/s) = 3.63010 3.75726 3.69423
# Velocity P-wave (km/s) = 7.14251 7.50219 7.32456
#
# Compressibility (1/GPa) = 0.01660631
#
# Stress axis : x y z
#
# Youngs Moduli (GPa) = 71.08983 67.42464 39.31740
#
# Poissons Ratio (x) = 0.30949 0.19646
# Poissons Ratio (y) = 0.32631 0.36471
# Poissons Ratio (z) = 0.35522 0.62543
#
# Static dielectric constant tensor:
#      x y z
#    x 3.303430 0.000000 0.000000 
#    y 0.000000 3.312270 0.000000 
#    z 0.000000 0.000000 3.255580 
# 
# 
# High freq. dielectric constant tensor:
#      x y z
#    x 1.686530 0.000000 0.000000 
#    y 0.000000 1.700810 0.000000 
#    z 0.000000 0.000000 1.698080 
# 
# From -- ./inp_files/7726.got.cif
#   From: 2010.06.25/outbox.cif.g09.slc.cpg/sg58_4_cif.got.tgz:7726.got - 2010.06.26 21:38:00.
