data_PCOD8236425
_publ_section_title
;
Structure prediction by ZEFSAII (Michael W. Deem and Ramdas Pophale) SiO2 
 PCOD8236425
Probable space group: P N N M
;
_chemical_formula_sum "Si O2"
_cell_formula_units_Z 64
_cell_length_a 22.156722
_cell_length_b 16.896123
_cell_length_c 8.654140
_cell_angle_alpha 90.000000
_cell_angle_beta 90.000000
_cell_angle_gamma 90.000000
_cell_volume 3239.787218
_symmetry_space_group_name_H-M "P N N M"
_symmetry_group_IT_number 58
_symmetry_cell_setting 'orthorhombic'
loop_
_space_group_symop_operation_xyz
x,y,z
-x,-y,z
1/2+x,1/2-y,1/2-z
1/2-x,1/2+y,1/2-z
-x,-y,-z
x,y,-z
1/2-x,1/2+y,1/2+z
1/2+x,1/2-y,1/2+z
loop_
_atom_site_type_symbol
_atom_site_label
_atom_site_fract_x
_atom_site_fract_y
_atom_site_fract_z
Si Si1 0.326678 0.079990 0.683956
Si Si2 0.691640 0.454875 0.819996
Si Si3 0.619382 0.068734 0.182194
Si Si4 0.966794 0.686726 0.815400
Si Si5 0.219335 0.323508 0.825176
Si Si6 0.369456 0.687191 0.674632
Si Si7 0.834254 0.120820 0.178564
Si Si8 0.099035 0.728947 0.182787
O O1 0.330703 0.068342 0.500000
O O2 0.258659 0.063425 0.748593
O O3 0.348580 0.167681 0.734684
O O4 0.374698 0.022466 0.768289
O O5 0.640638 0.392536 0.769911
O O6 0.666380 0.540325 0.773920
O O7 0.698382 0.450407 0.000000
O O8 0.555053 0.105796 0.232883
O O9 0.669464 0.112740 0.282488
O O10 0.629428 0.079436 0.000000
O O11 0.924833 0.760379 0.760589
O O12 0.033855 0.703491 0.752789
O O13 0.962560 0.676140 0.000000
O O14 0.192582 0.235965 0.813365
O O15 0.272714 0.330713 0.702841
O O16 0.241415 0.341919 0.000000
O O17 0.383725 0.662293 0.500000
O O18 0.886130 0.181357 0.238281
O O19 0.842125 0.099025 0.000000
O O20 0.095836 0.729492 0.000000
#
# Coordination Sequence:
#
# PCOD8236425 Si02
#       8
#     8   8   8   8   8   8   8   8
#     4  10  20  36  57  82 114 146 184 229 278 340
#     4  11  22  35  55  83 116 149 183 227 284 342
#     4  11  21  33  54  84 115 149 184 228 278 330
#     4   9  19  39  61  80 109 149 195 237 278 330
#     4  10  19  34  55  81 112 147 183 224 282 342
#     4   9  19  34  56  81 106 140 185 235 279 327
#     4  11  21  35  57  84 113 144 185 235 285 337
#     4   9  20  38  60  83 107 148 196 236 277 332
#
# _framework density 19.754384000000002
#
# number of rings (size 3 to 8) (size 9 to 14) (size 15 to 20)
#    0.000    2.000    1.250    3.750    0.000    4.500 
#    0.000    6.250    0.000    3.750    0.000    0.000 
#    0.000    0.000    0.000    0.000    0.000    0.000 
#
# Total GULP energy -793437.096295 kJ/mol
# GULP energy per Si atom -12397.454630 kJ/mol
# Density = 1.970942 g / cm^3
# Si number density = 19.754384 Si / 1000 Ang^3
#
#
#
# Elastic Constant Matrix: (Units=GPa)
#
#
# Indices 1 2 3 4 5 6 
#
# 1 52.7550 38.7905 4.7975 0.0000 0.0000 0.0000
# 2 38.7905 119.2726 24.7836 0.0000 0.0000 0.0000
# 3 4.7975 24.7836 38.7826 0.0000 0.0000 0.0000
# 4 0.0000 0.0000 0.0000 29.5150 0.0000 0.0000
# 5 0.0000 0.0000 0.0000 0.0000 21.6007 0.0000
# 6 0.0000 0.0000 0.0000 0.0000 0.0000 24.1306
#
#
#
# Elastic Compliance Matrix: (Units=1/GPa)
#
#
# Indices 1 2 3 4 5 6 
#
# 1 0.025111 -0.008673 0.002436 0.000000 0.000000 0.000000
# 2 -0.008673 0.012663 -0.007020 0.000000 0.000000 0.000000
# 3 0.002436 -0.007020 0.029969 0.000000 0.000000 0.000000
# 4 0.000000 0.000000 0.000000 0.033881 0.000000 0.000000
# 5 0.000000 0.000000 0.000000 0.000000 0.046295 0.000000
# 6 0.000000 0.000000 0.000000 0.000000 0.000000 0.041441
#
#
# Mechanical properties :
#
#
# Convention : Reuss Voigt Hill
#
# Bulk Modulus (GPa) = 24.25366 38.61705 31.43536
# Shear Modulus (GPa) = 21.77534 24.54517 23.16025
#
# Velocity S-wave (km/s) = 3.32370 3.52876 3.42776
# Velocity P-wave (km/s) = 5.19938 6.01614 5.62261
#
# Compressibility (1/GPa) = 0.04123090
#
# Stress axis : x y z
#
# Youngs Moduli (GPa) = 39.82275 78.96745 33.36760
#
# Poissons Ratio (x) = 0.68489 -0.08129
# Poissons Ratio (y) = 0.34538 0.23423
# Poissons Ratio (z) = -0.09701 0.55432
#
# Static dielectric constant tensor:
#      x y z
#    x 3.740290 0.000000 0.000000 
#    y 0.000000 3.724800 0.000000 
#    z 0.000000 0.000000 3.357720 
# 
# 
# High freq. dielectric constant tensor:
#      x y z
#    x 1.752350 0.000000 0.000000 
#    y 0.000000 1.776450 0.000000 
#    z 0.000000 0.000000 1.751540 
# 
# From -- ./inp_files/9927.got.cif
#   From: 2010.06.25/outbox.cif.g09.slc.cpg/sg58_5_cif.got.tgz:9927.got - 2010.06.26 21:38:00.
