data_PCOD8236703
_publ_section_title
;
Structure prediction by ZEFSAII (Michael W. Deem and Ramdas Pophale) SiO2 
 PCOD8236703
Probable space group: P N N M
;
_chemical_formula_sum "Si O2"
_cell_formula_units_Z 48
_cell_length_a 14.054049
_cell_length_b 20.385417
_cell_length_c 8.765617
_cell_angle_alpha 90.000000
_cell_angle_beta 90.000000
_cell_angle_gamma 90.000000
_cell_volume 2511.328666
_symmetry_space_group_name_H-M "P N N M"
_symmetry_group_IT_number 58
_symmetry_cell_setting 'orthorhombic'
loop_
_space_group_symop_operation_xyz
x,y,z
-x,-y,z
1/2+x,1/2-y,1/2-z
1/2-x,1/2+y,1/2-z
-x,-y,-z
x,y,-z
1/2-x,1/2+y,1/2+z
1/2+x,1/2-y,1/2+z
loop_
_atom_site_type_symbol
_atom_site_label
_atom_site_fract_x
_atom_site_fract_y
_atom_site_fract_z
Si Si1 0.745004 0.610583 0.680357
Si Si2 0.948662 0.564659 0.681728
Si Si3 0.756415 0.253479 0.319818
Si Si4 0.049518 0.691285 0.673864
Si Si5 0.083444 0.185317 0.674057
Si Si6 0.049126 0.932349 0.680200
O O1 0.735882 0.615063 0.500000
O O2 0.837679 0.568191 0.730266
O O3 0.759767 0.683670 0.742029
O O4 0.652455 0.574227 0.744985
O O5 0.954554 0.566793 0.500000
O O6 0.000000 0.500000 0.747649
O O7 0.006157 0.626451 0.752942
O O8 0.763302 0.241741 0.500000
O O9 0.852677 0.284689 0.249781
O O10 0.675296 0.306266 0.280018
O O11 0.073033 0.674178 0.500000
O O12 0.973087 0.747863 0.686928
O O13 0.114515 0.171152 0.500000
O O14 0.019168 0.126056 0.737605
O O15 0.063825 0.928076 0.500000
O O16 0.000000 0.000000 0.730920
#
# Coordination Sequence:
#
# PCOD8236703 Si02
#       6
#     8   8   8   8   8   8
#     4  11  21  35  59  86 112 147 190 239 288 341
#     4   9  18  33  54  80 109 143 179 221 280 340
#     4  11  21  34  57  86 114 149 191 235 281 337
#     4   9  17  32  53  77 107 143 181 222 272 332
#     4  10  19  36  57  80 111 146 189 234 279 337
#     4  10  22  40  60  81 114 158 193 232 295 358
#
# _framework density 19.113389000000002
#
# number of rings (size 3 to 8) (size 9 to 14) (size 15 to 20)
#    0.000    2.000    3.333    1.000    0.000    2.333 
#    0.000    1.667    0.000    2.000    0.000    0.000 
#    0.000    0.000    0.000    0.000    0.000    0.000 
#
# Total GULP energy -595110.668957 kJ/mol
# GULP energy per Si atom -12398.138937 kJ/mol
# Density = 1.906989 g / cm^3
# Si number density = 19.113389 Si / 1000 Ang^3
#
#
#
# Elastic Constant Matrix: (Units=GPa)
#
#
# Indices 1 2 3 4 5 6 
#
# 1 139.2422 50.0524 34.8264 0.0000 0.0000 0.0000
# 2 50.0524 124.0831 21.7332 0.0000 0.0000 0.0000
# 3 34.8264 21.7332 38.4330 0.0000 0.0000 0.0000
# 4 0.0000 0.0000 0.0000 10.7754 0.0000 0.0000
# 5 0.0000 0.0000 0.0000 0.0000 28.4672 0.0000
# 6 0.0000 0.0000 0.0000 0.0000 0.0000 36.6171
#
#
#
# Elastic Compliance Matrix: (Units=1/GPa)
#
#
# Indices 1 2 3 4 5 6 
#
# 1 0.010056 -0.002731 -0.007568 0.000000 0.000000 0.000000
# 2 -0.002731 0.009687 -0.003003 0.000000 0.000000 0.000000
# 3 -0.007568 -0.003003 0.034576 0.000000 0.000000 0.000000
# 4 0.000000 0.000000 0.000000 0.092804 0.000000 0.000000
# 5 0.000000 0.000000 0.000000 0.000000 0.035128 0.000000
# 6 0.000000 0.000000 0.000000 0.000000 0.000000 0.027310
#
#
# Mechanical properties :
#
#
# Convention : Reuss Voigt Hill
#
# Bulk Modulus (GPa) = 36.08275 57.22026 46.65150
# Shear Modulus (GPa) = 20.37461 28.18168 24.27815
#
# Velocity S-wave (km/s) = 3.26849 3.84402 3.56788
# Velocity P-wave (km/s) = 5.75875 7.05012 6.43690
#
# Compressibility (1/GPa) = 0.02771407
#
# Stress axis : x y z
#
# Youngs Moduli (GPa) = 99.43962 103.23447 28.92208
#
# Poissons Ratio (x) = 0.28192 0.21889
# Poissons Ratio (y) = 0.27156 0.08685
# Poissons Ratio (z) = 0.75260 0.31002
#
# Static dielectric constant tensor:
#      x y z
#    x 3.768320 0.000000 0.000000 
#    y 0.000000 3.650320 0.000000 
#    z 0.000000 0.000000 3.171250 
# 
# 
# High freq. dielectric constant tensor:
#      x y z
#    x 1.761140 0.000000 0.000000 
#    y 0.000000 1.744880 0.000000 
#    z 0.000000 0.000000 1.705800 
# 
# From -- ./inp_files/5900.got.cif
#   From: 2010.06.25/outbox.cif.g09.slc.cpg/sg58_3_cif.got.tgz:5900.got - 2010.06.26 21:38:00.
