data_PCOD8236723
_publ_section_title
;
Structure prediction by ZEFSAII (Michael W. Deem and Ramdas Pophale) SiO2 
 PCOD8236723
Probable space group: P N N M
;
_chemical_formula_sum "Si O2"
_cell_formula_units_Z 64
_cell_length_a 9.640951
_cell_length_b 12.060437
_cell_length_c 29.353259
_cell_angle_alpha 90.000000
_cell_angle_beta 90.000000
_cell_angle_gamma 90.000000
_cell_volume 3413.023249
_symmetry_space_group_name_H-M "P N N M"
_symmetry_group_IT_number 58
_symmetry_cell_setting 'orthorhombic'
loop_
_space_group_symop_operation_xyz
x,y,z
-x,-y,z
1/2+x,1/2-y,1/2-z
1/2-x,1/2+y,1/2-z
-x,-y,-z
x,y,-z
1/2-x,1/2+y,1/2+z
1/2+x,1/2-y,1/2+z
loop_
_atom_site_type_symbol
_atom_site_label
_atom_site_fract_x
_atom_site_fract_y
_atom_site_fract_z
Si Si1 0.762791 0.376947 0.311845
Si Si2 0.654721 0.032424 0.949622
Si Si3 0.849643 0.953130 0.280915
Si Si4 0.025199 0.233001 0.861543
Si Si5 0.412578 0.608137 0.551002
Si Si6 0.438749 0.787547 0.792157
Si Si7 0.251976 0.402993 0.359773
Si Si8 0.100638 0.406615 0.200083
O O1 0.730068 0.445403 0.266730
O O2 0.647830 0.289501 0.325607
O O3 0.747565 0.463578 0.354176
O O4 0.899499 0.303206 0.303809
O O5 0.713897 0.120599 0.912880
O O6 0.500000 0.000000 0.935553
O O7 0.750390 0.922245 0.949846
O O8 0.657694 0.087710 0.000000
O O9 0.876849 0.834016 0.304268
O O10 0.752981 0.038013 0.310253
O O11 0.000000 0.000000 0.270829
O O12 0.061035 0.210521 0.914510
O O13 0.021153 0.362871 0.846827
O O14 0.891621 0.162010 0.846742
O O15 0.500000 0.500000 0.567969
O O16 0.462515 0.642454 0.500000
O O17 0.369651 0.870834 0.826704
O O18 0.396280 0.814063 0.740313
O O19 0.000000 0.500000 0.220291
#
# Coordination Sequence:
#
# PCOD8236723 Si02
#       8
#     8   8   8   8   8   8   8   8
#     4  12  22  36  55  83 113 148 196 240 282 353
#     4  10  20  34  55  84 121 153 180 230 290 353
#     4  12  25  39  57  79 110 153 199 246 291 340
#     4  12  23  35  59  84 116 153 196 234 296 354
#     4  10  19  36  58  87 120 147 186 238 296 357
#     4  12  25  39  57  77 113 159 195 239 298 344
#     4  12  22  36  56  85 115 154 190 231 285 359
#     4  12  24  41  56  81 117 152 200 253 291 348
#
# _framework density 18.751704
#
# number of rings (size 3 to 8) (size 9 to 14) (size 15 to 20)
#    0.000    0.500    6.250    3.750    0.000    0.000 
#    0.000    0.000    0.000    0.375    0.000    0.875 
#    0.000    2.000    0.000    0.000    0.000    0.000 
#
# Total GULP energy -792988.259117 kJ/mol
# GULP energy per Si atom -12390.441549 kJ/mol
# Density = 1.870902 g / cm^3
# Si number density = 18.751704 Si / 1000 Ang^3
#
#
#
# Elastic Constant Matrix: (Units=GPa)
#
#
# Indices 1 2 3 4 5 6 
#
# 1 122.0168 27.7293 27.0787 0.0000 0.0000 0.0000
# 2 27.7293 59.4725 25.1342 0.0000 0.0000 0.0000
# 3 27.0787 25.1342 101.9510 0.0000 0.0000 0.0000
# 4 0.0000 0.0000 0.0000 24.2713 0.0000 0.0000
# 5 0.0000 0.0000 0.0000 0.0000 21.6228 0.0000
# 6 0.0000 0.0000 0.0000 0.0000 0.0000 25.6714
#
#
#
# Elastic Compliance Matrix: (Units=1/GPa)
#
#
# Indices 1 2 3 4 5 6 
#
# 1 0.009389 -0.003710 -0.001579 0.000000 0.000000 0.000000
# 2 -0.003710 0.020236 -0.004003 0.000000 0.000000 0.000000
# 3 -0.001579 -0.004003 0.011215 0.000000 0.000000 0.000000
# 4 0.000000 0.000000 0.000000 0.041201 0.000000 0.000000
# 5 0.000000 0.000000 0.000000 0.000000 0.046248 0.000000
# 6 0.000000 0.000000 0.000000 0.000000 0.000000 0.038954
#
#
# Mechanical properties :
#
#
# Convention : Reuss Voigt Hill
#
# Bulk Modulus (GPa) = 44.93411 49.25831 47.09621
# Shear Modulus (GPa) = 25.87359 27.87963 26.87661
#
# Velocity S-wave (km/s) = 3.71860 3.86006 3.78999
# Velocity P-wave (km/s) = 6.51552 6.79651 6.65749
#
# Compressibility (1/GPa) = 0.02225481
#
# Stress axis : x y z
#
# Youngs Moduli (GPa) = 106.50465 49.41589 89.16613
#
# Poissons Ratio (x) = 0.18335 0.14080
# Poissons Ratio (y) = 0.39518 0.35697
# Poissons Ratio (z) = 0.16818 0.19783
#
# Static dielectric constant tensor:
#      x y z
#    x 3.655790 0.000000 0.000000 
#    y 0.000000 3.501790 0.000000 
#    z 0.000000 0.000000 3.616830 
# 
# 
# High freq. dielectric constant tensor:
#      x y z
#    x 1.751390 0.000000 0.000000 
#    y 0.000000 1.698180 0.000000 
#    z 0.000000 0.000000 1.715150 
# 
# From -- ./inp_files/34735.got.cif
#   From: 2010.06.25/outbox.cif.g09.slc.cpg/sg58_18_cif.got.tgz:34735.got - 2010.06.26 21:38:00.
