data_PCOD8236643
_publ_section_title
;
Structure prediction by ZEFSAII (Michael W. Deem and Ramdas Pophale) SiO2 
 PCOD8236643
Probable space group: P N N M
;
_chemical_formula_sum "Si O2"
_cell_formula_units_Z 56
_cell_length_a 16.399758
_cell_length_b 19.816338
_cell_length_c 8.519607
_cell_angle_alpha 90.000000
_cell_angle_beta 90.000000
_cell_angle_gamma 90.000000
_cell_volume 2768.728700
_symmetry_space_group_name_H-M "P N N M"
_symmetry_group_IT_number 58
_symmetry_cell_setting 'orthorhombic'
loop_
_space_group_symop_operation_xyz
x,y,z
-x,-y,z
1/2+x,1/2-y,1/2-z
1/2-x,1/2+y,1/2-z
-x,-y,-z
x,y,-z
1/2-x,1/2+y,1/2+z
1/2+x,1/2-y,1/2+z
loop_
_atom_site_type_symbol
_atom_site_label
_atom_site_fract_x
_atom_site_fract_y
_atom_site_fract_z
Si Si1 0.636536 0.893894 0.176164
Si Si2 0.196026 0.122628 0.319269
Si Si3 0.724232 0.598872 0.686673
Si Si4 0.875820 0.526379 0.820040
Si Si5 0.094466 0.995017 0.313601
Si Si6 0.533017 0.143290 0.179081
Si Si7 0.682068 0.230128 0.181886
O O1 0.708119 0.890614 0.302233
O O2 0.563182 0.839629 0.204020
O O3 0.594327 0.966115 0.207052
O O4 0.671599 0.887675 0.000000
O O5 0.171299 0.127063 0.500000
O O6 0.140874 0.062244 0.246645
O O7 0.185172 0.196176 0.235703
O O8 0.733209 0.594920 0.500000
O O9 0.784953 0.546551 0.768025
O O10 0.634192 0.573627 0.739874
O O11 0.751078 0.674815 0.744939
O O12 0.939371 0.586543 0.800532
O O13 0.874522 0.503314 0.000000
O O14 0.102737 0.989522 0.500000
O O15 0.000000 0.000000 0.261717
O O16 0.588850 0.208030 0.211868
O O17 0.547831 0.118388 0.000000
O O18 0.701993 0.239688 0.000000
#
# Coordination Sequence:
#
# PCOD8236643 Si02
#       7
#     8   8   8   8   8   8   8
#     4  11  21  33  52  81 113 142 180 226 273 330
#     4  10  20  37  59  78 109 151 188 230 282 339
#     4  10  19  35  59  82 108 145 188 231 279 337
#     4  11  20  31  52  81 111 142 176 219 273 327
#     4  10  21  37  57  86 115 146 190 239 286 335
#     4   9  19  35  53  76 108 145 184 223 270 329
#     4   8  17  36  58  78 104 147 191 226 280 340
#
# _framework density 20.225888999999999
#
# number of rings (size 3 to 8) (size 9 to 14) (size 15 to 20)
#    0.000    2.143    1.429    3.429    0.000    3.143 
#    2.571    3.571    0.000    0.000    0.000    0.000 
#    0.000    0.000    0.000    0.000    0.000    0.000 
#
# Total GULP energy -693789.649630 kJ/mol
# GULP energy per Si atom -12389.100886 kJ/mol
# Density = 2.017985 g / cm^3
# Si number density = 20.225889 Si / 1000 Ang^3
#
#
#
# Elastic Constant Matrix: (Units=GPa)
#
#
# Indices 1 2 3 4 5 6 
#
# 1 132.1822 48.8471 16.3154 0.0000 0.0000 0.0000
# 2 48.8471 112.3340 15.8109 0.0000 0.0000 0.0000
# 3 16.3154 15.8109 36.1139 0.0000 0.0000 0.0000
# 4 0.0000 0.0000 0.0000 14.9441 0.0000 0.0000
# 5 0.0000 0.0000 0.0000 0.0000 25.2301 0.0000
# 6 0.0000 0.0000 0.0000 0.0000 0.0000 12.9172
#
#
#
# Elastic Compliance Matrix: (Units=1/GPa)
#
#
# Indices 1 2 3 4 5 6 
#
# 1 0.009233 -0.003653 -0.002572 0.000000 0.000000 0.000000
# 2 -0.003653 0.010932 -0.003136 0.000000 0.000000 0.000000
# 3 -0.002572 -0.003136 0.030225 0.000000 0.000000 0.000000
# 4 0.000000 0.000000 0.000000 0.066916 0.000000 0.000000
# 5 0.000000 0.000000 0.000000 0.000000 0.039635 0.000000
# 6 0.000000 0.000000 0.000000 0.000000 0.000000 0.077416
#
#
# Mechanical properties :
#
#
# Convention : Reuss Voigt Hill
#
# Bulk Modulus (GPa) = 31.57710 49.17521 40.37616
# Shear Modulus (GPa) = 18.96569 23.92872 21.44720
#
# Velocity S-wave (km/s) = 3.06550 3.44332 3.25989
# Velocity P-wave (km/s) = 5.30809 6.33832 5.84595
#
# Compressibility (1/GPa) = 0.03166852
#
# Stress axis : x y z
#
# Youngs Moduli (GPa) = 108.31195 91.47699 33.08527
#
# Poissons Ratio (x) = 0.33414 0.08509
# Poissons Ratio (y) = 0.39563 0.10375
# Poissons Ratio (z) = 0.27856 0.28685
#
# Static dielectric constant tensor:
#      x y z
#    x 3.712350 0.000000 0.000000 
#    y 0.000000 3.929180 0.000000 
#    z 0.000000 0.000000 3.318170 
# 
# 
# High freq. dielectric constant tensor:
#      x y z
#    x 1.788500 0.000000 0.000000 
#    y 0.000000 1.778340 0.000000 
#    z 0.000000 0.000000 1.763620 
# 
# From -- ./inp_files/6335.got.cif
#   From: 2010.06.25/outbox.cif.g09.slc.cpg/sg58_4_cif.got.tgz:6335.got - 2010.06.26 21:38:00.
