data_PCOD8236962
_publ_section_title
;
Structure prediction by ZEFSAII (Michael W. Deem and Ramdas Pophale) SiO2 
 PCOD8236962
Probable space group: P N N M
;
_chemical_formula_sum "Si O2"
_cell_formula_units_Z 64
_cell_length_a 16.838703
_cell_length_b 21.591229
_cell_length_c 9.211252
_cell_angle_alpha 90.000000
_cell_angle_beta 90.000000
_cell_angle_gamma 90.000000
_cell_volume 3348.919162
_symmetry_space_group_name_H-M "P N N M"
_symmetry_group_IT_number 58
_symmetry_cell_setting 'orthorhombic'
loop_
_space_group_symop_operation_xyz
x,y,z
-x,-y,z
1/2+x,1/2-y,1/2-z
1/2-x,1/2+y,1/2-z
-x,-y,-z
x,y,-z
1/2-x,1/2+y,1/2+z
1/2+x,1/2-y,1/2+z
loop_
_atom_site_type_symbol
_atom_site_label
_atom_site_fract_x
_atom_site_fract_y
_atom_site_fract_z
Si Si1 0.193125 0.721079 0.159723
Si Si2 0.636550 0.669088 0.832064
Si Si3 0.781306 0.591872 0.832374
Si Si4 0.919631 0.682762 0.168518
Si Si5 0.461713 0.690797 0.828159
Si Si6 0.427301 0.113745 0.663626
Si Si7 0.195057 0.532224 0.672331
Si Si8 0.686105 0.383771 0.167271
O O1 0.189066 0.774712 0.275533
O O2 0.114847 0.679817 0.169789
O O3 0.269557 0.680534 0.195853
O O4 0.200302 0.750829 0.000000
O O5 0.688040 0.607219 0.801547
O O6 0.547697 0.669317 0.764889
O O7 0.626291 0.680335 0.000000
O O8 0.833568 0.653194 0.799598
O O9 0.808093 0.538141 0.724755
O O10 0.793171 0.571330 0.000000
O O11 0.931730 0.745514 0.257939
O O12 0.982837 0.628705 0.212469
O O13 0.930761 0.699827 0.000000
O O14 0.404730 0.632066 0.791646
O O15 0.462316 0.702305 0.000000
O O16 0.423266 0.086108 0.500000
O O17 0.384623 0.065751 0.771063
O O18 0.196215 0.535431 0.500000
O O19 0.276061 0.563099 0.732939
O O20 0.696063 0.405216 0.000000
#
# Coordination Sequence:
#
# PCOD8236962 Si02
#       8
#     8   8   8   8   8   8   8   8
#     4   9  16  29  51  76 104 139 176 214 263 319
#     4  10  20  33  52  80 111 142 177 220 272 322
#     4  10  22  39  56  76 108 149 187 223 266 326
#     4  10  20  35  57  84 114 149 185 218 264 330
#     4  10  20  34  55  85 117 144 176 224 276 322
#     4   9  18  34  55  80 111 148 181 214 266 328
#     4  11  23  38  57  80 105 139 188 237 278 318
#     4   9  19  36  56  77 106 146 184 219 268 330
#
# _framework density 19.110643
#
# number of rings (size 3 to 8) (size 9 to 14) (size 15 to 20)
#    0.000    2.250    1.250    2.625    0.000    4.500 
#    0.000    3.125    0.000    3.750    0.000    0.000 
#    0.000    0.000    0.000    0.000    0.000    0.000 
#
# Total GULP energy -793344.013180 kJ/mol
# GULP energy per Si atom -12396.000206 kJ/mol
# Density = 1.906715 g / cm^3
# Si number density = 19.110643 Si / 1000 Ang^3
#
#
#
# Elastic Constant Matrix: (Units=GPa)
#
#
# Indices 1 2 3 4 5 6 
#
# 1 99.7907 29.8761 35.3920 0.0000 0.0000 0.0000
# 2 29.8761 52.2173 29.6734 0.0000 0.0000 0.0000
# 3 35.3920 29.6734 58.8337 0.0000 0.0000 0.0000
# 4 0.0000 0.0000 0.0000 32.7573 0.0000 0.0000
# 5 0.0000 0.0000 0.0000 0.0000 21.1065 0.0000
# 6 0.0000 0.0000 0.0000 0.0000 0.0000 16.3945
#
#
#
# Elastic Compliance Matrix: (Units=1/GPa)
#
#
# Indices 1 2 3 4 5 6 
#
# 1 0.013402 -0.004326 -0.005880 0.000000 0.000000 0.000000
# 2 -0.004326 0.028241 -0.011641 0.000000 0.000000 0.000000
# 3 -0.005880 -0.011641 0.026406 0.000000 0.000000 0.000000
# 4 0.000000 0.000000 0.000000 0.030528 0.000000 0.000000
# 5 0.000000 0.000000 0.000000 0.000000 0.047379 0.000000
# 6 0.000000 0.000000 0.000000 0.000000 0.000000 0.060996
#
#
# Mechanical properties :
#
#
# Convention : Reuss Voigt Hill
#
# Bulk Modulus (GPa) = 41.06171 44.52496 42.79334
# Shear Modulus (GPa) = 19.32264 21.77834 20.55049
#
# Velocity S-wave (km/s) = 3.18322 3.37945 3.28280
# Velocity P-wave (km/s) = 5.91975 6.21101 6.06713
#
# Compressibility (1/GPa) = 0.02435359
#
# Stress axis : x y z
#
# Youngs Moduli (GPa) = 74.61803 35.40892 37.87088
#
# Poissons Ratio (x) = 0.15319 0.22267
# Poissons Ratio (y) = 0.32283 0.44087
# Poissons Ratio (z) = 0.43874 0.41221
#
# Static dielectric constant tensor:
#      x y z
#    x 3.928710 0.000000 0.000000 
#    y 0.000000 3.176830 0.000000 
#    z 0.000000 0.000000 3.356690 
# 
# 
# High freq. dielectric constant tensor:
#      x y z
#    x 1.756800 0.000000 0.000000 
#    y 0.000000 1.719630 0.000000 
#    z 0.000000 0.000000 1.728510 
# 
# From -- ./inp_files/8350.got.cif
#   From: 2010.06.25/outbox.cif.g09.slc.cpg/sg58_5_cif.got.tgz:8350.got - 2010.06.26 21:38:00.
