data_PCOD8236898
_publ_section_title
;
Structure prediction by ZEFSAII (Michael W. Deem and Ramdas Pophale) SiO2 
 PCOD8236898
Probable space group: P N N M
;
_chemical_formula_sum "Si O2"
_cell_formula_units_Z 64
_cell_length_a 20.616212
_cell_length_b 19.015720
_cell_length_c 9.059732
_cell_angle_alpha 90.000000
_cell_angle_beta 90.000000
_cell_angle_gamma 90.000000
_cell_volume 3551.705896
_symmetry_space_group_name_H-M "P N N M"
_symmetry_group_IT_number 58
_symmetry_cell_setting 'orthorhombic'
loop_
_space_group_symop_operation_xyz
x,y,z
-x,-y,z
1/2+x,1/2-y,1/2-z
1/2-x,1/2+y,1/2-z
-x,-y,-z
x,y,-z
1/2-x,1/2+y,1/2+z
1/2+x,1/2-y,1/2+z
loop_
_atom_site_type_symbol
_atom_site_label
_atom_site_fract_x
_atom_site_fract_y
_atom_site_fract_z
Si Si1 0.439383 0.545277 0.172978
Si Si2 0.991028 0.825280 0.172703
Si Si3 0.491039 0.813884 0.168497
Si Si4 0.640034 0.816106 0.830912
Si Si5 0.688284 0.538743 0.825440
Si Si6 0.640234 0.674006 0.325683
Si Si7 0.191491 0.532927 0.673792
Si Si8 0.561888 0.038575 0.172708
O O1 0.500000 0.500000 0.229195
O O2 0.442245 0.619967 0.253155
O O3 0.374725 0.505413 0.220619
O O4 0.442928 0.559059 0.000000
O O5 0.969137 0.748407 0.224653
O O6 0.065479 0.839051 0.221282
O O7 0.982561 0.830803 0.000000
O O8 0.565216 0.836963 0.198280
O O9 0.443460 0.878514 0.203948
O O10 0.483126 0.788714 0.000000
O O11 0.662338 0.751105 0.729137
O O12 0.683289 0.884139 0.793181
O O13 0.649787 0.793018 0.000000
O O14 0.684881 0.615409 0.750900
O O15 0.748472 0.495214 0.765680
O O16 0.693516 0.548758 0.000000
O O17 0.650040 0.669999 0.500000
O O18 0.202236 0.519305 0.500000
O O19 0.129064 0.491016 0.736689
O O20 0.500000 0.000000 0.246799
O O21 0.561249 0.020974 0.000000
#
# Coordination Sequence:
#
# PCOD8236898 Si02
#       8
#     8   8   8   8   8   8   8   8
#     4  10  20  36  57  78 101 135 180 223 264 320
#     4  10  20  32  51  81 113 139 170 221 279 326
#     4   9  16  29  53  81 109 141 180 222 261 311
#     4   9  17  31  54  81 108 141 179 220 265 318
#     4  11  23  38  56  79 109 144 183 226 272 326
#     4  10  20  34  54  80 109 140 177 222 270 324
#     4  10  20  35  56  83 114 145 181 224 271 320
#     4   9  15  29  55  84 108 137 181 223 258 307
#
# _framework density 18.019508999999999
#
# number of rings (size 3 to 8) (size 9 to 14) (size 15 to 20)
#    0.000    2.250    2.500    1.125    0.000    2.750 
#    0.000    1.875    0.000    2.250    0.000    0.000 
#    0.000    0.000    0.000    0.000    0.000    0.000 
#
# Total GULP energy -793700.971518 kJ/mol
# GULP energy per Si atom -12401.577680 kJ/mol
# Density = 1.797850 g / cm^3
# Si number density = 18.019509 Si / 1000 Ang^3
#
#
#
# Elastic Constant Matrix: (Units=GPa)
#
#
# Indices 1 2 3 4 5 6 
#
# 1 102.7953 62.6049 38.9979 0.0000 0.0000 0.0000
# 2 62.6049 120.9661 47.9036 0.0000 0.0000 0.0000
# 3 38.9979 47.9036 54.1377 0.0000 0.0000 0.0000
# 4 0.0000 0.0000 0.0000 24.7047 0.0000 0.0000
# 5 0.0000 0.0000 0.0000 0.0000 23.1191 0.0000
# 6 0.0000 0.0000 0.0000 0.0000 0.0000 27.7805
#
#
#
# Elastic Compliance Matrix: (Units=1/GPa)
#
#
# Indices 1 2 3 4 5 6 
#
# 1 0.015466 -0.005530 -0.006248 0.000000 0.000000 0.000000
# 2 -0.005530 0.014704 -0.009027 0.000000 0.000000 0.000000
# 3 -0.006248 -0.009027 0.030959 0.000000 0.000000 0.000000
# 4 0.000000 0.000000 0.000000 0.040478 0.000000 0.000000
# 5 0.000000 0.000000 0.000000 0.000000 0.043254 0.000000
# 6 0.000000 0.000000 0.000000 0.000000 0.000000 0.035996
#
#
# Mechanical properties :
#
#
# Convention : Reuss Voigt Hill
#
# Bulk Modulus (GPa) = 51.23015 64.10135 57.66575
# Shear Modulus (GPa) = 21.83654 23.68036 22.75845
#
# Velocity S-wave (km/s) = 3.48491 3.62906 3.55771
# Velocity P-wave (km/s) = 6.68468 7.29456 6.99627
#
# Compressibility (1/GPa) = 0.01951975
#
# Stress axis : x y z
#
# Youngs Moduli (GPa) = 64.65627 68.01050 32.30070
#
# Poissons Ratio (x) = 0.37612 0.20180
# Poissons Ratio (y) = 0.35757 0.29157
# Poissons Ratio (z) = 0.40395 0.61391
#
# Static dielectric constant tensor:
#      x y z
#    x 3.179060 0.000000 0.000000 
#    y 0.000000 3.375410 0.000000 
#    z 0.000000 0.000000 3.129410 
# 
# 
# High freq. dielectric constant tensor:
#      x y z
#    x 1.672520 0.000000 0.000000 
#    y 0.000000 1.710360 0.000000 
#    z 0.000000 0.000000 1.683210 
# 
# From -- ./inp_files/9323.got.cif
#   From: 2010.06.25/outbox.cif.g09.slc.cpg/sg58_5_cif.got.tgz:9323.got - 2010.06.26 21:38:00.
