data_PCOD8236561
_publ_section_title
;
Structure prediction by ZEFSAII (Michael W. Deem and Ramdas Pophale) SiO2 
 PCOD8236561
Probable space group: P N N M
;
_chemical_formula_sum "Si O2"
_cell_formula_units_Z 48
_cell_length_a 21.463526
_cell_length_b 12.027288
_cell_length_c 9.120170
_cell_angle_alpha 90.000000
_cell_angle_beta 90.000000
_cell_angle_gamma 90.000000
_cell_volume 2354.353724
_symmetry_space_group_name_H-M "P N N M"
_symmetry_group_IT_number 58
_symmetry_cell_setting 'orthorhombic'
loop_
_space_group_symop_operation_xyz
x,y,z
-x,-y,z
1/2+x,1/2-y,1/2-z
1/2-x,1/2+y,1/2-z
-x,-y,-z
x,y,-z
1/2-x,1/2+y,1/2+z
1/2+x,1/2-y,1/2+z
loop_
_atom_site_type_symbol
_atom_site_label
_atom_site_fract_x
_atom_site_fract_y
_atom_site_fract_z
Si Si1 0.200289 0.590528 0.674268
Si Si2 0.927846 0.998954 0.170309
Si Si3 0.010688 0.375654 0.172454
Si Si4 0.633106 0.132596 0.165901
Si Si5 0.110580 0.752259 0.829837
Si Si6 0.824911 0.870200 0.667854
O O1 0.203996 0.598544 0.500000
O O2 0.164515 0.479538 0.727840
O O3 0.167078 0.700406 0.737445
O O4 0.269489 0.578736 0.736923
O O5 0.894104 0.116779 0.196546
O O6 0.890997 0.909797 0.267080
O O7 0.924664 0.964059 0.000000
O O8 0.000000 0.000000 0.221048
O O9 0.073708 0.330474 0.241169
O O10 0.000000 0.500000 0.228891
O O11 0.953687 0.300887 0.226995
O O12 0.018227 0.368844 0.000000
O O13 0.680383 0.236154 0.175892
O O14 0.611568 0.111485 0.000000
O O15 0.122129 0.723427 0.000000
O O16 0.819413 0.910680 0.500000
#
# Coordination Sequence:
#
# PCOD8236561 Si02
#       6
#     8   8   8   8   8   8
#     4  11  24  41  61  89 121 161 207 248 306 370
#     4  10  22  42  67  93 125 165 206 251 309 371
#     4  10  19  34  60  92 121 154 199 245 293 355
#     4  10  23  41  61  86 121 159 196 248 304 357
#     4  10  21  38  61  91 127 161 199 252 306 358
#     4  11  25  43  63  89 122 161 207 256 306 358
#
# _framework density 20.387761000000001
#
# number of rings (size 3 to 8) (size 9 to 14) (size 15 to 20)
#    0.000    1.667    1.667    2.000    2.333    5.333 
#    0.000    0.000    0.000    0.000    0.000    0.000 
#    0.000    0.000    0.000    0.000    0.000    0.000 
#
# Total GULP energy -595394.177881 kJ/mol
# GULP energy per Si atom -12404.045373 kJ/mol
# Density = 2.034136 g / cm^3
# Si number density = 20.387761 Si / 1000 Ang^3
#
#
#
# Elastic Constant Matrix: (Units=GPa)
#
#
# Indices 1 2 3 4 5 6 
#
# 1 120.3876 24.9487 49.3451 0.0000 0.0000 0.0000
# 2 24.9487 81.4634 31.4244 0.0000 0.0000 0.0000
# 3 49.3451 31.4244 75.3132 0.0000 0.0000 0.0000
# 4 0.0000 0.0000 0.0000 27.0083 0.0000 0.0000
# 5 0.0000 0.0000 0.0000 0.0000 37.2006 0.0000
# 6 0.0000 0.0000 0.0000 0.0000 0.0000 29.3979
#
#
#
# Elastic Compliance Matrix: (Units=1/GPa)
#
#
# Indices 1 2 3 4 5 6 
#
# 1 0.011392 -0.000727 -0.007161 0.000000 0.000000 0.000000
# 2 -0.000727 0.014677 -0.005648 0.000000 0.000000 0.000000
# 3 -0.007161 -0.005648 0.020326 0.000000 0.000000 0.000000
# 4 0.000000 0.000000 0.000000 0.037026 0.000000 0.000000
# 5 0.000000 0.000000 0.000000 0.000000 0.026881 0.000000
# 6 0.000000 0.000000 0.000000 0.000000 0.000000 0.034016
#
#
# Mechanical properties :
#
#
# Convention : Reuss Voigt Hill
#
# Bulk Modulus (GPa) = 51.74795 54.28895 53.01845
# Shear Modulus (GPa) = 28.11670 30.15111 29.13390
#
# Velocity S-wave (km/s) = 3.71765 3.84980 3.78430
# Velocity P-wave (km/s) = 6.62305 6.81522 6.71983
#
# Compressibility (1/GPa) = 0.01932444
#
# Stress axis : x y z
#
# Youngs Moduli (GPa) = 87.77869 68.13579 49.19733
#
# Poissons Ratio (x) = 0.04951 0.35230
# Poissons Ratio (y) = 0.06378 0.27785
# Poissons Ratio (z) = 0.62859 0.38481
#
# Static dielectric constant tensor:
#      x y z
#    x 3.636440 0.000000 0.000000 
#    y 0.000000 3.755810 0.000000 
#    z 0.000000 0.000000 3.555740 
# 
# 
# High freq. dielectric constant tensor:
#      x y z
#    x 1.799930 0.000000 0.000000 
#    y 0.000000 1.805630 0.000000 
#    z 0.000000 0.000000 1.788160 
# 
# From -- ./inp_files/9739.got.cif
#   From: 2010.06.25/outbox.cif.g09.slc.cpg/sg58_5_cif.got.tgz:9739.got - 2010.06.26 21:38:00.
