data_PCOD8236791
_publ_section_title
;
Structure prediction by ZEFSAII (Michael W. Deem and Ramdas Pophale) SiO2 
 PCOD8236791
Probable space group: P N N M
;
_chemical_formula_sum "Si O2"
_cell_formula_units_Z 56
_cell_length_a 23.489722
_cell_length_b 7.978800
_cell_length_c 13.640600
_cell_angle_alpha 90.000000
_cell_angle_beta 90.000000
_cell_angle_gamma 90.000000
_cell_volume 2556.518441
_symmetry_space_group_name_H-M "P N N M"
_symmetry_group_IT_number 58
_symmetry_cell_setting 'orthorhombic'
loop_
_space_group_symop_operation_xyz
x,y,z
-x,-y,z
1/2+x,1/2-y,1/2-z
1/2-x,1/2+y,1/2-z
-x,-y,-z
x,y,-z
1/2-x,1/2+y,1/2+z
1/2+x,1/2-y,1/2+z
loop_
_atom_site_type_symbol
_atom_site_label
_atom_site_fract_x
_atom_site_fract_y
_atom_site_fract_z
Si Si1 0.272631 0.495415 0.616041
Si Si2 0.944934 0.587658 0.750479
Si Si3 0.723791 0.878076 0.615791
Si Si4 0.852914 0.403332 0.383273
Si Si5 0.045696 0.143332 0.608389
Si Si6 0.150100 0.303951 0.115708
Si Si7 0.340258 0.478625 0.883768
O O1 0.274292 0.510720 0.500000
O O2 0.293436 0.309973 0.651974
O O3 0.207122 0.514961 0.649598
O O4 0.313232 0.645327 0.656350
O O5 0.903233 0.479460 0.681582
O O6 0.977633 0.714404 0.678461
O O7 0.911702 0.689464 0.834533
O O8 0.000000 0.500000 0.799934
O O9 0.732265 0.871446 0.500000
O O10 0.677429 0.016362 0.644459
O O11 0.783542 0.939769 0.663989
O O12 0.864902 0.427342 0.500000
O O13 0.847659 0.211608 0.351543
O O14 0.055635 0.216712 0.500000
O O15 0.105711 0.082517 0.653316
O O16 0.000000 0.000000 0.604069
O O17 0.141899 0.287640 0.000000
O O18 0.335762 0.485169 0.000000
#
# Coordination Sequence:
#
# PCOD8236791 Si02
#       7
#     8   8   8   8   8   8   8
#     4   9  17  35  64  95 125 159 204 260 324 387
#     4  12  26  42  59  91 126 168 223 266 311 379
#     4   9  16  32  61  91 120 156 200 254 316 379
#     4  10  19  36  63  95 130 165 201 253 318 384
#     4  10  21  39  62  88 123 169 208 253 319 383
#     4  10  22  44  65  88 125 167 215 272 324 370
#     4   9  16  31  58  90 126 162 197 245 310 381
#
# _framework density 21.904789000000001
#
# number of rings (size 3 to 8) (size 9 to 14) (size 15 to 20)
#    0.000    2.143    1.429    2.143    0.000    4.857 
#   10.286    0.000    0.000    0.429    0.000    0.000 
#    0.000    0.000    0.000    0.000    0.000    0.000 
#
# Total GULP energy -694070.790689 kJ/mol
# GULP energy per Si atom -12394.121262 kJ/mol
# Density = 2.185493 g / cm^3
# Si number density = 21.904789 Si / 1000 Ang^3
#
#
#
# Elastic Constant Matrix: (Units=GPa)
#
#
# Indices 1 2 3 4 5 6 
#
# 1 108.7455 26.3875 34.2685 0.0000 0.0000 0.0000
# 2 26.3875 130.1257 20.6988 0.0000 0.0000 0.0000
# 3 34.2685 20.6988 45.9804 0.0000 0.0000 0.0000
# 4 0.0000 0.0000 0.0000 1.2322 0.0000 0.0000
# 5 0.0000 0.0000 0.0000 0.0000 28.0457 0.0000
# 6 0.0000 0.0000 0.0000 0.0000 0.0000 26.2580
#
#
#
# Elastic Compliance Matrix: (Units=1/GPa)
#
#
# Indices 1 2 3 4 5 6 
#
# 1 0.012164 -0.001104 -0.008569 0.000000 0.000000 0.000000
# 2 -0.001104 0.008378 -0.002949 0.000000 0.000000 0.000000
# 3 -0.008569 -0.002949 0.029462 0.000000 0.000000 0.000000
# 4 0.000000 0.000000 0.000000 0.811573 0.000000 0.000000
# 5 0.000000 0.000000 0.000000 0.000000 0.035656 0.000000
# 6 0.000000 0.000000 0.000000 0.000000 0.000000 0.038084
#
#
# Mechanical properties :
#
#
# Convention : Reuss Voigt Hill
#
# Bulk Modulus (GPa) = 40.38580 49.72903 45.05742
# Shear Modulus (GPa) = 5.16096 24.67363 14.91730
#
# Velocity S-wave (km/s) = 1.53662 3.35983 2.61244
# Velocity P-wave (km/s) = 4.65030 6.14841 5.45107
#
# Compressibility (1/GPa) = 0.02476118
#
# Stress axis : x y z
#
# Youngs Moduli (GPa) = 82.21117 119.36388 33.94206
#
# Poissons Ratio (x) = 0.13173 0.29084
# Poissons Ratio (y) = 0.09073 0.10009
# Poissons Ratio (z) = 0.70444 0.35199
#
# Static dielectric constant tensor:
#      x y z
#    x 5.052840 0.000000 0.000000 
#    y 0.000000 4.435200 0.000000 
#    z 0.000000 0.000000 3.743570 
# 
# 
# High freq. dielectric constant tensor:
#      x y z
#    x 1.846370 0.000000 0.000000 
#    y 0.000000 1.872140 0.000000 
#    z 0.000000 0.000000 1.853550 
# 
# From -- ./inp_files/23231.got.cif
#   From: 2010.06.25/outbox.cif.g09.slc.cpg/sg58_12_cif.got.tgz:23231.got - 2010.06.26 21:38:00.
