data_PCOD8236653
_publ_section_title
;
Structure prediction by ZEFSAII (Michael W. Deem and Ramdas Pophale) SiO2 
 PCOD8236653
Probable space group: P N N M
;
_chemical_formula_sum "Si O2"
_cell_formula_units_Z 56
_cell_length_a 15.010633
_cell_length_b 8.921689
_cell_length_c 20.691939
_cell_angle_alpha 90.000000
_cell_angle_beta 90.000000
_cell_angle_gamma 90.000000
_cell_volume 2771.068595
_symmetry_space_group_name_H-M "P N N M"
_symmetry_group_IT_number 58
_symmetry_cell_setting 'orthorhombic'
loop_
_space_group_symop_operation_xyz
x,y,z
-x,-y,z
1/2+x,1/2-y,1/2-z
1/2-x,1/2+y,1/2-z
-x,-y,-z
x,y,-z
1/2-x,1/2+y,1/2+z
1/2+x,1/2-y,1/2+z
loop_
_atom_site_type_symbol
_atom_site_label
_atom_site_fract_x
_atom_site_fract_y
_atom_site_fract_z
Si Si1 0.911442 0.572990 0.075910
Si Si2 0.100024 0.550544 0.714413
Si Si3 0.818220 0.860566 0.923932
Si Si4 0.148289 0.811318 0.372126
Si Si5 0.566916 0.773836 0.000000
Si Si6 0.630725 0.110484 0.000000
Si Si7 0.774535 0.624669 0.373045
Si Si8 0.226326 0.559530 0.835361
O O1 0.902535 0.751924 0.093145
O O2 0.828524 0.477268 0.100469
O O3 0.000000 0.500000 0.106803
O O4 0.911290 0.552422 0.000000
O O5 0.101384 0.720396 0.686704
O O6 0.138247 0.450037 0.657384
O O7 0.166135 0.519073 0.773907
O O8 0.000000 0.500000 0.732549
O O9 0.733134 0.768751 0.902133
O O10 0.812248 0.014434 0.882409
O O11 0.816718 0.898166 0.000000
O O12 0.083862 0.825149 0.434908
O O13 0.180146 0.968169 0.339553
O O14 0.464487 0.814779 0.000000
O O15 0.625069 0.928240 0.000000
O O16 0.689004 0.174713 0.941792
O O17 0.744983 0.764555 0.330392
#
# Coordination Sequence:
#
# PCOD8236653 Si02
#       8
#     8   8   8   8   4   4   8   8
#     4   9  19  35  57  82 112 154 203 250 295 341
#     4  11  22  41  62  81 111 159 205 241 284 355
#     4   9  15  31  55  82 113 149 194 236 285 355
#     4  10  19  35  59  86 115 154 191 237 294 357
#     4  11  18  35  61  91 116 151 194 236 288 370
#     4  11  20  33  61  93 120 148 192 240 296 363
#     4  11  21  36  59  90 119 155 195 245 302 365
#     4  11  24  36  58  84 123 149 196 242 305 355
#
# _framework density 20.208812000000002
#
# number of rings (size 3 to 8) (size 9 to 14) (size 15 to 20)
#    0.000    1.714    4.286    2.143    2.000    0.000 
#    0.000    4.286    0.000    4.286    0.000    0.000 
#    0.000    0.000    0.000    0.000    0.000    0.000 
#
# Total GULP energy -693854.387274 kJ/mol
# GULP energy per Si atom -12390.256916 kJ/mol
# Density = 2.016282 g / cm^3
# Si number density = 20.208812 Si / 1000 Ang^3
#
#
#
# Elastic Constant Matrix: (Units=GPa)
#
#
# Indices 1 2 3 4 5 6 
#
# 1 77.9118 40.1572 27.6665 0.0000 0.0000 0.0000
# 2 40.1572 105.7277 24.8597 0.0000 0.0000 0.0000
# 3 27.6665 24.8597 70.8416 0.0000 0.0000 0.0000
# 4 0.0000 0.0000 0.0000 14.3551 0.0000 0.0000
# 5 0.0000 0.0000 0.0000 0.0000 19.7414 0.0000
# 6 0.0000 0.0000 0.0000 0.0000 0.0000 28.7123
#
#
#
# Elastic Compliance Matrix: (Units=1/GPa)
#
#
# Indices 1 2 3 4 5 6 
#
# 1 0.017376 -0.005454 -0.004872 0.000000 0.000000 0.000000
# 2 -0.005454 0.012021 -0.002088 0.000000 0.000000 0.000000
# 3 -0.004872 -0.002088 0.016752 0.000000 0.000000 0.000000
# 4 0.000000 0.000000 0.000000 0.069662 0.000000 0.000000
# 5 0.000000 0.000000 0.000000 0.000000 0.050655 0.000000
# 6 0.000000 0.000000 0.000000 0.000000 0.000000 0.034828
#
#
# Mechanical properties :
#
#
# Convention : Reuss Voigt Hill
#
# Bulk Modulus (GPa) = 46.90547 48.87200 47.88873
# Shear Modulus (GPa) = 21.43811 23.34827 22.39319
#
# Velocity S-wave (km/s) = 3.26057 3.40273 3.33241
# Velocity P-wave (km/s) = 6.11849 6.29874 6.20927
#
# Compressibility (1/GPa) = 0.02131948
#
# Stress axis : x y z
#
# Youngs Moduli (GPa) = 57.54943 83.18850 59.69584
#
# Poissons Ratio (x) = 0.45373 0.29085
# Poissons Ratio (y) = 0.31389 0.12466
# Poissons Ratio (z) = 0.28039 0.17372
#
# Static dielectric constant tensor:
#      x y z
#    x 3.714000 0.000000 0.000000 
#    y 0.000000 3.935280 0.000000 
#    z 0.000000 0.000000 3.681660 
# 
# 
# High freq. dielectric constant tensor:
#      x y z
#    x 1.769190 0.000000 0.000000 
#    y 0.000000 1.773280 0.000000 
#    z 0.000000 0.000000 1.792250 
# 
# From -- ./inp_files/30054.got.cif
#   From: 2010.06.25/outbox.cif.g09.slc.cpg/sg58_16_cif.got.tgz:30054.got - 2010.06.26 21:38:00.
