data_PCOD8236779
_publ_section_title
;
Structure prediction by ZEFSAII (Michael W. Deem and Ramdas Pophale) SiO2 
 PCOD8236779
Probable space group: P N N M
;
_chemical_formula_sum "Si O2"
_cell_formula_units_Z 64
_cell_length_a 10.875142
_cell_length_b 32.191739
_cell_length_c 8.666395
_cell_angle_alpha 90.000000
_cell_angle_beta 90.000000
_cell_angle_gamma 90.000000
_cell_volume 3034.015910
_symmetry_space_group_name_H-M "P N N M"
_symmetry_group_IT_number 58
_symmetry_cell_setting 'orthorhombic'
loop_
_space_group_symop_operation_xyz
x,y,z
-x,-y,z
1/2+x,1/2-y,1/2-z
1/2-x,1/2+y,1/2-z
-x,-y,-z
x,y,-z
1/2-x,1/2+y,1/2+z
1/2+x,1/2-y,1/2+z
loop_
_atom_site_type_symbol
_atom_site_label
_atom_site_fract_x
_atom_site_fract_y
_atom_site_fract_z
Si Si1 0.435052 0.077465 0.320035
Si Si2 0.586671 0.424793 0.822587
Si Si3 0.413021 0.781768 0.317363
Si Si4 0.628102 0.128867 0.175869
Si Si5 0.324212 0.229230 0.817154
Si Si6 0.222269 0.514710 0.322128
Si Si7 0.663018 0.570846 0.673117
Si Si8 0.257429 0.639026 0.680285
O O1 0.417033 0.085567 0.500000
O O2 0.570150 0.089290 0.264315
O O3 0.395829 0.030393 0.276829
O O4 0.351015 0.107758 0.218728
O O5 0.656538 0.459573 0.724398
O O6 0.442370 0.430474 0.799997
O O7 0.621511 0.378103 0.767354
O O8 0.622125 0.430806 0.000000
O O9 0.421676 0.779346 0.500000
O O10 0.402728 0.829110 0.263989
O O11 0.539768 0.760802 0.253035
O O12 0.286481 0.759561 0.260084
O O13 0.771246 0.115988 0.180203
O O14 0.580468 0.133246 0.000000
O O15 0.281136 0.184138 0.758792
O O16 0.339015 0.231484 0.000000
O O17 0.193130 0.522983 0.500000
O O18 0.242504 0.466292 0.287815
O O19 0.609594 0.564084 0.500000
O O20 0.286083 0.640562 0.500000
#
# Coordination Sequence:
#
# PCOD8236779 Si02
#       8
#     8   8   8   8   8   8   8   8
#     4  11  21  35  58  88 118 150 193 245 297 353
#     4  11  22  35  56  87 122 156 195 249 308 360
#     4  11  24  42  66  97 129 163 206 258 314 374
#     4  11  23  41  62  84 116 159 201 247 302 362
#     4  10  23  42  65  94 127 164 206 254 309 374
#     4  10  20  37  60  84 113 155 204 251 296 357
#     4  10  23  40  58  81 114 159 207 248 297 360
#     4  10  19  36  62  86 114 155 201 240 285 357
#
# _framework density 21.094154
#
# number of rings (size 3 to 8) (size 9 to 14) (size 15 to 20)
#    0.000    1.500    1.250    5.625    0.000    6.500 
#    0.000    6.250    0.000    0.000    0.000    0.000 
#    0.000    0.000    0.000    0.000    0.000    0.000 
#
# Total GULP energy -793351.255220 kJ/mol
# GULP energy per Si atom -12396.113363 kJ/mol
# Density = 2.104614 g / cm^3
# Si number density = 21.094154 Si / 1000 Ang^3
#
#
#
# Elastic Constant Matrix: (Units=GPa)
#
#
# Indices 1 2 3 4 5 6 
#
# 1 102.0687 48.7861 30.3434 0.0000 0.0000 0.0000
# 2 48.7861 62.8673 26.3260 0.0000 0.0000 0.0000
# 3 30.3434 26.3260 62.3844 0.0000 0.0000 0.0000
# 4 0.0000 0.0000 0.0000 21.6999 0.0000 0.0000
# 5 0.0000 0.0000 0.0000 0.0000 25.8996 0.0000
# 6 0.0000 0.0000 0.0000 0.0000 0.0000 28.4670
#
#
#
# Elastic Compliance Matrix: (Units=1/GPa)
#
#
# Indices 1 2 3 4 5 6 
#
# 1 0.016052 -0.011159 -0.003099 0.000000 0.000000 0.000000
# 2 -0.011159 0.027079 -0.005999 0.000000 0.000000 0.000000
# 3 -0.003099 -0.005999 0.020068 0.000000 0.000000 0.000000
# 4 0.000000 0.000000 0.000000 0.046083 0.000000 0.000000
# 5 0.000000 0.000000 0.000000 0.000000 0.038611 0.000000
# 6 0.000000 0.000000 0.000000 0.000000 0.000000 0.035128
#
#
# Mechanical properties :
#
#
# Convention : Reuss Voigt Hill
#
# Bulk Modulus (GPa) = 44.08182 48.69238 46.38710
# Shear Modulus (GPa) = 21.63589 23.33762 22.48676
#
# Velocity S-wave (km/s) = 3.20610 3.32980 3.26854
# Velocity P-wave (km/s) = 5.88629 6.15767 6.02351
#
# Compressibility (1/GPa) = 0.02268509
#
# Stress axis : x y z
#
# Youngs Moduli (GPa) = 62.29619 36.92959 49.82953
#
# Poissons Ratio (x) = 0.41211 0.15440
# Poissons Ratio (y) = 0.69519 0.29894
# Poissons Ratio (z) = 0.19303 0.22155
#
# Static dielectric constant tensor:
#      x y z
#    x 3.957200 0.000000 0.000000 
#    y 0.000000 3.955250 0.000000 
#    z 0.000000 0.000000 3.698600 
# 
# 
# High freq. dielectric constant tensor:
#      x y z
#    x 1.829150 0.000000 0.000000 
#    y 0.000000 1.820090 0.000000 
#    z 0.000000 0.000000 1.826470 
# 
# From -- ./inp_files/4647.got.cif
#   From: 2010.06.25/outbox.cif.g09.slc.cpg/sg58_3_cif.got.tgz:4647.got - 2010.06.26 21:38:00.
