data_PCOD8236009
_publ_section_title
;
Structure prediction by ZEFSAII (Michael W. Deem and Ramdas Pophale) SiO2 
 PCOD8236009
Probable space group: P N N M
;
_chemical_formula_sum "Si O2"
_cell_formula_units_Z 40
_cell_length_a 13.552941
_cell_length_b 18.757235
_cell_length_c 8.518282
_cell_angle_alpha 90.000000
_cell_angle_beta 90.000000
_cell_angle_gamma 90.000000
_cell_volume 2165.481015
_symmetry_space_group_name_H-M "P N N M"
_symmetry_group_IT_number 58
_symmetry_cell_setting 'orthorhombic'
loop_
_space_group_symop_operation_xyz
x,y,z
-x,-y,z
1/2+x,1/2-y,1/2-z
1/2-x,1/2+y,1/2-z
-x,-y,-z
x,y,-z
1/2-x,1/2+y,1/2+z
1/2+x,1/2-y,1/2+z
loop_
_atom_site_type_symbol
_atom_site_label
_atom_site_fract_x
_atom_site_fract_y
_atom_site_fract_z
Si Si1 0.111337 0.999779 0.186791
Si Si2 0.698779 0.649312 0.315750
Si Si3 0.612932 0.212312 0.316187
Si Si4 0.096806 0.714817 0.315908
Si Si5 0.706587 0.357491 0.314445
O O1 0.168732 0.068240 0.259078
O O2 0.167093 0.928859 0.242609
O O3 0.110060 0.004659 0.000000
O O4 0.000000 0.000000 0.252380
O O5 0.680254 0.659039 0.500000
O O6 0.813839 0.659054 0.274865
O O7 0.630647 0.705482 0.224984
O O8 0.633133 0.203547 0.500000
O O9 0.501246 0.192380 0.275895
O O10 0.634903 0.293248 0.260020
O O11 0.076400 0.709919 0.500000
O O12 0.181577 0.659449 0.260595
O O13 0.703328 0.362645 0.500000
#
# Coordination Sequence:
#
# PCOD8236009 Si02
#       5
#     8   8   8   8   8
#     4   9  16  28  49  75  99 125 162 204 244 292
#     4  10  19  31  51  77 102 128 161 203 251 299
#     4  10  19  33  53  73  98 131 168 209 247 289
#     4  10  19  32  51  73 100 132 167 206 246 292
#     4   8  16  30  48  72  97 124 163 207 244 286
#
# _framework density 18.471647000000001
#
# number of rings (size 3 to 8) (size 9 to 14) (size 15 to 20)
#    0.000    2.600    0.000    4.200    0.000    3.200 
#    0.000    1.000    0.000   28.800    0.000    0.000 
#    0.000    0.000    0.000    0.000    0.000    0.000 
#
# Total GULP energy -495963.788522 kJ/mol
# GULP energy per Si atom -12399.094713 kJ/mol
# Density = 1.842960 g / cm^3
# Si number density = 18.471647 Si / 1000 Ang^3
#
#
#
# Elastic Constant Matrix: (Units=GPa)
#
#
# Indices 1 2 3 4 5 6 
#
# 1 146.0607 73.4140 5.2477 0.0000 0.0000 0.0000
# 2 73.4140 143.2201 10.9978 0.0000 0.0000 0.0000
# 3 5.2477 10.9978 25.6650 0.0000 0.0000 0.0000
# 4 0.0000 0.0000 0.0000 20.2806 0.0000 0.0000
# 5 0.0000 0.0000 0.0000 0.0000 23.5848 0.0000
# 6 0.0000 0.0000 0.0000 0.0000 0.0000 24.9642
#
#
#
# Elastic Compliance Matrix: (Units=1/GPa)
#
#
# Indices 1 2 3 4 5 6 
#
# 1 0.009223 -0.004739 0.000145 0.000000 0.000000 0.000000
# 2 -0.004739 0.009655 -0.003168 0.000000 0.000000 0.000000
# 3 0.000145 -0.003168 0.040292 0.000000 0.000000 0.000000
# 4 0.000000 0.000000 0.000000 0.049308 0.000000 0.000000
# 5 0.000000 0.000000 0.000000 0.000000 0.042400 0.000000
# 6 0.000000 0.000000 0.000000 0.000000 0.000000 0.040057
#
#
# Mechanical properties :
#
#
# Convention : Reuss Voigt Hill
#
# Bulk Modulus (GPa) = 22.91220 54.91831 38.91526
# Shear Modulus (GPa) = 22.62361 28.78499 25.70430
#
# Velocity S-wave (km/s) = 3.50348 3.95186 3.73440
# Velocity P-wave (km/s) = 5.36626 7.11467 6.30140
#
# Compressibility (1/GPa) = 0.04364486
#
# Stress axis : x y z
#
# Youngs Moduli (GPa) = 108.42294 103.57689 24.81909
#
# Poissons Ratio (x) = 0.49084 -0.00359
# Poissons Ratio (y) = 0.51380 0.07863
# Poissons Ratio (z) = -0.01570 0.32815
#
# Static dielectric constant tensor:
#      x y z
#    x 3.539600 0.000000 0.000000 
#    y 0.000000 3.584160 0.000000 
#    z 0.000000 0.000000 3.096560 
# 
# 
# High freq. dielectric constant tensor:
#      x y z
#    x 1.725860 0.000000 0.000000 
#    y 0.000000 1.705430 0.000000 
#    z 0.000000 0.000000 1.689770 
# 
# From -- ./inp_files/3761.got.cif
#   From: 2010.06.25/outbox.cif.g09.slc.cpg/sg58_2_cif.got.tgz:3761.got - 2010.06.26 21:38:00.
