data_PCOD8236350
_publ_section_title
;
Structure prediction by ZEFSAII (Michael W. Deem and Ramdas Pophale) SiO2 
 PCOD8236350
Probable space group: P N N M
;
_chemical_formula_sum "Si O2"
_cell_formula_units_Z 64
_cell_length_a 20.746369
_cell_length_b 18.368887
_cell_length_c 8.627296
_cell_angle_alpha 90.000000
_cell_angle_beta 90.000000
_cell_angle_gamma 90.000000
_cell_volume 3287.756457
_symmetry_space_group_name_H-M "P N N M"
_symmetry_group_IT_number 58
_symmetry_cell_setting 'orthorhombic'
loop_
_space_group_symop_operation_xyz
x,y,z
-x,-y,z
1/2+x,1/2-y,1/2-z
1/2-x,1/2+y,1/2-z
-x,-y,-z
x,y,-z
1/2-x,1/2+y,1/2+z
1/2+x,1/2-y,1/2+z
loop_
_atom_site_type_symbol
_atom_site_label
_atom_site_fract_x
_atom_site_fract_y
_atom_site_fract_z
Si Si1 0.264126 0.082631 0.319558
Si Si2 0.866981 0.690746 0.679729
Si Si3 0.501925 0.179885 0.671245
Si Si4 0.635350 0.657213 0.684690
Si Si5 0.998117 0.852421 0.169673
Si Si6 0.760269 0.570869 0.680405
Si Si7 0.369401 0.185682 0.181446
Si Si8 0.640984 0.346811 0.685043
O O1 0.274581 0.098833 0.500000
O O2 0.313076 0.129804 0.219613
O O3 0.191759 0.102228 0.269764
O O4 0.276602 0.998315 0.284616
O O5 0.869044 0.712070 0.500000
O O6 0.935659 0.656641 0.729550
O O7 0.813380 0.631156 0.715679
O O8 0.847695 0.762279 0.775885
O O9 0.506469 0.144562 0.500000
O O10 0.500255 0.265943 0.656528
O O11 0.436154 0.153365 0.751663
O O12 0.630599 0.665849 0.500000
O O13 0.566192 0.626028 0.751634
O O14 0.690926 0.601666 0.733198
O O15 0.650912 0.736478 0.750820
O O16 0.929962 0.873032 0.250072
O O17 0.997278 0.888538 0.000000
O O18 0.759582 0.548773 0.500000
O O19 0.377595 0.193920 0.000000
O O20 0.645224 0.356041 0.500000
#
# Coordination Sequence:
#
# PCOD8236350 Si02
#       8
#     8   8   8   8   8   8   8   8
#     4  12  25  39  54  74 106 146 187 230 274 324
#     4  10  19  33  56  86 115 143 179 223 273 325
#     4   9  17  32  54  81 112 143 178 220 268 320
#     4   9  17  34  59  85 112 141 177 220 270 326
#     4   7  13  27  51  81 108 136 170 212 259 311
#     4  10  22  38  55  77 109 146 182 224 272 324
#     4  11  21  35  58  85 111 139 177 225 275 327
#     4  10  19  34  57  83 111 143 182 225 271 325
#
# _framework density 19.466163999999999
#
# number of rings (size 3 to 8) (size 9 to 14) (size 15 to 20)
#    0.000    2.250    0.000    5.625    0.000    2.500 
#    0.000    1.875    0.000    7.500    0.000    0.000 
#    0.000    0.000    0.000    0.000    0.000    0.000 
#
# Total GULP energy -793285.086590 kJ/mol
# GULP energy per Si atom -12395.079478 kJ/mol
# Density = 1.942186 g / cm^3
# Si number density = 19.466164 Si / 1000 Ang^3
#
#
#
# Elastic Constant Matrix: (Units=GPa)
#
#
# Indices 1 2 3 4 5 6 
#
# 1 87.7140 -0.8440 9.4788 0.0000 0.0000 0.0000
# 2 -0.8440 34.1971 9.3779 0.0000 0.0000 0.0000
# 3 9.4788 9.3779 56.1409 0.0000 0.0000 0.0000
# 4 0.0000 0.0000 0.0000 25.9848 0.0000 0.0000
# 5 0.0000 0.0000 0.0000 0.0000 29.2528 0.0000
# 6 0.0000 0.0000 0.0000 0.0000 0.0000 -0.6095
#
#
#
# Elastic Compliance Matrix: (Units=1/GPa)
#
#
# Indices 1 2 3 4 5 6 
#
# 1 0.011637 0.000866 -0.002109 0.000000 0.000000 0.000000
# 2 0.000866 0.030710 -0.005276 0.000000 0.000000 0.000000
# 3 -0.002109 -0.005276 0.019050 0.000000 0.000000 0.000000
# 4 0.000000 0.000000 0.000000 0.038484 0.000000 0.000000
# 5 0.000000 0.000000 0.000000 0.000000 0.034185 0.000000
# 6 0.000000 0.000000 0.000000 0.000000 0.000000 -1.640703
#
#
# Mechanical properties :
#
#
# Convention : Reuss Voigt Hill
#
# Bulk Modulus (GPa) = 20.67928 23.78638 22.23283
# Shear Modulus (GPa) = -3.38415 21.59491 9.10538
#
# Velocity S-wave (km/s) = -1.31994 3.33431 2.16511
# Velocity P-wave (km/s) = 2.88500 5.20283 4.20670
#
# Compressibility (1/GPa) = 0.04835759
#
# Stress axis : x y z
#
# Youngs Moduli (GPa) = 85.93301 32.56218 52.49398
#
# Poissons Ratio (x) = -0.02819 0.11073
# Poissons Ratio (y) = -0.07439 0.27696
# Poissons Ratio (z) = 0.18127 0.17180
#
# Static dielectric constant tensor:
#      x y z
#    x 4.179170 0.000000 0.000000 
#    y 0.000000 3.135620 0.000000 
#    z 0.000000 0.000000 3.485300 
# 
# 
# High freq. dielectric constant tensor:
#      x y z
#    x 1.784880 0.000000 0.000000 
#    y 0.000000 1.718010 0.000000 
#    z 0.000000 0.000000 1.747700 
# 
# From -- ./inp_files/9283.got.cif
#   From: 2010.06.25/outbox.cif.g09.slc.cpg/sg58_5_cif.got.tgz:9283.got - 2010.06.26 21:38:00.
