data_PCOD8236442
_publ_section_title
;
Structure prediction by ZEFSAII (Michael W. Deem and Ramdas Pophale) SiO2 
 PCOD8236442
Probable space group: P N N M
;
_chemical_formula_sum "Si O2"
_cell_formula_units_Z 48
_cell_length_a 18.793585
_cell_length_b 14.972074
_cell_length_c 8.994138
_cell_angle_alpha 90.000000
_cell_angle_beta 90.000000
_cell_angle_gamma 90.000000
_cell_volume 2530.761065
_symmetry_space_group_name_H-M "P N N M"
_symmetry_group_IT_number 58
_symmetry_cell_setting 'orthorhombic'
loop_
_space_group_symop_operation_xyz
x,y,z
-x,-y,z
1/2+x,1/2-y,1/2-z
1/2-x,1/2+y,1/2-z
-x,-y,-z
x,y,-z
1/2-x,1/2+y,1/2+z
1/2+x,1/2-y,1/2+z
loop_
_atom_site_type_symbol
_atom_site_label
_atom_site_fract_x
_atom_site_fract_y
_atom_site_fract_z
Si Si1 0.676597 0.646404 0.823310
Si Si2 0.915374 0.748291 0.676193
Si Si3 0.717015 0.995212 0.676250
Si Si4 0.435077 0.937477 0.324103
Si Si5 0.519835 0.597025 0.823342
Si Si6 0.257368 0.699897 0.823684
O O1 0.729683 0.570371 0.762219
O O2 0.597969 0.622958 0.766994
O O3 0.697419 0.739888 0.751047
O O4 0.680468 0.654926 0.000000
O O5 0.920305 0.738403 0.500000
O O6 0.944680 0.658462 0.749350
O O7 0.835045 0.767828 0.728508
O O8 0.963684 0.829900 0.734340
O O9 0.719426 0.994849 0.500000
O O10 0.743435 0.899892 0.736356
O O11 0.637532 0.016330 0.732939
O O12 0.434171 0.923533 0.500000
O O13 0.500000 0.000000 0.273411
O O14 0.500000 0.500000 0.757190
O O15 0.517872 0.592741 0.000000
O O16 0.249651 0.704923 0.000000
#
# Coordination Sequence:
#
# PCOD8236442 Si02
#       6
#     8   8   8   8   8   8
#     4  10  19  34  56  80 104 133 175 222 259 305
#     4  10  20  35  55  81 110 138 172 220 271 314
#     4   9  18  34  54  75 102 137 176 213 255 311
#     4  10  21  36  54  76 105 145 184 214 255 318
#     4   9  18  33  55  81 106 136 175 216 263 317
#     4  10  20  34  54  78 105 139 174 213 264 316
#
# _framework density 18.966626999999999
#
# number of rings (size 3 to 8) (size 9 to 14) (size 15 to 20)
#    0.000    2.333    1.667    1.000    2.333    4.333 
#    0.000    1.667    0.000    4.000    0.000    0.000 
#    0.000    0.000    0.000    0.000    0.000    0.000 
#
# Total GULP energy -595300.881771 kJ/mol
# GULP energy per Si atom -12402.101704 kJ/mol
# Density = 1.892346 g / cm^3
# Si number density = 18.966627 Si / 1000 Ang^3
#
#
#
# Elastic Constant Matrix: (Units=GPa)
#
#
# Indices 1 2 3 4 5 6 
#
# 1 136.2862 59.4669 18.9240 0.0000 0.0000 0.0000
# 2 59.4669 156.4995 22.9070 0.0000 0.0000 0.0000
# 3 18.9240 22.9070 15.2423 0.0000 0.0000 0.0000
# 4 0.0000 0.0000 0.0000 27.3588 0.0000 0.0000
# 5 0.0000 0.0000 0.0000 0.0000 14.9765 0.0000
# 6 0.0000 0.0000 0.0000 0.0000 0.0000 43.5999
#
#
#
# Elastic Compliance Matrix: (Units=1/GPa)
#
#
# Indices 1 2 3 4 5 6 
#
# 1 0.009532 -0.002423 -0.008194 0.000000 0.000000 0.000000
# 2 -0.002423 0.008808 -0.010228 0.000000 0.000000 0.000000
# 3 -0.008194 -0.010228 0.091152 0.000000 0.000000 0.000000
# 4 0.000000 0.000000 0.000000 0.036551 0.000000 0.000000
# 5 0.000000 0.000000 0.000000 0.000000 0.066771 0.000000
# 6 0.000000 0.000000 0.000000 0.000000 0.000000 0.022936
#
#
# Mechanical properties :
#
#
# Convention : Reuss Voigt Hill
#
# Bulk Modulus (GPa) = 14.74892 56.73599 35.74246
# Shear Modulus (GPa) = 16.66440 30.96904 23.81672
#
# Velocity S-wave (km/s) = 2.96736 4.04520 3.54745
# Velocity P-wave (km/s) = 4.41967 7.19699 5.97202
#
# Compressibility (1/GPa) = 0.06780157
#
# Stress axis : x y z
#
# Youngs Moduli (GPa) = 104.90522 113.53869 10.97071
#
# Poissons Ratio (x) = 0.27508 0.08989
# Poissons Ratio (y) = 0.25416 0.11221
# Poissons Ratio (z) = 0.85957 1.16133
#
# Static dielectric constant tensor:
#      x y z
#    x 3.697760 0.000000 0.000000 
#    y 0.000000 3.641520 0.000000 
#    z 0.000000 0.000000 2.972550 
# 
# 
# High freq. dielectric constant tensor:
#      x y z
#    x 1.752290 0.000000 0.000000 
#    y 0.000000 1.753980 0.000000 
#    z 0.000000 0.000000 1.688360 
# 
# From -- ./inp_files/5805.got.cif
#   From: 2010.06.25/outbox.cif.g09.slc.cpg/sg58_3_cif.got.tgz:5805.got - 2010.06.26 21:38:00.
