data_PCOD8236214
_publ_section_title
;
Structure prediction by ZEFSAII (Michael W. Deem and Ramdas Pophale) SiO2 
 PCOD8236214
Probable space group: P N N M
;
_chemical_formula_sum "Si O2"
_cell_formula_units_Z 64
_cell_length_a 9.162616
_cell_length_b 16.431953
_cell_length_c 22.329930
_cell_angle_alpha 90.000000
_cell_angle_beta 90.000000
_cell_angle_gamma 90.000000
_cell_volume 3361.987014
_symmetry_space_group_name_H-M "P N N M"
_symmetry_group_IT_number 58
_symmetry_cell_setting 'orthorhombic'
loop_
_space_group_symop_operation_xyz
x,y,z
-x,-y,z
1/2+x,1/2-y,1/2-z
1/2-x,1/2+y,1/2-z
-x,-y,-z
x,y,-z
1/2-x,1/2+y,1/2+z
1/2+x,1/2-y,1/2+z
loop_
_atom_site_type_symbol
_atom_site_label
_atom_site_fract_x
_atom_site_fract_y
_atom_site_fract_z
Si Si1 0.413662 0.421574 0.612165
Si Si2 0.016649 0.089938 0.653498
Si Si3 0.060717 0.742890 0.372595
Si Si4 0.268881 0.085265 0.252884
Si Si5 0.969837 0.694325 0.247117
Si Si6 0.134489 0.191344 0.851190
Si Si7 0.582226 0.082975 0.930173
Si Si8 0.702414 0.589971 0.260280
O O1 0.500000 0.500000 0.589090
O O2 0.523946 0.346178 0.598571
O O3 0.255405 0.419904 0.581750
O O4 0.407174 0.416474 0.684190
O O5 0.999058 0.166992 0.606825
O O6 0.883670 0.096241 0.699240
O O7 0.166685 0.099273 0.689573
O O8 0.000000 0.000000 0.622063
O O9 0.038122 0.746623 0.300791
O O10 0.233157 0.735484 0.386776
O O11 0.977815 0.664721 0.399395
O O12 0.425891 0.120247 0.269637
O O13 0.205256 0.123230 0.191879
O O14 0.298605 0.991318 0.239885
O O15 0.960749 0.747226 0.187777
O O16 0.809741 0.666012 0.267905
O O17 0.500000 0.000000 0.906831
O O18 0.552319 0.091860 0.000000
#
# Coordination Sequence:
#
# PCOD8236214 Si02
#       8
#     8   8   8   8   8   8   8   8
#     4  12  21  36  58  77 109 150 191 234 280 347
#     4  10  19  33  51  80 121 154 185 224 270 330
#     4  11  21  36  58  77 113 157 185 235 291 333
#     4  10  20  29  44  71 115 154 186 226 258 313
#     4  11  21  28  48  78 117 145 195 221 265 334
#     4  11  21  32  48  85 114 150 190 224 269 341
#     4  11  27  45  62  85 108 138 192 256 304 344
#     4  11  18  33  46  76 114 154 189 221 264 331
#
# _framework density 19.036360999999999
#
# number of rings (size 3 to 8) (size 9 to 14) (size 15 to 20)
#    0.000    1.125    6.250    1.500    5.250    0.250 
#    0.000    0.625    0.000    0.375    0.000    0.000 
#    0.000    1.000    0.000    0.000    0.000    0.000 
#
# Total GULP energy -793102.032010 kJ/mol
# GULP energy per Si atom -12392.219250 kJ/mol
# Density = 1.899303 g / cm^3
# Si number density = 19.036361 Si / 1000 Ang^3
#
#
#
# Elastic Constant Matrix: (Units=GPa)
#
#
# Indices 1 2 3 4 5 6 
#
# 1 94.1500 22.0875 8.2530 0.0000 0.0000 0.0000
# 2 22.0875 116.0963 17.4582 0.0000 0.0000 0.0000
# 3 8.2530 17.4582 20.6403 0.0000 0.0000 0.0000
# 4 0.0000 0.0000 0.0000 10.9141 0.0000 0.0000
# 5 0.0000 0.0000 0.0000 0.0000 9.5847 0.0000
# 6 0.0000 0.0000 0.0000 0.0000 0.0000 34.3381
#
#
#
# Elastic Compliance Matrix: (Units=1/GPa)
#
#
# Indices 1 2 3 4 5 6 
#
# 1 0.011287 -0.001683 -0.003090 0.000000 0.000000 0.000000
# 2 -0.001683 0.010120 -0.007887 0.000000 0.000000 0.000000
# 3 -0.003090 -0.007887 0.056355 0.000000 0.000000 0.000000
# 4 0.000000 0.000000 0.000000 0.091624 0.000000 0.000000
# 5 0.000000 0.000000 0.000000 0.000000 0.104333 0.000000
# 6 0.000000 0.000000 0.000000 0.000000 0.000000 0.029122
#
#
# Mechanical properties :
#
#
# Convention : Reuss Voigt Hill
#
# Bulk Modulus (GPa) = 19.06814 36.27599 27.67207
# Shear Modulus (GPa) = 14.46587 23.17324 18.81955
#
# Velocity S-wave (km/s) = 2.75963 3.49279 3.14763
# Velocity P-wave (km/s) = 4.49361 5.94673 5.27049
#
# Compressibility (1/GPa) = 0.05244350
#
# Stress axis : x y z
#
# Youngs Moduli (GPa) = 88.59783 98.81757 17.74458
#
# Poissons Ratio (x) = 0.16628 0.05483
# Poissons Ratio (y) = 0.14909 0.13995
# Poissons Ratio (z) = 0.27375 0.77934
#
# Static dielectric constant tensor:
#      x y z
#    x 3.700630 0.000000 0.000000 
#    y 0.000000 4.027310 0.000000 
#    z 0.000000 0.000000 2.846280 
# 
# 
# High freq. dielectric constant tensor:
#      x y z
#    x 1.760600 0.000000 0.000000 
#    y 0.000000 1.760490 0.000000 
#    z 0.000000 0.000000 1.656780 
# 
# From -- ./inp_files/31617.got.cif
#   From: 2010.06.25/outbox.cif.g09.slc.cpg/sg58_16_cif.got.tgz:31617.got - 2010.06.26 21:38:00.
