data_PCOD8236697
_publ_section_title
;
Structure prediction by ZEFSAII (Michael W. Deem and Ramdas Pophale) SiO2 
 PCOD8236697
Probable space group: P N N M
;
_chemical_formula_sum "Si O2"
_cell_formula_units_Z 56
_cell_length_a 13.750414
_cell_length_b 14.203902
_cell_length_c 14.383817
_cell_angle_alpha 90.000000
_cell_angle_beta 90.000000
_cell_angle_gamma 90.000000
_cell_volume 2809.296580
_symmetry_space_group_name_H-M "P N N M"
_symmetry_group_IT_number 58
_symmetry_cell_setting 'orthorhombic'
loop_
_space_group_symop_operation_xyz
x,y,z
-x,-y,z
1/2+x,1/2-y,1/2-z
1/2-x,1/2+y,1/2-z
-x,-y,-z
x,y,-z
1/2-x,1/2+y,1/2+z
1/2+x,1/2-y,1/2+z
loop_
_atom_site_type_symbol
_atom_site_label
_atom_site_fract_x
_atom_site_fract_y
_atom_site_fract_z
Si Si1 0.584354 0.075832 0.893907
Si Si2 0.005902 0.218850 0.607006
Si Si3 0.202244 0.727959 0.392933
Si Si4 0.063640 0.592075 0.104555
Si Si5 0.422610 0.580892 0.255010
Si Si6 0.205579 0.547028 0.731505
Si Si7 0.583020 0.252131 0.608485
O O1 0.543286 0.177444 0.865079
O O2 0.500000 0.000000 0.882915
O O3 0.666683 0.047597 0.819012
O O4 0.624646 0.076750 0.000000
O O5 0.026506 0.198732 0.500000
O O6 0.065492 0.141227 0.661952
O O7 0.890763 0.207005 0.630742
O O8 0.196794 0.697389 0.500000
O O9 0.191108 0.632311 0.338004
O O10 0.304731 0.780532 0.370733
O O11 0.153824 0.573860 0.171844
O O12 0.000000 0.500000 0.099967
O O13 0.993979 0.674961 0.144541
O O14 0.101629 0.616183 0.000000
O O15 0.500000 0.500000 0.264342
O O16 0.318568 0.530745 0.248618
O O17 0.436164 0.648413 0.343349
O O18 0.567981 0.268243 0.500000
#
# Coordination Sequence:
#
# PCOD8236697 Si02
#       7
#     8   8   8   8   8   8   8
#     4  10  19  35  63  98 123 145 191 256 320 362
#     4  10  21  39  63  90 123 158 198 251 304 361
#     4   9  17  33  61  93 118 151 196 242 302 362
#     4  10  22  38  58  87 120 157 199 244 300 358
#     4  11  26  43  57  85 122 166 211 244 296 370
#     4  11  21  36  60  85 120 161 194 258 300 352
#     4   9  20  39  61  87 123 160 200 249 297 358
#
# _framework density 19.933816
#
# number of rings (size 3 to 8) (size 9 to 14) (size 15 to 20)
#    0.000    2.000    1.429    1.714    2.000    2.857 
#    5.143    1.429    0.000    0.000    0.000    0.000 
#    0.000    0.000    0.000    0.000    0.000    0.000 
#
# Total GULP energy -694317.825741 kJ/mol
# GULP energy per Si atom -12398.532603 kJ/mol
# Density = 1.988845 g / cm^3
# Si number density = 19.933816 Si / 1000 Ang^3
#
#
#
# Elastic Constant Matrix: (Units=GPa)
#
#
# Indices 1 2 3 4 5 6 
#
# 1 146.1712 63.0620 71.5292 0.0000 0.0000 0.0000
# 2 63.0620 80.9012 36.3815 0.0000 0.0000 0.0000
# 3 71.5292 36.3815 80.0364 0.0000 0.0000 0.0000
# 4 0.0000 0.0000 0.0000 24.0796 0.0000 0.0000
# 5 0.0000 0.0000 0.0000 0.0000 53.8781 0.0000
# 6 0.0000 0.0000 0.0000 0.0000 0.0000 26.6297
#
#
#
# Elastic Compliance Matrix: (Units=1/GPa)
#
#
# Indices 1 2 3 4 5 6 
#
# 1 0.014761 -0.007006 -0.010007 0.000000 0.000000 0.000000
# 2 -0.007006 0.018862 -0.002313 0.000000 0.000000 0.000000
# 3 -0.010007 -0.002313 0.022489 0.000000 0.000000 0.000000
# 4 0.000000 0.000000 0.000000 0.041529 0.000000 0.000000
# 5 0.000000 0.000000 0.000000 0.000000 0.018560 0.000000
# 6 0.000000 0.000000 0.000000 0.000000 0.000000 0.037552
#
#
# Mechanical properties :
#
#
# Convention : Reuss Voigt Hill
#
# Bulk Modulus (GPa) = 57.27316 72.11713 64.69514
# Shear Modulus (GPa) = 25.22385 29.99322 27.60854
#
# Velocity S-wave (km/s) = 3.56108 3.88318 3.72561
# Velocity P-wave (km/s) = 6.76035 7.50748 7.14369
#
# Compressibility (1/GPa) = 0.01746019
#
# Stress axis : x y z
#
# Youngs Moduli (GPa) = 67.74669 53.01749 44.46553
#
# Poissons Ratio (x) = 0.37142 0.44499
# Poissons Ratio (y) = 0.47461 0.10284
# Poissons Ratio (z) = 0.67797 0.12262
#
# Static dielectric constant tensor:
#      x y z
#    x 3.977830 0.000000 0.000000 
#    y 0.000000 3.595200 0.000000 
#    z 0.000000 0.000000 3.867650 
# 
# 
# High freq. dielectric constant tensor:
#      x y z
#    x 1.775790 0.000000 0.000000 
#    y 0.000000 1.759710 0.000000 
#    z 0.000000 0.000000 1.790580 
# 
# From -- ./inp_files/21303.got.cif
#   From: 2010.06.25/outbox.cif.g09.slc.cpg/sg58_11_cif.got.tgz:21303.got - 2010.06.26 21:38:00.
