data_PCOD8236237
_publ_section_title
;
Structure prediction by ZEFSAII (Michael W. Deem and Ramdas Pophale) SiO2 
 PCOD8236237
Probable space group: P N N M
;
_chemical_formula_sum "Si O2"
_cell_formula_units_Z 64
_cell_length_a 25.977606
_cell_length_b 12.769285
_cell_length_c 9.621766
_cell_angle_alpha 90.000000
_cell_angle_beta 90.000000
_cell_angle_gamma 90.000000
_cell_volume 3191.688483
_symmetry_space_group_name_H-M "P N N M"
_symmetry_group_IT_number 58
_symmetry_cell_setting 'orthorhombic'
loop_
_space_group_symop_operation_xyz
x,y,z
-x,-y,z
1/2+x,1/2-y,1/2-z
1/2-x,1/2+y,1/2-z
-x,-y,-z
x,y,-z
1/2-x,1/2+y,1/2+z
1/2+x,1/2-y,1/2+z
loop_
_atom_site_type_symbol
_atom_site_label
_atom_site_fract_x
_atom_site_fract_y
_atom_site_fract_z
Si Si1 0.007317 0.726975 0.161642
Si Si2 0.815352 0.104548 0.839855
Si Si3 0.346367 0.017395 0.159951
Si Si4 0.124250 0.696987 0.159207
Si Si5 0.846340 0.906809 0.664350
Si Si6 0.206376 0.309122 0.338118
Si Si7 0.546586 0.075651 0.148738
Si Si8 0.533640 0.397836 0.152648
O O1 0.063936 0.681862 0.193329
O O2 0.962844 0.654230 0.225391
O O3 0.999450 0.837345 0.233789
O O4 0.996955 0.738694 0.000000
O O5 0.863862 0.180392 0.812835
O O6 0.766789 0.180599 0.805573
O O7 0.817990 0.002514 0.742829
O O8 0.812662 0.066080 0.000000
O O9 0.338157 0.123439 0.248462
O O10 0.317635 0.916400 0.224381
O O11 0.405932 0.996752 0.182476
O O12 0.330310 0.038696 0.000000
O O13 0.136281 0.668411 0.000000
O O14 0.837191 0.921730 0.500000
O O15 0.820079 0.797904 0.719972
O O16 0.906993 0.911749 0.701966
O O17 0.193611 0.309351 0.500000
O O18 0.500000 0.000000 0.129550
O O19 0.555774 0.135349 0.000000
O O20 0.500000 0.500000 0.137971
O O21 0.534885 0.343096 0.000000
#
# Coordination Sequence:
#
# PCOD8236237 Si02
#       8
#     8   8   8   8   8   8   8   8
#     4  11  22  34  53  82 117 154 190 231 281 342
#     4  10  22  40  60  82 114 151 187 233 293 347
#     4  10  20  36  59  84 111 147 194 239 279 338
#     4  10  22  37  54  82 120 156 188 232 287 343
#     4  10  21  40  63  87 115 149 195 245 289 342
#     4   9  20  38  60  84 112 148 187 237 295 342
#     4  10  19  33  53  79 110 148 186 226 278 330
#     4  10  21  37  59  85 115 152 195 241 286 336
#
# _framework density 20.052083
#
# number of rings (size 3 to 8) (size 9 to 14) (size 15 to 20)
#    0.000    2.000    1.250    1.875    1.750    4.500 
#    0.000    1.250    0.000    0.000    0.000    0.000 
#    0.000    0.000    0.000    0.000    0.000    0.000 
#
# Total GULP energy -793065.696043 kJ/mol
# GULP energy per Si atom -12391.651501 kJ/mol
# Density = 2.000644 g / cm^3
# Si number density = 20.052083 Si / 1000 Ang^3
#
#
#
# Elastic Constant Matrix: (Units=GPa)
#
#
# Indices 1 2 3 4 5 6 
#
# 1 56.7878 22.1096 28.9982 0.0000 0.0000 0.0000
# 2 22.1096 116.9732 58.6869 0.0000 0.0000 0.0000
# 3 28.9982 58.6869 90.7843 0.0000 0.0000 0.0000
# 4 0.0000 0.0000 0.0000 44.7703 0.0000 0.0000
# 5 0.0000 0.0000 0.0000 0.0000 24.2805 0.0000
# 6 0.0000 0.0000 0.0000 0.0000 0.0000 32.8077
#
#
#
# Elastic Compliance Matrix: (Units=1/GPa)
#
#
# Indices 1 2 3 4 5 6 
#
# 1 0.021105 -0.000898 -0.006161 0.000000 0.000000 0.000000
# 2 -0.000898 0.012691 -0.007917 0.000000 0.000000 0.000000
# 3 -0.006161 -0.007917 0.018101 0.000000 0.000000 0.000000
# 4 0.000000 0.000000 0.000000 0.022336 0.000000 0.000000
# 5 0.000000 0.000000 0.000000 0.000000 0.041185 0.000000
# 6 0.000000 0.000000 0.000000 0.000000 0.000000 0.030481
#
#
# Mechanical properties :
#
#
# Convention : Reuss Voigt Hill
#
# Bulk Modulus (GPa) = 45.56876 53.79276 49.68076
# Shear Modulus (GPa) = 27.29771 30.68841 28.99306
#
# Velocity S-wave (km/s) = 3.69364 3.91632 3.80661
# Velocity P-wave (km/s) = 6.40040 6.88003 6.64455
#
# Compressibility (1/GPa) = 0.02194486
#
# Stress axis : x y z
#
# Youngs Moduli (GPa) = 47.38211 78.79730 55.24612
#
# Poissons Ratio (x) = 0.07078 0.34035
# Poissons Ratio (y) = 0.04256 0.43738
# Poissons Ratio (z) = 0.29190 0.62383
#
# Static dielectric constant tensor:
#      x y z
#    x 3.656760 0.000000 0.000000 
#    y 0.000000 3.567830 0.000000 
#    z 0.000000 0.000000 3.540210 
# 
# 
# High freq. dielectric constant tensor:
#      x y z
#    x 1.786230 0.000000 0.000000 
#    y 0.000000 1.786250 0.000000 
#    z 0.000000 0.000000 1.762000 
# 
# From -- ./inp_files/11016.got.cif
#   From: 2010.06.25/outbox.cif.g09.slc.cpg/sg58_6_cif.got.tgz:11016.got - 2010.06.26 21:38:00.
