data_PCOD8236091
_publ_section_title
;
Structure prediction by ZEFSAII (Michael W. Deem and Ramdas Pophale) SiO2 
 PCOD8236091
Probable space group: P N N M
;
_chemical_formula_sum "Si O2"
_cell_formula_units_Z 56
_cell_length_a 24.444081
_cell_length_b 14.064909
_cell_length_c 9.173442
_cell_angle_alpha 90.000000
_cell_angle_beta 90.000000
_cell_angle_gamma 90.000000
_cell_volume 3153.863988
_symmetry_space_group_name_H-M "P N N M"
_symmetry_group_IT_number 58
_symmetry_cell_setting 'orthorhombic'
loop_
_space_group_symop_operation_xyz
x,y,z
-x,-y,z
1/2+x,1/2-y,1/2-z
1/2-x,1/2+y,1/2-z
-x,-y,-z
x,y,-z
1/2-x,1/2+y,1/2+z
1/2+x,1/2-y,1/2+z
loop_
_atom_site_type_symbol
_atom_site_label
_atom_site_fract_x
_atom_site_fract_y
_atom_site_fract_z
Si Si1 0.891858 0.344065 0.333859
Si Si2 0.996464 0.390515 0.170846
Si Si3 0.318792 0.655773 0.171661
Si Si4 0.286503 0.477919 0.665653
Si Si5 0.164052 0.461717 0.661339
Si Si6 0.706003 0.741906 0.328984
Si Si7 0.112457 0.301115 0.830386
O O1 0.896525 0.308464 0.500000
O O2 0.949516 0.331228 0.253004
O O3 0.880065 0.455813 0.325875
O O4 0.844623 0.285839 0.255562
O O5 0.000000 0.500000 0.224722
O O6 0.051600 0.334253 0.209734
O O7 0.983453 0.388645 0.000000
O O8 0.320100 0.547568 0.229306
O O9 0.263195 0.710147 0.219581
O O10 0.371478 0.706811 0.242168
O O11 0.326053 0.654538 0.000000
O O12 0.306529 0.493081 0.500000
O O13 0.223342 0.507606 0.683558
O O14 0.293273 0.368855 0.712991
O O15 0.161315 0.412988 0.500000
O O16 0.153896 0.384495 0.785088
O O17 0.696978 0.758056 0.500000
O O18 0.119577 0.280697 0.000000
#
# Coordination Sequence:
#
# PCOD8236091 Si02
#       7
#     8   8   8   8   8   8   8
#     4  11  22  34  54  82 113 147 183 227 275 323
#     4  10  21  37  55  79 111 146 186 225 269 330
#     4  11  22  36  55  82 113 146 183 226 276 326
#     4  10  20  37  55  78 113 150 186 224 268 326
#     4  10  19  32  51  80 116 146 180 225 267 321
#     4  10  21  36  55  78 111 150 184 222 272 326
#     4  11  22  35  55  80 110 150 187 224 270 326
#
# _framework density 17.755997000000001
#
# number of rings (size 3 to 8) (size 9 to 14) (size 15 to 20)
#    0.000    1.571    4.286    1.286    0.000    3.714 
#    0.000    0.000    0.000    0.857    0.000    6.000 
#    0.000    0.000    0.000    0.000    0.000    0.000 
#
# Total GULP energy -694479.159894 kJ/mol
# GULP energy per Si atom -12401.413570 kJ/mol
# Density = 1.771558 g / cm^3
# Si number density = 17.755997 Si / 1000 Ang^3
#
#
#
# Elastic Constant Matrix: (Units=GPa)
#
#
# Indices 1 2 3 4 5 6 
#
# 1 82.7391 26.2979 46.3658 0.0000 0.0000 0.0000
# 2 26.2979 66.3687 37.7258 0.0000 0.0000 0.0000
# 3 46.3658 37.7258 73.5094 0.0000 0.0000 0.0000
# 4 0.0000 0.0000 0.0000 32.2827 0.0000 0.0000
# 5 0.0000 0.0000 0.0000 0.0000 29.7836 0.0000
# 6 0.0000 0.0000 0.0000 0.0000 0.0000 28.5044
#
#
#
# Elastic Compliance Matrix: (Units=1/GPa)
#
#
# Indices 1 2 3 4 5 6 
#
# 1 0.018740 -0.000998 -0.011308 0.000000 0.000000 0.000000
# 2 -0.000998 0.021326 -0.010316 0.000000 0.000000 0.000000
# 3 -0.011308 -0.010316 0.026031 0.000000 0.000000 0.000000
# 4 0.000000 0.000000 0.000000 0.030976 0.000000 0.000000
# 5 0.000000 0.000000 0.000000 0.000000 0.033576 0.000000
# 6 0.000000 0.000000 0.000000 0.000000 0.000000 0.035082
#
#
# Mechanical properties :
#
#
# Convention : Reuss Voigt Hill
#
# Bulk Modulus (GPa) = 47.95282 49.26625 48.60954
# Shear Modulus (GPa) = 22.94354 25.59597 24.26976
#
# Velocity S-wave (km/s) = 3.59856 3.80088 3.70110
# Velocity P-wave (km/s) = 6.65818 6.86067 6.76018
#
# Compressibility (1/GPa) = 0.02085383
#
# Stress axis : x y z
#
# Youngs Moduli (GPa) = 53.36080 46.89033 38.41636
#
# Poissons Ratio (x) = 0.04678 0.43443
# Poissons Ratio (y) = 0.05323 0.39629
# Poissons Ratio (z) = 0.60343 0.48371
#
# Static dielectric constant tensor:
#      x y z
#    x 3.207620 0.000000 0.000000 
#    y 0.000000 3.161530 0.000000 
#    z 0.000000 0.000000 3.313740 
# 
# 
# High freq. dielectric constant tensor:
#      x y z
#    x 1.674350 0.000000 0.000000 
#    y 0.000000 1.674070 0.000000 
#    z 0.000000 0.000000 1.692160 
# 
# From -- ./inp_files/8961.got.cif
#   From: 2010.06.25/outbox.cif.g09.slc.cpg/sg58_5_cif.got.tgz:8961.got - 2010.06.26 21:38:00.
