data_PCOD8236740
_publ_section_title
;
Structure prediction by ZEFSAII (Michael W. Deem and Ramdas Pophale) SiO2 
 PCOD8236740
Probable space group: P N N M
;
_chemical_formula_sum "Si O2"
_cell_formula_units_Z 48
_cell_length_a 16.075973
_cell_length_b 11.172530
_cell_length_c 12.958254
_cell_angle_alpha 90.000000
_cell_angle_beta 90.000000
_cell_angle_gamma 90.000000
_cell_volume 2327.422809
_symmetry_space_group_name_H-M "P N N M"
_symmetry_group_IT_number 58
_symmetry_cell_setting 'orthorhombic'
loop_
_space_group_symop_operation_xyz
x,y,z
-x,-y,z
1/2+x,1/2-y,1/2-z
1/2-x,1/2+y,1/2-z
-x,-y,-z
x,y,-z
1/2-x,1/2+y,1/2+z
1/2+x,1/2-y,1/2+z
loop_
_atom_site_type_symbol
_atom_site_label
_atom_site_fract_x
_atom_site_fract_y
_atom_site_fract_z
Si Si1 0.906445 0.031116 0.725102
Si Si2 0.627528 0.271646 0.811386
Si Si3 0.414288 0.854044 0.382819
Si Si4 0.447406 0.231952 0.883554
Si Si5 0.797097 0.173405 0.116646
Si Si6 0.598985 0.888113 0.318724
O O1 0.913713 0.134540 0.639260
O O2 0.848116 0.076752 0.817416
O O3 0.862902 0.914941 0.673299
O O4 0.000000 0.000000 0.766130
O O5 0.618479 0.254133 0.687598
O O6 0.546602 0.225712 0.871740
O O7 0.701483 0.188855 0.851618
O O8 0.385505 0.832071 0.500000
O O9 0.513404 0.860246 0.377038
O O10 0.374317 0.975578 0.337119
O O11 0.406639 0.137393 0.804211
O O12 0.422296 0.196556 0.000000
O O13 0.833313 0.305814 0.128065
O O14 0.802505 0.127951 0.000000
#
# Coordination Sequence:
#
# PCOD8236740 Si02
#       6
#     8   8   8   8   8   8
#     4   9  21  39  58  83 114 151 198 241 275 346
#     4  10  22  35  55  85 119 146 189 239 283 348
#     4  10  19  36  60  82 111 152 190 233 284 339
#     4   9  18  37  61  84 113 154 192 232 283 340
#     4  11  22  36  57  83 115 151 188 240 297 337
#     4   9  19  35  57  86 111 140 195 237 273 345
#
# _framework density 20.623669
#
# number of rings (size 3 to 8) (size 9 to 14) (size 15 to 20)
#    0.000    2.333    0.000    3.500    2.333    4.667 
#    0.000   10.833    0.000    0.000    0.000    0.000 
#    0.000    0.000    0.000    0.000    0.000    0.000 
#
# Total GULP energy -595111.927277 kJ/mol
# GULP energy per Si atom -12398.165152 kJ/mol
# Density = 2.057673 g / cm^3
# Si number density = 20.623669 Si / 1000 Ang^3
#
#
#
# Elastic Constant Matrix: (Units=GPa)
#
#
# Indices 1 2 3 4 5 6 
#
# 1 45.9845 -1.6548 15.8441 0.0000 0.0000 0.0000
# 2 -1.6548 34.0260 12.5474 0.0000 0.0000 0.0000
# 3 15.8441 12.5474 148.3982 0.0000 0.0000 0.0000
# 4 0.0000 0.0000 0.0000 17.4110 0.0000 0.0000
# 5 0.0000 0.0000 0.0000 0.0000 11.6124 0.0000
# 6 0.0000 0.0000 0.0000 0.0000 0.0000 27.7286
#
#
#
# Elastic Compliance Matrix: (Units=1/GPa)
#
#
# Indices 1 2 3 4 5 6 
#
# 1 0.022716 0.002064 -0.002600 0.000000 0.000000 0.000000
# 2 0.002064 0.030523 -0.002801 0.000000 0.000000 0.000000
# 3 -0.002600 -0.002801 0.007253 0.000000 0.000000 0.000000
# 4 0.000000 0.000000 0.000000 0.057435 0.000000 0.000000
# 5 0.000000 0.000000 0.000000 0.000000 0.086115 0.000000
# 6 0.000000 0.000000 0.000000 0.000000 0.000000 0.036064
#
#
# Mechanical properties :
#
#
# Convention : Reuss Voigt Hill
#
# Bulk Modulus (GPa) = 18.58138 31.32022 24.95080
# Shear Modulus (GPa) = 18.88789 24.79519 21.84154
#
# Velocity S-wave (km/s) = 3.02956 3.47114 3.25784
# Velocity P-wave (km/s) = 4.61161 5.59326 5.12599
#
# Compressibility (1/GPa) = 0.05381732
#
# Stress axis : x y z
#
# Youngs Moduli (GPa) = 44.02090 32.76261 137.87316
#
# Poissons Ratio (x) = -0.06761 0.35845
# Poissons Ratio (y) = -0.09084 0.38619
# Poissons Ratio (z) = 0.11445 0.09177
#
# Static dielectric constant tensor:
#      x y z
#    x 3.593750 0.000000 0.000000 
#    y 0.000000 3.771600 0.000000 
#    z 0.000000 0.000000 3.614420 
# 
# 
# High freq. dielectric constant tensor:
#      x y z
#    x 1.792780 0.000000 0.000000 
#    y 0.000000 1.803480 0.000000 
#    z 0.000000 0.000000 1.797580 
# 
# From -- ./inp_files/16348.got.cif
#   From: 2010.06.25/outbox.cif.g09.slc.cpg/sg58_9_cif.got.tgz:16348.got - 2010.06.26 21:38:00.
