data_PCOD8236014
_publ_section_title
;
Structure prediction by ZEFSAII (Michael W. Deem and Ramdas Pophale) SiO2 
 PCOD8236014
Probable space group: P N N M
;
_chemical_formula_sum "Si O2"
_cell_formula_units_Z 64
_cell_length_a 17.489769
_cell_length_b 19.920264
_cell_length_c 9.501981
_cell_angle_alpha 90.000000
_cell_angle_beta 90.000000
_cell_angle_gamma 90.000000
_cell_volume 3310.497932
_symmetry_space_group_name_H-M "P N N M"
_symmetry_group_IT_number 58
_symmetry_cell_setting 'orthorhombic'
loop_
_space_group_symop_operation_xyz
x,y,z
-x,-y,z
1/2+x,1/2-y,1/2-z
1/2-x,1/2+y,1/2-z
-x,-y,-z
x,y,-z
1/2-x,1/2+y,1/2+z
1/2+x,1/2-y,1/2+z
loop_
_atom_site_type_symbol
_atom_site_label
_atom_site_fract_x
_atom_site_fract_y
_atom_site_fract_z
Si Si1 0.209146 0.266583 0.163509
Si Si2 0.844970 0.136877 0.335202
Si Si3 0.981534 0.849439 0.654915
Si Si4 0.071617 0.300992 0.655741
Si Si5 0.624761 0.005977 0.656949
Si Si6 0.768682 0.020157 0.834560
Si Si7 0.514557 0.892792 0.343844
Si Si8 0.155751 0.120054 0.162852
O O1 0.292501 0.297575 0.198800
O O2 0.147718 0.310267 0.250670
O O3 0.203333 0.187537 0.205405
O O4 0.189064 0.276400 0.000000
O O5 0.838102 0.119064 0.500000
O O6 0.822654 0.072736 0.243487
O O7 0.931621 0.153088 0.289696
O O8 0.978831 0.883304 0.500000
O O9 0.949350 0.775594 0.643991
O O10 0.925253 0.889379 0.758326
O O11 0.086102 0.331223 0.500000
O O12 0.998594 0.336123 0.727495
O O13 0.661670 0.008589 0.500000
O O14 0.683743 0.028416 0.775371
O O15 0.554589 0.055726 0.665253
O O16 0.593934 0.930892 0.688394
O O17 0.793800 0.944311 0.799338
O O18 0.769640 0.035221 0.000000
O O19 0.517888 0.860560 0.500000
O O20 0.134585 0.122628 0.000000
#
# Coordination Sequence:
#
# PCOD8236014 Si02
#       8
#     8   8   8   8   8   8   8   8
#     4   9  18  35  57  76 100 139 180 212 252 314
#     4  10  21  37  57  79 104 138 178 217 258 310
#     4   9  20  37  55  77 103 134 176 222 264 308
#     4  10  19  31  51  79 107 132 165 214 266 310
#     4   9  19  35  52  72 102 140 179 213 249 307
#     4  11  23  36  53  80 110 138 173 221 273 318
#     4   9  18  33  52  74 103 140 177 210 251 310
#     4   9  20  38  57  77 105 142 177 213 263 318
#
# _framework density 19.332438
#
# number of rings (size 3 to 8) (size 9 to 14) (size 15 to 20)
#    0.000    2.500    0.000    2.250    0.000    8.000 
#    0.000    6.250    0.000    0.000    0.000    0.000 
#    0.000    0.000    0.000    0.000    0.000    0.000 
#
# Total GULP energy -793402.319706 kJ/mol
# GULP energy per Si atom -12396.911245 kJ/mol
# Density = 1.928844 g / cm^3
# Si number density = 19.332438 Si / 1000 Ang^3
#
#
#
# Elastic Constant Matrix: (Units=GPa)
#
#
# Indices 1 2 3 4 5 6 
#
# 1 81.3777 15.1258 34.3978 0.0000 0.0000 0.0000
# 2 15.1258 52.0998 28.3966 0.0000 0.0000 0.0000
# 3 34.3978 28.3966 80.8955 0.0000 0.0000 0.0000
# 4 0.0000 0.0000 0.0000 28.6512 0.0000 0.0000
# 5 0.0000 0.0000 0.0000 0.0000 26.6056 0.0000
# 6 0.0000 0.0000 0.0000 0.0000 0.0000 22.8394
#
#
#
# Elastic Compliance Matrix: (Units=1/GPa)
#
#
# Indices 1 2 3 4 5 6 
#
# 1 0.015031 -0.001089 -0.006009 0.000000 0.000000 0.000000
# 2 -0.001089 0.023814 -0.007896 0.000000 0.000000 0.000000
# 3 -0.006009 -0.007896 0.017689 0.000000 0.000000 0.000000
# 4 0.000000 0.000000 0.000000 0.034903 0.000000 0.000000
# 5 0.000000 0.000000 0.000000 0.000000 0.037586 0.000000
# 6 0.000000 0.000000 0.000000 0.000000 0.000000 0.043784
#
#
# Mechanical properties :
#
#
# Convention : Reuss Voigt Hill
#
# Bulk Modulus (GPa) = 37.67195 41.13481 39.40338
# Shear Modulus (GPa) = 23.62475 24.71610 24.17043
#
# Velocity S-wave (km/s) = 3.49954 3.57946 3.53973
# Velocity P-wave (km/s) = 5.98813 6.19735 6.09364
#
# Compressibility (1/GPa) = 0.02654495
#
# Stress axis : x y z
#
# Youngs Moduli (GPa) = 66.53035 41.99238 56.53339
#
# Poissons Ratio (x) = 0.04571 0.33972
# Poissons Ratio (y) = 0.07242 0.44641
# Poissons Ratio (z) = 0.39979 0.33159
#
# Static dielectric constant tensor:
#      x y z
#    x 3.655410 0.000000 0.000000 
#    y 0.000000 3.665290 0.000000 
#    z 0.000000 0.000000 3.827510 
# 
# 
# High freq. dielectric constant tensor:
#      x y z
#    x 1.744860 0.000000 0.000000 
#    y 0.000000 1.746000 0.000000 
#    z 0.000000 0.000000 1.752710 
# 
# From -- ./inp_files/8343.got.cif
#   From: 2010.06.25/outbox.cif.g09.slc.cpg/sg58_5_cif.got.tgz:8343.got - 2010.06.26 21:38:00.
