data_PCOD8236356
_publ_section_title
;
Structure prediction by ZEFSAII (Michael W. Deem and Ramdas Pophale) SiO2 
 PCOD8236356
Probable space group: P N N M
;
_chemical_formula_sum "Si O2"
_cell_formula_units_Z 48
_cell_length_a 21.042227
_cell_length_b 12.732826
_cell_length_c 9.753649
_cell_angle_alpha 90.000000
_cell_angle_beta 90.000000
_cell_angle_gamma 90.000000
_cell_volume 2613.266062
_symmetry_space_group_name_H-M "P N N M"
_symmetry_group_IT_number 58
_symmetry_cell_setting 'orthorhombic'
loop_
_space_group_symop_operation_xyz
x,y,z
-x,-y,z
1/2+x,1/2-y,1/2-z
1/2-x,1/2+y,1/2-z
-x,-y,-z
x,y,-z
1/2-x,1/2+y,1/2+z
1/2+x,1/2-y,1/2+z
loop_
_atom_site_type_symbol
_atom_site_label
_atom_site_fract_x
_atom_site_fract_y
_atom_site_fract_z
Si Si1 0.097520 0.590701 0.847358
Si Si2 0.863560 0.617011 0.249352
Si Si3 0.957740 0.903204 0.657626
Si Si4 0.995290 0.676223 0.650568
Si Si5 0.841282 0.845014 0.157905
Si Si6 0.205176 0.572806 0.655833
O O1 0.106059 0.464360 0.861286
O O2 0.155975 0.635991 0.755159
O O3 0.032027 0.615382 0.769659
O O4 0.096825 0.640230 0.000000
O O5 0.920435 0.649799 0.350488
O O6 0.834333 0.719547 0.178111
O O7 0.808387 0.553170 0.331681
O O8 0.935944 0.917336 0.500000
O O9 0.001899 0.800687 0.675172
O O10 0.895542 0.896890 0.750845
O O11 0.000000 0.000000 0.708715
O O12 0.022140 0.644491 0.500000
O O13 0.776144 0.900724 0.203671
O O14 0.857181 0.868175 0.000000
O O15 0.194511 0.610559 0.500000
#
# Coordination Sequence:
#
# PCOD8236356 Si02
#       6
#     8   8   8   8   8   8
#     4  10  21  34  52  81 115 142 177 228 275 319
#     4   9  20  34  58  77 109 140 185 217 273 325
#     4   9  20  39  59  82 111 146 185 223 270 330
#     4  10  19  33  57  81 107 145 183 222 270 324
#     4  10  20  38  60  81 108 145 185 227 274 323
#     4   9  20  37  56  78 109 145 185 224 268 327
#
# _framework density 18.367819999999998
#
# number of rings (size 3 to 8) (size 9 to 14) (size 15 to 20)
#    1.000    1.500    0.000    2.000    0.000    6.333 
#    3.000    0.000    0.000    0.000    0.000    0.000 
#    0.000    0.000    0.000    0.000    0.000    0.000 
#
# Total GULP energy -594782.343542 kJ/mol
# GULP energy per Si atom -12391.298824 kJ/mol
# Density = 1.832601 g / cm^3
# Si number density = 18.367820 Si / 1000 Ang^3
#
#
#
# Elastic Constant Matrix: (Units=GPa)
#
#
# Indices 1 2 3 4 5 6 
#
# 1 116.1443 57.9913 60.4544 0.0000 0.0000 0.0000
# 2 57.9913 93.8770 29.8285 0.0000 0.0000 0.0000
# 3 60.4544 29.8285 115.3224 0.0000 0.0000 0.0000
# 4 0.0000 0.0000 0.0000 15.6530 0.0000 0.0000
# 5 0.0000 0.0000 0.0000 0.0000 27.5057 0.0000
# 6 0.0000 0.0000 0.0000 0.0000 0.0000 33.9854
#
#
#
# Elastic Compliance Matrix: (Units=1/GPa)
#
#
# Indices 1 2 3 4 5 6 
#
# 1 0.015715 -0.007725 -0.006240 0.000000 0.000000 0.000000
# 2 -0.007725 0.015404 0.000066 0.000000 0.000000 0.000000
# 3 -0.006240 0.000066 0.011926 0.000000 0.000000 0.000000
# 4 0.000000 0.000000 0.000000 0.063885 0.000000 0.000000
# 5 0.000000 0.000000 0.000000 0.000000 0.036356 0.000000
# 6 0.000000 0.000000 0.000000 0.000000 0.000000 0.029424
#
#
# Mechanical properties :
#
#
# Convention : Reuss Voigt Hill
#
# Bulk Modulus (GPa) = 65.59592 69.09913 67.34752
# Shear Modulus (GPa) = 24.32009 27.23346 25.77678
#
# Velocity S-wave (km/s) = 3.64271 3.85473 3.75022
# Velocity P-wave (km/s) = 7.31317 7.58375 7.44969
#
# Compressibility (1/GPa) = 0.01524485
#
# Stress axis : x y z
#
# Youngs Moduli (GPa) = 63.63257 64.92015 83.85331
#
# Poissons Ratio (x) = 0.50152 0.52325
# Poissons Ratio (y) = 0.49157 -0.00549
# Poissons Ratio (z) = 0.39707 -0.00425
#
# Static dielectric constant tensor:
#      x y z
#    x 3.203140 0.000000 0.000000 
#    y 0.000000 3.337860 0.000000 
#    z 0.000000 0.000000 3.238210 
# 
# 
# High freq. dielectric constant tensor:
#      x y z
#    x 1.700790 0.000000 0.000000 
#    y 0.000000 1.696550 0.000000 
#    z 0.000000 0.000000 1.712500 
# 
# From -- ./inp_files/9774.got.cif
#   From: 2010.06.25/outbox.cif.g09.slc.cpg/sg58_5_cif.got.tgz:9774.got - 2010.06.26 21:38:00.
