data_PCOD8236464
_publ_section_title
;
Structure prediction by ZEFSAII (Michael W. Deem and Ramdas Pophale) SiO2 
 PCOD8236464
Probable space group: P N N M
;
_chemical_formula_sum "Si O2"
_cell_formula_units_Z 64
_cell_length_a 20.497305
_cell_length_b 19.537231
_cell_length_c 8.649743
_cell_angle_alpha 90.000000
_cell_angle_beta 90.000000
_cell_angle_gamma 90.000000
_cell_volume 3463.881122
_symmetry_space_group_name_H-M "P N N M"
_symmetry_group_IT_number 58
_symmetry_cell_setting 'orthorhombic'
loop_
_space_group_symop_operation_xyz
x,y,z
-x,-y,z
1/2+x,1/2-y,1/2-z
1/2-x,1/2+y,1/2-z
-x,-y,-z
x,y,-z
1/2-x,1/2+y,1/2+z
1/2+x,1/2-y,1/2+z
loop_
_atom_site_type_symbol
_atom_site_label
_atom_site_fract_x
_atom_site_fract_y
_atom_site_fract_z
Si Si1 0.878440 0.428536 0.318204
Si Si2 0.121789 0.432795 0.179635
Si Si3 0.809412 0.794793 0.318952
Si Si4 0.228768 0.926650 0.681845
Si Si5 0.927137 0.713238 0.180954
Si Si6 0.682576 0.709685 0.318483
Si Si7 0.230557 0.067578 0.182334
Si Si8 0.436738 0.211638 0.817451
O O1 0.878689 0.426515 0.500000
O O2 0.908801 0.500520 0.262329
O O3 0.804410 0.420961 0.257126
O O4 0.919927 0.364626 0.254885
O O5 0.195923 0.420273 0.234054
O O6 0.079643 0.366779 0.225264
O O7 0.119849 0.448428 0.000000
O O8 0.806734 0.809226 0.500000
O O9 0.875173 0.755708 0.277561
O O10 0.747420 0.750059 0.264941
O O11 0.811310 0.866659 0.229484
O O12 0.219542 0.915391 0.500000
O O13 0.188966 0.869625 0.774645
O O14 0.201318 0.000699 0.732858
O O15 0.998878 0.737569 0.229623
O O16 0.914673 0.725369 0.000000
O O17 0.669835 0.717781 0.500000
O O18 0.621838 0.738022 0.223172
O O19 0.227251 0.055971 0.000000
O O20 0.449053 0.212607 0.000000
#
# Coordination Sequence:
#
# PCOD8236464 Si02
#       8
#     8   8   8   8   8   8   8   8
#     4   9  19  33  52  77 110 149 188 228 275 329
#     4   9  19  33  52  77 110 149 188 228 275 329
#     4  11  22  36  58  86 113 147 190 236 283 335
#     4  10  19  34  56  84 115 147 185 232 284 335
#     4  11  23  39  56  80 113 152 192 235 285 337
#     4  11  22  36  58  86 113 147 190 236 283 335
#     4  10  19  34  56  84 115 147 185 232 284 335
#     4  11  23  39  56  80 113 152 192 235 285 337
#
# _framework density 18.476385000000001
#
# number of rings (size 3 to 8) (size 9 to 14) (size 15 to 20)
#    0.000    1.750    2.500    2.250    0.000    4.500 
#    0.000    2.500    0.000    0.750    0.000    5.250 
#    0.000    0.000    0.000    0.000    0.000    0.000 
#
# Total GULP energy -793865.695288 kJ/mol
# GULP energy per Si atom -12404.151489 kJ/mol
# Density = 1.843433 g / cm^3
# Si number density = 18.476385 Si / 1000 Ang^3
#
#
#
# Elastic Constant Matrix: (Units=GPa)
#
#
# Indices 1 2 3 4 5 6 
#
# 1 80.0841 30.9181 8.4445 0.0000 0.0000 0.0000
# 2 30.9181 92.4243 15.3772 0.0000 0.0000 0.0000
# 3 8.4445 15.3772 38.1720 0.0000 0.0000 0.0000
# 4 0.0000 0.0000 0.0000 35.5689 0.0000 0.0000
# 5 0.0000 0.0000 0.0000 0.0000 22.8752 0.0000
# 6 0.0000 0.0000 0.0000 0.0000 0.0000 22.8398
#
#
#
# Elastic Compliance Matrix: (Units=1/GPa)
#
#
# Indices 1 2 3 4 5 6 
#
# 1 0.014402 -0.004596 -0.001335 0.000000 0.000000 0.000000
# 2 -0.004596 0.013063 -0.004246 0.000000 0.000000 0.000000
# 3 -0.001335 -0.004246 0.028203 0.000000 0.000000 0.000000
# 4 0.000000 0.000000 0.000000 0.028114 0.000000 0.000000
# 5 0.000000 0.000000 0.000000 0.000000 0.043715 0.000000
# 6 0.000000 0.000000 0.000000 0.000000 0.000000 0.043783
#
#
# Mechanical properties :
#
#
# Convention : Reuss Voigt Hill
#
# Bulk Modulus (GPa) = 28.31596 35.57332 31.94464
# Shear Modulus (GPa) = 24.58145 26.65283 25.61714
#
# Velocity S-wave (km/s) = 3.65146 3.80219 3.72759
# Velocity P-wave (km/s) = 5.75641 6.21054 5.98778
#
# Compressibility (1/GPa) = 0.03531578
#
# Stress axis : x y z
#
# Youngs Moduli (GPa) = 69.43545 76.54958 35.45745
#
# Poissons Ratio (x) = 0.35180 0.04732
# Poissons Ratio (y) = 0.31910 0.15054
# Poissons Ratio (z) = 0.09267 0.32501
#
# Static dielectric constant tensor:
#      x y z
#    x 3.162390 0.000000 0.000000 
#    y 0.000000 3.483730 0.000000 
#    z 0.000000 0.000000 3.329130 
# 
# 
# High freq. dielectric constant tensor:
#      x y z
#    x 1.688120 0.000000 0.000000 
#    y 0.000000 1.721570 0.000000 
#    z 0.000000 0.000000 1.723210 
# 
# From -- ./inp_files/9215.got.cif
#   From: 2010.06.25/outbox.cif.g09.slc.cpg/sg58_5_cif.got.tgz:9215.got - 2010.06.26 21:38:00.
