data_PCOD8236101
_publ_section_title
;
Structure prediction by ZEFSAII (Michael W. Deem and Ramdas Pophale) SiO2 
 PCOD8236101
Probable space group: P N N M
;
_chemical_formula_sum "Si O2"
_cell_formula_units_Z 48
_cell_length_a 28.763850
_cell_length_b 10.190195
_cell_length_c 9.666680
_cell_angle_alpha 90.000000
_cell_angle_beta 90.000000
_cell_angle_gamma 90.000000
_cell_volume 2833.393232
_symmetry_space_group_name_H-M "P N N M"
_symmetry_group_IT_number 58
_symmetry_cell_setting 'orthorhombic'
loop_
_space_group_symop_operation_xyz
x,y,z
-x,-y,z
1/2+x,1/2-y,1/2-z
1/2-x,1/2+y,1/2-z
-x,-y,-z
x,y,-z
1/2-x,1/2+y,1/2+z
1/2+x,1/2-y,1/2+z
loop_
_atom_site_type_symbol
_atom_site_label
_atom_site_fract_x
_atom_site_fract_y
_atom_site_fract_z
Si Si1 0.778967 0.991288 0.161410
Si Si2 0.474989 0.364542 0.657653
Si Si3 0.112261 0.243436 0.343077
Si Si4 0.017367 0.361137 0.340088
Si Si5 0.782816 0.736600 0.338375
Si Si6 0.884245 0.997329 0.156561
O O1 0.746186 0.110137 0.209472
O O2 0.831596 0.038681 0.192862
O O3 0.766532 0.862585 0.250418
O O4 0.771503 0.957708 0.000000
O O5 0.500000 0.500000 0.697701
O O6 0.487048 0.325866 0.500000
O O7 0.491221 0.251324 0.758004
O O8 0.419202 0.380862 0.677779
O O9 0.111694 0.192542 0.500000
O O10 0.073284 0.354917 0.319508
O O11 0.163354 0.297948 0.305753
O O12 0.098117 0.121101 0.250153
O O13 0.003588 0.344304 0.500000
O O14 0.000000 0.500000 0.281943
O O15 0.774474 0.767555 0.500000
O O16 0.887193 0.945262 0.000000
#
# Coordination Sequence:
#
# PCOD8236101 Si02
#       6
#     8   8   8   8   8   8
#     4   9  18  33  52  73  99 129 160 199 245 290
#     4  10  19  32  52  75  97 125 162 203 241 282
#     4   9  17  31  51  70  94 129 165 196 235 287
#     4  10  21  35  49  70 101 133 163 198 241 289
#     4   9  18  33  52  73  97 126 161 201 242 287
#     4   9  17  31  51  73  97 124 161 203 242 285
#
# _framework density 16.940818
#
# number of rings (size 3 to 8) (size 9 to 14) (size 15 to 20)
#    0.000    2.667    1.667    0.000    0.000    2.000 
#    3.000    0.000    0.000    0.000    0.000    0.000 
#    0.000    0.000    0.000    0.000    0.000    0.000 
#
# Total GULP energy -595117.467386 kJ/mol
# GULP energy per Si atom -12398.280571 kJ/mol
# Density = 1.690226 g / cm^3
# Si number density = 16.940818 Si / 1000 Ang^3
#
#
#
# Elastic Constant Matrix: (Units=GPa)
#
#
# Indices 1 2 3 4 5 6 
#
# 1 101.5938 73.8667 43.9265 0.0000 0.0000 0.0000
# 2 73.8667 129.5626 62.3541 0.0000 0.0000 0.0000
# 3 43.9265 62.3541 61.9848 0.0000 0.0000 0.0000
# 4 0.0000 0.0000 0.0000 23.3113 0.0000 0.0000
# 5 0.0000 0.0000 0.0000 0.0000 23.1019 0.0000
# 6 0.0000 0.0000 0.0000 0.0000 0.0000 30.0041
#
#
#
# Elastic Compliance Matrix: (Units=1/GPa)
#
#
# Indices 1 2 3 4 5 6 
#
# 1 0.017456 -0.007751 -0.004573 0.000000 0.000000 0.000000
# 2 -0.007751 0.018404 -0.013020 0.000000 0.000000 0.000000
# 3 -0.004573 -0.013020 0.032472 0.000000 0.000000 0.000000
# 4 0.000000 0.000000 0.000000 0.042898 0.000000 0.000000
# 5 0.000000 0.000000 0.000000 0.000000 0.043286 0.000000
# 6 0.000000 0.000000 0.000000 0.000000 0.000000 0.033329
#
#
# Mechanical properties :
#
#
# Convention : Reuss Voigt Hill
#
# Bulk Modulus (GPa) = 56.68236 72.60398 64.64317
# Shear Modulus (GPa) = 20.45704 22.81639 21.63672
#
# Velocity S-wave (km/s) = 3.47877 3.67390 3.57766
# Velocity P-wave (km/s) = 7.04751 7.80687 7.43689
#
# Compressibility (1/GPa) = 0.01764217
#
# Stress axis : x y z
#
# Youngs Moduli (GPa) = 57.28603 54.33688 30.79610
#
# Poissons Ratio (x) = 0.42118 0.14083
# Poissons Ratio (y) = 0.44404 0.40097
# Poissons Ratio (z) = 0.26198 0.70748
#
# Static dielectric constant tensor:
#      x y z
#    x 3.455190 0.000000 0.000000 
#    y 0.000000 2.967540 0.000000 
#    z 0.000000 0.000000 3.193170 
# 
# 
# High freq. dielectric constant tensor:
#      x y z
#    x 1.666760 0.000000 0.000000 
#    y 0.000000 1.625820 0.000000 
#    z 0.000000 0.000000 1.654970 
# 
# From -- ./inp_files/2992.got.cif
#   From: 2010.06.25/outbox.cif.g09.slc.cpg/sg58_2_cif.got.tgz:2992.got - 2010.06.26 21:38:00.
