data_PCOD8236120
_publ_section_title
;
Structure prediction by ZEFSAII (Michael W. Deem and Ramdas Pophale) SiO2 
 PCOD8236120
Probable space group: P N N M
;
_chemical_formula_sum "Si O2"
_cell_formula_units_Z 48
_cell_length_a 14.635456
_cell_length_b 19.967785
_cell_length_c 9.192426
_cell_angle_alpha 90.000000
_cell_angle_beta 90.000000
_cell_angle_gamma 90.000000
_cell_volume 2686.372869
_symmetry_space_group_name_H-M "P N N M"
_symmetry_group_IT_number 58
_symmetry_cell_setting 'orthorhombic'
loop_
_space_group_symop_operation_xyz
x,y,z
-x,-y,z
1/2+x,1/2-y,1/2-z
1/2-x,1/2+y,1/2-z
-x,-y,-z
x,y,-z
1/2-x,1/2+y,1/2+z
1/2+x,1/2-y,1/2+z
loop_
_atom_site_type_symbol
_atom_site_label
_atom_site_fract_x
_atom_site_fract_y
_atom_site_fract_z
Si Si1 0.720376 0.526044 0.833625
Si Si2 0.561460 0.435160 0.166130
Si Si3 0.923321 0.551714 0.829662
Si Si4 0.690188 0.655714 0.333166
Si Si5 0.391861 0.813706 0.827944
Si Si6 0.493610 0.695382 0.669134
O O1 0.666775 0.456903 0.803759
O O2 0.826432 0.517254 0.791468
O O3 0.673053 0.586587 0.749112
O O4 0.710145 0.547205 0.000000
O O5 0.500000 0.500000 0.194725
O O6 0.537653 0.377609 0.279281
O O7 0.549301 0.409480 0.000000
O O8 0.935961 0.619710 0.739828
O O9 0.000000 0.500000 0.777832
O O10 0.932741 0.568750 0.000000
O O11 0.698291 0.635368 0.500000
O O12 0.784452 0.691490 0.284024
O O13 0.602998 0.703703 0.305912
O O14 0.442254 0.750192 0.762926
O O15 0.406308 0.814664 0.000000
O O16 0.468478 0.703797 0.500000
#
# Coordination Sequence:
#
# PCOD8236120 Si02
#       6
#     8   8   8   8   8   8
#     4   9  17  31  53  78 104 137 174 214 258 312
#     4  10  19  32  52  80 110 139 174 214 263 317
#     4   9  18  35  58  81 106 139 179 219 263 315
#     4   9  19  35  55  76 101 138 177 216 265 315
#     4  10  21  38  57  78 106 141 180 222 268 318
#     4  11  22  36  55  79 108 141 179 223 268 317
#
# _framework density 17.867958999999999
#
# number of rings (size 3 to 8) (size 9 to 14) (size 15 to 20)
#    0.000    2.333    1.667    1.000    0.000    2.667 
#    3.000    0.000    0.000    0.000    0.000    0.000 
#    0.000    0.000    0.000    0.000    0.000    0.000 
#
# Total GULP energy -595149.685006 kJ/mol
# GULP energy per Si atom -12398.951771 kJ/mol
# Density = 1.782729 g / cm^3
# Si number density = 17.867959 Si / 1000 Ang^3
#
#
#
# Elastic Constant Matrix: (Units=GPa)
#
#
# Indices 1 2 3 4 5 6 
#
# 1 94.5250 56.2183 36.7602 0.0000 0.0000 0.0000
# 2 56.2183 94.2591 45.5243 0.0000 0.0000 0.0000
# 3 36.7602 45.5243 66.2561 0.0000 0.0000 0.0000
# 4 0.0000 0.0000 0.0000 30.9874 0.0000 0.0000
# 5 0.0000 0.0000 0.0000 0.0000 25.0834 0.0000
# 6 0.0000 0.0000 0.0000 0.0000 0.0000 27.2471
#
#
#
# Elastic Compliance Matrix: (Units=1/GPa)
#
#
# Indices 1 2 3 4 5 6 
#
# 1 0.016975 -0.008345 -0.003684 0.000000 0.000000 0.000000
# 2 -0.008345 0.019981 -0.009099 0.000000 0.000000 0.000000
# 3 -0.003684 -0.009099 0.023389 0.000000 0.000000 0.000000
# 4 0.000000 0.000000 0.000000 0.032271 0.000000 0.000000
# 5 0.000000 0.000000 0.000000 0.000000 0.039867 0.000000
# 6 0.000000 0.000000 0.000000 0.000000 0.000000 0.036701
#
#
# Mechanical properties :
#
#
# Convention : Reuss Voigt Hill
#
# Bulk Modulus (GPa) = 55.28355 59.11622 57.19988
# Shear Modulus (GPa) = 22.99176 24.43273 23.71225
#
# Velocity S-wave (km/s) = 3.59103 3.70186 3.64687
# Velocity P-wave (km/s) = 6.94271 7.17137 7.05797
#
# Compressibility (1/GPa) = 0.01808856
#
# Stress axis : x y z
#
# Youngs Moduli (GPa) = 58.90960 50.04873 42.75562
#
# Poissons Ratio (x) = 0.41765 0.15753
# Poissons Ratio (y) = 0.49160 0.38902
# Poissons Ratio (z) = 0.21705 0.45537
#
# Static dielectric constant tensor:
#      x y z
#    x 3.702640 0.000000 0.000000 
#    y 0.000000 3.122100 0.000000 
#    z 0.000000 0.000000 3.326500 
# 
# 
# High freq. dielectric constant tensor:
#      x y z
#    x 1.704370 0.000000 0.000000 
#    y 0.000000 1.669150 0.000000 
#    z 0.000000 0.000000 1.694370 
# 
# From -- ./inp_files/5817.got.cif
#   From: 2010.06.25/outbox.cif.g09.slc.cpg/sg58_3_cif.got.tgz:5817.got - 2010.06.26 21:38:00.
