data_PCOD8236343
_publ_section_title
;
Structure prediction by ZEFSAII (Michael W. Deem and Ramdas Pophale) SiO2 
 PCOD8236343
Probable space group: P N N M
;
_chemical_formula_sum "Si O2"
_cell_formula_units_Z 64
_cell_length_a 15.153923
_cell_length_b 20.452928
_cell_length_c 9.335968
_cell_angle_alpha 90.000000
_cell_angle_beta 90.000000
_cell_angle_gamma 90.000000
_cell_volume 2893.609490
_symmetry_space_group_name_H-M "P N N M"
_symmetry_group_IT_number 58
_symmetry_cell_setting 'orthorhombic'
loop_
_space_group_symop_operation_xyz
x,y,z
-x,-y,z
1/2+x,1/2-y,1/2-z
1/2-x,1/2+y,1/2-z
-x,-y,-z
x,y,-z
1/2-x,1/2+y,1/2+z
1/2+x,1/2-y,1/2+z
loop_
_atom_site_type_symbol
_atom_site_label
_atom_site_fract_x
_atom_site_fract_y
_atom_site_fract_z
Si Si1 0.924978 0.050781 0.335357
Si Si2 0.096126 0.489571 0.157485
Si Si3 0.258235 0.762333 0.166046
Si Si4 0.079079 0.633177 0.845393
Si Si5 0.257789 0.493363 0.665238
Si Si6 0.416418 0.300429 0.835115
Si Si7 0.446860 0.812612 0.837152
Si Si8 0.762557 0.353810 0.335612
O O1 0.899759 0.036309 0.500000
O O2 0.954671 0.125845 0.313333
O O3 0.840289 0.039466 0.238281
O O4 0.000000 0.000000 0.284128
O O5 0.125037 0.564071 0.128268
O O6 0.169529 0.461184 0.264638
O O7 0.000000 0.500000 0.229401
O O8 0.090489 0.453653 0.000000
O O9 0.171893 0.793278 0.239364
O O10 0.342105 0.809742 0.182586
O O11 0.296001 0.695531 0.241070
O O12 0.237762 0.747925 0.000000
O O13 0.140261 0.667923 0.725946
O O14 0.980505 0.630568 0.773587
O O15 0.075918 0.669891 0.000000
O O16 0.255261 0.473484 0.500000
O O17 0.264173 0.571422 0.684850
O O18 0.497494 0.252495 0.791482
O O19 0.388644 0.290082 0.000000
O O20 0.469564 0.831726 0.000000
O O21 0.760080 0.333200 0.500000
#
# Coordination Sequence:
#
# PCOD8236343 Si02
#       8
#     8   8   8   8   8   8   8   8
#     4  10  23  42  66  90 116 161 214 257 304 361
#     4   9  19  36  58  85 117 154 197 245 293 351
#     4  11  23  37  60  92 120 157 201 247 300 360
#     4  10  19  33  56  84 112 147 193 240 288 347
#     4  10  22  38  58  86 119 155 196 248 308 361
#     4  10  22  42  63  87 123 163 199 251 309 362
#     4  10  22  38  57  84 121 158 193 240 303 365
#     4  10  20  36  57  82 115 152 191 242 305 359
#
# _framework density 22.117704
#
# number of rings (size 3 to 8) (size 9 to 14) (size 15 to 20)
#    0.000    2.000    1.250    1.500    1.750    5.000 
#    0.000    3.750    0.000    0.000    0.000    0.000 
#    0.000    0.000    0.000    0.000    0.000    0.000 
#
# Total GULP energy -792874.123902 kJ/mol
# GULP energy per Si atom -12388.658186 kJ/mol
# Density = 2.206736 g / cm^3
# Si number density = 22.117704 Si / 1000 Ang^3
#
#
#
# Elastic Constant Matrix: (Units=GPa)
#
#
# Indices 1 2 3 4 5 6 
#
# 1 94.2368 -8.3718 31.7518 0.0000 0.0000 0.0000
# 2 -8.3718 13.3077 -3.1766 0.0000 0.0000 0.0000
# 3 31.7518 -3.1766 103.9198 0.0000 0.0000 0.0000
# 4 0.0000 0.0000 0.0000 26.0986 0.0000 0.0000
# 5 0.0000 0.0000 0.0000 0.0000 22.4226 0.0000
# 6 0.0000 0.0000 0.0000 0.0000 0.0000 26.7895
#
#
#
# Elastic Compliance Matrix: (Units=1/GPa)
#
#
# Indices 1 2 3 4 5 6 
#
# 1 0.012440 0.006969 -0.003588 0.000000 0.000000 0.000000
# 2 0.006969 0.079601 0.000304 0.000000 0.000000 0.000000
# 3 -0.003588 0.000304 0.010728 0.000000 0.000000 0.000000
# 4 0.000000 0.000000 0.000000 0.038316 0.000000 0.000000
# 5 0.000000 0.000000 0.000000 0.000000 0.044598 0.000000
# 6 0.000000 0.000000 0.000000 0.000000 0.000000 0.037328
#
#
# Mechanical properties :
#
#
# Convention : Reuss Voigt Hill
#
# Bulk Modulus (GPa) = 9.07939 27.98567 18.53253
# Shear Modulus (GPa) = 19.81347 27.81288 23.81317
#
# Velocity S-wave (km/s) = 2.99627 3.54996 3.28480
# Velocity P-wave (km/s) = 4.01050 5.42987 4.77324
#
# Compressibility (1/GPa) = 0.11013960
#
# Stress axis : x y z
#
# Youngs Moduli (GPa) = 80.38880 12.56265 93.21133
#
# Poissons Ratio (x) = -0.08755 0.33442
# Poissons Ratio (y) = -0.56025 -0.02832
# Poissons Ratio (z) = 0.28842 -0.00382
#
# Static dielectric constant tensor:
#      x y z
#    x 3.846620 0.000000 0.000000 
#    y 0.000000 4.153330 0.000000 
#    z 0.000000 0.000000 4.179490 
# 
# 
# High freq. dielectric constant tensor:
#      x y z
#    x 1.859250 0.000000 0.000000 
#    y 0.000000 1.871510 0.000000 
#    z 0.000000 0.000000 1.874620 
# 
# From -- ./inp_files/6774.got.cif
#   From: 2010.06.25/outbox.cif.g09.slc.cpg/sg58_4_cif.got.tgz:6774.got - 2010.06.26 21:38:00.
