data_PCOD8236807
_publ_section_title
;
Structure prediction by ZEFSAII (Michael W. Deem and Ramdas Pophale) SiO2 
 PCOD8236807
Probable space group: P N N M
;
_chemical_formula_sum "Si O2"
_cell_formula_units_Z 56
_cell_length_a 14.656024
_cell_length_b 21.625084
_cell_length_c 9.031764
_cell_angle_alpha 90.000000
_cell_angle_beta 90.000000
_cell_angle_gamma 90.000000
_cell_volume 2862.506962
_symmetry_space_group_name_H-M "P N N M"
_symmetry_group_IT_number 58
_symmetry_cell_setting 'orthorhombic'
loop_
_space_group_symop_operation_xyz
x,y,z
-x,-y,z
1/2+x,1/2-y,1/2-z
1/2-x,1/2+y,1/2-z
-x,-y,-z
x,y,-z
1/2-x,1/2+y,1/2+z
1/2+x,1/2-y,1/2+z
loop_
_atom_site_type_symbol
_atom_site_label
_atom_site_fract_x
_atom_site_fract_y
_atom_site_fract_z
Si Si1 0.387646 0.401370 0.825246
Si Si2 0.926386 0.892784 0.173937
Si Si3 0.721068 0.494702 0.672276
Si Si4 0.441086 0.176814 0.675484
Si Si5 0.421069 0.049151 0.170312
Si Si6 0.110091 0.244528 0.824911
Si Si7 0.188407 0.769115 0.325662
O O1 0.484148 0.419636 0.753791
O O2 0.309328 0.446524 0.766871
O O3 0.361380 0.331921 0.777070
O O4 0.394272 0.408040 0.000000
O O5 0.840860 0.935798 0.213061
O O6 0.903933 0.824737 0.237480
O O7 0.946668 0.891995 0.000000
O O8 0.712372 0.511486 0.500000
O O9 0.824632 0.480080 0.717334
O O10 0.435475 0.179649 0.500000
O O11 0.443561 0.106592 0.726429
O O12 0.531669 0.210683 0.737249
O O13 0.353927 0.210803 0.742769
O O14 0.500000 0.000000 0.197871
O O15 0.417483 0.071020 0.000000
O O16 0.206565 0.272448 0.773949
O O17 0.105103 0.241198 0.000000
O O18 0.180497 0.757397 0.500000
#
# Coordination Sequence:
#
# PCOD8236807 Si02
#       7
#     8   8   8   8   8   8   8
#     4  11  23  36  57  88 121 152 190 247 302 345
#     4  10  19  37  61  83 113 154 197 237 284 354
#     4  10  22  39  61  84 112 159 203 237 286 350
#     4  11  22  38  63  92 119 151 194 247 296 345
#     4  10  23  43  64  87 119 159 201 242 291 352
#     4   9  19  36  60  85 113 153 196 235 286 353
#     4  10  21  39  60  84 119 161 198 238 295 355
#
# _framework density 19.563269999999999
#
# number of rings (size 3 to 8) (size 9 to 14) (size 15 to 20)
#    0.000    1.857    1.429    2.143    2.000    6.000 
#    0.000    3.571    0.000    0.000    0.000    0.000 
#    0.000    0.000    0.000    0.000    0.000    0.000 
#
# Total GULP energy -694683.569048 kJ/mol
# GULP energy per Si atom -12405.063733 kJ/mol
# Density = 1.951874 g / cm^3
# Si number density = 19.563270 Si / 1000 Ang^3
#
#
#
# Elastic Constant Matrix: (Units=GPa)
#
#
# Indices 1 2 3 4 5 6 
#
# 1 146.7370 53.4295 35.4249 0.0000 0.0000 0.0000
# 2 53.4295 106.1479 40.7154 0.0000 0.0000 0.0000
# 3 35.4249 40.7154 48.1216 0.0000 0.0000 0.0000
# 4 0.0000 0.0000 0.0000 34.4562 0.0000 0.0000
# 5 0.0000 0.0000 0.0000 0.0000 22.6809 0.0000
# 6 0.0000 0.0000 0.0000 0.0000 0.0000 31.9816
#
#
#
# Elastic Compliance Matrix: (Units=1/GPa)
#
#
# Indices 1 2 3 4 5 6 
#
# 1 0.008851 -0.002896 -0.004066 0.000000 0.000000 0.000000
# 2 -0.002896 0.014895 -0.010471 0.000000 0.000000 0.000000
# 3 -0.004066 -0.010471 0.032633 0.000000 0.000000 0.000000
# 4 0.000000 0.000000 0.000000 0.029022 0.000000 0.000000
# 5 0.000000 0.000000 0.000000 0.000000 0.044090 0.000000
# 6 0.000000 0.000000 0.000000 0.000000 0.000000 0.031268
#
#
# Mechanical properties :
#
#
# Convention : Reuss Voigt Hill
#
# Bulk Modulus (GPa) = 46.48035 62.23846 54.35940
# Shear Modulus (GPa) = 24.65566 29.25286 26.95426
#
# Velocity S-wave (km/s) = 3.55393 3.87110 3.71590
# Velocity P-wave (km/s) = 6.37582 7.20163 6.80127
#
# Compressibility (1/GPa) = 0.02151447
#
# Stress axis : x y z
#
# Youngs Moduli (GPa) = 112.98474 67.13877 30.64413
#
# Poissons Ratio (x) = 0.19441 0.12459
# Poissons Ratio (y) = 0.32716 0.32086
# Poissons Ratio (z) = 0.45935 0.70298
#
# Static dielectric constant tensor:
#      x y z
#    x 3.766940 0.000000 0.000000 
#    y 0.000000 3.609480 0.000000 
#    z 0.000000 0.000000 3.324530 
# 
# 
# High freq. dielectric constant tensor:
#      x y z
#    x 1.777540 0.000000 0.000000 
#    y 0.000000 1.770530 0.000000 
#    z 0.000000 0.000000 1.741390 
# 
# From -- ./inp_files/6457.got.cif
#   From: 2010.06.25/outbox.cif.g09.slc.cpg/sg58_4_cif.got.tgz:6457.got - 2010.06.26 21:38:00.
