data_PCOD8236805
_publ_section_title
;
Structure prediction by ZEFSAII (Michael W. Deem and Ramdas Pophale) SiO2 
 PCOD8236805
Probable space group: P N N M
;
_chemical_formula_sum "Si O2"
_cell_formula_units_Z 64
_cell_length_a 23.385774
_cell_length_b 14.950242
_cell_length_c 9.469710
_cell_angle_alpha 90.000000
_cell_angle_beta 90.000000
_cell_angle_gamma 90.000000
_cell_volume 3310.828236
_symmetry_space_group_name_H-M "P N N M"
_symmetry_group_IT_number 58
_symmetry_cell_setting 'orthorhombic'
loop_
_space_group_symop_operation_xyz
x,y,z
-x,-y,z
1/2+x,1/2-y,1/2-z
1/2-x,1/2+y,1/2-z
-x,-y,-z
x,y,-z
1/2-x,1/2+y,1/2+z
1/2+x,1/2-y,1/2+z
loop_
_atom_site_type_symbol
_atom_site_label
_atom_site_fract_x
_atom_site_fract_y
_atom_site_fract_z
Si Si1 0.457546 0.578291 0.659807
Si Si2 0.248270 0.562255 0.162432
Si Si3 0.753331 0.736671 0.333400
Si Si4 0.039807 0.419656 0.666357
Si Si5 0.628596 0.679502 0.336385
Si Si6 0.828210 0.570270 0.332087
Si Si7 0.371993 0.491731 0.161364
Si Si8 0.984900 0.268039 0.157685
O O1 0.500000 0.500000 0.706717
O O2 0.436077 0.563571 0.500000
O O3 0.403145 0.575863 0.764601
O O4 0.489051 0.670968 0.677174
O O5 0.263838 0.661909 0.220457
O O6 0.200134 0.515569 0.257704
O O7 0.304300 0.502148 0.174049
O O8 0.226552 0.567791 0.000000
O O9 0.757747 0.735728 0.500000
O O10 0.690109 0.711045 0.281802
O O11 0.799379 0.663526 0.276698
O O12 0.035690 0.411036 0.500000
O O13 0.105492 0.431165 0.713578
O O14 0.000000 0.500000 0.722606
O O15 0.014521 0.329836 0.729061
O O16 0.630084 0.649160 0.500000
O O17 0.608295 0.596593 0.243128
O O18 0.583384 0.760271 0.315552
O O19 0.820455 0.559705 0.500000
O O20 0.391829 0.485511 0.000000
O O21 0.996427 0.305133 0.000000
#
# Coordination Sequence:
#
# PCOD8236805 Si02
#       8
#     8   8   8   8   8   8   8   8
#     4  10  20  37  57  80 117 155 190 235 282 342
#     4  10  22  38  58  86 117 147 188 244 295 343
#     4   9  19  36  60  84 109 150 194 235 290 350
#     4  10  24  43  61  85 120 160 200 247 298 349
#     4  10  19  37  61  82 112 151 196 241 288 350
#     4  10  21  40  64  85 114 158 200 235 290 357
#     4  11  22  34  54  86 121 152 187 234 293 351
#     4  10  22  38  60  88 112 151 202 244 287 338
#
# _framework density 19.330511000000001
#
# number of rings (size 3 to 8) (size 9 to 14) (size 15 to 20)
#    0.000    2.000    2.500    0.375    3.500    2.500 
#    0.000    1.250    0.000    0.000    0.000    0.000 
#    0.000    0.000    0.000    0.000    0.000    0.000 
#
# Total GULP energy -793557.371296 kJ/mol
# GULP energy per Si atom -12399.333926 kJ/mol
# Density = 1.928651 g / cm^3
# Si number density = 19.330511 Si / 1000 Ang^3
#
#
#
# Elastic Constant Matrix: (Units=GPa)
#
#
# Indices 1 2 3 4 5 6 
#
# 1 126.2138 47.6451 43.3476 0.0000 0.0000 0.0000
# 2 47.6451 100.8283 30.3524 0.0000 0.0000 0.0000
# 3 43.3476 30.3524 54.3801 0.0000 0.0000 0.0000
# 4 0.0000 0.0000 0.0000 26.7952 0.0000 0.0000
# 5 0.0000 0.0000 0.0000 0.0000 24.7187 0.0000
# 6 0.0000 0.0000 0.0000 0.0000 0.0000 28.0654
#
#
#
# Elastic Compliance Matrix: (Units=1/GPa)
#
#
# Indices 1 2 3 4 5 6 
#
# 1 0.011750 -0.003285 -0.007533 0.000000 0.000000 0.000000
# 2 -0.003285 0.012839 -0.004548 0.000000 0.000000 0.000000
# 3 -0.007533 -0.004548 0.026932 0.000000 0.000000 0.000000
# 4 0.000000 0.000000 0.000000 0.037320 0.000000 0.000000
# 5 0.000000 0.000000 0.000000 0.000000 0.040455 0.000000
# 6 0.000000 0.000000 0.000000 0.000000 0.000000 0.035631
#
#
# Mechanical properties :
#
#
# Convention : Reuss Voigt Hill
#
# Bulk Modulus (GPa) = 48.09921 58.23470 53.16696
# Shear Modulus (GPa) = 24.68054 26.58768 25.63411
#
# Velocity S-wave (km/s) = 3.57706 3.71270 3.64551
# Velocity P-wave (km/s) = 6.48051 6.96922 6.72930
#
# Compressibility (1/GPa) = 0.02079036
#
# Stress axis : x y z
#
# Youngs Moduli (GPa) = 85.10488 77.88746 37.13040
#
# Poissons Ratio (x) = 0.25584 0.27970
# Poissons Ratio (y) = 0.27955 0.16886
# Poissons Ratio (z) = 0.64109 0.35422
#
# Static dielectric constant tensor:
#      x y z
#    x 3.745300 0.000000 0.000000 
#    y 0.000000 3.794250 0.000000 
#    z 0.000000 0.000000 3.367920 
# 
# 
# High freq. dielectric constant tensor:
#      x y z
#    x 1.762020 0.000000 0.000000 
#    y 0.000000 1.750370 0.000000 
#    z 0.000000 0.000000 1.732490 
# 
# From -- ./inp_files/6784.got.cif
#   From: 2010.06.25/outbox.cif.g09.slc.cpg/sg58_4_cif.got.tgz:6784.got - 2010.06.26 21:38:00.
