data_PCOD8236211
_publ_section_title
;
Structure prediction by ZEFSAII (Michael W. Deem and Ramdas Pophale) SiO2 
 PCOD8236211
Probable space group: P N N M
;
_chemical_formula_sum "Si O2"
_cell_formula_units_Z 56
_cell_length_a 21.543496
_cell_length_b 15.126409
_cell_length_c 9.170438
_cell_angle_alpha 90.000000
_cell_angle_beta 90.000000
_cell_angle_gamma 90.000000
_cell_volume 2988.423194
_symmetry_space_group_name_H-M "P N N M"
_symmetry_group_IT_number 58
_symmetry_cell_setting 'orthorhombic'
loop_
_space_group_symop_operation_xyz
x,y,z
-x,-y,z
1/2+x,1/2-y,1/2-z
1/2-x,1/2+y,1/2-z
-x,-y,-z
x,y,-z
1/2-x,1/2+y,1/2+z
1/2+x,1/2-y,1/2+z
loop_
_atom_site_type_symbol
_atom_site_label
_atom_site_fract_x
_atom_site_fract_y
_atom_site_fract_z
Si Si1 0.974840 0.359533 0.828767
Si Si2 0.721107 0.087774 0.672297
Si Si3 0.264550 0.225048 0.172876
Si Si4 0.599220 0.718753 0.172628
Si Si5 0.090867 0.466473 0.827947
Si Si6 0.691065 0.431205 0.828880
Si Si7 0.068666 0.977624 0.672972
O O1 0.957910 0.271248 0.742769
O O2 0.933707 0.440614 0.766405
O O3 0.045961 0.384042 0.792356
O O4 0.964488 0.343909 0.000000
O O5 0.713913 0.092796 0.500000
O O6 0.733421 0.185380 0.731875
O O7 0.657440 0.052606 0.743762
O O8 0.776712 0.023230 0.714616
O O9 0.336674 0.233209 0.221351
O O10 0.226518 0.145904 0.244863
O O11 0.259546 0.214508 0.000000
O O12 0.593246 0.617707 0.229281
O O13 0.593210 0.720590 0.000000
O O14 0.094740 0.478231 0.000000
O O15 0.618726 0.445753 0.782314
O O16 0.697239 0.411179 0.000000
O O17 0.064885 0.974243 0.500000
O O18 0.000000 0.000000 0.737527
#
# Coordination Sequence:
#
# PCOD8236211 Si02
#       7
#     8   8   8   8   8   8   8
#     4   9  17  30  49  74  99 127 166 210 251 297
#     4   9  16  30  51  71  96 133 169 201 246 310
#     4  10  20  33  51  75 102 132 169 213 262 308
#     4  10  19  33  51  73 101 136 172 207 256 314
#     4   8  15  28  47  71  99 129 165 208 251 297
#     4  10  19  34  56  79 101 133 178 217 254 308
#     4   9  18  34  55  76 102 138 178 215 252 306
#
# _framework density 18.738980000000002
#
# number of rings (size 3 to 8) (size 9 to 14) (size 15 to 20)
#    0.000    2.714    1.429    1.714    0.000    2.857 
#    0.000    2.857    0.000    2.571    0.000    0.000 
#    0.000    0.000    0.000    0.000    0.000    0.000 
#
# Total GULP energy -693969.531400 kJ/mol
# GULP energy per Si atom -12392.313061 kJ/mol
# Density = 1.869633 g / cm^3
# Si number density = 18.738980 Si / 1000 Ang^3
#
#
#
# Elastic Constant Matrix: (Units=GPa)
#
#
# Indices 1 2 3 4 5 6 
#
# 1 123.0704 37.9968 21.8902 0.0000 0.0000 0.0000
# 2 37.9968 101.5866 23.9182 0.0000 0.0000 0.0000
# 3 21.8902 23.9182 19.9626 0.0000 0.0000 0.0000
# 4 0.0000 0.0000 0.0000 23.6941 0.0000 0.0000
# 5 0.0000 0.0000 0.0000 0.0000 14.7162 0.0000
# 6 0.0000 0.0000 0.0000 0.0000 0.0000 35.8827
#
#
#
# Elastic Compliance Matrix: (Units=1/GPa)
#
#
# Indices 1 2 3 4 5 6 
#
# 1 0.010292 -0.001661 -0.009295 0.000000 0.000000 0.000000
# 2 -0.001661 0.013980 -0.014929 0.000000 0.000000 0.000000
# 3 -0.009295 -0.014929 0.078174 0.000000 0.000000 0.000000
# 4 0.000000 0.000000 0.000000 0.042205 0.000000 0.000000
# 5 0.000000 0.000000 0.000000 0.000000 0.067952 0.000000
# 6 0.000000 0.000000 0.000000 0.000000 0.000000 0.027869
#
#
# Mechanical properties :
#
#
# Convention : Reuss Voigt Hill
#
# Bulk Modulus (GPa) = 19.73359 45.80333 32.76846
# Shear Modulus (GPa) = 16.17428 25.57955 20.87692
#
# Velocity S-wave (km/s) = 2.94110 3.69866 3.34142
# Velocity P-wave (km/s) = 4.69969 6.53728 5.69311
#
# Compressibility (1/GPa) = 0.05067502
#
# Stress axis : x y z
#
# Youngs Moduli (GPa) = 97.16716 71.53080 12.79200
#
# Poissons Ratio (x) = 0.11880 0.11891
# Poissons Ratio (y) = 0.16138 0.19097
# Poissons Ratio (z) = 0.90321 1.06788
#
# Static dielectric constant tensor:
#      x y z
#    x 3.910240 0.000000 0.000000 
#    y 0.000000 3.523900 0.000000 
#    z 0.000000 0.000000 2.874750 
# 
# 
# High freq. dielectric constant tensor:
#      x y z
#    x 1.743110 0.000000 0.000000 
#    y 0.000000 1.731070 0.000000 
#    z 0.000000 0.000000 1.668610 
# 
# From -- ./inp_files/17501.got.cif
#   From: 2010.06.25/outbox.cif.g09.slc.cpg/sg58_9_cif.got.tgz:17501.got - 2010.06.26 21:38:00.
