data_PCOD8236239
_publ_section_title
;
Structure prediction by ZEFSAII (Michael W. Deem and Ramdas Pophale) SiO2 
 PCOD8236239
Probable space group: P N N M
;
_chemical_formula_sum "Si O2"
_cell_formula_units_Z 64
_cell_length_a 28.942549
_cell_length_b 12.724054
_cell_length_c 9.054806
_cell_angle_alpha 90.000000
_cell_angle_beta 90.000000
_cell_angle_gamma 90.000000
_cell_volume 3334.582224
_symmetry_space_group_name_H-M "P N N M"
_symmetry_group_IT_number 58
_symmetry_cell_setting 'orthorhombic'
loop_
_space_group_symop_operation_xyz
x,y,z
-x,-y,z
1/2+x,1/2-y,1/2-z
1/2-x,1/2+y,1/2-z
-x,-y,-z
x,y,-z
1/2-x,1/2+y,1/2+z
1/2+x,1/2-y,1/2+z
loop_
_atom_site_type_symbol
_atom_site_label
_atom_site_fract_x
_atom_site_fract_y
_atom_site_fract_z
Si Si1 0.399779 0.605881 0.324212
Si Si2 0.531260 0.809777 0.170779
Si Si3 0.203342 0.629792 0.325253
Si Si4 0.332159 0.325727 0.666557
Si Si5 0.078786 0.900608 0.327723
Si Si6 0.391379 0.023231 0.828355
Si Si7 0.062529 0.331653 0.174449
Si Si8 0.700150 0.448267 0.335215
O O1 0.400406 0.589950 0.500000
O O2 0.430595 0.510901 0.255802
O O3 0.420083 0.717011 0.273308
O O4 0.347133 0.596212 0.260877
O O5 0.538659 0.685334 0.201934
O O6 0.576178 0.877998 0.215536
O O7 0.488868 0.851506 0.266880
O O8 0.519226 0.828413 0.000000
O O9 0.203953 0.651499 0.500000
O O10 0.198558 0.736042 0.236053
O O11 0.161247 0.551527 0.287299
O O12 0.251687 0.585290 0.260569
O O13 0.348662 0.298213 0.500000
O O14 0.375421 0.344886 0.770772
O O15 0.299412 0.426506 0.664660
O O16 0.083773 0.924816 0.500000
O O17 0.403557 0.919798 0.736686
O O18 0.397055 0.996435 0.000000
O O19 0.062302 0.339682 0.000000
O O20 0.700647 0.402323 0.500000
#
# Coordination Sequence:
#
# PCOD8236239 Si02
#       8
#     8   8   8   8   8   8   8   8
#     4   9  20  39  56  79 117 153 183 229 289 335
#     4  10  21  38  58  82 111 144 187 237 286 329
#     4  10  19  35  58  82 107 144 191 231 274 333
#     4  10  19  33  53  80 113 145 178 227 285 330
#     4  10  19  35  60  85 107 141 190 232 273 332
#     4  10  21  38  57  79 111 146 185 236 285 329
#     4  11  24  38  55  81 115 152 189 226 279 344
#     4   8  17  34  56  78 106 146 182 220 276 332
#
# _framework density 19.192809
#
# number of rings (size 3 to 8) (size 9 to 14) (size 15 to 20)
#    0.000    2.250    1.250    2.250    0.000    6.000 
#    0.000    5.625    0.000    0.000    0.000    0.000 
#    0.000    0.000    0.000    0.000    0.000    0.000 
#
# Total GULP energy -793445.077299 kJ/mol
# GULP energy per Si atom -12397.579333 kJ/mol
# Density = 1.914913 g / cm^3
# Si number density = 19.192809 Si / 1000 Ang^3
#
#
#
# Elastic Constant Matrix: (Units=GPa)
#
#
# Indices 1 2 3 4 5 6 
#
# 1 59.8735 16.5799 15.3419 0.0000 0.0000 0.0000
# 2 16.5799 92.5327 33.8785 0.0000 0.0000 0.0000
# 3 15.3419 33.8785 45.3987 0.0000 0.0000 0.0000
# 4 0.0000 0.0000 0.0000 36.6050 0.0000 0.0000
# 5 0.0000 0.0000 0.0000 0.0000 19.8040 0.0000
# 6 0.0000 0.0000 0.0000 0.0000 0.0000 24.0298
#
#
#
# Elastic Compliance Matrix: (Units=1/GPa)
#
#
# Indices 1 2 3 4 5 6 
#
# 1 0.018417 -0.001405 -0.005175 0.000000 0.000000 0.000000
# 2 -0.001405 0.014977 -0.010702 0.000000 0.000000 0.000000
# 3 -0.005175 -0.010702 0.031762 0.000000 0.000000 0.000000
# 4 0.000000 0.000000 0.000000 0.027319 0.000000 0.000000
# 5 0.000000 0.000000 0.000000 0.000000 0.050495 0.000000
# 6 0.000000 0.000000 0.000000 0.000000 0.000000 0.041615
#
#
# Mechanical properties :
#
#
# Convention : Reuss Voigt Hill
#
# Bulk Modulus (GPa) = 32.68826 36.60062 34.64444
# Shear Modulus (GPa) = 21.80115 24.88806 23.34461
#
# Velocity S-wave (km/s) = 3.37397 3.60493 3.49136
# Velocity P-wave (km/s) = 5.67862 6.03645 5.86027
#
# Compressibility (1/GPa) = 0.03059202
#
# Stress axis : x y z
#
# Youngs Moduli (GPa) = 54.29737 66.76960 31.48418
#
# Poissons Ratio (x) = 0.09382 0.16294
# Poissons Ratio (y) = 0.07630 0.33693
# Poissons Ratio (z) = 0.28100 0.71454
#
# Static dielectric constant tensor:
#      x y z
#    x 3.541450 0.000000 0.000000 
#    y 0.000000 3.613900 0.000000 
#    z 0.000000 0.000000 3.370690 
# 
# 
# High freq. dielectric constant tensor:
#      x y z
#    x 1.743770 0.000000 0.000000 
#    y 0.000000 1.752600 0.000000 
#    z 0.000000 0.000000 1.732280 
# 
# From -- ./inp_files/11074.got.cif
#   From: 2010.06.25/outbox.cif.g09.slc.cpg/sg58_6_cif.got.tgz:11074.got - 2010.06.26 21:38:00.
