data_PCOD8236557
_publ_section_title
;
Structure prediction by ZEFSAII (Michael W. Deem and Ramdas Pophale) SiO2 
 PCOD8236557
Probable space group: P N N M
;
_chemical_formula_sum "Si O2"
_cell_formula_units_Z 64
_cell_length_a 28.263817
_cell_length_b 12.733580
_cell_length_c 9.029199
_cell_angle_alpha 90.000000
_cell_angle_beta 90.000000
_cell_angle_gamma 90.000000
_cell_volume 3249.604882
_symmetry_space_group_name_H-M "P N N M"
_symmetry_group_IT_number 58
_symmetry_cell_setting 'orthorhombic'
loop_
_space_group_symop_operation_xyz
x,y,z
-x,-y,z
1/2+x,1/2-y,1/2-z
1/2-x,1/2+y,1/2-z
-x,-y,-z
x,y,-z
1/2-x,1/2+y,1/2+z
1/2+x,1/2-y,1/2+z
loop_
_atom_site_type_symbol
_atom_site_label
_atom_site_fract_x
_atom_site_fract_y
_atom_site_fract_z
Si Si1 0.402445 0.610388 0.326089
Si Si2 0.534039 0.810320 0.172566
Si Si3 0.203541 0.614381 0.828546
Si Si4 0.332970 0.339946 0.664624
Si Si5 0.076982 0.905698 0.328299
Si Si6 0.385540 0.025794 0.825625
Si Si7 0.061523 0.337203 0.175506
Si Si8 0.703625 0.439961 0.333864
O O1 0.407438 0.596336 0.500000
O O2 0.433208 0.515134 0.255677
O O3 0.422328 0.721607 0.271645
O O4 0.347541 0.601608 0.278678
O O5 0.539681 0.686586 0.211021
O O6 0.581290 0.874837 0.215388
O O7 0.491655 0.857472 0.269113
O O8 0.522295 0.826692 0.000000
O O9 0.194943 0.735853 0.796014
O O10 0.167117 0.545157 0.734131
O O11 0.257160 0.597232 0.780081
O O12 0.197529 0.584541 0.000000
O O13 0.356512 0.333818 0.500000
O O14 0.372260 0.358819 0.787619
O O15 0.295344 0.433961 0.667459
O O16 0.075773 0.932029 0.500000
O O17 0.404105 0.920945 0.748960
O O18 0.383385 0.007103 0.000000
O O19 0.063827 0.349574 0.000000
O O20 0.714174 0.397769 0.500000
#
# Coordination Sequence:
#
# PCOD8236557 Si02
#       8
#     8   8   8   8   8   8   8   8
#     4   9  21  41  59  82 119 157 193 240 297 351
#     4  10  22  39  59  87 119 154 196 243 297 353
#     4  11  22  36  58  88 115 145 194 245 289 347
#     4   9  19  36  56  79 112 150 188 237 293 344
#     4  10  19  34  60  88 113 147 196 242 284 344
#     4  11  23  41  61  83 118 157 195 242 297 352
#     4  11  24  40  60  87 120 158 200 243 293 350
#     4   9  19  37  58  80 111 152 190 232 294 353
#
# _framework density 19.694701999999999
#
# number of rings (size 3 to 8) (size 9 to 14) (size 15 to 20)
#    0.000    2.000    1.250    2.625    0.000    8.500 
#    0.000    5.000    0.000    0.000    0.000    0.000 
#    0.000    0.000    0.000    0.000    0.000    0.000 
#
# Total GULP energy -793677.388260 kJ/mol
# GULP energy per Si atom -12401.209192 kJ/mol
# Density = 1.964988 g / cm^3
# Si number density = 19.694702 Si / 1000 Ang^3
#
#
#
# Elastic Constant Matrix: (Units=GPa)
#
#
# Indices 1 2 3 4 5 6 
#
# 1 45.9820 7.1305 15.6090 0.0000 0.0000 0.0000
# 2 7.1305 90.2331 32.4656 0.0000 0.0000 0.0000
# 3 15.6090 32.4656 59.0166 0.0000 0.0000 0.0000
# 4 0.0000 0.0000 0.0000 32.7000 0.0000 0.0000
# 5 0.0000 0.0000 0.0000 0.0000 32.3566 0.0000
# 6 0.0000 0.0000 0.0000 0.0000 0.0000 24.2686
#
#
#
# Elastic Compliance Matrix: (Units=1/GPa)
#
#
# Indices 1 2 3 4 5 6 
#
# 1 0.023909 0.000481 -0.006588 0.000000 0.000000 0.000000
# 2 0.000481 0.013827 -0.007734 0.000000 0.000000 0.000000
# 3 -0.006588 -0.007734 0.022941 0.000000 0.000000 0.000000
# 4 0.000000 0.000000 0.000000 0.030581 0.000000 0.000000
# 5 0.000000 0.000000 0.000000 0.000000 0.030906 0.000000
# 6 0.000000 0.000000 0.000000 0.000000 0.000000 0.041205
#
#
# Mechanical properties :
#
#
# Convention : Reuss Voigt Hill
#
# Bulk Modulus (GPa) = 30.30674 33.96022 32.13348
# Shear Modulus (GPa) = 24.74634 27.20014 25.97324
#
# Velocity S-wave (km/s) = 3.54856 3.72033 3.63546
# Velocity P-wave (km/s) = 5.67550 5.97790 5.82866
#
# Compressibility (1/GPa) = 0.03299596
#
# Stress axis : x y z
#
# Youngs Moduli (GPa) = 41.82439 72.32277 43.58968
#
# Poissons Ratio (x) = -0.03479 0.28718
# Poissons Ratio (y) = -0.02012 0.33710
# Poissons Ratio (z) = 0.27555 0.55931
#
# Static dielectric constant tensor:
#      x y z
#    x 3.396720 0.000000 0.000000 
#    y 0.000000 3.829100 0.000000 
#    z 0.000000 0.000000 3.546900 
# 
# 
# High freq. dielectric constant tensor:
#      x y z
#    x 1.755590 0.000000 0.000000 
#    y 0.000000 1.778340 0.000000 
#    z 0.000000 0.000000 1.768820 
# 
# From -- ./inp_files/11073.got.cif
#   From: 2010.06.25/outbox.cif.g09.slc.cpg/sg58_6_cif.got.tgz:11073.got - 2010.06.26 21:38:00.
