data_PCOD8236694
_publ_section_title
;
Structure prediction by ZEFSAII (Michael W. Deem and Ramdas Pophale) SiO2 
 PCOD8236694
Probable space group: P N N M
;
_chemical_formula_sum "Si O2"
_cell_formula_units_Z 64
_cell_length_a 9.743132
_cell_length_b 18.139565
_cell_length_c 18.169413
_cell_angle_alpha 90.000000
_cell_angle_beta 90.000000
_cell_angle_gamma 90.000000
_cell_volume 3211.192578
_symmetry_space_group_name_H-M "P N N M"
_symmetry_group_IT_number 58
_symmetry_cell_setting 'orthorhombic'
loop_
_space_group_symop_operation_xyz
x,y,z
-x,-y,z
1/2+x,1/2-y,1/2-z
1/2-x,1/2+y,1/2-z
-x,-y,-z
x,y,-z
1/2-x,1/2+y,1/2+z
1/2+x,1/2-y,1/2+z
loop_
_atom_site_type_symbol
_atom_site_label
_atom_site_fract_x
_atom_site_fract_y
_atom_site_fract_z
Si Si1 0.530616 0.720314 0.083508
Si Si2 0.832124 0.700773 0.693150
Si Si3 0.120617 0.764969 0.918446
Si Si4 0.780676 0.850544 0.770771
Si Si5 0.586760 0.426917 0.143100
Si Si6 0.495956 0.916783 0.727067
Si Si7 0.629794 0.902012 0.582571
Si Si8 0.687896 0.293716 0.581779
O O1 0.453769 0.776949 0.137495
O O2 0.497933 0.635506 0.100445
O O3 0.693783 0.732620 0.093093
O O4 0.484411 0.738010 0.000000
O O5 0.695382 0.685645 0.643728
O O6 0.804568 0.764707 0.751933
O O7 0.865470 0.626147 0.738835
O O8 0.181769 0.682703 0.911403
O O9 0.958759 0.755526 0.905068
O O10 0.149458 0.797714 0.000000
O O11 0.887820 0.901701 0.727349
O O12 0.627343 0.870959 0.750776
O O13 0.799538 0.859616 0.858637
O O14 0.500000 0.500000 0.143399
O O15 0.732823 0.446311 0.104988
O O16 0.501787 0.919112 0.637330
O O17 0.500000 0.000000 0.758321
O O18 0.580958 0.921608 0.500000
O O19 0.697244 0.328724 0.500000
#
# Coordination Sequence:
#
# PCOD8236694 Si02
#       8
#     8   8   8   8   8   8   8   8
#     4  10  19  35  62  92 120 157 205 260 306 360
#     4  11  20  37  67  87 115 167 211 255 300 372
#     4  10  19  36  62  94 121 155 206 258 313 368
#     4  10  21  40  60  87 120 159 211 257 310 361
#     4  10  21  37  58  90 125 165 206 252 307 383
#     4  11  23  41  59  93 129 161 208 261 319 376
#     4  10  20  39  60  84 126 168 202 250 305 375
#     4  10  21  36  60  91 121 150 202 269 313 356
#
# _framework density 19.930289999999999
#
# number of rings (size 3 to 8) (size 9 to 14) (size 15 to 20)
#    0.000    1.750    5.000    1.500    0.000    1.250 
#   13.500    0.000    0.000    3.750    0.000    0.000 
#    0.000    0.000    0.000    0.000    0.000    0.000 
#
# Total GULP energy -793384.044486 kJ/mol
# GULP energy per Si atom -12396.625695 kJ/mol
# Density = 1.988493 g / cm^3
# Si number density = 19.930290 Si / 1000 Ang^3
#
#
#
# Elastic Constant Matrix: (Units=GPa)
#
#
# Indices 1 2 3 4 5 6 
#
# 1 92.0921 15.9466 43.7920 0.0000 0.0000 0.0000
# 2 15.9466 66.9488 31.2944 0.0000 0.0000 0.0000
# 3 43.7920 31.2944 134.0376 0.0000 0.0000 0.0000
# 4 0.0000 0.0000 0.0000 14.0661 0.0000 0.0000
# 5 0.0000 0.0000 0.0000 0.0000 21.8493 0.0000
# 6 0.0000 0.0000 0.0000 0.0000 0.0000 15.6519
#
#
#
# Elastic Compliance Matrix: (Units=1/GPa)
#
#
# Indices 1 2 3 4 5 6 
#
# 1 0.012947 -0.001242 -0.003940 0.000000 0.000000 0.000000
# 2 -0.001242 0.016886 -0.003537 0.000000 0.000000 0.000000
# 3 -0.003940 -0.003537 0.009574 0.000000 0.000000 0.000000
# 4 0.000000 0.000000 0.000000 0.071093 0.000000 0.000000
# 5 0.000000 0.000000 0.000000 0.000000 0.045768 0.000000
# 6 0.000000 0.000000 0.000000 0.000000 0.000000 0.063890
#
#
# Mechanical properties :
#
#
# Convention : Reuss Voigt Hill
#
# Bulk Modulus (GPa) = 45.51855 52.79384 49.15619
# Shear Modulus (GPa) = 20.41497 23.78317 22.09907
#
# Velocity S-wave (km/s) = 3.20397 3.45819 3.33350
# Velocity P-wave (km/s) = 6.04778 6.51860 6.28760
#
# Compressibility (1/GPa) = 0.02196907
#
# Stress axis : x y z
#
# Youngs Moduli (GPa) = 77.23561 59.22137 104.45428
#
# Poissons Ratio (x) = 0.07357 0.41156
# Poissons Ratio (y) = 0.09594 0.36941
# Poissons Ratio (z) = 0.30431 0.20944
#
# Static dielectric constant tensor:
#      x y z
#    x 3.661120 0.000000 0.000000 
#    y 0.000000 3.166970 0.000000 
#    z 0.000000 0.000000 4.147550 
# 
# 
# High freq. dielectric constant tensor:
#      x y z
#    x 1.783520 0.000000 0.000000 
#    y 0.000000 1.724770 0.000000 
#    z 0.000000 0.000000 1.795580 
# 
# From -- ./inp_files/29123.got.cif
#   From: 2010.06.25/outbox.cif.g09.slc.cpg/sg58_15_cif.got.tgz:29123.got - 2010.06.26 21:38:00.
