data_PCOD8236272
_publ_section_title
;
Structure prediction by ZEFSAII (Michael W. Deem and Ramdas Pophale) SiO2 
 PCOD8236272
Probable space group: P N N M
;
_chemical_formula_sum "Si O2"
_cell_formula_units_Z 64
_cell_length_a 13.555763
_cell_length_b 24.187068
_cell_length_c 9.555971
_cell_angle_alpha 90.000000
_cell_angle_beta 90.000000
_cell_angle_gamma 90.000000
_cell_volume 3133.155979
_symmetry_space_group_name_H-M "P N N M"
_symmetry_group_IT_number 58
_symmetry_cell_setting 'orthorhombic'
loop_
_space_group_symop_operation_xyz
x,y,z
-x,-y,z
1/2+x,1/2-y,1/2-z
1/2-x,1/2+y,1/2-z
-x,-y,-z
x,y,-z
1/2-x,1/2+y,1/2+z
1/2+x,1/2-y,1/2+z
loop_
_atom_site_type_symbol
_atom_site_label
_atom_site_fract_x
_atom_site_fract_y
_atom_site_fract_z
Si Si1 0.900132 0.032965 0.336667
Si Si2 0.048004 0.554527 0.343319
Si Si3 0.272636 0.770135 0.161584
Si Si4 0.057075 0.647872 0.848875
Si Si5 0.282406 0.548458 0.658847
Si Si6 0.381442 0.339810 0.839577
Si Si7 0.498269 0.762742 0.843990
Si Si8 0.722791 0.354037 0.153672
O O1 0.873040 0.026383 0.500000
O O2 0.907381 0.097685 0.293268
O O3 0.814770 0.006396 0.241805
O O4 0.000000 0.000000 0.301588
O O5 0.008299 0.564250 0.500000
O O6 0.002862 0.604172 0.251096
O O7 0.165157 0.550260 0.343447
O O8 0.000000 0.500000 0.278099
O O9 0.207622 0.812967 0.250223
O O10 0.387657 0.784659 0.175795
O O11 0.269958 0.707242 0.218830
O O12 0.236990 0.771844 0.000000
O O13 0.166536 0.625103 0.872252
O O14 0.063439 0.707144 0.773063
O O15 0.003521 0.653008 0.000000
O O16 0.323745 0.547790 0.500000
O O17 0.327134 0.602654 0.738871
O O18 0.481856 0.303082 0.821234
O O19 0.345700 0.339312 0.000000
O O20 0.535173 0.778708 0.000000
O O21 0.667998 0.353741 0.000000
#
# Coordination Sequence:
#
# PCOD8236272 Si02
#       8
#     8   8   8   8   8   8   8   8
#     4  10  23  42  64  85 114 161 208 249 297 353
#     4   9  19  36  57  81 113 154 193 231 285 352
#     4  10  21  37  60  87 116 156 195 236 295 359
#     4  10  19  33  54  81 113 146 185 236 288 337
#     4  10  21  36  57  85 114 147 191 245 297 344
#     4  10  22  40  61  88 120 154 197 251 296 343
#     4  10  21  36  57  84 116 154 196 236 289 359
#     4   9  18  34  57  81 109 145 189 235 287 350
#
# _framework density 20.426689
#
# number of rings (size 3 to 8) (size 9 to 14) (size 15 to 20)
#    0.000    2.250    1.250    0.750    1.750    4.000 
#    0.000    3.750    0.000    0.000    0.000    0.000 
#    0.000    0.000    0.000    0.000    0.000    0.000 
#
# Total GULP energy -793114.516764 kJ/mol
# GULP energy per Si atom -12392.414324 kJ/mol
# Density = 2.038020 g / cm^3
# Si number density = 20.426689 Si / 1000 Ang^3
#
#
#
# Elastic Constant Matrix: (Units=GPa)
#
#
# Indices 1 2 3 4 5 6 
#
# 1 36.8847 22.7282 24.3228 0.0000 0.0000 0.0000
# 2 22.7282 164.7159 79.8332 0.0000 0.0000 0.0000
# 3 24.3228 79.8332 119.0804 0.0000 0.0000 0.0000
# 4 0.0000 0.0000 0.0000 32.4588 0.0000 0.0000
# 5 0.0000 0.0000 0.0000 0.0000 18.9559 0.0000
# 6 0.0000 0.0000 0.0000 0.0000 0.0000 30.4394
#
#
#
# Elastic Compliance Matrix: (Units=1/GPa)
#
#
# Indices 1 2 3 4 5 6 
#
# 1 0.031700 -0.001831 -0.005247 0.000000 0.000000 0.000000
# 2 -0.001831 0.009099 -0.005726 0.000000 0.000000 0.000000
# 3 -0.005247 -0.005726 0.013308 0.000000 0.000000 0.000000
# 4 0.000000 0.000000 0.000000 0.030808 0.000000 0.000000
# 5 0.000000 0.000000 0.000000 0.000000 0.052754 0.000000
# 6 0.000000 0.000000 0.000000 0.000000 0.000000 0.032852
#
#
# Mechanical properties :
#
#
# Convention : Reuss Voigt Hill
#
# Bulk Modulus (GPa) = 35.08951 63.82770 49.45861
# Shear Modulus (GPa) = 24.31549 29.29060 26.80304
#
# Velocity S-wave (km/s) = 3.45393 3.79085 3.62630
# Velocity P-wave (km/s) = 5.75515 7.10463 6.46519
#
# Compressibility (1/GPa) = 0.02849855
#
# Stress axis : x y z
#
# Youngs Moduli (GPa) = 31.54572 109.90242 75.14051
#
# Poissons Ratio (x) = 0.20121 0.39430
# Poissons Ratio (y) = 0.05775 0.43027
# Poissons Ratio (z) = 0.16554 0.62932
#
# Static dielectric constant tensor:
#      x y z
#    x 3.407230 0.000000 0.000000 
#    y 0.000000 3.764670 0.000000 
#    z 0.000000 0.000000 3.992090 
# 
# 
# High freq. dielectric constant tensor:
#      x y z
#    x 1.772220 0.000000 0.000000 
#    y 0.000000 1.803090 0.000000 
#    z 0.000000 0.000000 1.798580 
# 
# From -- ./inp_files/6772.got.cif
#   From: 2010.06.25/outbox.cif.g09.slc.cpg/sg58_4_cif.got.tgz:6772.got - 2010.06.26 21:38:00.
