data_PCOD8236004
_publ_section_title
;
Structure prediction by ZEFSAII (Michael W. Deem and Ramdas Pophale) SiO2 
 PCOD8236004
Probable space group: P N N M
;
_chemical_formula_sum "Si O2"
_cell_formula_units_Z 64
_cell_length_a 8.704993
_cell_length_b 12.826114
_cell_length_c 29.850670
_cell_angle_alpha 90.000000
_cell_angle_beta 90.000000
_cell_angle_gamma 90.000000
_cell_volume 3332.864099
_symmetry_space_group_name_H-M "P N N M"
_symmetry_group_IT_number 58
_symmetry_cell_setting 'orthorhombic'
loop_
_space_group_symop_operation_xyz
x,y,z
-x,-y,z
1/2+x,1/2-y,1/2-z
1/2-x,1/2+y,1/2-z
-x,-y,-z
x,y,-z
1/2-x,1/2+y,1/2+z
1/2+x,1/2-y,1/2+z
loop_
_atom_site_type_symbol
_atom_site_label
_atom_site_fract_x
_atom_site_fract_y
_atom_site_fract_z
Si Si1 0.498068 0.246466 0.210103
Si Si2 0.154466 0.949405 0.686312
Si Si3 0.558745 0.112184 0.367115
Si Si4 0.533251 0.880975 0.121236
Si Si5 0.510180 0.241515 0.548626
Si Si6 0.788378 0.653839 0.549593
Si Si7 0.676227 0.846339 0.290421
Si Si8 0.224073 0.077645 0.049166
O O1 0.410420 0.356732 0.217761
O O2 0.446846 0.192096 0.164140
O O3 0.441890 0.170894 0.249686
O O4 0.683434 0.263015 0.210099
O O5 0.268937 0.895133 0.651690
O O6 0.251529 0.037071 0.713460
O O7 0.000000 0.000000 0.663487
O O8 0.583566 0.175099 0.412294
O O9 0.431856 0.165177 0.334339
O O10 0.500000 0.000000 0.381217
O O11 0.403742 0.831313 0.090078
O O12 0.681833 0.875534 0.090436
O O13 0.500000 0.000000 0.136127
O O14 0.553039 0.192038 0.500000
O O15 0.327041 0.249007 0.553807
O O16 0.564475 0.361457 0.550604
O O17 0.866672 0.656163 0.500000
O O18 0.698842 0.544745 0.556109
O O19 0.303678 0.095960 0.000000
#
# Coordination Sequence:
#
# PCOD8236004 Si02
#       8
#     8   8   8   8   8   8   8   8
#     4  11  21  36  56  79 108 136 176 227 268 317
#     4   9  20  38  58  79 103 140 182 216 264 327
#     4  10  20  36  55  74 102 137 174 216 263 316
#     4  10  20  31  49  77 105 136 173 217 265 312
#     4  10  19  31  51  76 100 132 174 217 260 308
#     4   9  17  31  49  72 105 139 171 208 255 316
#     4  10  22  37  57  80 104 141 178 215 271 329
#     4   9  17  30  48  72 104 140 172 205 256 320
#
# _framework density 19.202703
#
# number of rings (size 3 to 8) (size 9 to 14) (size 15 to 20)
#    0.000    2.250    0.000    3.000    0.000    5.750 
#    0.000    0.000    0.000    3.375    0.000    0.000 
#    0.000    0.000    0.000    0.000    0.000    0.000 
#
# Total GULP energy -792868.743090 kJ/mol
# GULP energy per Si atom -12388.574111 kJ/mol
# Density = 1.915900 g / cm^3
# Si number density = 19.202703 Si / 1000 Ang^3
#
#
#
# Elastic Constant Matrix: (Units=GPa)
#
#
# Indices 1 2 3 4 5 6 
#
# 1 99.4236 32.9071 43.8943 0.0000 0.0000 0.0000
# 2 32.9071 52.9542 45.1420 0.0000 0.0000 0.0000
# 3 43.8943 45.1420 126.1239 0.0000 0.0000 0.0000
# 4 0.0000 0.0000 0.0000 26.8626 0.0000 0.0000
# 5 0.0000 0.0000 0.0000 0.0000 22.7979 0.0000
# 6 0.0000 0.0000 0.0000 0.0000 0.0000 27.6522
#
#
#
# Elastic Compliance Matrix: (Units=1/GPa)
#
#
# Indices 1 2 3 4 5 6 
#
# 1 0.013139 -0.006140 -0.002375 0.000000 0.000000 0.000000
# 2 -0.006140 0.030046 -0.008617 0.000000 0.000000 0.000000
# 3 -0.002375 -0.008617 0.011839 0.000000 0.000000 0.000000
# 4 0.000000 0.000000 0.000000 0.037227 0.000000 0.000000
# 5 0.000000 0.000000 0.000000 0.000000 0.043864 0.000000
# 6 0.000000 0.000000 0.000000 0.000000 0.000000 0.036163
#
#
# Mechanical properties :
#
#
# Convention : Reuss Voigt Hill
#
# Bulk Modulus (GPa) = 48.17036 58.04318 53.10677
# Shear Modulus (GPa) = 23.42344 25.89975 24.66159
#
# Velocity S-wave (km/s) = 3.49635 3.67652 3.58757
# Velocity P-wave (km/s) = 6.43731 6.95087 6.69901
#
# Compressibility (1/GPa) = 0.02075965
#
# Stress axis : x y z
#
# Youngs Moduli (GPa) = 76.11068 33.28279 84.46386
#
# Poissons Ratio (x) = 0.20436 0.20060
# Poissons Ratio (y) = 0.46733 0.72782
# Poissons Ratio (z) = 0.18076 0.28679
#
# Static dielectric constant tensor:
#      x y z
#    x 3.644200 0.000000 0.000000 
#    y 0.000000 3.394440 0.000000 
#    z 0.000000 0.000000 3.354050 
# 
# 
# High freq. dielectric constant tensor:
#      x y z
#    x 1.754710 0.000000 0.000000 
#    y 0.000000 1.734210 0.000000 
#    z 0.000000 0.000000 1.734250 
# 
# From -- ./inp_files/34787.got.cif
#   From: 2010.06.25/outbox.cif.g09.slc.cpg/sg58_18_cif.got.tgz:34787.got - 2010.06.26 21:38:00.
