data_PCOD8236186
_publ_section_title
;
Structure prediction by ZEFSAII (Michael W. Deem and Ramdas Pophale) SiO2 
 PCOD8236186
Probable space group: P N N M
;
_chemical_formula_sum "Si O2"
_cell_formula_units_Z 56
_cell_length_a 19.904197
_cell_length_b 16.801112
_cell_length_c 8.819025
_cell_angle_alpha 90.000000
_cell_angle_beta 90.000000
_cell_angle_gamma 90.000000
_cell_volume 2949.193460
_symmetry_space_group_name_H-M "P N N M"
_symmetry_group_IT_number 58
_symmetry_cell_setting 'orthorhombic'
loop_
_space_group_symop_operation_xyz
x,y,z
-x,-y,z
1/2+x,1/2-y,1/2-z
1/2-x,1/2+y,1/2-z
-x,-y,-z
x,y,-z
1/2-x,1/2+y,1/2+z
1/2+x,1/2-y,1/2+z
loop_
_atom_site_type_symbol
_atom_site_label
_atom_site_fract_x
_atom_site_fract_y
_atom_site_fract_z
Si Si1 0.118842 0.807730 0.320740
Si Si2 0.628831 0.350732 0.176062
Si Si3 0.516151 0.243489 0.679562
Si Si4 0.452906 0.932010 0.322141
Si Si5 0.665156 0.521002 0.178593
Si Si6 0.752332 0.737016 0.674157
Si Si7 0.195993 0.415401 0.176980
O O1 0.110049 0.802885 0.500000
O O2 0.054881 0.771559 0.240648
O O3 0.127323 0.899415 0.264766
O O4 0.184604 0.757626 0.273164
O O5 0.574244 0.303012 0.270077
O O6 0.631318 0.440831 0.243647
O O7 0.703859 0.316345 0.196744
O O8 0.607329 0.348497 0.000000
O O9 0.514459 0.242664 0.500000
O O10 0.530450 0.155100 0.745427
O O11 0.466909 0.928916 0.500000
O O12 0.375656 0.955740 0.287669
O O13 0.500000 0.000000 0.247042
O O14 0.743979 0.525252 0.225165
O O15 0.659915 0.515468 0.000000
O O16 0.731495 0.725054 0.500000
O O17 0.799508 0.664976 0.727162
O O18 0.202147 0.391862 0.000000
#
# Coordination Sequence:
#
# PCOD8236186 Si02
#       7
#     8   8   8   8   8   8   8
#     4  10  21  38  58  78 109 149 187 228 274 327
#     4  10  20  35  56  82 111 145 186 227 273 327
#     4  11  22  36  56  83 113 145 183 228 279 329
#     4   9  18  32  54  82 109 143 185 227 267 320
#     4   8  17  33  55  79 101 141 193 231 260 314
#     4  10  19  32  55  82 107 139 180 230 279 327
#     4   9  16  32  55  76 103 139 181 224 270 322
#
# _framework density 18.988242
#
# number of rings (size 3 to 8) (size 9 to 14) (size 15 to 20)
#    0.000    2.429    1.429    2.143    0.000    2.286 
#    0.000   10.714    0.000    7.286    0.000    0.000 
#    0.000    0.000    0.000    0.000    0.000    0.000 
#
# Total GULP energy -694222.966266 kJ/mol
# GULP energy per Si atom -12396.838683 kJ/mol
# Density = 1.894502 g / cm^3
# Si number density = 18.988242 Si / 1000 Ang^3
#
#
#
# Elastic Constant Matrix: (Units=GPa)
#
#
# Indices 1 2 3 4 5 6 
#
# 1 118.1965 53.2727 18.2317 0.0000 0.0000 0.0000
# 2 53.2727 82.8018 13.6479 0.0000 0.0000 0.0000
# 3 18.2317 13.6479 38.6576 0.0000 0.0000 0.0000
# 4 0.0000 0.0000 0.0000 20.8472 0.0000 0.0000
# 5 0.0000 0.0000 0.0000 0.0000 31.8855 0.0000
# 6 0.0000 0.0000 0.0000 0.0000 0.0000 29.0410
#
#
#
# Elastic Compliance Matrix: (Units=1/GPa)
#
#
# Indices 1 2 3 4 5 6 
#
# 1 0.012275 -0.007372 -0.003186 0.000000 0.000000 0.000000
# 2 -0.007372 0.017251 -0.002614 0.000000 0.000000 0.000000
# 3 -0.003186 -0.002614 0.028294 0.000000 0.000000 0.000000
# 4 0.000000 0.000000 0.000000 0.047968 0.000000 0.000000
# 5 0.000000 0.000000 0.000000 0.000000 0.031362 0.000000
# 6 0.000000 0.000000 0.000000 0.000000 0.000000 0.034434
#
#
# Mechanical properties :
#
#
# Convention : Reuss Voigt Hill
#
# Bulk Modulus (GPa) = 31.77096 45.55118 38.66107
# Shear Modulus (GPa) = 23.99016 26.65499 25.32257
#
# Velocity S-wave (km/s) = 3.55832 3.75075 3.65580
# Velocity P-wave (km/s) = 5.80090 6.54207 6.18260
#
# Compressibility (1/GPa) = 0.03147528
#
# Stress axis : x y z
#
# Youngs Moduli (GPa) = 81.46882 57.96842 35.34370
#
# Poissons Ratio (x) = 0.42734 0.11262
# Poissons Ratio (y) = 0.60059 0.09237
# Poissons Ratio (z) = 0.25959 0.15150
#
# Static dielectric constant tensor:
#      x y z
#    x 3.574440 0.000000 0.000000 
#    y 0.000000 3.776920 0.000000 
#    z 0.000000 0.000000 3.249210 
# 
# 
# High freq. dielectric constant tensor:
#      x y z
#    x 1.747330 0.000000 0.000000 
#    y 0.000000 1.734690 0.000000 
#    z 0.000000 0.000000 1.711000 
# 
# From -- ./inp_files/8121.got.cif
#   From: 2010.06.25/outbox.cif.g09.slc.cpg/sg58_5_cif.got.tgz:8121.got - 2010.06.26 21:38:00.
