data_PCOD8236955
_publ_section_title
;
Structure prediction by ZEFSAII (Michael W. Deem and Ramdas Pophale) SiO2 
 PCOD8236955
Probable space group: P N N M
;
_chemical_formula_sum "Si O2"
_cell_formula_units_Z 64
_cell_length_a 40.559453
_cell_length_b 9.870719
_cell_length_c 9.179839
_cell_angle_alpha 90.000000
_cell_angle_beta 90.000000
_cell_angle_gamma 90.000000
_cell_volume 3675.157387
_symmetry_space_group_name_H-M "P N N M"
_symmetry_group_IT_number 58
_symmetry_cell_setting 'orthorhombic'
loop_
_space_group_symop_operation_xyz
x,y,z
-x,-y,z
1/2+x,1/2-y,1/2-z
1/2-x,1/2+y,1/2-z
-x,-y,-z
x,y,-z
1/2-x,1/2+y,1/2+z
1/2+x,1/2-y,1/2+z
loop_
_atom_site_type_symbol
_atom_site_label
_atom_site_fract_x
_atom_site_fract_y
_atom_site_fract_z
Si Si1 0.970371 0.594846 0.670279
Si Si2 0.721664 0.609467 0.828622
Si Si3 0.029490 0.094476 0.329601
Si Si4 0.904394 0.903834 0.830003
Si Si5 0.404113 0.906778 0.328750
Si Si6 0.152221 0.598009 0.830853
Si Si7 0.154522 0.905809 0.829713
Si Si8 0.774682 0.382294 0.171135
O O1 0.963847 0.575857 0.500000
O O2 0.979192 0.750151 0.708625
O O3 0.937799 0.546821 0.753427
O O4 0.000000 0.500000 0.724780
O O5 0.687276 0.560727 0.760406
O O6 0.748425 0.496043 0.791495
O O7 0.735094 0.746844 0.756900
O O8 0.717284 0.630871 0.000000
O O9 0.035037 0.073479 0.500000
O O10 0.062834 0.047398 0.251331
O O11 0.000000 0.000000 0.271640
O O12 0.895913 0.748791 0.792004
O O13 0.873923 0.993831 0.774921
O O14 0.910603 0.925516 0.000000
O O15 0.408502 0.930341 0.500000
O O16 0.374638 0.997413 0.259534
O O17 0.142476 0.753116 0.797914
O O18 0.189218 0.568721 0.773061
O O19 0.151628 0.565600 0.000000
O O20 0.162499 0.926300 0.000000
O O21 0.776127 0.346995 0.000000
#
# Coordination Sequence:
#
# PCOD8236955 Si02
#       8
#     8   8   8   8   8   8   8   8
#     4   9  18  32  47  64  90 121 150 182 226 279
#     4  10  20  33  52  77 101 130 169 207 245 292
#     4   9  18  32  48  66  91 123 154 188 234 282
#     4   9  18  31  48  70  93 121 157 195 236 282
#     4   9  17  30  48  69  91 116 153 195 230 273
#     4   8  15  30  49  66  89 122 154 186 229 279
#     4   9  18  33  50  68  96 130 159 194 243 290
#     4   9  19  35  52  72 101 133 164 202 247 293
#
# _framework density 17.414221000000001
#
# number of rings (size 3 to 8) (size 9 to 14) (size 15 to 20)
#    0.000    3.000    0.000    1.125    0.000    4.000 
#    0.000    5.000    0.000    0.000    0.000    0.000 
#    0.000    0.000    0.000    0.000    0.000    0.000 
#
# Total GULP energy -793569.456578 kJ/mol
# GULP energy per Si atom -12399.522759 kJ/mol
# Density = 1.737459 g / cm^3
# Si number density = 17.414221 Si / 1000 Ang^3
#
#
#
# Elastic Constant Matrix: (Units=GPa)
#
#
# Indices 1 2 3 4 5 6 
#
# 1 160.0519 105.8069 55.7804 0.0000 0.0000 0.0000
# 2 105.8069 110.6709 44.4538 0.0000 0.0000 0.0000
# 3 55.7804 44.4538 44.7274 0.0000 0.0000 0.0000
# 4 0.0000 0.0000 0.0000 20.7767 0.0000 0.0000
# 5 0.0000 0.0000 0.0000 0.0000 29.9652 0.0000
# 6 0.0000 0.0000 0.0000 0.0000 0.0000 42.2895
#
#
#
# Elastic Compliance Matrix: (Units=1/GPa)
#
#
# Indices 1 2 3 4 5 6 
#
# 1 0.019109 -0.014476 -0.009444 0.000000 0.000000 0.000000
# 2 -0.014476 0.026006 -0.007794 0.000000 0.000000 0.000000
# 3 -0.009444 -0.007794 0.041882 0.000000 0.000000 0.000000
# 4 0.000000 0.000000 0.000000 0.048131 0.000000 0.000000
# 5 0.000000 0.000000 0.000000 0.000000 0.033372 0.000000
# 6 0.000000 0.000000 0.000000 0.000000 0.000000 0.023647
#
#
# Mechanical properties :
#
#
# Convention : Reuss Voigt Hill
#
# Bulk Modulus (GPa) = 42.42798 80.83692 61.63245
# Shear Modulus (GPa) = 18.98044 25.90022 22.44033
#
# Velocity S-wave (km/s) = 3.30500 3.86074 3.59363
# Velocity P-wave (km/s) = 6.24347 8.14829 7.25863
#
# Compressibility (1/GPa) = 0.02356935
#
# Stress axis : x y z
#
# Youngs Moduli (GPa) = 52.33181 38.45294 23.87680
#
# Poissons Ratio (x) = 0.55663 0.22549
# Poissons Ratio (y) = 0.75753 0.18609
# Poissons Ratio (z) = 0.49422 0.29970
#
# Static dielectric constant tensor:
#      x y z
#    x 3.405670 0.000000 0.000000 
#    y 0.000000 3.327860 0.000000 
#    z 0.000000 0.000000 3.070910 
# 
# 
# High freq. dielectric constant tensor:
#      x y z
#    x 1.678590 0.000000 0.000000 
#    y 0.000000 1.673170 0.000000 
#    z 0.000000 0.000000 1.655570 
# 
# From -- ./inp_files/10951.got.cif
#   From: 2010.06.25/outbox.cif.g09.slc.cpg/sg58_6_cif.got.tgz:10951.got - 2010.06.26 21:38:00.
