data_PCOD8236038
_publ_section_title
;
Structure prediction by ZEFSAII (Michael W. Deem and Ramdas Pophale) SiO2 
 PCOD8236038
Probable space group: P N N M
;
_chemical_formula_sum "Si O2"
_cell_formula_units_Z 56
_cell_length_a 20.253095
_cell_length_b 16.439789
_cell_length_c 8.931982
_cell_angle_alpha 90.000000
_cell_angle_beta 90.000000
_cell_angle_gamma 90.000000
_cell_volume 2973.962433
_symmetry_space_group_name_H-M "P N N M"
_symmetry_group_IT_number 58
_symmetry_cell_setting 'orthorhombic'
loop_
_space_group_symop_operation_xyz
x,y,z
-x,-y,z
1/2+x,1/2-y,1/2-z
1/2-x,1/2+y,1/2-z
-x,-y,-z
x,y,-z
1/2-x,1/2+y,1/2+z
1/2+x,1/2-y,1/2+z
loop_
_atom_site_type_symbol
_atom_site_label
_atom_site_fract_x
_atom_site_fract_y
_atom_site_fract_z
Si Si1 0.210011 0.823687 0.322916
Si Si2 0.451545 0.572263 0.325251
Si Si3 0.391188 0.186807 0.821751
Si Si4 0.346427 0.844128 0.178271
Si Si5 0.670923 0.975550 0.175315
Si Si6 0.028194 0.243046 0.322373
Si Si7 0.816897 0.010484 0.174221
O O1 0.218655 0.824805 0.500000
O O2 0.161757 0.752744 0.267254
O O3 0.280696 0.806196 0.248673
O O4 0.177643 0.907898 0.270396
O O5 0.500000 0.500000 0.275322
O O6 0.459036 0.590727 0.500000
O O7 0.471835 0.651758 0.235937
O O8 0.376680 0.548827 0.282669
O O9 0.370247 0.098997 0.752847
O O10 0.463395 0.210748 0.760872
O O11 0.391894 0.183589 0.000000
O O12 0.408356 0.792362 0.236751
O O13 0.354655 0.937328 0.235932
O O14 0.339387 0.841846 0.000000
O O15 0.748622 0.964353 0.212033
O O16 0.659082 0.973065 0.000000
O O17 0.027700 0.240004 0.500000
O O18 0.819807 0.035552 0.000000
#
# Coordination Sequence:
#
# PCOD8236038 Si02
#       7
#     8   8   8   8   8   8   8
#     4  10  19  31  53  79 105 135 172 219 266 312
#     4  10  21  35  53  78 108 143 179 214 263 327
#     4   9  18  31  50  77 103 132 174 218 262 308
#     4   9  19  35  53  75 105 139 174 217 266 314
#     4   8  15  30  51  73  97 129 172 215 254 300
#     4  10  21  35  52  78 108 138 175 221 269 313
#     4   9  18  33  53  74 101 136 174 214 258 313
#
# _framework density 18.830096999999999
#
# number of rings (size 3 to 8) (size 9 to 14) (size 15 to 20)
#    0.000    2.714    0.000    2.143    2.000    2.000 
#    0.000    3.571    0.000    4.286    0.000    5.000 
#    0.000    0.000    0.000    0.000    0.000    0.000 
#
# Total GULP energy -694332.100772 kJ/mol
# GULP energy per Si atom -12398.787514 kJ/mol
# Density = 1.878724 g / cm^3
# Si number density = 18.830097 Si / 1000 Ang^3
#
#
#
# Elastic Constant Matrix: (Units=GPa)
#
#
# Indices 1 2 3 4 5 6 
#
# 1 145.4686 76.1813 22.8364 0.0000 0.0000 0.0000
# 2 76.1813 102.3873 15.9212 0.0000 0.0000 0.0000
# 3 22.8364 15.9212 22.6372 0.0000 0.0000 0.0000
# 4 0.0000 0.0000 0.0000 22.9818 0.0000 0.0000
# 5 0.0000 0.0000 0.0000 0.0000 21.9723 0.0000
# 6 0.0000 0.0000 0.0000 0.0000 0.0000 37.3448
#
#
#
# Elastic Compliance Matrix: (Units=1/GPa)
#
#
# Indices 1 2 3 4 5 6 
#
# 1 0.012078 -0.007963 -0.006584 0.000000 0.000000 0.000000
# 2 -0.007963 0.016216 -0.003372 0.000000 0.000000 0.000000
# 3 -0.006584 -0.003372 0.053189 0.000000 0.000000 0.000000
# 4 0.000000 0.000000 0.000000 0.043513 0.000000 0.000000
# 5 0.000000 0.000000 0.000000 0.000000 0.045512 0.000000
# 6 0.000000 0.000000 0.000000 0.000000 0.000000 0.026777
#
#
# Mechanical properties :
#
#
# Convention : Reuss Voigt Hill
#
# Bulk Modulus (GPa) = 21.90822 55.59679 38.75250
# Shear Modulus (GPa) = 20.13390 26.83006 23.48198
#
# Velocity S-wave (km/s) = 3.27347 3.77881 3.53518
# Velocity P-wave (km/s) = 5.09386 6.97344 6.10640
#
# Compressibility (1/GPa) = 0.04564498
#
# Stress axis : x y z
#
# Youngs Moduli (GPa) = 82.79498 61.66756 18.80099
#
# Poissons Ratio (x) = 0.49105 0.12378
# Poissons Ratio (y) = 0.65929 0.06340
# Poissons Ratio (z) = 0.54511 0.20795
#
# Static dielectric constant tensor:
#      x y z
#    x 3.758950 0.000000 0.000000 
#    y 0.000000 3.632040 0.000000 
#    z 0.000000 0.000000 3.080600 
# 
# 
# High freq. dielectric constant tensor:
#      x y z
#    x 1.743460 0.000000 0.000000 
#    y 0.000000 1.737550 0.000000 
#    z 0.000000 0.000000 1.692760 
# 
# From -- ./inp_files/9043.got.cif
#   From: 2010.06.25/outbox.cif.g09.slc.cpg/sg58_5_cif.got.tgz:9043.got - 2010.06.26 21:38:00.
