data_PCOD8236346
_publ_section_title
;
Structure prediction by ZEFSAII (Michael W. Deem and Ramdas Pophale) SiO2 
 PCOD8236346
Probable space group: P N N M
;
_chemical_formula_sum "Si O2"
_cell_formula_units_Z 56
_cell_length_a 21.942152
_cell_length_b 14.660241
_cell_length_c 8.879348
_cell_angle_alpha 90.000000
_cell_angle_beta 90.000000
_cell_angle_gamma 90.000000
_cell_volume 2856.284125
_symmetry_space_group_name_H-M "P N N M"
_symmetry_group_IT_number 58
_symmetry_cell_setting 'orthorhombic'
loop_
_space_group_symop_operation_xyz
x,y,z
-x,-y,z
1/2+x,1/2-y,1/2-z
1/2-x,1/2+y,1/2-z
-x,-y,-z
x,y,-z
1/2-x,1/2+y,1/2+z
1/2+x,1/2-y,1/2+z
loop_
_atom_site_type_symbol
_atom_site_label
_atom_site_fract_x
_atom_site_fract_y
_atom_site_fract_z
Si Si1 0.753977 0.609258 0.822007
Si Si2 0.391348 0.120673 0.675249
Si Si3 0.229552 0.688470 0.677130
Si Si4 0.047986 0.078529 0.175836
Si Si5 0.323021 0.560515 0.821471
Si Si6 0.111308 0.413972 0.824510
Si Si7 0.989851 0.721188 0.821347
O O1 0.724913 0.705707 0.776058
O O2 0.710675 0.529788 0.757963
O O3 0.821775 0.599756 0.751515
O O4 0.758561 0.597940 0.000000
O O5 0.377026 0.138196 0.500000
O O6 0.330180 0.137330 0.767070
O O7 0.444586 0.186353 0.737918
O O8 0.412341 0.016621 0.702197
O O9 0.236388 0.676268 0.500000
O O10 0.290125 0.648637 0.753154
O O11 0.107708 0.056771 0.269727
O O12 0.019856 0.174839 0.229755
O O13 0.064634 0.081813 0.000000
O O14 0.000000 0.000000 0.212940
O O15 0.320246 0.566214 0.000000
O O16 0.063456 0.342659 0.751522
O O17 0.116101 0.391466 0.000000
O O18 0.990076 0.710876 0.000000
#
# Coordination Sequence:
#
# PCOD8236346 Si02
#       7
#     8   8   8   8   8   8   8
#     4   9  19  34  56  83 112 148 188 232 282 343
#     4  10  19  33  56  85 112 143 192 242 281 332
#     4  11  22  37  58  85 117 153 189 234 296 349
#     4  10  22  39  58  84 119 155 193 237 288 342
#     4  11  22  40  62  86 114 150 196 242 285 341
#     4   9  15  30  55  82 108 139 185 234 276 328
#     4   9  18  32  55  83 112 150 192 233 279 334
#
# _framework density 19.605892000000001
#
# number of rings (size 3 to 8) (size 9 to 14) (size 15 to 20)
#    0.000    2.143    1.429    2.143    2.000    4.286 
#    0.000    2.857    0.000    1.714    0.000    0.000 
#    0.000    0.000    0.000    0.000    0.000    0.000 
#
# Total GULP energy -694465.748698 kJ/mol
# GULP energy per Si atom -12401.174084 kJ/mol
# Density = 1.956127 g / cm^3
# Si number density = 19.605892 Si / 1000 Ang^3
#
#
#
# Elastic Constant Matrix: (Units=GPa)
#
#
# Indices 1 2 3 4 5 6 
#
# 1 121.6645 55.9540 32.1546 0.0000 0.0000 0.0000
# 2 55.9540 127.3669 33.4328 0.0000 0.0000 0.0000
# 3 32.1546 33.4328 44.0348 0.0000 0.0000 0.0000
# 4 0.0000 0.0000 0.0000 16.8023 0.0000 0.0000
# 5 0.0000 0.0000 0.0000 0.0000 27.5971 0.0000
# 6 0.0000 0.0000 0.0000 0.0000 0.0000 36.2277
#
#
#
# Elastic Compliance Matrix: (Units=1/GPa)
#
#
# Indices 1 2 3 4 5 6 
#
# 1 0.011308 -0.003497 -0.005602 0.000000 0.000000 0.000000
# 2 -0.003497 0.010887 -0.005712 0.000000 0.000000 0.000000
# 3 -0.005602 -0.005712 0.031137 0.000000 0.000000 0.000000
# 4 0.000000 0.000000 0.000000 0.059516 0.000000 0.000000
# 5 0.000000 0.000000 0.000000 0.000000 0.036236 0.000000
# 6 0.000000 0.000000 0.000000 0.000000 0.000000 0.027603
#
#
# Mechanical properties :
#
#
# Convention : Reuss Voigt Hill
#
# Bulk Modulus (GPa) = 42.17781 59.57213 50.87497
# Shear Modulus (GPa) = 23.34125 27.56041 25.45083
#
# Velocity S-wave (km/s) = 3.45414 3.75336 3.60685
# Velocity P-wave (km/s) = 6.12108 7.01672 6.58415
#
# Compressibility (1/GPa) = 0.02370915
#
# Stress axis : x y z
#
# Youngs Moduli (GPa) = 88.42998 91.85129 32.11632
#
# Poissons Ratio (x) = 0.32124 0.17992
# Poissons Ratio (y) = 0.30928 0.18345
# Poissons Ratio (z) = 0.49540 0.52466
#
# Static dielectric constant tensor:
#      x y z
#    x 3.694330 0.000000 0.000000 
#    y 0.000000 3.810570 0.000000 
#    z 0.000000 0.000000 3.094400 
# 
# 
# High freq. dielectric constant tensor:
#      x y z
#    x 1.776000 0.000000 0.000000 
#    y 0.000000 1.780280 0.000000 
#    z 0.000000 0.000000 1.712920 
# 
# From -- ./inp_files/9050.got.cif
#   From: 2010.06.25/outbox.cif.g09.slc.cpg/sg58_5_cif.got.tgz:9050.got - 2010.06.26 21:38:00.
