data_PCOD8236341
_publ_section_title
;
Structure prediction by ZEFSAII (Michael W. Deem and Ramdas Pophale) SiO2 
 PCOD8236341
Probable space group: P N N M
;
_chemical_formula_sum "Si O2"
_cell_formula_units_Z 48
_cell_length_a 10.962056
_cell_length_b 18.016902
_cell_length_c 13.481497
_cell_angle_alpha 90.000000
_cell_angle_beta 90.000000
_cell_angle_gamma 90.000000
_cell_volume 2662.626512
_symmetry_space_group_name_H-M "P N N M"
_symmetry_group_IT_number 58
_symmetry_cell_setting 'orthorhombic'
loop_
_space_group_symop_operation_xyz
x,y,z
-x,-y,z
1/2+x,1/2-y,1/2-z
1/2-x,1/2+y,1/2-z
-x,-y,-z
x,y,-z
1/2-x,1/2+y,1/2+z
1/2+x,1/2-y,1/2+z
loop_
_atom_site_type_symbol
_atom_site_label
_atom_site_fract_x
_atom_site_fract_y
_atom_site_fract_z
Si Si1 0.540189 0.717050 0.890625
Si Si2 0.542841 0.159136 0.241076
Si Si3 0.089036 0.062941 0.611922
Si Si4 0.770278 0.397156 0.721609
Si Si5 0.865980 0.531913 0.610441
Si Si6 0.192103 0.248219 0.116970
O O1 0.452420 0.769453 0.828785
O O2 0.492656 0.635050 0.887627
O O3 0.678798 0.716213 0.853186
O O4 0.538867 0.751817 0.000000
O O5 0.405569 0.129115 0.253228
O O6 0.632661 0.098296 0.191391
O O7 0.593055 0.191428 0.345091
O O8 0.132533 0.043222 0.500000
O O9 0.207904 0.073552 0.678500
O O10 0.000000 0.000000 0.655371
O O11 0.776561 0.466316 0.646100
O O12 0.689112 0.332799 0.669860
O O13 0.823787 0.558786 0.500000
O O14 0.000000 0.500000 0.601118
O O15 0.171059 0.237538 0.000000
#
# Coordination Sequence:
#
# PCOD8236341 Si02
#       6
#     8   8   8   8   8   8
#     4   9  18  34  54  76 102 138 183 222 262 318
#     4  10  19  33  56  84 108 137 177 229 276 315
#     4  10  21  36  55  76 105 146 186 224 266 322
#     4  10  20  36  56  80 112 143 180 225 274 325
#     4   9  18  33  55  81 107 139 181 226 271 320
#     4  10  20  34  55  80 110 145 178 218 272 328
#
# _framework density 18.027311999999998
#
# number of rings (size 3 to 8) (size 9 to 14) (size 15 to 20)
#    0.000    2.333    1.667    1.000    2.333    4.667 
#    0.000    0.000    0.000    9.000    0.000    0.000 
#    0.000    0.000    0.000    0.000    0.000    0.000 
#
# Total GULP energy -594941.059694 kJ/mol
# GULP energy per Si atom -12394.605410 kJ/mol
# Density = 1.798628 g / cm^3
# Si number density = 18.027312 Si / 1000 Ang^3
#
#
#
# Elastic Constant Matrix: (Units=GPa)
#
#
# Indices 1 2 3 4 5 6 
#
# 1 49.7585 34.2682 42.9411 0.0000 0.0000 0.0000
# 2 34.2682 93.8106 49.5281 0.0000 0.0000 0.0000
# 3 42.9411 49.5281 105.0663 0.0000 0.0000 0.0000
# 4 0.0000 0.0000 0.0000 24.0446 0.0000 0.0000
# 5 0.0000 0.0000 0.0000 0.0000 13.2529 0.0000
# 6 0.0000 0.0000 0.0000 0.0000 0.0000 27.6307
#
#
#
# Elastic Compliance Matrix: (Units=1/GPa)
#
#
# Indices 1 2 3 4 5 6 
#
# 1 0.033995 -0.006767 -0.010704 0.000000 0.000000 0.000000
# 2 -0.006767 0.015539 -0.004559 0.000000 0.000000 0.000000
# 3 -0.010704 -0.004559 0.016042 0.000000 0.000000 0.000000
# 4 0.000000 0.000000 0.000000 0.041589 0.000000 0.000000
# 5 0.000000 0.000000 0.000000 0.000000 0.075455 0.000000
# 6 0.000000 0.000000 0.000000 0.000000 0.000000 0.036192
#
#
# Mechanical properties :
#
#
# Convention : Reuss Voigt Hill
#
# Bulk Modulus (GPa) = 46.47881 55.79001 51.13441
# Shear Modulus (GPa) = 18.51554 21.11216 19.81385
#
# Velocity S-wave (km/s) = 3.20829 3.42588 3.31887
# Velocity P-wave (km/s) = 6.28988 6.83107 6.56605
#
# Compressibility (1/GPa) = 0.02151518
#
# Stress axis : x y z
#
# Youngs Moduli (GPa) = 29.41637 64.35525 62.33696
#
# Poissons Ratio (x) = 0.43547 0.66725
# Poissons Ratio (y) = 0.19905 0.28422
# Poissons Ratio (z) = 0.31487 0.29342
#
# Static dielectric constant tensor:
#      x y z
#    x 3.130290 0.000000 0.000000 
#    y 0.000000 3.495280 0.000000 
#    z 0.000000 0.000000 3.458090 
# 
# 
# High freq. dielectric constant tensor:
#      x y z
#    x 1.671920 0.000000 0.000000 
#    y 0.000000 1.710080 0.000000 
#    z 0.000000 0.000000 1.696970 
# 
# From -- ./inp_files/14359.got.cif
#   From: 2010.06.25/outbox.cif.g09.slc.cpg/sg58_8_cif.got.tgz:14359.got - 2010.06.26 21:38:00.
