data_PCOD8236170
_publ_section_title
;
Structure prediction by ZEFSAII (Michael W. Deem and Ramdas Pophale) SiO2 
 PCOD8236170
Probable space group: P N N M
;
_chemical_formula_sum "Si O2"
_cell_formula_units_Z 56
_cell_length_a 14.546982
_cell_length_b 22.088012
_cell_length_c 8.778488
_cell_angle_alpha 90.000000
_cell_angle_beta 90.000000
_cell_angle_gamma 90.000000
_cell_volume 2820.650329
_symmetry_space_group_name_H-M "P N N M"
_symmetry_group_IT_number 58
_symmetry_cell_setting 'orthorhombic'
loop_
_space_group_symop_operation_xyz
x,y,z
-x,-y,z
1/2+x,1/2-y,1/2-z
1/2-x,1/2+y,1/2-z
-x,-y,-z
x,y,-z
1/2-x,1/2+y,1/2+z
1/2+x,1/2-y,1/2+z
loop_
_atom_site_type_symbol
_atom_site_label
_atom_site_fract_x
_atom_site_fract_y
_atom_site_fract_z
Si Si1 0.395158 0.662448 0.319560
Si Si2 0.916364 0.426643 0.319379
Si Si3 0.095631 0.025564 0.180018
Si Si4 0.898251 0.555002 0.176584
Si Si5 0.916502 0.194274 0.318708
Si Si6 0.696746 0.579520 0.824085
Si Si7 0.306799 0.190222 0.180525
O O1 0.409032 0.664818 0.500000
O O2 0.391306 0.593490 0.259686
O O3 0.479727 0.697170 0.242198
O O4 0.299818 0.693860 0.268201
O O5 0.909107 0.436055 0.500000
O O6 0.882575 0.486750 0.234777
O O7 0.853217 0.371625 0.260560
O O8 0.021906 0.412455 0.273435
O O9 0.176643 0.983037 0.238821
O O10 0.098089 0.024646 0.000000
O O11 0.000000 0.000000 0.244815
O O12 0.804815 0.593356 0.199513
O O13 0.926871 0.553032 0.000000
O O14 0.917383 0.194978 0.500000
O O15 0.863793 0.134598 0.256673
O O16 0.861714 0.252260 0.253307
O O17 0.673014 0.570229 0.000000
O O18 0.312318 0.190617 0.000000
#
# Coordination Sequence:
#
# PCOD8236170 Si02
#       7
#     8   8   8   8   8   8   8
#     4  10  20  37  58  81 107 141 179 221 272 324
#     4  10  19  35  57  80 103 139 182 221 266 318
#     4  10  19  32  54  82 111 138 173 226 277 318
#     4  10  20  34  53  81 113 141 172 220 271 318
#     4  10  21  38  55  76 107 142 179 221 261 313
#     4  10  21  34  52  78 110 145 178 213 269 328
#     4   9  20  37  57  77 105 143 183 220 264 320
#
# _framework density 19.853577000000001
#
# number of rings (size 3 to 8) (size 9 to 14) (size 15 to 20)
#    0.000    2.143    1.429    2.571    0.000    4.286 
#    0.000    5.000    0.000    0.000    0.000    0.000 
#    0.000    0.000    0.000    0.000    0.000    0.000 
#
# Total GULP energy -694402.993648 kJ/mol
# GULP energy per Si atom -12400.053458 kJ/mol
# Density = 1.980839 g / cm^3
# Si number density = 19.853577 Si / 1000 Ang^3
#
#
#
# Elastic Constant Matrix: (Units=GPa)
#
#
# Indices 1 2 3 4 5 6 
#
# 1 149.4207 60.9768 14.9575 0.0000 0.0000 0.0000
# 2 60.9768 95.9051 14.2761 0.0000 0.0000 0.0000
# 3 14.9575 14.2761 24.8135 0.0000 0.0000 0.0000
# 4 0.0000 0.0000 0.0000 14.9242 0.0000 0.0000
# 5 0.0000 0.0000 0.0000 0.0000 31.4046 0.0000
# 6 0.0000 0.0000 0.0000 0.0000 0.0000 35.4615
#
#
#
# Elastic Compliance Matrix: (Units=1/GPa)
#
#
# Indices 1 2 3 4 5 6 
#
# 1 0.009164 -0.005473 -0.002375 0.000000 0.000000 0.000000
# 2 -0.005473 0.014672 -0.005142 0.000000 0.000000 0.000000
# 3 -0.002375 -0.005142 0.044691 0.000000 0.000000 0.000000
# 4 0.000000 0.000000 0.000000 0.067005 0.000000 0.000000
# 5 0.000000 0.000000 0.000000 0.000000 0.031842 0.000000
# 6 0.000000 0.000000 0.000000 0.000000 0.000000 0.028200
#
#
# Mechanical properties :
#
#
# Convention : Reuss Voigt Hill
#
# Bulk Modulus (GPa) = 23.50394 50.06225 36.78309
# Shear Modulus (GPa) = 21.21011 28.35332 24.78171
#
# Velocity S-wave (km/s) = 3.27207 3.78315 3.53685
# Velocity P-wave (km/s) = 5.11269 6.65984 5.93688
#
# Compressibility (1/GPa) = 0.04254607
#
# Stress axis : x y z
#
# Youngs Moduli (GPa) = 109.12717 68.15689 22.37586
#
# Poissons Ratio (x) = 0.37300 0.05315
# Poissons Ratio (y) = 0.59722 0.11507
# Poissons Ratio (z) = 0.25919 0.35049
#
# Static dielectric constant tensor:
#      x y z
#    x 3.820190 0.000000 0.000000 
#    y 0.000000 3.675910 0.000000 
#    z 0.000000 0.000000 3.324500 
# 
# 
# High freq. dielectric constant tensor:
#      x y z
#    x 1.791270 0.000000 0.000000 
#    y 0.000000 1.764380 0.000000 
#    z 0.000000 0.000000 1.749500 
# 
# From -- ./inp_files/6388.got.cif
#   From: 2010.06.25/outbox.cif.g09.slc.cpg/sg58_4_cif.got.tgz:6388.got - 2010.06.26 21:38:00.
