data_PCOD8236859
_publ_section_title
;
Structure prediction by ZEFSAII (Michael W. Deem and Ramdas Pophale) SiO2 
 PCOD8236859
Probable space group: P N N M
;
_chemical_formula_sum "Si O2"
_cell_formula_units_Z 64
_cell_length_a 15.246925
_cell_length_b 23.911168
_cell_length_c 9.024215
_cell_angle_alpha 90.000000
_cell_angle_beta 90.000000
_cell_angle_gamma 90.000000
_cell_volume 3289.974172
_symmetry_space_group_name_H-M "P N N M"
_symmetry_group_IT_number 58
_symmetry_cell_setting 'orthorhombic'
loop_
_space_group_symop_operation_xyz
x,y,z
-x,-y,z
1/2+x,1/2-y,1/2-z
1/2-x,1/2+y,1/2-z
-x,-y,-z
x,y,-z
1/2-x,1/2+y,1/2+z
1/2+x,1/2-y,1/2+z
loop_
_atom_site_type_symbol
_atom_site_label
_atom_site_fract_x
_atom_site_fract_y
_atom_site_fract_z
Si Si1 0.909690 0.770062 0.825870
Si Si2 0.250244 0.424569 0.674055
Si Si3 0.752721 0.195040 0.674290
Si Si4 0.597773 0.993901 0.823927
Si Si5 0.673304 0.877341 0.832076
Si Si6 0.347561 0.624799 0.825518
Si Si7 0.577257 0.765207 0.167021
Si Si8 0.399432 0.511790 0.327988
O O1 0.829956 0.731246 0.768734
O O2 0.912719 0.829909 0.744975
O O3 0.000340 0.740814 0.784944
O O4 0.902599 0.780297 0.000000
O O5 0.243557 0.414519 0.500000
O O6 0.253771 0.365169 0.751507
O O7 0.163955 0.457779 0.732086
O O8 0.338719 0.458797 0.713428
O O9 0.745643 0.186380 0.500000
O O10 0.840644 0.227842 0.718324
O O11 0.634062 0.934632 0.768756
O O12 0.500000 0.000000 0.756422
O O13 0.593215 0.994899 0.000000
O O14 0.750732 0.857730 0.725365
O O15 0.599246 0.830557 0.829713
O O16 0.709621 0.885181 0.000000
O O17 0.368925 0.563235 0.769775
O O18 0.356624 0.626738 0.000000
O O19 0.548196 0.748331 0.000000
O O20 0.500000 0.500000 0.288474
O O21 0.387520 0.527268 0.500000
#
# Coordination Sequence:
#
# PCOD8236859 Si02
#       8
#     8   8   8   8   8   8   8   8
#     4  11  24  43  64  87 121 166 205 246 305 367
#     4  10  21  37  60  88 118 155 202 244 286 354
#     4  10  23  42  60  83 124 164 195 243 309 361
#     4   9  18  33  58  89 116 150 194 239 288 348
#     4  10  19  39  65  85 119 160 199 247 302 360
#     4  12  24  39  63  92 121 155 203 258 305 354
#     4  10  22  40  63  91 119 157 203 252 305 358
#     4  10  22  41  63  88 119 159 202 245 299 362
#
# _framework density 19.453040000000001
#
# number of rings (size 3 to 8) (size 9 to 14) (size 15 to 20)
#    0.000    1.750    2.500    1.500    3.500    2.750 
#    0.000    0.000    0.000    0.750    0.000    0.000 
#    0.000    0.000    0.000    0.000    0.000    0.000 
#
# Total GULP energy -793743.808649 kJ/mol
# GULP energy per Si atom -12402.247010 kJ/mol
# Density = 1.940876 g / cm^3
# Si number density = 19.453040 Si / 1000 Ang^3
#
#
#
# Elastic Constant Matrix: (Units=GPa)
#
#
# Indices 1 2 3 4 5 6 
#
# 1 120.2518 38.8415 34.1510 0.0000 0.0000 0.0000
# 2 38.8415 127.5174 41.9172 0.0000 0.0000 0.0000
# 3 34.1510 41.9172 67.5384 0.0000 0.0000 0.0000
# 4 0.0000 0.0000 0.0000 30.8428 0.0000 0.0000
# 5 0.0000 0.0000 0.0000 0.0000 27.4103 0.0000
# 6 0.0000 0.0000 0.0000 0.0000 0.0000 27.8524
#
#
#
# Elastic Compliance Matrix: (Units=1/GPa)
#
#
# Indices 1 2 3 4 5 6 
#
# 1 0.010008 -0.001740 -0.003981 0.000000 0.000000 0.000000
# 2 -0.001740 0.010155 -0.005423 0.000000 0.000000 0.000000
# 3 -0.003981 -0.005423 0.020185 0.000000 0.000000 0.000000
# 4 0.000000 0.000000 0.000000 0.032422 0.000000 0.000000
# 5 0.000000 0.000000 0.000000 0.000000 0.036483 0.000000
# 6 0.000000 0.000000 0.000000 0.000000 0.000000 0.035904
#
#
# Mechanical properties :
#
#
# Convention : Reuss Voigt Hill
#
# Bulk Modulus (GPa) = 55.36790 60.56967 57.96879
# Shear Modulus (GPa) = 28.82449 30.58095 29.70272
#
# Velocity S-wave (km/s) = 3.85352 3.96920 3.91179
# Velocity P-wave (km/s) = 6.95152 7.22565 7.08991
#
# Compressibility (1/GPa) = 0.01806101
#
# Stress axis : x y z
#
# Youngs Moduli (GPa) = 99.91554 98.47825 49.54228
#
# Poissons Ratio (x) = 0.17135 0.19722
# Poissons Ratio (y) = 0.17385 0.26864
# Poissons Ratio (z) = 0.39775 0.53400
#
# Static dielectric constant tensor:
#      x y z
#    x 3.776390 0.000000 0.000000 
#    y 0.000000 3.613260 0.000000 
#    z 0.000000 0.000000 3.303270 
# 
# 
# High freq. dielectric constant tensor:
#      x y z
#    x 1.766200 0.000000 0.000000 
#    y 0.000000 1.771020 0.000000 
#    z 0.000000 0.000000 1.732050 
# 
# From -- ./inp_files/6790.got.cif
#   From: 2010.06.25/outbox.cif.g09.slc.cpg/sg58_4_cif.got.tgz:6790.got - 2010.06.26 21:38:00.
