data_PCOD8236457
_publ_section_title
;
Structure prediction by ZEFSAII (Michael W. Deem and Ramdas Pophale) SiO2 
 PCOD8236457
Probable space group: P N N M
;
_chemical_formula_sum "Si O2"
_cell_formula_units_Z 64
_cell_length_a 22.818268
_cell_length_b 10.621222
_cell_length_c 13.357412
_cell_angle_alpha 90.000000
_cell_angle_beta 90.000000
_cell_angle_gamma 90.000000
_cell_volume 3237.274189
_symmetry_space_group_name_H-M "P N N M"
_symmetry_group_IT_number 58
_symmetry_cell_setting 'orthorhombic'
loop_
_space_group_symop_operation_xyz
x,y,z
-x,-y,z
1/2+x,1/2-y,1/2-z
1/2-x,1/2+y,1/2-z
-x,-y,-z
x,y,-z
1/2-x,1/2+y,1/2+z
1/2+x,1/2-y,1/2+z
loop_
_atom_site_type_symbol
_atom_site_label
_atom_site_fract_x
_atom_site_fract_y
_atom_site_fract_z
Si Si1 0.078844 0.240671 0.786376
Si Si2 0.197316 0.385342 0.204182
Si Si3 0.287971 0.224913 0.889492
Si Si4 0.962191 0.270790 0.112813
Si Si5 0.629115 0.895493 0.753276
Si Si6 0.558782 0.080308 0.115669
Si Si7 0.234001 0.954186 0.888014
Si Si8 0.899611 0.013161 0.885215
O O1 0.142066 0.295282 0.812042
O O2 0.057318 0.285803 0.675495
O O3 0.030436 0.292911 0.864109
O O4 0.083361 0.090632 0.801902
O O5 0.247174 0.347033 0.125112
O O6 0.177411 0.530275 0.185838
O O7 0.226629 0.369568 0.314318
O O8 0.341515 0.222960 0.809827
O O9 0.248172 0.101525 0.874433
O O10 0.315452 0.231798 0.000000
O O11 0.925206 0.357633 0.186638
O O12 0.945877 0.125193 0.129006
O O13 0.948823 0.313860 0.000000
O O14 0.611046 0.996916 0.838469
O O15 0.500000 0.000000 0.128519
O O16 0.571678 0.110614 0.000000
O O17 0.165355 0.933888 0.864393
O O18 0.248409 0.907947 0.000000
O O19 0.903400 0.959934 0.000000
#
# Coordination Sequence:
#
# PCOD8236457 Si02
#       8
#     8   8   8   8   8   8   8   8
#     4  11  21  36  58  88 121 155 197 251 298 355
#     4  10  21  33  56  86 118 149 193 245 299 350
#     4  10  19  34  56  82 112 150 194 238 290 352
#     4  11  23  38  58  87 123 162 200 244 301 364
#     4  10  21  38  59  88 119 155 196 249 302 356
#     4  10  20  38  62  86 115 156 204 247 295 353
#     4   9  18  35  58  83 110 148 195 239 290 353
#     4  10  20  37  62  87 117 158 201 243 298 367
#
# _framework density 19.769718999999998
#
# number of rings (size 3 to 8) (size 9 to 14) (size 15 to 20)
#    0.000    1.875    2.500    1.875    0.000    5.000 
#    0.000    6.250    0.000    6.000    0.000    0.000 
#    0.000    0.000    0.000    0.000    0.000    0.000 
#
# Total GULP energy -793331.403502 kJ/mol
# GULP energy per Si atom -12395.803180 kJ/mol
# Density = 1.972472 g / cm^3
# Si number density = 19.769719 Si / 1000 Ang^3
#
#
#
# Elastic Constant Matrix: (Units=GPa)
#
#
# Indices 1 2 3 4 5 6 
#
# 1 99.9671 26.3871 45.9219 0.0000 0.0000 0.0000
# 2 26.3871 61.4598 47.6025 0.0000 0.0000 0.0000
# 3 45.9219 47.6025 104.4331 0.0000 0.0000 0.0000
# 4 0.0000 0.0000 0.0000 34.1279 0.0000 0.0000
# 5 0.0000 0.0000 0.0000 0.0000 29.9431 0.0000
# 6 0.0000 0.0000 0.0000 0.0000 0.0000 30.6825
#
#
#
# Elastic Compliance Matrix: (Units=1/GPa)
#
#
# Indices 1 2 3 4 5 6 
#
# 1 0.012654 -0.001736 -0.004773 0.000000 0.000000 0.000000
# 2 -0.001736 0.025388 -0.010809 0.000000 0.000000 0.000000
# 3 -0.004773 -0.010809 0.016601 0.000000 0.000000 0.000000
# 4 0.000000 0.000000 0.000000 0.029302 0.000000 0.000000
# 5 0.000000 0.000000 0.000000 0.000000 0.033397 0.000000
# 6 0.000000 0.000000 0.000000 0.000000 0.000000 0.032592
#
#
# Mechanical properties :
#
#
# Convention : Reuss Voigt Hill
#
# Bulk Modulus (GPa) = 49.98164 56.18701 53.08432
# Shear Modulus (GPa) = 26.14536 28.68060 27.41298
#
# Velocity S-wave (km/s) = 3.64056 3.81298 3.72777
# Velocity P-wave (km/s) = 6.55808 6.91864 6.74077
#
# Compressibility (1/GPa) = 0.02000735
#
# Stress axis : x y z
#
# Youngs Moduli (GPa) = 79.02569 39.38868 60.23651
#
# Poissons Ratio (x) = 0.06838 0.28751
# Poissons Ratio (y) = 0.13719 0.65109
# Poissons Ratio (z) = 0.37719 0.42575
#
# Static dielectric constant tensor:
#      x y z
#    x 3.759070 0.000000 0.000000 
#    y 0.000000 3.429450 0.000000 
#    z 0.000000 0.000000 3.607090 
# 
# 
# High freq. dielectric constant tensor:
#      x y z
#    x 1.787840 0.000000 0.000000 
#    y 0.000000 1.744140 0.000000 
#    z 0.000000 0.000000 1.758980 
# 
# From -- ./inp_files/17557.got.cif
#   From: 2010.06.25/outbox.cif.g09.slc.cpg/sg58_9_cif.got.tgz:17557.got - 2010.06.26 21:38:00.
