data_PCOD8236185
_publ_section_title
;
Structure prediction by ZEFSAII (Michael W. Deem and Ramdas Pophale) SiO2 
 PCOD8236185
Probable space group: P N N M
;
_chemical_formula_sum "Si O2"
_cell_formula_units_Z 64
_cell_length_a 15.064192
_cell_length_b 24.914723
_cell_length_c 9.165231
_cell_angle_alpha 90.000000
_cell_angle_beta 90.000000
_cell_angle_gamma 90.000000
_cell_volume 3439.896065
_symmetry_space_group_name_H-M "P N N M"
_symmetry_group_IT_number 58
_symmetry_cell_setting 'orthorhombic'
loop_
_space_group_symop_operation_xyz
x,y,z
-x,-y,z
1/2+x,1/2-y,1/2-z
1/2-x,1/2+y,1/2-z
-x,-y,-z
x,y,-z
1/2-x,1/2+y,1/2+z
1/2+x,1/2-y,1/2+z
loop_
_atom_site_type_symbol
_atom_site_label
_atom_site_fract_x
_atom_site_fract_y
_atom_site_fract_z
Si Si1 0.338626 0.054009 0.326510
Si Si2 0.540671 0.219740 0.827506
Si Si3 0.189377 0.445480 0.331756
Si Si4 0.735468 0.235945 0.173677
Si Si5 0.511191 0.338117 0.172063
Si Si6 0.789585 0.853132 0.673029
Si Si7 0.656572 0.636508 0.328654
Si Si8 0.998691 0.395381 0.669275
O O1 0.343863 0.053848 0.500000
O O2 0.268644 0.097943 0.265700
O O3 0.435746 0.066687 0.263871
O O4 0.305946 0.996854 0.271181
O O5 0.639970 0.218617 0.762150
O O6 0.494332 0.275663 0.781965
O O7 0.487820 0.166511 0.775333
O O8 0.549658 0.216743 0.000000
O O9 0.195040 0.463536 0.500000
O O10 0.273051 0.409155 0.287287
O O11 0.099853 0.412457 0.303742
O O12 0.755226 0.297001 0.225732
O O13 0.808270 0.194019 0.231342
O O14 0.732144 0.232897 0.000000
O O15 0.608385 0.356988 0.227585
O O16 0.437077 0.374737 0.249708
O O17 0.502833 0.345782 0.000000
O O18 0.790772 0.854326 0.500000
O O19 0.639744 0.637859 0.500000
O O20 0.972533 0.401976 0.500000
#
# Coordination Sequence:
#
# PCOD8236185 Si02
#       8
#     8   8   8   8   8   8   8   8
#     4  11  23  36  53  78 105 139 180 223 267 309
#     4   8  14  28  51  77 103 135 171 204 246 310
#     4  10  21  38  56  76 104 142 183 217 257 316
#     4   8  13  27  51  75 100 133 170 209 249 306
#     4   9  18  33  54  78 107 139 172 212 260 316
#     4   8  17  34  53  74 104 141 177 210 257 318
#     4  10  19  32  55  82 105 134 176 220 265 310
#     4  10  19  34  55  78 105 139 176 211 254 316
#
# _framework density 18.605212999999999
#
# number of rings (size 3 to 8) (size 9 to 14) (size 15 to 20)
#    0.000    2.750    1.250    2.250    1.750    2.500 
#    0.000    1.875    0.000    6.750    0.000    0.000 
#    0.000    0.000    0.000    0.000    0.000    0.000 
#
# Total GULP energy -793244.017999 kJ/mol
# GULP energy per Si atom -12394.437781 kJ/mol
# Density = 1.856287 g / cm^3
# Si number density = 18.605213 Si / 1000 Ang^3
#
#
#
# Elastic Constant Matrix: (Units=GPa)
#
#
# Indices 1 2 3 4 5 6 
#
# 1 70.9863 35.5560 25.2339 0.0000 0.0000 0.0000
# 2 35.5560 97.5065 33.4117 0.0000 0.0000 0.0000
# 3 25.2339 33.4117 37.4766 0.0000 0.0000 0.0000
# 4 0.0000 0.0000 0.0000 12.2448 0.0000 0.0000
# 5 0.0000 0.0000 0.0000 0.0000 25.6514 0.0000
# 6 0.0000 0.0000 0.0000 0.0000 0.0000 26.4265
#
#
#
# Elastic Compliance Matrix: (Units=1/GPa)
#
#
# Indices 1 2 3 4 5 6 
#
# 1 0.019426 -0.003746 -0.009740 0.000000 0.000000 0.000000
# 2 -0.003746 0.015489 -0.011287 0.000000 0.000000 0.000000
# 3 -0.009740 -0.011287 0.043304 0.000000 0.000000 0.000000
# 4 0.000000 0.000000 0.000000 0.081667 0.000000 0.000000
# 5 0.000000 0.000000 0.000000 0.000000 0.038984 0.000000
# 6 0.000000 0.000000 0.000000 0.000000 0.000000 0.037841
#
#
# Mechanical properties :
#
#
# Convention : Reuss Voigt Hill
#
# Bulk Modulus (GPa) = 34.87585 43.81916 39.34751
# Shear Modulus (GPa) = 16.90240 20.31574 18.60907
#
# Velocity S-wave (km/s) = 3.01736 3.30803 3.16604
# Velocity P-wave (km/s) = 5.56104 6.18013 5.87874
#
# Compressibility (1/GPa) = 0.02867314
#
# Stress axis : x y z
#
# Youngs Moduli (GPa) = 51.47736 64.56046 23.09246
#
# Poissons Ratio (x) = 0.24185 0.22492
# Poissons Ratio (y) = 0.19284 0.26064
# Poissons Ratio (z) = 0.50140 0.72869
#
# Static dielectric constant tensor:
#      x y z
#    x 3.442410 0.000000 0.000000 
#    y 0.000000 3.654420 0.000000 
#    z 0.000000 0.000000 2.947600 
# 
# 
# High freq. dielectric constant tensor:
#      x y z
#    x 1.722970 0.000000 0.000000 
#    y 0.000000 1.723250 0.000000 
#    z 0.000000 0.000000 1.677770 
# 
# From -- ./inp_files/6992.got.cif
#   From: 2010.06.25/outbox.cif.g09.slc.cpg/sg58_4_cif.got.tgz:6992.got - 2010.06.26 21:38:00.
