data_PCOD8236541
_publ_section_title
;
Structure prediction by ZEFSAII (Michael W. Deem and Ramdas Pophale) SiO2 
 PCOD8236541
Probable space group: P N N M
;
_chemical_formula_sum "Si O2"
_cell_formula_units_Z 48
_cell_length_a 13.987628
_cell_length_b 10.092709
_cell_length_c 17.123316
_cell_angle_alpha 90.000000
_cell_angle_beta 90.000000
_cell_angle_gamma 90.000000
_cell_volume 2417.350900
_symmetry_space_group_name_H-M "P N N M"
_symmetry_group_IT_number 58
_symmetry_cell_setting 'orthorhombic'
loop_
_space_group_symop_operation_xyz
x,y,z
-x,-y,z
1/2+x,1/2-y,1/2-z
1/2-x,1/2+y,1/2-z
-x,-y,-z
x,y,-z
1/2-x,1/2+y,1/2+z
1/2+x,1/2-y,1/2+z
loop_
_atom_site_type_symbol
_atom_site_label
_atom_site_fract_x
_atom_site_fract_y
_atom_site_fract_z
Si Si1 0.108123 0.972379 0.829475
Si Si2 0.286641 0.738144 0.672452
Si Si3 0.774442 0.271505 0.850887
Si Si4 0.111978 0.475875 0.092055
Si Si5 0.103119 0.878592 0.653417
Si Si6 0.086215 0.153677 0.414607
O O1 0.151317 0.844584 0.873373
O O2 0.112943 0.944895 0.737774
O O3 0.175111 0.095195 0.852527
O O4 0.000000 0.000000 0.857729
O O5 0.269246 0.742185 0.764719
O O6 0.363231 0.843812 0.640485
O O7 0.183488 0.769540 0.634025
O O8 0.828558 0.408730 0.865672
O O9 0.680639 0.258237 0.904259
O O10 0.000000 0.500000 0.102621
O O11 0.138599 0.464945 0.000000
O O12 0.998747 0.809931 0.646183
O O13 0.113976 0.998506 0.592516
O O14 0.044895 0.181165 0.500000
#
# Coordination Sequence:
#
# PCOD8236541 Si02
#       6
#     8   8   8   8   8   8
#     4  11  20  36  59  87 127 159 202 257 311 370
#     4  11  21  38  62  93 126 165 208 261 313 371
#     4  11  21  38  61  93 126 163 208 259 317 372
#     4  11  24  42  65  92 125 167 216 264 309 371
#     4  10  19  34  58  89 121 156 205 248 305 368
#     4  11  20  36  62  91 123 160 203 257 310 370
#
# _framework density 19.856446999999999
#
# number of rings (size 3 to 8) (size 9 to 14) (size 15 to 20)
#    0.000    1.167    5.000    3.500    0.000    2.000 
#    0.000    2.500    0.000    5.500    0.000    0.000 
#    0.000    0.000    0.000    0.000    0.000    0.000 
#
# Total GULP energy -594954.928869 kJ/mol
# GULP energy per Si atom -12394.894351 kJ/mol
# Density = 1.981125 g / cm^3
# Si number density = 19.856447 Si / 1000 Ang^3
#
#
#
# Elastic Constant Matrix: (Units=GPa)
#
#
# Indices 1 2 3 4 5 6 
#
# 1 144.7061 41.5336 28.8787 0.0000 0.0000 0.0000
# 2 41.5336 89.9265 27.2793 0.0000 0.0000 0.0000
# 3 28.8787 27.2793 77.9518 0.0000 0.0000 0.0000
# 4 0.0000 0.0000 0.0000 18.8795 0.0000 0.0000
# 5 0.0000 0.0000 0.0000 0.0000 22.1675 0.0000
# 6 0.0000 0.0000 0.0000 0.0000 0.0000 41.1049
#
#
#
# Elastic Compliance Matrix: (Units=1/GPa)
#
#
# Indices 1 2 3 4 5 6 
#
# 1 0.008216 -0.003212 -0.001920 0.000000 0.000000 0.000000
# 2 -0.003212 0.013697 -0.003603 0.000000 0.000000 0.000000
# 3 -0.001920 -0.003603 0.014801 0.000000 0.000000 0.000000
# 4 0.000000 0.000000 0.000000 0.052968 0.000000 0.000000
# 5 0.000000 0.000000 0.000000 0.000000 0.045111 0.000000
# 6 0.000000 0.000000 0.000000 0.000000 0.000000 0.024328
#
#
# Mechanical properties :
#
#
# Convention : Reuss Voigt Hill
#
# Bulk Modulus (GPa) = 51.96663 56.44085 54.20374
# Shear Modulus (GPa) = 27.32183 30.75656 29.03919
#
# Velocity S-wave (km/s) = 3.71343 3.93993 3.82836
# Velocity P-wave (km/s) = 6.67937 7.01310 6.84827
#
# Compressibility (1/GPa) = 0.01924312
#
# Stress axis : x y z
#
# Youngs Moduli (GPa) = 121.71980 73.00979 67.56528
#
# Poissons Ratio (x) = 0.23452 0.12969
# Poissons Ratio (y) = 0.39098 0.24345
# Poissons Ratio (z) = 0.23364 0.26307
#
# Static dielectric constant tensor:
#      x y z
#    x 4.122000 0.000000 0.000000 
#    y 0.000000 3.653880 0.000000 
#    z 0.000000 0.000000 3.522730 
# 
# 
# High freq. dielectric constant tensor:
#      x y z
#    x 1.801110 0.000000 0.000000 
#    y 0.000000 1.753730 0.000000 
#    z 0.000000 0.000000 1.755730 
# 
# From -- ./inp_files/26806.got.cif
#   From: 2010.06.25/outbox.cif.g09.slc.cpg/sg58_14_cif.got.tgz:26806.got - 2010.06.26 21:38:00.
