data_PCOD8236751
_publ_section_title
;
Structure prediction by ZEFSAII (Michael W. Deem and Ramdas Pophale) SiO2 
 PCOD8236751
Probable space group: P N N M
;
_chemical_formula_sum "Si O2"
_cell_formula_units_Z 48
_cell_length_a 18.934917
_cell_length_b 14.308066
_cell_length_c 8.729930
_cell_angle_alpha 90.000000
_cell_angle_beta 90.000000
_cell_angle_gamma 90.000000
_cell_volume 2365.130463
_symmetry_space_group_name_H-M "P N N M"
_symmetry_group_IT_number 58
_symmetry_cell_setting 'orthorhombic'
loop_
_space_group_symop_operation_xyz
x,y,z
-x,-y,z
1/2+x,1/2-y,1/2-z
1/2-x,1/2+y,1/2-z
-x,-y,-z
x,y,-z
1/2-x,1/2+y,1/2+z
1/2+x,1/2-y,1/2+z
loop_
_atom_site_type_symbol
_atom_site_label
_atom_site_fract_x
_atom_site_fract_y
_atom_site_fract_z
Si Si1 0.985348 0.666447 0.817792
Si Si2 0.390976 0.451742 0.318954
Si Si3 0.720500 0.679590 0.179666
Si Si4 0.351218 0.936709 0.682042
Si Si5 0.461833 0.631489 0.319451
Si Si6 0.355579 0.144347 0.681814
O O1 0.931016 0.586635 0.759723
O O2 0.950270 0.763671 0.759479
O O3 0.064646 0.656878 0.752131
O O4 0.990483 0.663603 0.000000
O O5 0.376867 0.436749 0.500000
O O6 0.329888 0.406257 0.220415
O O7 0.397796 0.561844 0.272837
O O8 0.462655 0.403753 0.260959
O O9 0.796935 0.643330 0.239774
O O10 0.697553 0.776873 0.256553
O O11 0.721030 0.697366 0.000000
O O12 0.350729 0.936061 0.500000
O O13 0.330164 0.041329 0.737422
O O14 0.466711 0.628958 0.500000
O O15 0.356111 0.153420 0.500000
#
# Coordination Sequence:
#
# PCOD8236751 Si02
#       6
#     8   8   8   8   8   8
#     4   9  15  29  56  84 103 128 177 234 268 292
#     4   9  16  30  51  77 105 137 179 219 253 301
#     4  11  22  35  51  78 116 146 169 209 272 335
#     4   9  20  34  51  80 110 135 173 224 270 312
#     4   8  14  25  49  82 104 123 170 230 262 286
#     4  10  19  36  61  80  98 135 184 226 261 308
#
# _framework density 20.294862999999999
#
# number of rings (size 3 to 8) (size 9 to 14) (size 15 to 20)
#    0.000    2.667    1.667    2.000    0.000    3.333 
#    0.000    5.000    0.000    4.000    0.000    0.000 
#    0.000    0.000    0.000    0.000    0.000    0.000 
#
# Total GULP energy -594630.278953 kJ/mol
# GULP energy per Si atom -12388.130812 kJ/mol
# Density = 2.024867 g / cm^3
# Si number density = 20.294863 Si / 1000 Ang^3
#
#
#
# Elastic Constant Matrix: (Units=GPa)
#
#
# Indices 1 2 3 4 5 6 
#
# 1 101.6746 67.0495 14.7505 0.0000 0.0000 0.0000
# 2 67.0495 154.4171 20.5930 0.0000 0.0000 0.0000
# 3 14.7505 20.5930 19.1717 0.0000 0.0000 0.0000
# 4 0.0000 0.0000 0.0000 22.1686 0.0000 0.0000
# 5 0.0000 0.0000 0.0000 0.0000 18.0759 0.0000
# 6 0.0000 0.0000 0.0000 0.0000 0.0000 32.9435
#
#
#
# Elastic Compliance Matrix: (Units=1/GPa)
#
#
# Indices 1 2 3 4 5 6 
#
# 1 0.014183 -0.005490 -0.005016 0.000000 0.000000 0.000000
# 2 -0.005490 0.009683 -0.006178 0.000000 0.000000 0.000000
# 3 -0.005016 -0.006178 0.062655 0.000000 0.000000 0.000000
# 4 0.000000 0.000000 0.000000 0.045109 0.000000 0.000000
# 5 0.000000 0.000000 0.000000 0.000000 0.055322 0.000000
# 6 0.000000 0.000000 0.000000 0.000000 0.000000 0.030355
#
#
# Mechanical properties :
#
#
# Convention : Reuss Voigt Hill
#
# Bulk Modulus (GPa) = 18.81275 53.33879 36.07577
# Shear Modulus (GPa) = 18.62947 26.16231 22.39589
#
# Velocity S-wave (km/s) = 3.03304 3.59431 3.32554
# Velocity P-wave (km/s) = 4.64280 6.60033 5.70614
#
# Compressibility (1/GPa) = 0.05315545
#
# Stress axis : x y z
#
# Youngs Moduli (GPa) = 70.50677 103.26916 15.96041
#
# Poissons Ratio (x) = 0.56690 0.08005
# Poissons Ratio (y) = 0.38705 0.09860
# Poissons Ratio (z) = 0.35365 0.63797
#
# Static dielectric constant tensor:
#      x y z
#    x 3.833270 0.000000 0.000000 
#    y 0.000000 4.343550 0.000000 
#    z 0.000000 0.000000 3.024000 
# 
# 
# High freq. dielectric constant tensor:
#      x y z
#    x 1.786930 0.000000 0.000000 
#    y 0.000000 1.814000 0.000000 
#    z 0.000000 0.000000 1.723030 
# 
# From -- ./inp_files/7722.got.cif
#   From: 2010.06.25/outbox.cif.g09.slc.cpg/sg58_4_cif.got.tgz:7722.got - 2010.06.26 21:38:00.
