data_PCOD8236366
_publ_section_title
;
Structure prediction by ZEFSAII (Michael W. Deem and Ramdas Pophale) SiO2 
 PCOD8236366
Probable space group: P N N M
;
_chemical_formula_sum "Si O2"
_cell_formula_units_Z 64
_cell_length_a 14.238486
_cell_length_b 27.993979
_cell_length_c 9.127148
_cell_angle_alpha 90.000000
_cell_angle_beta 90.000000
_cell_angle_gamma 90.000000
_cell_volume 3638.007063
_symmetry_space_group_name_H-M "P N N M"
_symmetry_group_IT_number 58
_symmetry_cell_setting 'orthorhombic'
loop_
_space_group_symop_operation_xyz
x,y,z
-x,-y,z
1/2+x,1/2-y,1/2-z
1/2-x,1/2+y,1/2-z
-x,-y,-z
x,y,-z
1/2-x,1/2+y,1/2+z
1/2+x,1/2-y,1/2+z
loop_
_atom_site_type_symbol
_atom_site_label
_atom_site_fract_x
_atom_site_fract_y
_atom_site_fract_z
Si Si1 0.400072 0.320050 0.834762
Si Si2 0.290628 0.000384 0.331583
Si Si3 0.949930 0.870190 0.826174
Si Si4 0.585603 0.466484 0.830831
Si Si5 0.191145 0.304710 0.828050
Si Si6 0.055547 0.549309 0.665111
Si Si7 0.395233 0.905557 0.328998
Si Si8 0.909815 0.780206 0.334004
O O1 0.442574 0.362327 0.732196
O O2 0.299805 0.301765 0.777312
O O3 0.475541 0.276260 0.833905
O O4 0.387985 0.340751 0.000000
O O5 0.316393 0.009175 0.500000
O O6 0.323637 0.947642 0.282318
O O7 0.180046 0.003647 0.302860
O O8 0.343848 0.041832 0.241540
O O9 0.911634 0.920662 0.772665
O O10 0.883443 0.828487 0.756484
O O11 0.946771 0.867195 0.000000
O O12 0.500000 0.500000 0.783391
O O13 0.576264 0.450317 0.000000
O O14 0.152251 0.356191 0.782379
O O15 0.132952 0.265749 0.741219
O O16 0.180076 0.294806 0.000000
O O17 0.072957 0.566350 0.500000
O O18 0.000000 0.500000 0.673944
O O19 0.994597 0.589724 0.746297
O O20 0.417216 0.907312 0.500000
O O21 0.871635 0.784610 0.500000
#
# Coordination Sequence:
#
# PCOD8236366 Si02
#       8
#     8   8   8   8   8   8   8   8
#     4   8  18  35  56  78 107 141 173 215 268 322
#     4   9  18  32  52  76 103 142 186 222 265 320
#     4  10  20  36  56  77 107 144 181 223 271 318
#     4  10  21  35  56  82 111 145 185 229 273 329
#     4  10  19  33  57  85 110 138 178 224 272 322
#     4   9  17  31  49  69  99 138 174 215 268 319
#     4   9  18  31  52  80 107 137 177 226 268 318
#     4   9  19  36  56  77 106 140 177 217 265 322
#
# _framework density 17.59205
#
# number of rings (size 3 to 8) (size 9 to 14) (size 15 to 20)
#    0.750    2.000    0.000    1.500    1.750    3.250 
#    0.000    1.250    0.000    3.000    0.000    0.000 
#    0.000    0.000    0.000    0.000    0.000    0.000 
#
# Total GULP energy -793274.036461 kJ/mol
# GULP energy per Si atom -12394.906820 kJ/mol
# Density = 1.755201 g / cm^3
# Si number density = 17.592050 Si / 1000 Ang^3
#
#
#
# Elastic Constant Matrix: (Units=GPa)
#
#
# Indices 1 2 3 4 5 6 
#
# 1 84.4653 45.6549 35.6006 0.0000 0.0000 0.0000
# 2 45.6549 105.7029 56.5009 0.0000 0.0000 0.0000
# 3 35.6006 56.5009 92.8539 0.0000 0.0000 0.0000
# 4 0.0000 0.0000 0.0000 30.2765 0.0000 0.0000
# 5 0.0000 0.0000 0.0000 0.0000 17.2966 0.0000
# 6 0.0000 0.0000 0.0000 0.0000 0.0000 25.6338
#
#
#
# Elastic Compliance Matrix: (Units=1/GPa)
#
#
# Indices 1 2 3 4 5 6 
#
# 1 0.015937 -0.005361 -0.002848 0.000000 0.000000 0.000000
# 2 -0.005361 0.015824 -0.007573 0.000000 0.000000 0.000000
# 3 -0.002848 -0.007573 0.016470 0.000000 0.000000 0.000000
# 4 0.000000 0.000000 0.000000 0.033029 0.000000 0.000000
# 5 0.000000 0.000000 0.000000 0.000000 0.057815 0.000000
# 6 0.000000 0.000000 0.000000 0.000000 0.000000 0.039011
#
#
# Mechanical properties :
#
#
# Convention : Reuss Voigt Hill
#
# Bulk Modulus (GPa) = 60.00243 62.05941 61.03092
# Shear Modulus (GPa) = 23.23338 24.32577 23.77958
#
# Velocity S-wave (km/s) = 3.63805 3.72260 3.68057
# Velocity P-wave (km/s) = 7.19923 7.33693 7.26841
#
# Compressibility (1/GPa) = 0.01666599
#
# Stress axis : x y z
#
# Youngs Moduli (GPa) = 62.74517 63.19398 60.71634
#
# Poissons Ratio (x) = 0.33880 0.17293
# Poissons Ratio (y) = 0.33639 0.45983
# Poissons Ratio (z) = 0.17871 0.47860
#
# Static dielectric constant tensor:
#      x y z
#    x 3.232230 0.000000 0.000000 
#    y 0.000000 3.036550 0.000000 
#    z 0.000000 0.000000 3.236780 
# 
# 
# High freq. dielectric constant tensor:
#      x y z
#    x 1.672500 0.000000 0.000000 
#    y 0.000000 1.658210 0.000000 
#    z 0.000000 0.000000 1.679290 
# 
# From -- ./inp_files/7172.got.cif
#   From: 2010.06.25/outbox.cif.g09.slc.cpg/sg58_4_cif.got.tgz:7172.got - 2010.06.26 21:38:00.
