data_PCOD8236935
_publ_section_title
;
Structure prediction by ZEFSAII (Michael W. Deem and Ramdas Pophale) SiO2 
 PCOD8236935
Probable space group: P N N M
;
_chemical_formula_sum "Si O2"
_cell_formula_units_Z 40
_cell_length_a 18.856008
_cell_length_b 12.538500
_cell_length_c 8.933338
_cell_angle_alpha 90.000000
_cell_angle_beta 90.000000
_cell_angle_gamma 90.000000
_cell_volume 2112.073873
_symmetry_space_group_name_H-M "P N N M"
_symmetry_group_IT_number 58
_symmetry_cell_setting 'orthorhombic'
loop_
_space_group_symop_operation_xyz
x,y,z
-x,-y,z
1/2+x,1/2-y,1/2-z
1/2-x,1/2+y,1/2-z
-x,-y,-z
x,y,-z
1/2-x,1/2+y,1/2+z
1/2+x,1/2-y,1/2+z
loop_
_atom_site_type_symbol
_atom_site_label
_atom_site_fract_x
_atom_site_fract_y
_atom_site_fract_z
Si Si1 0.309460 0.894892 0.822286
Si Si2 0.336822 0.454344 0.177711
Si Si3 0.045841 0.789744 0.321981
Si Si4 0.112507 0.182607 0.677797
Si Si5 0.071062 0.554402 0.322026
O O1 0.233697 0.908174 0.748774
O O2 0.341826 0.782877 0.765762
O O3 0.360347 0.990046 0.764808
O O4 0.301618 0.896505 0.000000
O O5 0.402089 0.382189 0.235096
O O6 0.350402 0.574468 0.235087
O O7 0.329838 0.449459 0.000000
O O8 0.042353 0.789296 0.500000
O O9 0.075140 0.675855 0.263864
O O10 0.967219 0.810255 0.256639
O O11 0.107961 0.182884 0.500000
O O12 0.068249 0.549952 0.500000
O O13 0.000000 0.500000 0.257120
#
# Coordination Sequence:
#
# PCOD8236935 Si02
#       5
#     8   8   8   8   8
#     4  10  20  33  51  74 102 134 164 200 250 299
#     4  10  21  33  50  76 104 131 162 205 253 296
#     4   9  16  29  51  75  96 124 169 213 244 280
#     4   9  17  32  51  73 100 130 166 208 248 288
#     4   9  15  27  48  74  97 122 164 212 243 275
#
# _framework density 18.938731000000001
#
# number of rings (size 3 to 8) (size 9 to 14) (size 15 to 20)
#    0.000    2.600    2.000    0.600    2.800    2.400 
#    0.000    0.000    0.000    4.200    0.000    0.000 
#    0.000    0.000    0.000    0.000    0.000    0.000 
#
# Total GULP energy -495936.580713 kJ/mol
# GULP energy per Si atom -12398.414518 kJ/mol
# Density = 1.889563 g / cm^3
# Si number density = 18.938731 Si / 1000 Ang^3
#
#
#
# Elastic Constant Matrix: (Units=GPa)
#
#
# Indices 1 2 3 4 5 6 
#
# 1 178.2839 97.9118 21.4226 0.0000 0.0000 0.0000
# 2 97.9118 181.1580 17.9240 0.0000 0.0000 0.0000
# 3 21.4226 17.9240 10.3681 0.0000 0.0000 0.0000
# 4 0.0000 0.0000 0.0000 10.1920 0.0000 0.0000
# 5 0.0000 0.0000 0.0000 0.0000 24.3132 0.0000
# 6 0.0000 0.0000 0.0000 0.0000 0.0000 38.9462
#
#
#
# Elastic Compliance Matrix: (Units=1/GPa)
#
#
# Indices 1 2 3 4 5 6 
#
# 1 0.009146 -0.003707 -0.012487 0.000000 0.000000 0.000000
# 2 -0.003707 0.008162 -0.006450 0.000000 0.000000 0.000000
# 3 -0.012487 -0.006450 0.133401 0.000000 0.000000 0.000000
# 4 0.000000 0.000000 0.000000 0.098116 0.000000 0.000000
# 5 0.000000 0.000000 0.000000 0.000000 0.041130 0.000000
# 6 0.000000 0.000000 0.000000 0.000000 0.000000 0.025676
#
#
# Mechanical properties :
#
#
# Convention : Reuss Voigt Hill
#
# Bulk Modulus (GPa) = 9.48592 71.59186 40.53889
# Shear Modulus (GPa) = 12.62435 30.19372 21.40903
#
# Velocity S-wave (km/s) = 2.58464 3.99718 3.36584
# Velocity P-wave (km/s) = 3.73186 7.69332 6.04624
#
# Compressibility (1/GPa) = 0.10541944
#
# Stress axis : x y z
#
# Youngs Moduli (GPa) = 109.34189 122.51895 7.49621
#
# Poissons Ratio (x) = 0.45424 0.09361
# Poissons Ratio (y) = 0.40539 0.04835
# Poissons Ratio (z) = 1.36538 0.79021
#
# Static dielectric constant tensor:
#      x y z
#    x 3.563120 0.000000 0.000000 
#    y 0.000000 3.880820 0.000000 
#    z 0.000000 0.000000 2.742330 
# 
# 
# High freq. dielectric constant tensor:
#      x y z
#    x 1.748230 0.000000 0.000000 
#    y 0.000000 1.757880 0.000000 
#    z 0.000000 0.000000 1.658800 
# 
# From -- ./inp_files/3771.got.cif
#   From: 2010.06.25/outbox.cif.g09.slc.cpg/sg58_2_cif.got.tgz:3771.got - 2010.06.26 21:38:00.
