data_PCOD8236058
_publ_section_title
;
Structure prediction by ZEFSAII (Michael W. Deem and Ramdas Pophale) SiO2 
 PCOD8236058
Probable space group: P N N M
;
_chemical_formula_sum "Si O2"
_cell_formula_units_Z 64
_cell_length_a 29.583040
_cell_length_b 12.997953
_cell_length_c 8.800721
_cell_angle_alpha 90.000000
_cell_angle_beta 90.000000
_cell_angle_gamma 90.000000
_cell_volume 3384.044117
_symmetry_space_group_name_H-M "P N N M"
_symmetry_group_IT_number 58
_symmetry_cell_setting 'orthorhombic'
loop_
_space_group_symop_operation_xyz
x,y,z
-x,-y,z
1/2+x,1/2-y,1/2-z
1/2-x,1/2+y,1/2-z
-x,-y,-z
x,y,-z
1/2-x,1/2+y,1/2+z
1/2+x,1/2-y,1/2+z
loop_
_atom_site_type_symbol
_atom_site_label
_atom_site_fract_x
_atom_site_fract_y
_atom_site_fract_z
Si Si1 0.034545 0.215716 0.317889
Si Si2 0.192437 0.122953 0.177666
Si Si3 0.603287 0.458562 0.180549
Si Si4 0.066118 0.824145 0.319181
Si Si5 0.419400 0.913220 0.831790
Si Si6 0.288026 0.048587 0.820250
Si Si7 0.883341 0.377665 0.317565
Si Si8 0.319358 0.830800 0.168734
O O1 0.036568 0.217890 0.500000
O O2 0.047408 0.329662 0.251326
O O3 0.984901 0.187003 0.257924
O O4 0.069651 0.129823 0.257002
O O5 0.241099 0.090642 0.246587
O O6 0.187652 0.243441 0.207330
O O7 0.153774 0.058368 0.260862
O O8 0.189037 0.100063 0.000000
O O9 0.586383 0.569014 0.242266
O O10 0.603924 0.457329 0.000000
O O11 0.066109 0.822908 0.500000
O O12 0.096122 0.729131 0.256891
O O13 0.371455 0.858334 0.841231
O O14 0.413541 0.025648 0.752860
O O15 0.438801 0.932930 0.000000
O O16 0.331676 0.111538 0.757072
O O17 0.291083 0.929027 0.774487
O O18 0.288419 0.060193 0.000000
O O19 0.883784 0.384434 0.500000
O O20 0.303548 0.794741 0.000000
#
# Coordination Sequence:
#
# PCOD8236058 Si02
#       8
#     8   8   8   8   8   8   8   8
#     4   9  15  25  43  69  95 125 164 200 241 291
#     4  11  21  32  49  75  99 125 164 209 243 276
#     4  10  19  32  48  68  99 135 165 197 242 294
#     4   9  17  26  42  69 100 129 158 200 247 292
#     4   8  13  23  44  67  90 121 154 191 235 287
#     4   8  17  31  47  66  95 129 158 193 247 299
#     4   8  14  26  41  64  98 129 154 192 251 298
#     4   9  16  32  52  68  90 127 161 190 238 295
#
# _framework density 18.912284
#
# number of rings (size 3 to 8) (size 9 to 14) (size 15 to 20)
#    0.000    3.000    1.250    2.250    0.000    3.000 
#    0.000    5.000    0.000    1.500    0.000    3.500 
#    0.000    4.000    0.000    0.000    0.000    0.000 
#
# Total GULP energy -793057.481623 kJ/mol
# GULP energy per Si atom -12391.523150 kJ/mol
# Density = 1.886924 g / cm^3
# Si number density = 18.912284 Si / 1000 Ang^3
#
#
#
# Elastic Constant Matrix: (Units=GPa)
#
#
# Indices 1 2 3 4 5 6 
#
# 1 122.4025 76.6888 9.2597 0.0000 0.0000 0.0000
# 2 76.6888 140.5726 9.2508 0.0000 0.0000 0.0000
# 3 9.2597 9.2508 9.1185 0.0000 0.0000 0.0000
# 4 0.0000 0.0000 0.0000 9.1262 0.0000 0.0000
# 5 0.0000 0.0000 0.0000 0.0000 16.6556 0.0000
# 6 0.0000 0.0000 0.0000 0.0000 0.0000 20.6581
#
#
#
# Elastic Compliance Matrix: (Units=1/GPa)
#
#
# Indices 1 2 3 4 5 6 
#
# 1 0.012742 -0.006536 -0.006308 0.000000 0.000000 0.000000
# 2 -0.006536 0.010976 -0.004497 0.000000 0.000000 0.000000
# 3 -0.006308 -0.004497 0.120636 0.000000 0.000000 0.000000
# 4 0.000000 0.000000 0.000000 0.109575 0.000000 0.000000
# 5 0.000000 0.000000 0.000000 0.000000 0.060040 0.000000
# 6 0.000000 0.000000 0.000000 0.000000 0.000000 0.048407
#
#
# Mechanical properties :
#
#
# Convention : Reuss Voigt Hill
#
# Bulk Modulus (GPa) = 9.11825 51.38799 30.25312
# Shear Modulus (GPa) = 11.53093 21.08095 16.30594
#
# Velocity S-wave (km/s) = 2.47190 3.34229 2.93949
# Velocity P-wave (km/s) = 3.60262 6.49040 5.24901
#
# Compressibility (1/GPa) = 0.10967019
#
# Stress axis : x y z
#
# Youngs Moduli (GPa) = 78.47955 91.11141 8.28937
#
# Poissons Ratio (x) = 0.59553 0.05229
# Poissons Ratio (y) = 0.51297 0.03728
# Poissons Ratio (z) = 0.49508 0.40976
#
# Static dielectric constant tensor:
#      x y z
#    x 3.696930 0.000000 0.000000 
#    y 0.000000 3.816360 0.000000 
#    z 0.000000 0.000000 2.738210 
# 
# 
# High freq. dielectric constant tensor:
#      x y z
#    x 1.738790 0.000000 0.000000 
#    y 0.000000 1.748550 0.000000 
#    z 0.000000 0.000000 1.655080 
# 
# From -- ./inp_files/10935.got.cif
#   From: 2010.06.25/outbox.cif.g09.slc.cpg/sg58_6_cif.got.tgz:10935.got - 2010.06.26 21:38:00.
