data_PCOD8236221
_publ_section_title
;
Structure prediction by ZEFSAII (Michael W. Deem and Ramdas Pophale) SiO2 
 PCOD8236221
Probable space group: P N N M
;
_chemical_formula_sum "Si O2"
_cell_formula_units_Z 56
_cell_length_a 14.834199
_cell_length_b 20.683695
_cell_length_c 9.387400
_cell_angle_alpha 90.000000
_cell_angle_beta 90.000000
_cell_angle_gamma 90.000000
_cell_volume 2880.298840
_symmetry_space_group_name_H-M "P N N M"
_symmetry_group_IT_number 58
_symmetry_cell_setting 'orthorhombic'
loop_
_space_group_symop_operation_xyz
x,y,z
-x,-y,z
1/2+x,1/2-y,1/2-z
1/2-x,1/2+y,1/2-z
-x,-y,-z
x,y,-z
1/2-x,1/2+y,1/2+z
1/2+x,1/2-y,1/2+z
loop_
_atom_site_type_symbol
_atom_site_label
_atom_site_fract_x
_atom_site_fract_y
_atom_site_fract_z
Si Si1 0.476588 0.229621 0.838903
Si Si2 0.762368 0.100293 0.165943
Si Si3 0.567980 0.628294 0.159037
Si Si4 0.319551 0.765062 0.831763
Si Si5 0.061362 0.061518 0.158735
Si Si6 0.671970 0.838859 0.669965
Si Si7 0.269366 0.040422 0.838171
O O1 0.418785 0.295002 0.841722
O O2 0.577561 0.243622 0.779858
O O3 0.424577 0.182321 0.732247
O O4 0.481396 0.200505 0.000000
O O5 0.855452 0.093775 0.249692
O O6 0.709989 0.163624 0.221192
O O7 0.703471 0.034832 0.191940
O O8 0.787498 0.106221 0.000000
O O9 0.469886 0.615021 0.227615
O O10 0.570894 0.599866 0.000000
O O11 0.252751 0.708463 0.773333
O O12 0.314567 0.761064 0.000000
O O13 0.163345 0.043271 0.185866
O O14 0.047382 0.089251 0.000000
O O15 0.000000 0.000000 0.186249
O O16 0.666556 0.839394 0.500000
O O17 0.684738 0.911575 0.726664
O O18 0.296006 0.059984 0.000000
#
# Coordination Sequence:
#
# PCOD8236221 Si02
#       7
#     8   8   8   8   8   8   8
#     4  10  21  38  58  84 115 147 190 242 291 342
#     4  10  19  37  60  80 109 150 197 236 277 341
#     4  11  21  32  52  82 117 148 180 236 295 343
#     4   9  19  37  62  85 110 149 197 241 281 334
#     4  10  19  33  52  77 111 150 190 230 276 344
#     4  11  22  38  61  87 117 152 189 237 291 346
#     4  10  21  36  56  81 113 151 189 238 289 339
#
# _framework density 19.442426999999999
#
# number of rings (size 3 to 8) (size 9 to 14) (size 15 to 20)
#    0.000    1.857    2.857    1.714    0.000    3.143 
#    0.000    2.857    0.000    4.286    0.000    0.000 
#    0.000    0.000    0.000    0.000    0.000    0.000 
#
# Total GULP energy -694213.777652 kJ/mol
# GULP energy per Si atom -12396.674601 kJ/mol
# Density = 1.939817 g / cm^3
# Si number density = 19.442427 Si / 1000 Ang^3
#
#
#
# Elastic Constant Matrix: (Units=GPa)
#
#
# Indices 1 2 3 4 5 6 
#
# 1 58.6276 15.8390 20.5514 0.0000 0.0000 0.0000
# 2 15.8390 95.7381 33.2790 0.0000 0.0000 0.0000
# 3 20.5514 33.2790 76.2790 0.0000 0.0000 0.0000
# 4 0.0000 0.0000 0.0000 27.7747 0.0000 0.0000
# 5 0.0000 0.0000 0.0000 0.0000 25.1203 0.0000
# 6 0.0000 0.0000 0.0000 0.0000 0.0000 30.5285
#
#
#
# Elastic Compliance Matrix: (Units=1/GPa)
#
#
# Indices 1 2 3 4 5 6 
#
# 1 0.019044 -0.001612 -0.004428 0.000000 0.000000 0.000000
# 2 -0.001612 0.012449 -0.004997 0.000000 0.000000 0.000000
# 3 -0.004428 -0.004997 0.016483 0.000000 0.000000 0.000000
# 4 0.000000 0.000000 0.000000 0.036004 0.000000 0.000000
# 5 0.000000 0.000000 0.000000 0.000000 0.039809 0.000000
# 6 0.000000 0.000000 0.000000 0.000000 0.000000 0.032756
#
#
# Mechanical properties :
#
#
# Convention : Reuss Voigt Hill
#
# Bulk Modulus (GPa) = 38.60543 41.10928 39.85736
# Shear Modulus (GPa) = 26.70200 27.41638 27.05919
#
# Velocity S-wave (km/s) = 3.70995 3.75925 3.73468
# Velocity P-wave (km/s) = 6.18474 6.32713 6.25634
#
# Compressibility (1/GPa) = 0.02590309
#
# Stress axis : x y z
#
# Youngs Moduli (GPa) = 52.50897 80.32936 60.66921
#
# Poissons Ratio (x) = 0.12946 0.26864
# Poissons Ratio (y) = 0.08462 0.30316
# Poissons Ratio (z) = 0.23250 0.40140
#
# Static dielectric constant tensor:
#      x y z
#    x 3.474100 0.000000 0.000000 
#    y 0.000000 3.788450 0.000000 
#    z 0.000000 0.000000 3.421910 
# 
# 
# High freq. dielectric constant tensor:
#      x y z
#    x 1.738600 0.000000 0.000000 
#    y 0.000000 1.759630 0.000000 
#    z 0.000000 0.000000 1.740740 
# 
# From -- ./inp_files/6296.got.cif
#   From: 2010.06.25/outbox.cif.g09.slc.cpg/sg58_4_cif.got.tgz:6296.got - 2010.06.26 21:38:00.
