data_PCOD8236508
_publ_section_title
;
Structure prediction by ZEFSAII (Michael W. Deem and Ramdas Pophale) SiO2 
 PCOD8236508
Probable space group: P N N M
;
_chemical_formula_sum "Si O2"
_cell_formula_units_Z 64
_cell_length_a 14.895732
_cell_length_b 24.710604
_cell_length_c 8.707548
_cell_angle_alpha 90.000000
_cell_angle_beta 90.000000
_cell_angle_gamma 90.000000
_cell_volume 3205.096339
_symmetry_space_group_name_H-M "P N N M"
_symmetry_group_IT_number 58
_symmetry_cell_setting 'orthorhombic'
loop_
_space_group_symop_operation_xyz
x,y,z
-x,-y,z
1/2+x,1/2-y,1/2-z
1/2-x,1/2+y,1/2-z
-x,-y,-z
x,y,-z
1/2-x,1/2+y,1/2+z
1/2+x,1/2-y,1/2+z
loop_
_atom_site_type_symbol
_atom_site_label
_atom_site_fract_x
_atom_site_fract_y
_atom_site_fract_z
Si Si1 0.290966 0.646661 0.682338
Si Si2 0.031070 0.279277 0.825501
Si Si3 0.193288 0.445563 0.321601
Si Si4 0.524500 0.334168 0.822907
Si Si5 0.168493 0.868380 0.678886
Si Si6 0.160152 0.559411 0.179404
Si Si7 0.507062 0.109958 0.821632
Si Si8 0.238556 0.263925 0.826918
O O1 0.298757 0.650293 0.500000
O O2 0.391164 0.636206 0.745103
O O3 0.225877 0.599194 0.730412
O O4 0.254474 0.704296 0.750601
O O5 0.999625 0.223148 0.752511
O O6 0.988226 0.328799 0.731400
O O7 0.137485 0.284924 0.817350
O O8 0.996439 0.282140 0.000000
O O9 0.196579 0.461742 0.500000
O O10 0.284914 0.415660 0.275275
O O11 0.186559 0.498668 0.219138
O O12 0.108984 0.406900 0.285712
O O13 0.438698 0.373452 0.802133
O O14 0.546680 0.323799 0.000000
O O15 0.197412 0.872943 0.500000
O O16 0.199674 0.810126 0.749746
O O17 0.057916 0.569580 0.229877
O O18 0.171548 0.569499 0.000000
O O19 0.483699 0.104837 0.000000
O O20 0.272239 0.257274 0.000000
#
# Coordination Sequence:
#
# PCOD8236508 Si02
#       8
#     8   8   8   8   8   8   8   8
#     4  10  21  40  63  87 122 162 202 255 307 359
#     4  10  19  34  57  86 122 162 204 246 297 359
#     4  11  24  42  63  90 122 158 202 253 302 358
#     4  10  21  36  59  90 126 164 204 250 306 365
#     4  10  20  37  61  89 122 162 202 246 301 360
#     4  12  26  42  63  89 118 159 206 253 303 367
#     4  11  23  39  60  89 124 160 200 248 304 364
#     4   8  16  32  56  84 117 157 194 236 296 354
#
# _framework density 19.968198000000001
#
# number of rings (size 3 to 8) (size 9 to 14) (size 15 to 20)
#    0.000    1.750    1.250    4.125    1.750    4.000 
#    0.000    1.250    0.000    3.750    0.000    0.000 
#    0.000    0.000    0.000    0.000    0.000    0.000 
#
# Total GULP energy -793694.049407 kJ/mol
# GULP energy per Si atom -12401.469522 kJ/mol
# Density = 1.992275 g / cm^3
# Si number density = 19.968198 Si / 1000 Ang^3
#
#
#
# Elastic Constant Matrix: (Units=GPa)
#
#
# Indices 1 2 3 4 5 6 
#
# 1 56.5471 21.7809 22.8920 0.0000 0.0000 0.0000
# 2 21.7809 67.3629 17.0719 0.0000 0.0000 0.0000
# 3 22.8920 17.0719 64.7155 0.0000 0.0000 0.0000
# 4 0.0000 0.0000 0.0000 31.0316 0.0000 0.0000
# 5 0.0000 0.0000 0.0000 0.0000 30.7234 0.0000
# 6 0.0000 0.0000 0.0000 0.0000 0.0000 27.2013
#
#
#
# Elastic Compliance Matrix: (Units=1/GPa)
#
#
# Indices 1 2 3 4 5 6 
#
# 1 0.022468 -0.005627 -0.006463 0.000000 0.000000 0.000000
# 2 -0.005627 0.017318 -0.002578 0.000000 0.000000 0.000000
# 3 -0.006463 -0.002578 0.018419 0.000000 0.000000 0.000000
# 4 0.000000 0.000000 0.000000 0.032225 0.000000 0.000000
# 5 0.000000 0.000000 0.000000 0.000000 0.032549 0.000000
# 6 0.000000 0.000000 0.000000 0.000000 0.000000 0.036763
#
#
# Mechanical properties :
#
#
# Convention : Reuss Voigt Hill
#
# Bulk Modulus (GPa) = 34.64024 34.67946 34.65985
# Shear Modulus (GPa) = 25.16349 26.24995 25.70672
#
# Velocity S-wave (km/s) = 3.55375 3.62966 3.59190
# Velocity P-wave (km/s) = 5.85015 5.91362 5.88197
#
# Compressibility (1/GPa) = 0.02886816
#
# Stress axis : x y z
#
# Youngs Moduli (GPa) = 44.50711 57.74450 54.29277
#
# Poissons Ratio (x) = 0.32492 0.35092
# Poissons Ratio (y) = 0.25043 0.13997
# Poissons Ratio (z) = 0.28767 0.14887
#
# Static dielectric constant tensor:
#      x y z
#    x 3.611810 0.000000 0.000000 
#    y 0.000000 3.582480 0.000000 
#    z 0.000000 0.000000 3.595050 
# 
# 
# High freq. dielectric constant tensor:
#      x y z
#    x 1.777970 0.000000 0.000000 
#    y 0.000000 1.772500 0.000000 
#    z 0.000000 0.000000 1.775440 
# 
# From -- ./inp_files/6779.got.cif
#   From: 2010.06.25/outbox.cif.g09.slc.cpg/sg58_4_cif.got.tgz:6779.got - 2010.06.26 21:38:00.
