data_PCOD8236645
_publ_section_title
;
Structure prediction by ZEFSAII (Michael W. Deem and Ramdas Pophale) SiO2 
 PCOD8236645
Probable space group: P N N M
;
_chemical_formula_sum "Si O2"
_cell_formula_units_Z 48
_cell_length_a 12.415340
_cell_length_b 21.735031
_cell_length_c 8.958961
_cell_angle_alpha 90.000000
_cell_angle_beta 90.000000
_cell_angle_gamma 90.000000
_cell_volume 2417.555914
_symmetry_space_group_name_H-M "P N N M"
_symmetry_group_IT_number 58
_symmetry_cell_setting 'orthorhombic'
loop_
_space_group_symop_operation_xyz
x,y,z
-x,-y,z
1/2+x,1/2-y,1/2-z
1/2-x,1/2+y,1/2-z
-x,-y,-z
x,y,-z
1/2-x,1/2+y,1/2+z
1/2+x,1/2-y,1/2+z
loop_
_atom_site_type_symbol
_atom_site_label
_atom_site_fract_x
_atom_site_fract_y
_atom_site_fract_z
Si Si1 0.242422 0.897133 0.177781
Si Si2 0.083351 0.302579 0.676116
Si Si3 0.007375 0.928795 0.176944
Si Si4 0.882834 0.492944 0.326722
Si Si5 0.356454 0.668487 0.824433
Si Si6 0.857134 0.353144 0.673330
O O1 0.310457 0.838357 0.238448
O O2 0.119161 0.898213 0.235234
O O3 0.299504 0.958447 0.243014
O O4 0.239013 0.898578 0.000000
O O5 0.085639 0.311153 0.500000
O O6 0.082373 0.231179 0.721813
O O7 0.973505 0.333005 0.737671
O O8 0.910364 0.890140 0.247168
O O9 0.995209 0.924739 0.000000
O O10 0.000000 0.000000 0.228345
O O11 0.895666 0.509533 0.500000
O O12 0.838012 0.425227 0.302118
O O13 0.000000 0.500000 0.250089
O O14 0.234853 0.679559 0.768978
O O15 0.357147 0.657924 0.000000
O O16 0.846043 0.334728 0.500000
#
# Coordination Sequence:
#
# PCOD8236645 Si02
#       6
#     8   8   8   8   8   8
#     4   9  16  29  52  82 114 141 174 230 286 328
#     4   9  19  34  52  80 113 147 185 227 280 339
#     4  10  21  38  61  88 112 142 193 245 284 332
#     4   9  14  25  51  86 111 129 167 228 286 320
#     4  11  24  38  54  80 116 155 189 225 283 347
#     4  10  19  35  59  83 108 141 187 236 277 326
#
# _framework density 19.854762000000001
#
# number of rings (size 3 to 8) (size 9 to 14) (size 15 to 20)
#    0.000    2.333    1.667    1.500    2.333    3.000 
#    0.000    0.833    0.000    1.500    0.000    0.000 
#    0.000    0.000    0.000    0.000    0.000    0.000 
#
# Total GULP energy -595027.369873 kJ/mol
# GULP energy per Si atom -12396.403539 kJ/mol
# Density = 1.980957 g / cm^3
# Si number density = 19.854762 Si / 1000 Ang^3
#
#
#
# Elastic Constant Matrix: (Units=GPa)
#
#
# Indices 1 2 3 4 5 6 
#
# 1 135.6789 49.3240 22.4510 0.0000 0.0000 0.0000
# 2 49.3240 111.4269 29.5515 0.0000 0.0000 0.0000
# 3 22.4510 29.5515 25.0222 0.0000 0.0000 0.0000
# 4 0.0000 0.0000 0.0000 15.2622 0.0000 0.0000
# 5 0.0000 0.0000 0.0000 0.0000 19.1720 0.0000
# 6 0.0000 0.0000 0.0000 0.0000 0.0000 32.3890
#
#
#
# Elastic Compliance Matrix: (Units=1/GPa)
#
#
# Indices 1 2 3 4 5 6 
#
# 1 0.009197 -0.002741 -0.005014 0.000000 0.000000 0.000000
# 2 -0.002741 0.013884 -0.013938 0.000000 0.000000 0.000000
# 3 -0.005014 -0.013938 0.060925 0.000000 0.000000 0.000000
# 4 0.000000 0.000000 0.000000 0.065521 0.000000 0.000000
# 5 0.000000 0.000000 0.000000 0.000000 0.052159 0.000000
# 6 0.000000 0.000000 0.000000 0.000000 0.000000 0.030875
#
#
# Mechanical properties :
#
#
# Convention : Reuss Voigt Hill
#
# Bulk Modulus (GPa) = 24.61931 52.75345 38.68638
# Shear Modulus (GPa) = 17.27188 24.75141 21.01164
#
# Velocity S-wave (km/s) = 2.95263 3.53459 3.25663
# Velocity P-wave (km/s) = 4.90414 6.57914 5.80240
#
# Compressibility (1/GPa) = 0.04061853
#
# Stress axis : x y z
#
# Youngs Moduli (GPa) = 108.73655 72.02324 16.41368
#
# Poissons Ratio (x) = 0.19742 0.08230
# Poissons Ratio (y) = 0.29806 0.22878
# Poissons Ratio (z) = 0.54524 1.00388
#
# Static dielectric constant tensor:
#      x y z
#    x 3.889850 0.000000 0.000000 
#    y 0.000000 3.728150 0.000000 
#    z 0.000000 0.000000 2.970900 
# 
# 
# High freq. dielectric constant tensor:
#      x y z
#    x 1.792660 0.000000 0.000000 
#    y 0.000000 1.783260 0.000000 
#    z 0.000000 0.000000 1.705000 
# 
# From -- ./inp_files/4257.got.cif
#   From: 2010.06.25/outbox.cif.g09.slc.cpg/sg58_3_cif.got.tgz:4257.got - 2010.06.26 21:38:00.
