data_PCOD8236450
_publ_section_title
;
Structure prediction by ZEFSAII (Michael W. Deem and Ramdas Pophale) SiO2 
 PCOD8236450
Probable space group: P N N M
;
_chemical_formula_sum "Si O2"
_cell_formula_units_Z 56
_cell_length_a 21.581252
_cell_length_b 15.113487
_cell_length_c 8.592487
_cell_angle_alpha 90.000000
_cell_angle_beta 90.000000
_cell_angle_gamma 90.000000
_cell_volume 2802.594055
_symmetry_space_group_name_H-M "P N N M"
_symmetry_group_IT_number 58
_symmetry_cell_setting 'orthorhombic'
loop_
_space_group_symop_operation_xyz
x,y,z
-x,-y,z
1/2+x,1/2-y,1/2-z
1/2-x,1/2+y,1/2-z
-x,-y,-z
x,y,-z
1/2-x,1/2+y,1/2+z
1/2+x,1/2-y,1/2+z
loop_
_atom_site_type_symbol
_atom_site_label
_atom_site_fract_x
_atom_site_fract_y
_atom_site_fract_z
Si Si1 0.477731 0.135666 0.183869
Si Si2 0.570308 0.516432 0.184755
Si Si3 0.265169 0.232204 0.683946
Si Si4 0.893212 0.211487 0.315751
Si Si5 0.275205 0.922753 0.184640
Si Si6 0.907660 0.533865 0.685614
Si Si7 0.184600 0.072612 0.815753
O O1 0.454267 0.232486 0.234897
O O2 0.547864 0.115395 0.239893
O O3 0.433216 0.058788 0.251371
O O4 0.475125 0.127434 0.000000
O O5 0.500000 0.500000 0.245271
O O6 0.595700 0.611762 0.246845
O O7 0.615040 0.437880 0.247158
O O8 0.570824 0.514517 0.000000
O O9 0.263837 0.220188 0.500000
O O10 0.336006 0.235015 0.741143
O O11 0.236707 0.324200 0.741909
O O12 0.221949 0.157903 0.758908
O O13 0.883664 0.211162 0.500000
O O14 0.340224 0.952450 0.259241
O O15 0.221775 0.987182 0.246928
O O16 0.277123 0.927988 0.000000
O O17 0.903391 0.532446 0.500000
O O18 0.179933 0.076495 0.000000
#
# Coordination Sequence:
#
# PCOD8236450 Si02
#       7
#     8   8   8   8   8   8   8
#     4   8  14  24  44  74 104 135 175 222 275 333
#     4  10  22  39  59  85 118 157 201 252 305 357
#     4  11  22  36  56  84 113 148 194 245 298 352
#     4  10  19  34  56  81 111 151 196 241 292 355
#     4   9  18  32  52  77 109 144 182 232 285 342
#     4   8  13  24  43  72 106 135 170 223 279 329
#     4  11  22  39  60  85 116 153 198 247 302 363
#
# _framework density 19.981487999999999
#
# number of rings (size 3 to 8) (size 9 to 14) (size 15 to 20)
#    0.000    2.429    1.429    2.571    0.000    3.714 
#    0.000    4.286    0.000    0.000    0.000    9.000 
#    0.000    0.000    0.000    0.000    0.000    0.000 
#
# Total GULP energy -693991.690154 kJ/mol
# GULP energy per Si atom -12392.708753 kJ/mol
# Density = 1.993601 g / cm^3
# Si number density = 19.981488 Si / 1000 Ang^3
#
#
#
# Elastic Constant Matrix: (Units=GPa)
#
#
# Indices 1 2 3 4 5 6 
#
# 1 143.5348 48.9228 23.0970 0.0000 0.0000 0.0000
# 2 48.9228 109.8227 18.9020 0.0000 0.0000 0.0000
# 3 23.0970 18.9020 28.8782 0.0000 0.0000 0.0000
# 4 0.0000 0.0000 0.0000 20.5187 0.0000 0.0000
# 5 0.0000 0.0000 0.0000 0.0000 21.4931 0.0000
# 6 0.0000 0.0000 0.0000 0.0000 0.0000 39.1727
#
#
#
# Elastic Compliance Matrix: (Units=1/GPa)
#
#
# Indices 1 2 3 4 5 6 
#
# 1 0.008823 -0.003061 -0.005054 0.000000 0.000000 0.000000
# 2 -0.003061 0.011323 -0.004964 0.000000 0.000000 0.000000
# 3 -0.005054 -0.004964 0.041919 0.000000 0.000000 0.000000
# 4 0.000000 0.000000 0.000000 0.048736 0.000000 0.000000
# 5 0.000000 0.000000 0.000000 0.000000 0.046527 0.000000
# 6 0.000000 0.000000 0.000000 0.000000 0.000000 0.025528
#
#
# Mechanical properties :
#
#
# Convention : Reuss Voigt Hill
#
# Bulk Modulus (GPa) = 27.84754 51.56435 39.70594
# Shear Modulus (GPa) = 22.62624 28.99115 25.80870
#
# Velocity S-wave (km/s) = 3.36871 3.81320 3.59782
# Velocity P-wave (km/s) = 5.39424 6.72677 6.09702
#
# Compressibility (1/GPa) = 0.03590982
#
# Stress axis : x y z
#
# Youngs Moduli (GPa) = 113.33509 88.31294 23.85552
#
# Poissons Ratio (x) = 0.27031 0.12056
# Poissons Ratio (y) = 0.34689 0.11841
# Poissons Ratio (z) = 0.57275 0.43835
#
# Static dielectric constant tensor:
#      x y z
#    x 4.004760 0.000000 0.000000 
#    y 0.000000 3.861070 0.000000 
#    z 0.000000 0.000000 3.109800 
# 
# 
# High freq. dielectric constant tensor:
#      x y z
#    x 1.793580 0.000000 0.000000 
#    y 0.000000 1.782730 0.000000 
#    z 0.000000 0.000000 1.730560 
# 
# From -- ./inp_files/9087.got.cif
#   From: 2010.06.25/outbox.cif.g09.slc.cpg/sg58_5_cif.got.tgz:9087.got - 2010.06.26 21:38:00.
