data_PCOD8236084
_publ_section_title
;
Structure prediction by ZEFSAII (Michael W. Deem and Ramdas Pophale) SiO2 
 PCOD8236084
Probable space group: P N N M
;
_chemical_formula_sum "Si O2"
_cell_formula_units_Z 48
_cell_length_a 17.312444
_cell_length_b 10.657633
_cell_length_c 14.096704
_cell_angle_alpha 90.000000
_cell_angle_beta 90.000000
_cell_angle_gamma 90.000000
_cell_volume 2600.978266
_symmetry_space_group_name_H-M "P N N M"
_symmetry_group_IT_number 58
_symmetry_cell_setting 'orthorhombic'
loop_
_space_group_symop_operation_xyz
x,y,z
-x,-y,z
1/2+x,1/2-y,1/2-z
1/2-x,1/2+y,1/2-z
-x,-y,-z
x,y,-z
1/2-x,1/2+y,1/2+z
1/2+x,1/2-y,1/2+z
loop_
_atom_site_type_symbol
_atom_site_label
_atom_site_fract_x
_atom_site_fract_y
_atom_site_fract_z
Si Si1 0.338311 0.912526 0.111999
Si Si2 0.619992 0.257121 0.280061
Si Si3 0.311528 0.478313 0.715187
Si Si4 0.965883 0.131422 0.258457
Si Si5 0.257338 0.862386 0.393469
Si Si6 0.618166 0.813999 0.105786
O O1 0.375820 0.800982 0.173841
O O2 0.247858 0.925825 0.137683
O O3 0.381011 0.042120 0.141770
O O4 0.346400 0.883306 0.000000
O O5 0.676531 0.374617 0.290874
O O6 0.532134 0.298469 0.303235
O O7 0.654433 0.161760 0.358271
O O8 0.391001 0.401415 0.695306
O O9 0.282223 0.460929 0.823149
O O10 0.942389 0.227945 0.339667
O O11 0.000000 0.000000 0.301142
O O12 0.260397 0.917817 0.500000
O O13 0.205939 0.736202 0.389764
O O14 0.586061 0.812323 0.000000
#
# Coordination Sequence:
#
# PCOD8236084 Si02
#       6
#     8   8   8   8   8   8
#     4  10  20  33  53  80 105 135 176 219 262 308
#     4  10  19  32  51  77 104 135 171 216 261 312
#     4   9  18  34  53  73 102 137 174 214 257 306
#     4   9  19  33  50  75 106 138 171 208 260 312
#     4   9  17  31  52  73  96 132 176 213 250 302
#     4   9  17  31  51  73 100 134 169 211 259 305
#
# _framework density 18.454595000000001
#
# number of rings (size 3 to 8) (size 9 to 14) (size 15 to 20)
#    0.000    2.667    1.667    0.000    0.000    2.333 
#    0.000    5.833    0.000    3.000    0.000    2.333 
#    0.000    0.000    0.000    0.000    0.000    0.000 
#
# Total GULP energy -594756.292732 kJ/mol
# GULP energy per Si atom -12390.756099 kJ/mol
# Density = 1.841259 g / cm^3
# Si number density = 18.454595 Si / 1000 Ang^3
#
#
#
# Elastic Constant Matrix: (Units=GPa)
#
#
# Indices 1 2 3 4 5 6 
#
# 1 97.1551 23.1107 15.9282 0.0000 0.0000 0.0000
# 2 23.1107 31.4854 -9.2668 0.0000 0.0000 0.0000
# 3 15.9282 -9.2668 50.5672 0.0000 0.0000 0.0000
# 4 0.0000 0.0000 0.0000 20.2238 0.0000 0.0000
# 5 0.0000 0.0000 0.0000 0.0000 17.3719 0.0000
# 6 0.0000 0.0000 0.0000 0.0000 0.0000 25.9411
#
#
#
# Elastic Compliance Matrix: (Units=1/GPa)
#
#
# Indices 1 2 3 4 5 6 
#
# 1 0.014411 -0.012593 -0.006847 0.000000 0.000000 0.000000
# 2 -0.012593 0.044576 0.012136 0.000000 0.000000 0.000000
# 3 -0.006847 0.012136 0.024156 0.000000 0.000000 0.000000
# 4 0.000000 0.000000 0.000000 0.049447 0.000000 0.000000
# 5 0.000000 0.000000 0.000000 0.000000 0.057564 0.000000
# 6 0.000000 0.000000 0.000000 0.000000 0.000000 0.038549
#
#
# Mechanical properties :
#
#
# Convention : Reuss Voigt Hill
#
# Bulk Modulus (GPa) = 14.59129 26.52801 20.55965
# Shear Modulus (GPa) = 18.78590 22.66973 20.72781
#
# Velocity S-wave (km/s) = 3.19400 3.50866 3.35502
# Velocity P-wave (km/s) = 4.63960 5.55160 5.11596
#
# Compressibility (1/GPa) = 0.06853403
#
# Stress axis : x y z
#
# Youngs Moduli (GPa) = 69.39174 22.43364 41.39696
#
# Poissons Ratio (x) = 0.28251 0.28345
# Poissons Ratio (y) = 0.87385 -0.50237
# Poissons Ratio (z) = 0.47513 -0.27224
#
# Static dielectric constant tensor:
#      x y z
#    x 3.482400 0.000000 0.000000 
#    y 0.000000 3.395470 0.000000 
#    z 0.000000 0.000000 3.177960 
# 
# 
# High freq. dielectric constant tensor:
#      x y z
#    x 1.719580 0.000000 0.000000 
#    y 0.000000 1.714070 0.000000 
#    z 0.000000 0.000000 1.683200 
# 
# From -- ./inp_files/19793.got.cif
#   From: 2010.06.25/outbox.cif.g09.slc.cpg/sg58_10_cif.got.tgz:19793.got - 2010.06.26 21:38:00.
