data_PCOD8236611
_publ_section_title
;
Structure prediction by ZEFSAII (Michael W. Deem and Ramdas Pophale) SiO2 
 PCOD8236611
Probable space group: P N N M
;
_chemical_formula_sum "Si O2"
_cell_formula_units_Z 56
_cell_length_a 14.985787
_cell_length_b 21.264335
_cell_length_c 8.667162
_cell_angle_alpha 90.000000
_cell_angle_beta 90.000000
_cell_angle_gamma 90.000000
_cell_volume 2761.902068
_symmetry_space_group_name_H-M "P N N M"
_symmetry_group_IT_number 58
_symmetry_cell_setting 'orthorhombic'
loop_
_space_group_symop_operation_xyz
x,y,z
-x,-y,z
1/2+x,1/2-y,1/2-z
1/2-x,1/2+y,1/2-z
-x,-y,-z
x,y,-z
1/2-x,1/2+y,1/2+z
1/2+x,1/2-y,1/2+z
loop_
_atom_site_type_symbol
_atom_site_label
_atom_site_fract_x
_atom_site_fract_y
_atom_site_fract_z
Si Si1 0.559041 0.868476 0.827663
Si Si2 0.250900 0.598793 0.316074
Si Si3 0.926016 0.552462 0.173771
Si Si4 0.242429 0.962758 0.179269
Si Si5 0.676012 0.269156 0.683628
Si Si6 0.984239 0.230291 0.326727
Si Si7 0.680709 0.670513 0.683359
O O1 0.649067 0.897757 0.755164
O O2 0.474485 0.882692 0.719071
O O3 0.572609 0.793997 0.833944
O O4 0.541098 0.894885 0.000000
O O5 0.248666 0.600856 0.500000
O O6 0.292528 0.531455 0.257706
O O7 0.303758 0.659791 0.255480
O O8 0.847508 0.539467 0.291887
O O9 0.000000 0.500000 0.195668
O O10 0.888723 0.556752 0.000000
O O11 0.197924 0.900167 0.251001
O O12 0.222874 0.961045 0.000000
O O13 0.678994 0.265054 0.500000
O O14 0.577301 0.255250 0.743600
O O15 0.746923 0.218743 0.747494
O O16 0.000979 0.204526 0.500000
O O17 0.921397 0.183157 0.231332
O O18 0.690487 0.673455 0.500000
#
# Coordination Sequence:
#
# PCOD8236611 Si02
#       7
#     8   8   8   8   8   8   8
#     4  10  19  35  58  79 106 150 197 234 278 343
#     4   9  18  36  60  83 108 148 198 239 280 337
#     4  11  22  32  47  81 120 149 181 229 292 352
#     4  10  21  38  59  81 111 154 199 240 284 346
#     4  11  22  40  64  90 119 156 199 248 298 349
#     4  11  23  40  61  88 118 154 199 247 296 352
#     4  11  23  39  61  91 121 154 196 245 300 355
#
# _framework density 20.275881999999999
#
# number of rings (size 3 to 8) (size 9 to 14) (size 15 to 20)
#    0.000    1.571    2.857    2.571    0.000    6.286 
#    0.000    2.143    0.000    4.286    0.000    0.000 
#    0.000    0.000    0.000    0.000    0.000    0.000 
#
# Total GULP energy -694013.754612 kJ/mol
# GULP energy per Si atom -12393.102761 kJ/mol
# Density = 2.022973 g / cm^3
# Si number density = 20.275882 Si / 1000 Ang^3
#
#
#
# Elastic Constant Matrix: (Units=GPa)
#
#
# Indices 1 2 3 4 5 6 
#
# 1 64.7006 26.4239 14.7161 0.0000 0.0000 0.0000
# 2 26.4239 140.4885 26.6924 0.0000 0.0000 0.0000
# 3 14.7161 26.6924 46.1112 0.0000 0.0000 0.0000
# 4 0.0000 0.0000 0.0000 23.8021 0.0000 0.0000
# 5 0.0000 0.0000 0.0000 0.0000 17.4092 0.0000
# 6 0.0000 0.0000 0.0000 0.0000 0.0000 30.6872
#
#
#
# Elastic Compliance Matrix: (Units=1/GPa)
#
#
# Indices 1 2 3 4 5 6 
#
# 1 0.017409 -0.002493 -0.004113 0.000000 0.000000 0.000000
# 2 -0.002493 0.008355 -0.004041 0.000000 0.000000 0.000000
# 3 -0.004113 -0.004041 0.025338 0.000000 0.000000 0.000000
# 4 0.000000 0.000000 0.000000 0.042013 0.000000 0.000000
# 5 0.000000 0.000000 0.000000 0.000000 0.057441 0.000000
# 6 0.000000 0.000000 0.000000 0.000000 0.000000 0.032587
#
#
# Mechanical properties :
#
#
# Convention : Reuss Voigt Hill
#
# Bulk Modulus (GPa) = 33.54670 42.99611 38.27141
# Shear Modulus (GPa) = 23.32383 26.61088 24.96736
#
# Velocity S-wave (km/s) = 3.39532 3.62669 3.51291
# Velocity P-wave (km/s) = 5.65261 6.22806 5.94730
#
# Compressibility (1/GPa) = 0.02980919
#
# Stress axis : x y z
#
# Youngs Moduli (GPa) = 57.44004 119.69414 39.46591
#
# Poissons Ratio (x) = 0.29840 0.16232
# Poissons Ratio (y) = 0.14320 0.15947
# Poissons Ratio (z) = 0.23625 0.48364
#
# Static dielectric constant tensor:
#      x y z
#    x 3.467030 0.000000 0.000000 
#    y 0.000000 4.203990 0.000000 
#    z 0.000000 0.000000 3.505880 
# 
# 
# High freq. dielectric constant tensor:
#      x y z
#    x 1.772070 0.000000 0.000000 
#    y 0.000000 1.807640 0.000000 
#    z 0.000000 0.000000 1.774550 
# 
# From -- ./inp_files/6331.got.cif
#   From: 2010.06.25/outbox.cif.g09.slc.cpg/sg58_4_cif.got.tgz:6331.got - 2010.06.26 21:38:00.
