data_PCOD8236441
_publ_section_title
;
Structure prediction by ZEFSAII (Michael W. Deem and Ramdas Pophale) SiO2 
 PCOD8236441
Probable space group: P N N M
;
_chemical_formula_sum "Si O2"
_cell_formula_units_Z 56
_cell_length_a 20.781775
_cell_length_b 14.768809
_cell_length_c 9.688045
_cell_angle_alpha 90.000000
_cell_angle_beta 90.000000
_cell_angle_gamma 90.000000
_cell_volume 2973.474784
_symmetry_space_group_name_H-M "P N N M"
_symmetry_group_IT_number 58
_symmetry_cell_setting 'orthorhombic'
loop_
_space_group_symop_operation_xyz
x,y,z
-x,-y,z
1/2+x,1/2-y,1/2-z
1/2-x,1/2+y,1/2-z
-x,-y,-z
x,y,-z
1/2-x,1/2+y,1/2+z
1/2+x,1/2-y,1/2+z
loop_
_atom_site_type_symbol
_atom_site_label
_atom_site_fract_x
_atom_site_fract_y
_atom_site_fract_z
Si Si1 0.058383 0.068667 0.655068
Si Si2 0.328044 0.827677 0.659533
Si Si3 0.037648 0.236953 0.842913
Si Si4 0.867391 0.052568 0.152282
Si Si5 0.275697 0.976317 0.845549
Si Si6 0.719459 0.815735 0.838201
Si Si7 0.896996 0.253268 0.844416
O O1 0.080565 0.092377 0.500000
O O2 0.037612 0.158114 0.732262
O O3 0.117421 0.022684 0.734428
O O4 0.000000 0.000000 0.654461
O O5 0.314713 0.848398 0.500000
O O6 0.401593 0.800481 0.686300
O O7 0.321135 0.921645 0.741808
O O8 0.278752 0.748517 0.710652
O O9 0.969898 0.291464 0.823092
O O10 0.041369 0.198811 0.000000
O O11 0.792162 0.074882 0.159977
O O12 0.904443 0.145684 0.180314
O O13 0.885282 0.014099 0.000000
O O14 0.264345 0.080484 0.801500
O O15 0.305148 0.971811 0.000000
O O16 0.652600 0.794521 0.763138
O O17 0.707816 0.802000 0.000000
O O18 0.872422 0.273514 0.000000
#
# Coordination Sequence:
#
# PCOD8236441 Si02
#       7
#     8   8   8   8   8   8   8
#     4  11  22  32  48  80 116 146 181 226 278 338
#     4  10  21  38  60  85 113 147 187 235 285 335
#     4  10  21  38  57  79 112 152 191 231 284 340
#     4  10  19  34  56  79 108 147 187 228 278 338
#     4  10  21  38  59  84 113 147 189 235 285 341
#     4  10  21  37  58  83 115 150 183 229 288 339
#     4  10  20  35  58  83 107 145 191 233 274 329
#
# _framework density 18.833183999999999
#
# number of rings (size 3 to 8) (size 9 to 14) (size 15 to 20)
#    0.000    1.857    2.857    1.286    0.000    5.714 
#    0.000    2.143    0.000    4.286    0.000    0.000 
#    0.000    0.000    0.000    0.000    0.000    0.000 
#
# Total GULP energy -694260.803186 kJ/mol
# GULP energy per Si atom -12397.514343 kJ/mol
# Density = 1.879032 g / cm^3
# Si number density = 18.833184 Si / 1000 Ang^3
#
#
#
# Elastic Constant Matrix: (Units=GPa)
#
#
# Indices 1 2 3 4 5 6 
#
# 1 107.7817 25.7134 37.1801 0.0000 0.0000 0.0000
# 2 25.7134 56.3491 35.0109 0.0000 0.0000 0.0000
# 3 37.1801 35.0109 86.2160 0.0000 0.0000 0.0000
# 4 0.0000 0.0000 0.0000 -6.3748 0.0000 0.0000
# 5 0.0000 0.0000 0.0000 0.0000 44.6786 0.0000
# 6 0.0000 0.0000 0.0000 0.0000 0.0000 26.1399
#
#
#
# Elastic Compliance Matrix: (Units=1/GPa)
#
#
# Indices 1 2 3 4 5 6 
#
# 1 0.011227 -0.002829 -0.003693 0.000000 0.000000 0.000000
# 2 -0.002829 0.024448 -0.008708 0.000000 0.000000 0.000000
# 3 -0.003693 -0.008708 0.016727 0.000000 0.000000 0.000000
# 4 0.000000 0.000000 0.000000 -0.156869 0.000000 0.000000
# 5 0.000000 0.000000 0.000000 0.000000 0.022382 0.000000
# 6 0.000000 0.000000 0.000000 0.000000 0.000000 0.038256
#
#
# Mechanical properties :
#
#
# Convention : Reuss Voigt Hill
#
# Bulk Modulus (GPa) = 45.57244 49.57283 47.57264
# Shear Modulus (GPa) = -825.61904 23.05159 -401.28372
#
# Velocity S-wave (km/s) = -20.96037 3.50235 -14.61285
# Velocity P-wave (km/s) = 23.69667 6.53716 16.10586
#
# Compressibility (1/GPa) = 0.02194309
#
# Stress axis : x y z
#
# Youngs Moduli (GPa) = 89.07347 40.90358 59.78202
#
# Poissons Ratio (x) = 0.11570 0.22076
# Poissons Ratio (y) = 0.25195 0.52058
# Poissons Ratio (z) = 0.32893 0.35619
#
# Static dielectric constant tensor:
#      x y z
#    x 3.515870 0.000000 0.000000 
#    y 0.000000 3.294920 0.000000 
#    z 0.000000 0.000000 3.564360 
# 
# 
# High freq. dielectric constant tensor:
#      x y z
#    x 1.733460 0.000000 0.000000 
#    y 0.000000 1.707330 0.000000 
#    z 0.000000 0.000000 1.732380 
# 
# From -- ./inp_files/6259.got.cif
#   From: 2010.06.25/outbox.cif.g09.slc.cpg/sg58_4_cif.got.tgz:6259.got - 2010.06.26 21:38:00.
