data_PCOD8236600
_publ_section_title
;
Structure prediction by ZEFSAII (Michael W. Deem and Ramdas Pophale) SiO2 
 PCOD8236600
Probable space group: P N N M
;
_chemical_formula_sum "Si O2"
_cell_formula_units_Z 48
_cell_length_a 14.108109
_cell_length_b 18.724717
_cell_length_c 8.886866
_cell_angle_alpha 90.000000
_cell_angle_beta 90.000000
_cell_angle_gamma 90.000000
_cell_volume 2347.646488
_symmetry_space_group_name_H-M "P N N M"
_symmetry_group_IT_number 58
_symmetry_cell_setting 'orthorhombic'
loop_
_space_group_symop_operation_xyz
x,y,z
-x,-y,z
1/2+x,1/2-y,1/2-z
1/2-x,1/2+y,1/2-z
-x,-y,-z
x,y,-z
1/2-x,1/2+y,1/2+z
1/2+x,1/2-y,1/2+z
loop_
_atom_site_type_symbol
_atom_site_label
_atom_site_fract_x
_atom_site_fract_y
_atom_site_fract_z
Si Si1 0.679165 0.725380 0.325357
Si Si2 0.542701 0.597598 0.323843
Si Si3 0.639728 0.140595 0.179627
Si Si4 0.569145 0.845223 0.828395
Si Si5 0.681784 0.981769 0.172607
Si Si6 0.870137 0.959710 0.677863
O O1 0.695077 0.738174 0.500000
O O2 0.592300 0.672513 0.292494
O O3 0.777532 0.693000 0.258297
O O4 0.650885 0.800577 0.254166
O O5 0.540992 0.578858 0.500000
O O6 0.601288 0.537591 0.236552
O O7 0.436714 0.600196 0.256037
O O8 0.536767 0.166900 0.239086
O O9 0.657313 0.059924 0.237712
O O10 0.639632 0.138602 0.000000
O O11 0.591402 0.929631 0.814671
O O12 0.571112 0.820000 0.000000
O O13 0.762953 0.945384 0.273509
O O14 0.716962 0.987687 0.000000
O O15 0.882182 0.954613 0.500000
#
# Coordination Sequence:
#
# PCOD8236600 Si02
#       6
#     8   8   8   8   8   8
#     4  10  21  38  60  83 115 155 190 232 294 357
#     4  10  19  35  57  81 112 154 196 233 279 347
#     4   9  18  38  63  84 107 149 199 239 281 338
#     4  10  22  37  60  89 115 145 192 249 292 339
#     4  10  19  37  61  85 113 152 199 239 285 350
#     4  11  21  32  53  87 119 148 186 241 293 332
#
# _framework density 20.446009
#
# number of rings (size 3 to 8) (size 9 to 14) (size 15 to 20)
#    0.000    2.000    1.667    3.500    0.000    5.333 
#    0.000    5.000    0.000    2.000    0.000    0.000 
#    0.000    0.000    0.000    0.000    0.000    0.000 
#
# Total GULP energy -595125.146593 kJ/mol
# GULP energy per Si atom -12398.440554 kJ/mol
# Density = 2.039947 g / cm^3
# Si number density = 20.446009 Si / 1000 Ang^3
#
#
#
# Elastic Constant Matrix: (Units=GPa)
#
#
# Indices 1 2 3 4 5 6 
#
# 1 141.8952 51.9490 31.3596 0.0000 0.0000 0.0000
# 2 51.9490 92.3965 19.2710 0.0000 0.0000 0.0000
# 3 31.3596 19.2710 56.7687 0.0000 0.0000 0.0000
# 4 0.0000 0.0000 0.0000 22.5635 0.0000 0.0000
# 5 0.0000 0.0000 0.0000 0.0000 23.9689 0.0000
# 6 0.0000 0.0000 0.0000 0.0000 0.0000 27.6632
#
#
#
# Elastic Compliance Matrix: (Units=1/GPa)
#
#
# Indices 1 2 3 4 5 6 
#
# 1 0.009551 -0.004595 -0.003716 0.000000 0.000000 0.000000
# 2 -0.004595 0.013858 -0.002166 0.000000 0.000000 0.000000
# 3 -0.003716 -0.002166 0.020404 0.000000 0.000000 0.000000
# 4 0.000000 0.000000 0.000000 0.044319 0.000000 0.000000
# 5 0.000000 0.000000 0.000000 0.000000 0.041721 0.000000
# 6 0.000000 0.000000 0.000000 0.000000 0.000000 0.036149
#
#
# Mechanical properties :
#
#
# Convention : Reuss Voigt Hill
#
# Bulk Modulus (GPa) = 43.74794 55.13550 49.44172
# Shear Modulus (GPa) = 25.69695 27.40452 26.55073
#
# Velocity S-wave (km/s) = 3.54901 3.66503 3.60749
# Velocity P-wave (km/s) = 6.18363 6.70335 6.44873
#
# Compressibility (1/GPa) = 0.02285822
#
# Stress axis : x y z
#
# Youngs Moduli (GPa) = 104.70121 72.15989 49.01108
#
# Poissons Ratio (x) = 0.33156 0.18214
# Poissons Ratio (y) = 0.48109 0.10616
# Poissons Ratio (z) = 0.38910 0.15631
#
# Static dielectric constant tensor:
#      x y z
#    x 4.011870 0.000000 0.000000 
#    y 0.000000 3.538030 0.000000 
#    z 0.000000 0.000000 3.416910 
# 
# 
# High freq. dielectric constant tensor:
#      x y z
#    x 1.812670 0.000000 0.000000 
#    y 0.000000 1.788400 0.000000 
#    z 0.000000 0.000000 1.768870 
# 
# From -- ./inp_files/5793.got.cif
#   From: 2010.06.25/outbox.cif.g09.slc.cpg/sg58_3_cif.got.tgz:5793.got - 2010.06.26 21:38:00.
