data_PCOD8236531
_publ_section_title
;
Structure prediction by ZEFSAII (Michael W. Deem and Ramdas Pophale) SiO2 
 PCOD8236531
Probable space group: P N N M
;
_chemical_formula_sum "Si O2"
_cell_formula_units_Z 64
_cell_length_a 30.185071
_cell_length_b 11.873188
_cell_length_c 9.628048
_cell_angle_alpha 90.000000
_cell_angle_beta 90.000000
_cell_angle_gamma 90.000000
_cell_volume 3450.625226
_symmetry_space_group_name_H-M "P N N M"
_symmetry_group_IT_number 58
_symmetry_cell_setting 'orthorhombic'
loop_
_space_group_symop_operation_xyz
x,y,z
-x,-y,z
1/2+x,1/2-y,1/2-z
1/2-x,1/2+y,1/2-z
-x,-y,-z
x,y,-z
1/2-x,1/2+y,1/2+z
1/2+x,1/2-y,1/2+z
loop_
_atom_site_type_symbol
_atom_site_label
_atom_site_fract_x
_atom_site_fract_y
_atom_site_fract_z
Si Si1 0.791213 0.727345 0.842611
Si Si2 0.376165 0.383735 0.661029
Si Si3 0.081711 0.496366 0.341431
Si Si4 0.445140 0.243863 0.162001
Si Si5 0.836027 0.499111 0.843152
Si Si6 0.454646 0.759790 0.158243
Si Si7 0.879542 0.854362 0.837710
Si Si8 0.705788 0.766867 0.338043
O O1 0.798320 0.593600 0.835240
O O2 0.834761 0.792686 0.788662
O O3 0.750766 0.755413 0.744696
O O4 0.780209 0.765257 0.000000
O O5 0.387347 0.361821 0.500000
O O6 0.413798 0.324744 0.750871
O O7 0.374869 0.514639 0.697907
O O8 0.327866 0.334060 0.697702
O O9 0.097361 0.506456 0.500000
O O10 0.061262 0.614356 0.290728
O O11 0.123729 0.461905 0.251168
O O12 0.046652 0.395330 0.322546
O O13 0.495597 0.279241 0.193476
O O14 0.433925 0.258708 0.000000
O O15 0.816590 0.382323 0.787704
O O16 0.853739 0.485089 0.000000
O O17 0.421528 0.694724 0.258114
O O18 0.442289 0.728341 0.000000
O O19 0.887600 0.832476 0.000000
O O20 0.717756 0.770329 0.500000
#
# Coordination Sequence:
#
# PCOD8236531 Si02
#       8
#     8   8   8   8   8   8   8   8
#     4  10  22  38  58  83 112 145 184 230 279 330
#     4  10  22  40  59  81 112 150 190 231 276 331
#     4  10  19  34  58  86 114 146 184 229 281 335
#     4  10  21  37  58  85 115 147 185 231 282 334
#     4  10  20  37  59  83 112 146 185 233 280 329
#     4  10  21  37  58  85 115 147 185 231 282 334
#     4  10  22  40  59  81 112 150 190 231 276 331
#     4  10  22  38  58  83 112 145 184 230 279 330
#
# _framework density 18.547364000000002
#
# number of rings (size 3 to 8) (size 9 to 14) (size 15 to 20)
#    0.000    2.000    2.500    0.375    1.750    5.000 
#    0.000    2.500    0.000    2.250    0.000    0.000 
#    0.000    0.000    0.000    0.000    0.000    0.000 
#
# Total GULP energy -793757.736975 kJ/mol
# GULP energy per Si atom -12402.464640 kJ/mol
# Density = 1.850515 g / cm^3
# Si number density = 18.547364 Si / 1000 Ang^3
#
#
#
# Elastic Constant Matrix: (Units=GPa)
#
#
# Indices 1 2 3 4 5 6 
#
# 1 117.5634 41.4061 58.7874 0.0000 0.0000 0.0000
# 2 41.4061 109.0766 36.5614 0.0000 0.0000 0.0000
# 3 58.7874 36.5614 62.5887 0.0000 0.0000 0.0000
# 4 0.0000 0.0000 0.0000 30.9619 0.0000 0.0000
# 5 0.0000 0.0000 0.0000 0.0000 38.5970 0.0000
# 6 0.0000 0.0000 0.0000 0.0000 0.0000 23.0774
#
#
#
# Elastic Compliance Matrix: (Units=1/GPa)
#
#
# Indices 1 2 3 4 5 6 
#
# 1 0.016187 -0.001304 -0.014442 0.000000 0.000000 0.000000
# 2 -0.001304 0.011505 -0.005496 0.000000 0.000000 0.000000
# 3 -0.014442 -0.005496 0.032753 0.000000 0.000000 0.000000
# 4 0.000000 0.000000 0.000000 0.032298 0.000000 0.000000
# 5 0.000000 0.000000 0.000000 0.000000 0.025909 0.000000
# 6 0.000000 0.000000 0.000000 0.000000 0.000000 0.043332
#
#
# Mechanical properties :
#
#
# Convention : Reuss Voigt Hill
#
# Bulk Modulus (GPa) = 55.67701 62.52648 59.10175
# Shear Modulus (GPa) = 23.75793 28.69218 26.22505
#
# Velocity S-wave (km/s) = 3.58290 3.93742 3.76433
# Velocity P-wave (km/s) = 6.87024 7.37943 7.12938
#
# Compressibility (1/GPa) = 0.01796073
#
# Stress axis : x y z
#
# Youngs Moduli (GPa) = 61.77725 86.91852 30.53132
#
# Poissons Ratio (x) = 0.11332 0.44095
# Poissons Ratio (y) = 0.08054 0.16780
# Poissons Ratio (z) = 0.89222 0.47771
#
# Static dielectric constant tensor:
#      x y z
#    x 3.321900 0.000000 0.000000 
#    y 0.000000 3.577450 0.000000 
#    z 0.000000 0.000000 3.367010 
# 
# 
# High freq. dielectric constant tensor:
#      x y z
#    x 1.717730 0.000000 0.000000 
#    y 0.000000 1.730690 0.000000 
#    z 0.000000 0.000000 1.714870 
# 
# From -- ./inp_files/4660.got.cif
#   From: 2010.06.25/outbox.cif.g09.slc.cpg/sg58_3_cif.got.tgz:4660.got - 2010.06.26 21:38:00.
