data_PCOD8236769
_publ_section_title
;
Structure prediction by ZEFSAII (Michael W. Deem and Ramdas Pophale) SiO2 
 PCOD8236769
Probable space group: P N N M
;
_chemical_formula_sum "Si O2"
_cell_formula_units_Z 40
_cell_length_a 11.370749
_cell_length_b 11.303959
_cell_length_c 13.814978
_cell_angle_alpha 90.000000
_cell_angle_beta 90.000000
_cell_angle_gamma 90.000000
_cell_volume 1775.701020
_symmetry_space_group_name_H-M "P N N M"
_symmetry_group_IT_number 58
_symmetry_cell_setting 'orthorhombic'
loop_
_space_group_symop_operation_xyz
x,y,z
-x,-y,z
1/2+x,1/2-y,1/2-z
1/2-x,1/2+y,1/2-z
-x,-y,-z
x,y,-z
1/2-x,1/2+y,1/2+z
1/2+x,1/2-y,1/2+z
loop_
_atom_site_type_symbol
_atom_site_label
_atom_site_fract_x
_atom_site_fract_y
_atom_site_fract_z
Si Si1 0.948218 0.321534 0.611786
Si Si2 0.624746 0.452933 0.607748
Si Si3 0.875142 0.055162 0.611099
Si Si4 0.720698 0.183006 0.108520
Si Si5 0.772640 0.387685 0.239979
O O1 0.931187 0.367679 0.500000
O O2 0.883897 0.195591 0.623777
O O3 0.887824 0.408776 0.691321
O O4 0.084671 0.316444 0.638703
O O5 0.500000 0.500000 0.640401
O O6 0.620076 0.399419 0.500000
O O7 0.721842 0.555461 0.618559
O O8 0.666827 0.354719 0.683946
O O9 0.847697 0.020668 0.500000
O O10 0.769045 0.003001 0.677848
O O11 0.000000 0.000000 0.642566
O O12 0.793998 0.275648 0.172195
O O13 0.731954 0.230402 0.000000
#
# Coordination Sequence:
#
# PCOD8236769 Si02
#       5
#     8   8   8   8   8
#     4  10  22  39  60  90 125 162 207 261 316 370
#     4  10  23  41  61  88 125 163 201 250 312 373
#     4  10  19  36  61  89 120 160 211 264 313 371
#     4  10  22  40  63  92 125 164 209 257 310 372
#     4  12  21  33  61  92 125 161 208 260 304 368
#
# _framework density 22.526315
#
# number of rings (size 3 to 8) (size 9 to 14) (size 15 to 20)
#    0.000    1.600    2.000    3.000    2.800    0.800 
#    0.000    3.000    0.000    0.000    0.000    5.600 
#    0.000    0.000    0.000    0.000    0.000    0.000 
#
# Total GULP energy -495667.712905 kJ/mol
# GULP energy per Si atom -12391.692823 kJ/mol
# Density = 2.247504 g / cm^3
# Si number density = 22.526315 Si / 1000 Ang^3
#
#
#
# Elastic Constant Matrix: (Units=GPa)
#
#
# Indices 1 2 3 4 5 6 
#
# 1 84.4604 12.8281 44.6889 0.0000 0.0000 0.0000
# 2 12.8281 46.9439 10.5112 0.0000 0.0000 0.0000
# 3 44.6889 10.5112 105.1789 0.0000 0.0000 0.0000
# 4 0.0000 0.0000 0.0000 27.1087 0.0000 0.0000
# 5 0.0000 0.0000 0.0000 0.0000 145.8232 0.0000
# 6 0.0000 0.0000 0.0000 0.0000 0.0000 25.9346
#
#
#
# Elastic Compliance Matrix: (Units=1/GPa)
#
#
# Indices 1 2 3 4 5 6 
#
# 1 0.015637 -0.002849 -0.006359 0.000000 0.000000 0.000000
# 2 -0.002849 0.022309 -0.001019 0.000000 0.000000 0.000000
# 3 -0.006359 -0.001019 0.012311 0.000000 0.000000 0.000000
# 4 0.000000 0.000000 0.000000 0.036889 0.000000 0.000000
# 5 0.000000 0.000000 0.000000 0.000000 0.006858 0.000000
# 6 0.000000 0.000000 0.000000 0.000000 0.000000 0.038559
#
#
# Mechanical properties :
#
#
# Convention : Reuss Voigt Hill
#
# Bulk Modulus (GPa) = 33.55403 41.40441 37.47922
# Shear Modulus (GPa) = 30.68399 51.01030 40.84714
#
# Velocity S-wave (km/s) = 3.69472 4.76381 4.26291
# Velocity P-wave (km/s) = 5.75579 6.97703 6.39562
#
# Compressibility (1/GPa) = 0.02980268
#
# Stress axis : x y z
#
# Youngs Moduli (GPa) = 63.94917 44.82545 81.22539
#
# Poissons Ratio (x) = 0.12772 0.51654
# Poissons Ratio (y) = 0.18221 0.08276
# Poissons Ratio (z) = 0.40668 0.04567
#
# Static dielectric constant tensor:
#      x y z
#    x 3.975640 0.000000 0.000000 
#    y 0.000000 3.823050 0.000000 
#    z 0.000000 0.000000 4.571460 
# 
# 
# High freq. dielectric constant tensor:
#      x y z
#    x 1.875280 0.000000 0.000000 
#    y 0.000000 1.863550 0.000000 
#    z 0.000000 0.000000 1.915340 
# 
# From -- ./inp_files/20900.got.cif
#   From: 2010.06.25/outbox.cif.g09.slc.cpg/sg58_11_cif.got.tgz:20900.got - 2010.06.26 21:38:00.
