data_PCOD8236924
_publ_section_title
;
Structure prediction by ZEFSAII (Michael W. Deem and Ramdas Pophale) SiO2 
 PCOD8236924
Probable space group: P N N M
;
_chemical_formula_sum "Si O2"
_cell_formula_units_Z 64
_cell_length_a 22.816172
_cell_length_b 18.937006
_cell_length_c 8.921331
_cell_angle_alpha 90.000000
_cell_angle_beta 90.000000
_cell_angle_gamma 90.000000
_cell_volume 3854.639361
_symmetry_space_group_name_H-M "P N N M"
_symmetry_group_IT_number 58
_symmetry_cell_setting 'orthorhombic'
loop_
_space_group_symop_operation_xyz
x,y,z
-x,-y,z
1/2+x,1/2-y,1/2-z
1/2-x,1/2+y,1/2-z
-x,-y,-z
x,y,-z
1/2-x,1/2+y,1/2+z
1/2+x,1/2-y,1/2+z
loop_
_atom_site_type_symbol
_atom_site_label
_atom_site_fract_x
_atom_site_fract_y
_atom_site_fract_z
Si Si1 0.557835 0.650993 0.175122
Si Si2 0.824133 0.788330 0.827595
Si Si3 0.271874 0.836293 0.173818
Si Si4 0.561924 0.374936 0.326788
Si Si5 0.879795 0.005463 0.323751
Si Si6 0.777587 0.372553 0.825602
Si Si7 0.253617 0.492771 0.323941
Si Si8 0.651383 0.738585 0.327635
O O1 0.498215 0.657097 0.266850
O O2 0.591332 0.579628 0.220253
O O3 0.597846 0.717536 0.221158
O O4 0.543819 0.654299 0.000000
O O5 0.818852 0.707402 0.771329
O O6 0.890317 0.813561 0.804344
O O7 0.782631 0.838094 0.729906
O O8 0.804521 0.793448 0.000000
O O9 0.206651 0.810372 0.212747
O O10 0.276336 0.918419 0.217736
O O11 0.285832 0.822907 0.000000
O O12 0.556094 0.396414 0.500000
O O13 0.577260 0.444630 0.233633
O O14 0.871368 0.997787 0.500000
O O15 0.817239 0.998714 0.246974
O O16 0.788793 0.445910 0.738846
O O17 0.832059 0.320188 0.795635
O O18 0.770248 0.388505 0.000000
O O19 0.261679 0.500964 0.500000
O O20 0.633108 0.727392 0.500000
#
# Coordination Sequence:
#
# PCOD8236924 Si02
#       8
#     8   8   8   8   8   8   8   8
#     4  11  23  35  50  73  99 133 175 214 250 292
#     4  10  20  33  50  73  98 129 170 210 249 298
#     4   9  19  33  51  73 100 132 165 204 254 302
#     4  11  23  36  51  71  98 137 175 210 251 297
#     4  11  22  34  48  71 102 135 173 212 247 290
#     4  10  20  33  51  74 101 133 165 206 256 299
#     4  11  20  32  51  76 103 135 170 203 248 305
#     4   9  18  34  51  70  98 132 167 204 250 300
#
# _framework density 16.603369000000001
#
# number of rings (size 3 to 8) (size 9 to 14) (size 15 to 20)
#    0.000    1.750    2.500    3.375    0.000    8.000 
#    0.000    0.000    0.000    0.000    0.000    0.875 
#    0.000    7.000    0.000    0.000    0.000    0.000 
#
# Total GULP energy -793816.181981 kJ/mol
# GULP energy per Si atom -12403.377843 kJ/mol
# Density = 1.656558 g / cm^3
# Si number density = 16.603369 Si / 1000 Ang^3
#
#
#
# Elastic Constant Matrix: (Units=GPa)
#
#
# Indices 1 2 3 4 5 6 
#
# 1 49.9529 35.4258 26.9856 0.0000 0.0000 0.0000
# 2 35.4258 103.3209 42.7623 0.0000 0.0000 0.0000
# 3 26.9856 42.7623 66.1846 0.0000 0.0000 0.0000
# 4 0.0000 0.0000 0.0000 31.1689 0.0000 0.0000
# 5 0.0000 0.0000 0.0000 0.0000 26.2945 0.0000
# 6 0.0000 0.0000 0.0000 0.0000 0.0000 18.1745
#
#
#
# Elastic Compliance Matrix: (Units=1/GPa)
#
#
# Indices 1 2 3 4 5 6 
#
# 1 0.028840 -0.006855 -0.007330 0.000000 0.000000 0.000000
# 2 -0.006855 0.014841 -0.006794 0.000000 0.000000 0.000000
# 3 -0.007330 -0.006794 0.022487 0.000000 0.000000 0.000000
# 4 0.000000 0.000000 0.000000 0.032083 0.000000 0.000000
# 5 0.000000 0.000000 0.000000 0.000000 0.038031 0.000000
# 6 0.000000 0.000000 0.000000 0.000000 0.000000 0.055022
#
#
# Mechanical properties :
#
#
# Convention : Reuss Voigt Hill
#
# Bulk Modulus (GPa) = 41.30360 47.75620 44.52990
# Shear Modulus (GPa) = 20.71840 22.74658 21.73249
#
# Velocity S-wave (km/s) = 3.53631 3.70536 3.62183
# Velocity P-wave (km/s) = 6.45017 6.86525 6.66094
#
# Compressibility (1/GPa) = 0.02421096
#
# Stress axis : x y z
#
# Youngs Moduli (GPa) = 34.67420 67.38263 44.46920
#
# Poissons Ratio (x) = 0.46188 0.32597
# Poissons Ratio (y) = 0.23768 0.30211
# Poissons Ratio (z) = 0.25417 0.45778
#
# Static dielectric constant tensor:
#      x y z
#    x 2.887810 0.000000 0.000000 
#    y 0.000000 3.387370 0.000000 
#    z 0.000000 0.000000 3.234460 
# 
# 
# High freq. dielectric constant tensor:
#      x y z
#    x 1.607220 0.000000 0.000000 
#    y 0.000000 1.638760 0.000000 
#    z 0.000000 0.000000 1.655150 
# 
# From -- ./inp_files/9414.got.cif
#   From: 2010.06.25/outbox.cif.g09.slc.cpg/sg58_5_cif.got.tgz:9414.got - 2010.06.26 21:38:00.
