data_PCOD8236940
_publ_section_title
;
Structure prediction by ZEFSAII (Michael W. Deem and Ramdas Pophale) SiO2 
 PCOD8236940
Probable space group: P N N M
;
_chemical_formula_sum "Si O2"
_cell_formula_units_Z 40
_cell_length_a 13.510860
_cell_length_b 18.163707
_cell_length_c 8.897163
_cell_angle_alpha 90.000000
_cell_angle_beta 90.000000
_cell_angle_gamma 90.000000
_cell_volume 2183.428770
_symmetry_space_group_name_H-M "P N N M"
_symmetry_group_IT_number 58
_symmetry_cell_setting 'orthorhombic'
loop_
_space_group_symop_operation_xyz
x,y,z
-x,-y,z
1/2+x,1/2-y,1/2-z
1/2-x,1/2+y,1/2-z
-x,-y,-z
x,y,-z
1/2-x,1/2+y,1/2+z
1/2+x,1/2-y,1/2+z
loop_
_atom_site_type_symbol
_atom_site_label
_atom_site_fract_x
_atom_site_fract_y
_atom_site_fract_z
Si Si1 0.698623 0.519172 0.324779
Si Si2 0.614118 0.380078 0.178480
Si Si3 0.182452 0.684937 0.175856
Si Si4 0.085825 0.832611 0.823851
Si Si5 0.605588 0.970902 0.676473
O O1 0.698773 0.500648 0.500000
O O2 0.624985 0.462149 0.243975
O O3 0.659227 0.600420 0.290951
O O4 0.809707 0.515762 0.262163
O O5 0.707056 0.331276 0.236598
O O6 0.515963 0.341779 0.236242
O O7 0.612951 0.386656 0.000000
O O8 0.137072 0.759374 0.245148
O O9 0.112190 0.615725 0.215357
O O10 0.189618 0.697253 0.000000
O O11 0.061840 0.825483 0.000000
O O12 0.620905 0.984681 0.500000
O O13 0.500000 0.000000 0.733045
#
# Coordination Sequence:
#
# PCOD8236940 Si02
#       5
#     8   8   8   8   8
#     4  10  20  33  51  75 101 132 170 208 249 300
#     4  10  20  35  54  74 100 133 168 208 252 298
#     4   8  17  34  51  70 100 133 162 199 249 300
#     4  10  20  34  52  74 102 134 166 205 254 301
#     4   9  18  34  55  76 101 135 171 208 252 299
#
# _framework density 18.31981
#
# number of rings (size 3 to 8) (size 9 to 14) (size 15 to 20)
#    0.000    2.600    0.000    3.000    0.000    6.000 
#    0.000    5.000    0.000    0.000    0.000    0.000 
#    0.000    0.000    0.000    0.000    0.000    0.000 
#
# Total GULP energy -496003.350300 kJ/mol
# GULP energy per Si atom -12400.083758 kJ/mol
# Density = 1.827811 g / cm^3
# Si number density = 18.319810 Si / 1000 Ang^3
#
#
#
# Elastic Constant Matrix: (Units=GPa)
#
#
# Indices 1 2 3 4 5 6 
#
# 1 130.0821 83.6211 48.4603 0.0000 0.0000 0.0000
# 2 83.6211 142.7957 48.2888 0.0000 0.0000 0.0000
# 3 48.4603 48.2888 58.1349 0.0000 0.0000 0.0000
# 4 0.0000 0.0000 0.0000 20.5688 0.0000 0.0000
# 5 0.0000 0.0000 0.0000 0.0000 33.9243 0.0000
# 6 0.0000 0.0000 0.0000 0.0000 0.0000 28.8805
#
#
#
# Elastic Compliance Matrix: (Units=1/GPa)
#
#
# Indices 1 2 3 4 5 6 
#
# 1 0.014011 -0.005918 -0.006764 0.000000 0.000000 0.000000
# 2 -0.005918 0.012238 -0.005232 0.000000 0.000000 0.000000
# 3 -0.006764 -0.005232 0.027186 0.000000 0.000000 0.000000
# 4 0.000000 0.000000 0.000000 0.048617 0.000000 0.000000
# 5 0.000000 0.000000 0.000000 0.000000 0.029477 0.000000
# 6 0.000000 0.000000 0.000000 0.000000 0.000000 0.034625
#
#
# Mechanical properties :
#
#
# Convention : Reuss Voigt Hill
#
# Bulk Modulus (GPa) = 56.79601 76.86146 66.82874
# Shear Modulus (GPa) = 24.05548 26.71755 25.38651
#
# Velocity S-wave (km/s) = 3.62758 3.82304 3.72659
# Velocity P-wave (km/s) = 6.97249 7.84436 7.42124
#
# Compressibility (1/GPa) = 0.01760687
#
# Stress axis : x y z
#
# Youngs Moduli (GPa) = 71.37010 81.71445 36.78349
#
# Poissons Ratio (x) = 0.48356 0.24882
# Poissons Ratio (y) = 0.42234 0.19246
# Poissons Ratio (z) = 0.48277 0.42755
#
# Static dielectric constant tensor:
#      x y z
#    x 3.514270 0.000000 0.000000 
#    y 0.000000 3.573990 0.000000 
#    z 0.000000 0.000000 3.211550 
# 
# 
# High freq. dielectric constant tensor:
#      x y z
#    x 1.717330 0.000000 0.000000 
#    y 0.000000 1.712730 0.000000 
#    z 0.000000 0.000000 1.694070 
# 
# From -- ./inp_files/3788.got.cif
#   From: 2010.06.25/outbox.cif.g09.slc.cpg/sg58_2_cif.got.tgz:3788.got - 2010.06.26 21:38:00.
