data_PCOD8236481
_publ_section_title
;
Structure prediction by ZEFSAII (Michael W. Deem and Ramdas Pophale) SiO2 
 PCOD8236481
Probable space group: P N N M
;
_chemical_formula_sum "Si O2"
_cell_formula_units_Z 56
_cell_length_a 14.262110
_cell_length_b 22.610362
_cell_length_c 8.905380
_cell_angle_alpha 90.000000
_cell_angle_beta 90.000000
_cell_angle_gamma 90.000000
_cell_volume 2871.730979
_symmetry_space_group_name_H-M "P N N M"
_symmetry_group_IT_number 58
_symmetry_cell_setting 'orthorhombic'
loop_
_space_group_symop_operation_xyz
x,y,z
-x,-y,z
1/2+x,1/2-y,1/2-z
1/2-x,1/2+y,1/2-z
-x,-y,-z
x,y,-z
1/2-x,1/2+y,1/2+z
1/2+x,1/2-y,1/2+z
loop_
_atom_site_type_symbol
_atom_site_label
_atom_site_fract_x
_atom_site_fract_y
_atom_site_fract_z
Si Si1 0.720755 0.886285 0.176892
Si Si2 0.789922 0.615591 0.326109
Si Si3 0.893588 0.720199 0.827450
Si Si4 0.910774 0.152922 0.171672
Si Si5 0.105775 0.501285 0.321486
Si Si6 0.100130 0.154513 0.676903
Si Si7 0.893092 0.287195 0.829243
O O1 0.658897 0.940767 0.239273
O O2 0.822393 0.889377 0.254152
O O3 0.668881 0.825433 0.216778
O O4 0.734558 0.890482 0.000000
O O5 0.815710 0.626860 0.500000
O O6 0.823326 0.670720 0.229567
O O7 0.677463 0.609298 0.305855
O O8 0.838309 0.556293 0.264413
O O9 0.879206 0.779302 0.732215
O O10 0.998481 0.695301 0.808350
O O11 0.871914 0.735623 0.000000
O O12 0.878296 0.218973 0.215728
O O13 0.997414 0.131830 0.273164
O O14 0.946496 0.153623 0.000000
O O15 0.103200 0.502503 0.500000
O O16 0.000000 0.500000 0.256468
O O17 0.106960 0.152621 0.500000
O O18 0.859690 0.298869 0.000000
#
# Coordination Sequence:
#
# PCOD8236481 Si02
#       7
#     8   8   8   8   8   8   8
#     4  11  21  34  55  80 109 145 183 224 267 314
#     4  10  19  34  57  81 108 144 183 224 269 316
#     4  10  20  34  54  82 114 143 175 219 269 323
#     4   9  19  35  54  78 107 137 175 224 273 322
#     4   9  19  35  55  82 112 141 178 220 261 313
#     4  11  22  36  55  78 107 142 179 221 270 325
#     4   9  18  32  50  77 111 141 174 220 271 323
#
# _framework density 19.500435
#
# number of rings (size 3 to 8) (size 9 to 14) (size 15 to 20)
#    0.000    2.143    0.000    4.714    0.000    5.714 
#    0.000    2.143    0.000    8.143    0.000    0.000 
#    0.000    0.000    0.000    0.000    0.000    0.000 
#
# Total GULP energy -694548.873318 kJ/mol
# GULP energy per Si atom -12402.658452 kJ/mol
# Density = 1.945605 g / cm^3
# Si number density = 19.500435 Si / 1000 Ang^3
#
#
#
# Elastic Constant Matrix: (Units=GPa)
#
#
# Indices 1 2 3 4 5 6 
#
# 1 141.5374 67.0845 50.0538 0.0000 0.0000 0.0000
# 2 67.0845 72.4592 27.6126 0.0000 0.0000 0.0000
# 3 50.0538 27.6126 85.5020 0.0000 0.0000 0.0000
# 4 0.0000 0.0000 0.0000 19.3404 0.0000 0.0000
# 5 0.0000 0.0000 0.0000 0.0000 31.0551 0.0000
# 6 0.0000 0.0000 0.0000 0.0000 0.0000 36.9547
#
#
#
# Elastic Compliance Matrix: (Units=1/GPa)
#
#
# Indices 1 2 3 4 5 6 
#
# 1 0.014000 -0.011219 -0.004572 0.000000 0.000000 0.000000
# 2 -0.011219 0.024728 -0.001418 0.000000 0.000000 0.000000
# 3 -0.004572 -0.001418 0.014830 0.000000 0.000000 0.000000
# 4 0.000000 0.000000 0.000000 0.051705 0.000000 0.000000
# 5 0.000000 0.000000 0.000000 0.000000 0.032201 0.000000
# 6 0.000000 0.000000 0.000000 0.000000 0.000000 0.027060
#
#
# Mechanical properties :
#
#
# Convention : Reuss Voigt Hill
#
# Bulk Modulus (GPa) = 52.24914 65.44451 58.84682
# Shear Modulus (GPa) = 24.35188 27.78654 26.06921
#
# Velocity S-wave (km/s) = 3.53765 3.77891 3.66027
# Velocity P-wave (km/s) = 6.59838 7.25766 6.93586
#
# Compressibility (1/GPa) = 0.01913907
#
# Stress axis : x y z
#
# Youngs Moduli (GPa) = 71.43023 40.44007 67.42891
#
# Poissons Ratio (x) = 0.45369 0.30832
# Poissons Ratio (y) = 0.80136 0.09563
# Poissons Ratio (z) = 0.32661 0.05735
#
# Static dielectric constant tensor:
#      x y z
#    x 3.802630 0.000000 0.000000 
#    y 0.000000 3.404560 0.000000 
#    z 0.000000 0.000000 3.343250 
# 
# 
# High freq. dielectric constant tensor:
#      x y z
#    x 1.776120 0.000000 0.000000 
#    y 0.000000 1.735390 0.000000 
#    z 0.000000 0.000000 1.743110 
# 
# From -- ./inp_files/6248.got.cif
#   From: 2010.06.25/outbox.cif.g09.slc.cpg/sg58_4_cif.got.tgz:6248.got - 2010.06.26 21:38:00.
