data_PCOD8236931
_publ_section_title
;
Structure prediction by ZEFSAII (Michael W. Deem and Ramdas Pophale) SiO2 
 PCOD8236931
Probable space group: P N N M
;
_chemical_formula_sum "Si O2"
_cell_formula_units_Z 56
_cell_length_a 14.758185
_cell_length_b 20.794967
_cell_length_c 8.706048
_cell_angle_alpha 90.000000
_cell_angle_beta 90.000000
_cell_angle_gamma 90.000000
_cell_volume 2671.851046
_symmetry_space_group_name_H-M "P N N M"
_symmetry_group_IT_number 58
_symmetry_cell_setting 'orthorhombic'
loop_
_space_group_symop_operation_xyz
x,y,z
-x,-y,z
1/2+x,1/2-y,1/2-z
1/2-x,1/2+y,1/2-z
-x,-y,-z
x,y,-z
1/2-x,1/2+y,1/2+z
1/2+x,1/2-y,1/2+z
loop_
_atom_site_type_symbol
_atom_site_label
_atom_site_fract_x
_atom_site_fract_y
_atom_site_fract_z
Si Si1 0.554355 0.869150 0.329159
Si Si2 0.573391 0.048164 0.178727
Si Si3 0.225937 0.968889 0.182271
Si Si4 0.186646 0.240605 0.682624
Si Si5 0.007036 0.769505 0.173255
Si Si6 0.166042 0.839277 0.318986
Si Si7 0.748651 0.400596 0.818940
O O1 0.530242 0.893439 0.500000
O O2 0.468858 0.882351 0.217390
O O3 0.571499 0.793087 0.331661
O O4 0.645722 0.903666 0.269302
O O5 0.672611 0.041206 0.248467
O O6 0.500000 0.000000 0.255813
O O7 0.581174 0.035647 0.000000
O O8 0.168967 0.912931 0.261969
O O9 0.195664 0.040799 0.234611
O O10 0.217074 0.962240 0.000000
O O11 0.184801 0.247647 0.500000
O O12 0.256647 0.294401 0.743642
O O13 0.211917 0.168388 0.735500
O O14 0.087350 0.251345 0.751197
O O15 0.063606 0.819860 0.273960
O O16 0.991572 0.795716 0.000000
O O17 0.178666 0.835533 0.500000
O O18 0.736339 0.408409 0.000000
#
# Coordination Sequence:
#
# PCOD8236931 Si02
#       7
#     8   8   8   8   8   8   8
#     4  10  20  35  57  84 117 158 197 246 306 367
#     4  10  20  33  50  81 119 155 195 243 299 366
#     4  11  23  39  60  87 125 166 208 262 319 376
#     4  11  23  43  67  95 130 169 212 265 321 378
#     4  11  23  42  65  94 126 162 212 267 320 379
#     4  12  25  42  65  94 128 170 215 263 321 380
#     4  10  21  39  61  87 123 163 204 252 311 374
#
# _framework density 20.959253
#
# number of rings (size 3 to 8) (size 9 to 14) (size 15 to 20)
#    0.000    1.286    2.857    3.429    0.000    6.000 
#    0.000    0.714    0.000    4.286    0.000    0.000 
#    0.000    0.000    0.000    0.000    0.000    0.000 
#
# Total GULP energy -694209.810571 kJ/mol
# GULP energy per Si atom -12396.603760 kJ/mol
# Density = 2.091155 g / cm^3
# Si number density = 20.959253 Si / 1000 Ang^3
#
#
#
# Elastic Constant Matrix: (Units=GPa)
#
#
# Indices 1 2 3 4 5 6 
#
# 1 49.3461 7.0538 16.5993 0.0000 0.0000 0.0000
# 2 7.0538 107.8568 30.3749 0.0000 0.0000 0.0000
# 3 16.5993 30.3749 88.6413 0.0000 0.0000 0.0000
# 4 0.0000 0.0000 0.0000 35.1172 0.0000 0.0000
# 5 0.0000 0.0000 0.0000 0.0000 24.4654 0.0000
# 6 0.0000 0.0000 0.0000 0.0000 0.0000 30.2836
#
#
#
# Elastic Compliance Matrix: (Units=1/GPa)
#
#
# Indices 1 2 3 4 5 6 
#
# 1 0.021636 -0.000303 -0.003948 0.000000 0.000000 0.000000
# 2 -0.000303 0.010266 -0.003461 0.000000 0.000000 0.000000
# 3 -0.003948 -0.003461 0.013207 0.000000 0.000000 0.000000
# 4 0.000000 0.000000 0.000000 0.028476 0.000000 0.000000
# 5 0.000000 0.000000 0.000000 0.000000 0.040874 0.000000
# 6 0.000000 0.000000 0.000000 0.000000 0.000000 0.033021
#
#
# Mechanical properties :
#
#
# Convention : Reuss Voigt Hill
#
# Bulk Modulus (GPa) = 33.68714 39.32223 36.50469
# Shear Modulus (GPa) = 28.93522 30.76098 29.84810
#
# Velocity S-wave (km/s) = 3.71960 3.83516 3.77782
# Velocity P-wave (km/s) = 5.87833 6.19784 6.04020
#
# Compressibility (1/GPa) = 0.02968492
#
# Stress axis : x y z
#
# Youngs Moduli (GPa) = 46.21855 97.40784 75.71895
#
# Poissons Ratio (x) = 0.02954 0.29892
# Poissons Ratio (y) = 0.01401 0.26207
# Poissons Ratio (z) = 0.18246 0.33714
#
# Static dielectric constant tensor:
#      x y z
#    x 3.682370 0.000000 0.000000 
#    y 0.000000 3.959390 0.000000 
#    z 0.000000 0.000000 3.646200 
# 
# 
# High freq. dielectric constant tensor:
#      x y z
#    x 1.805160 0.000000 0.000000 
#    y 0.000000 1.830740 0.000000 
#    z 0.000000 0.000000 1.817190 
# 
# From -- ./inp_files/6360.got.cif
#   From: 2010.06.25/outbox.cif.g09.slc.cpg/sg58_4_cif.got.tgz:6360.got - 2010.06.26 21:38:00.
