data_PCOD8236049
_publ_section_title
;
Structure prediction by ZEFSAII (Michael W. Deem and Ramdas Pophale) SiO2 
 PCOD8236049
Probable space group: P N N M
;
_chemical_formula_sum "Si O2"
_cell_formula_units_Z 64
_cell_length_a 14.442958
_cell_length_b 24.269207
_cell_length_c 8.957255
_cell_angle_alpha 90.000000
_cell_angle_beta 90.000000
_cell_angle_gamma 90.000000
_cell_volume 3139.689296
_symmetry_space_group_name_H-M "P N N M"
_symmetry_group_IT_number 58
_symmetry_cell_setting 'orthorhombic'
loop_
_space_group_symop_operation_xyz
x,y,z
-x,-y,z
1/2+x,1/2-y,1/2-z
1/2-x,1/2+y,1/2-z
-x,-y,-z
x,y,-z
1/2-x,1/2+y,1/2+z
1/2+x,1/2-y,1/2+z
loop_
_atom_site_type_symbol
_atom_site_label
_atom_site_fract_x
_atom_site_fract_y
_atom_site_fract_z
Si Si1 0.747361 0.086185 0.667566
Si Si2 0.316757 0.311915 0.668148
Si Si3 0.769177 0.976576 0.173663
Si Si4 0.634517 0.245283 0.172639
Si Si5 0.050747 0.056420 0.323679
Si Si6 0.944788 0.639116 0.830103
Si Si7 0.439669 0.052153 0.175144
Si Si8 0.518521 0.332943 0.329043
O O1 0.777458 0.068969 0.500000
O O2 0.798199 0.142178 0.709010
O O3 0.779376 0.040297 0.783279
O O4 0.637823 0.094997 0.677391
O O5 0.297641 0.334578 0.500000
O O6 0.245745 0.261323 0.697751
O O7 0.424824 0.295558 0.684129
O O8 0.843525 0.941877 0.266987
O O9 0.667164 0.956379 0.216555
O O10 0.790388 0.969491 0.000000
O O11 0.579388 0.193318 0.237410
O O12 0.603510 0.300959 0.253835
O O13 0.608841 0.250487 0.000000
O O14 0.048121 0.063299 0.500000
O O15 0.999218 0.108475 0.249961
O O16 0.000000 0.000000 0.273114
O O17 0.032193 0.608165 0.759012
O O18 0.966369 0.656744 0.000000
O O19 0.500000 0.000000 0.231086
O O20 0.455540 0.060655 0.000000
O O21 0.544930 0.343883 0.500000
#
# Coordination Sequence:
#
# PCOD8236049 Si02
#       8
#     8   8   8   8   8   8   8   8
#     4  10  19  31  53  85 119 153 197 246 291 347
#     4   9  20  38  62  88 115 152 196 243 298 354
#     4  11  22  36  57  85 119 160 202 245 300 358
#     4  10  21  40  64  89 119 156 200 250 302 358
#     4  11  25  44  65  91 123 159 201 252 310 371
#     4  10  20  34  55  84 118 158 202 250 299 352
#     4  10  20  35  55  83 121 163 205 250 300 362
#     4  11  23  42  66  93 123 157 202 253 307 367
#
# _framework density 20.384181999999999
#
# number of rings (size 3 to 8) (size 9 to 14) (size 15 to 20)
#    0.000    1.750    1.250    3.000    0.000    6.750 
#    2.250    0.000    0.000    0.000    0.000    0.000 
#    0.000    0.000    0.000    0.000    0.000    0.000 
#
# Total GULP energy -793681.988130 kJ/mol
# GULP energy per Si atom -12401.281065 kJ/mol
# Density = 2.033779 g / cm^3
# Si number density = 20.384182 Si / 1000 Ang^3
#
#
#
# Elastic Constant Matrix: (Units=GPa)
#
#
# Indices 1 2 3 4 5 6 
#
# 1 109.2818 38.5255 48.2292 0.0000 0.0000 0.0000
# 2 38.5255 86.2345 42.9109 0.0000 0.0000 0.0000
# 3 48.2292 42.9109 100.7529 0.0000 0.0000 0.0000
# 4 0.0000 0.0000 0.0000 34.2843 0.0000 0.0000
# 5 0.0000 0.0000 0.0000 0.0000 27.4466 0.0000
# 6 0.0000 0.0000 0.0000 0.0000 0.0000 27.9478
#
#
#
# Elastic Compliance Matrix: (Units=1/GPa)
#
#
# Indices 1 2 3 4 5 6 
#
# 1 0.012280 -0.003250 -0.004494 0.000000 0.000000 0.000000
# 2 -0.003250 0.015575 -0.005078 0.000000 0.000000 0.000000
# 3 -0.004494 -0.005078 0.014239 0.000000 0.000000 0.000000
# 4 0.000000 0.000000 0.000000 0.029168 0.000000 0.000000
# 5 0.000000 0.000000 0.000000 0.000000 0.036434 0.000000
# 6 0.000000 0.000000 0.000000 0.000000 0.000000 0.035781
#
#
# Mechanical properties :
#
#
# Convention : Reuss Voigt Hill
#
# Bulk Modulus (GPa) = 60.78812 61.73338 61.26075
# Shear Modulus (GPa) = 28.63633 29.04266 28.83950
#
# Velocity S-wave (km/s) = 3.75217 3.77870 3.76546
# Velocity P-wave (km/s) = 6.97551 7.02772 7.00166
#
# Compressibility (1/GPa) = 0.01645058
#
# Stress axis : x y z
#
# Youngs Moduli (GPa) = 81.43573 64.20619 70.22888
#
# Poissons Ratio (x) = 0.20865 0.31561
# Poissons Ratio (y) = 0.26464 0.35661
# Poissons Ratio (z) = 0.36598 0.32602
#
# Static dielectric constant tensor:
#      x y z
#    x 3.805070 0.000000 0.000000 
#    y 0.000000 3.425160 0.000000 
#    z 0.000000 0.000000 3.715880 
# 
# 
# High freq. dielectric constant tensor:
#      x y z
#    x 1.800100 0.000000 0.000000 
#    y 0.000000 1.775470 0.000000 
#    z 0.000000 0.000000 1.805120 
# 
# From -- ./inp_files/6869.got.cif
#   From: 2010.06.25/outbox.cif.g09.slc.cpg/sg58_4_cif.got.tgz:6869.got - 2010.06.26 21:38:00.
