data_PCOD8236184
_publ_section_title
;
Structure prediction by ZEFSAII (Michael W. Deem and Ramdas Pophale) SiO2 
 PCOD8236184
Probable space group: P N N M
;
_chemical_formula_sum "Si O2"
_cell_formula_units_Z 64
_cell_length_a 18.718235
_cell_length_b 5.264883
_cell_length_c 31.907476
_cell_angle_alpha 90.000000
_cell_angle_beta 90.000000
_cell_angle_gamma 90.000000
_cell_volume 3144.459975
_symmetry_space_group_name_H-M "P N N M"
_symmetry_group_IT_number 58
_symmetry_cell_setting 'orthorhombic'
loop_
_space_group_symop_operation_xyz
x,y,z
-x,-y,z
1/2+x,1/2-y,1/2-z
1/2-x,1/2+y,1/2-z
-x,-y,-z
x,y,-z
1/2-x,1/2+y,1/2+z
1/2+x,1/2-y,1/2+z
loop_
_atom_site_type_symbol
_atom_site_label
_atom_site_fract_x
_atom_site_fract_y
_atom_site_fract_z
Si Si1 0.458218 0.250000 0.767663
Si Si2 0.716662 0.249999 0.355514
Si Si3 0.037262 0.750000 0.366604
Si Si4 0.792283 0.749999 0.546129
Si Si5 0.212162 0.749999 0.268050
Si Si6 0.831543 0.249999 0.578692
Si Si7 0.168683 0.750001 0.113593
Si Si8 0.953749 0.250000 0.953497
O O1 0.500000 0.500000 0.749794
O O2 0.465721 0.250000 0.817074
O O3 0.372973 0.250000 0.757047
O O4 0.500000 0.000000 0.749794
O O5 0.774056 0.249998 0.317922
O O6 0.753132 0.249999 0.401113
O O7 0.668275 0.505465 0.355298
O O8 0.668274 0.994533 0.355298
O O9 0.117735 0.750000 0.381438
O O10 0.000000 0.500000 0.385136
O O11 0.000000 0.000000 0.385136
O O12 0.755838 0.750000 0.500000
O O13 0.841754 0.499747 0.550113
O O14 0.737332 0.749999 0.584030
O O15 0.841755 0.000252 0.550113
O O16 0.249999 0.499996 0.250001
O O17 0.101381 0.750002 0.083853
O O18 0.000000 0.500000 0.948209
O O19 0.917702 0.250002 0.000000
O O20 0.000000 0.000000 0.948210
#
# Coordination Sequence:
#
# PCOD8236184 Si02
#       8
#     8   8   8   8   8   8   8   8
#     4  10  21  38  62  90 120 151 193 248 298 351
#     4  10  21  37  56  85 111 142 189 228 289 350
#     4  10  19  32  55  81 106 137 177 230 277 319
#     4  10  20  32  52  77 104 144 180 223 282 327
#     4  12  24  40  65  93 126 159 194 248 312 374
#     4  10  19  34  53  76 110 136 178 234 264 323
#     4  10  20  35  58  78 113 146 182 245 283 347
#     4  10  20  34  55  84 116 151 198 250 295 343
#
# _framework density 20.353255999999998
#
# number of rings (size 3 to 8) (size 9 to 14) (size 15 to 20)
#    0.000    1.750    1.250    3.750    0.000    0.000 
#    0.000    3.750    0.000   22.500    0.000    0.000 
#    0.000    0.000    0.000    0.000    0.000    0.000 
#
# Total GULP energy -793050.722596 kJ/mol
# GULP energy per Si atom -12391.417541 kJ/mol
# Density = 2.030693 g / cm^3
# Si number density = 20.353256 Si / 1000 Ang^3
#
#
#
# Elastic Constant Matrix: (Units=GPa)
#
#
# Indices 1 2 3 4 5 6 
#
# 1 102.4727 59.9636 15.3927 0.0000 0.0000 0.0000
# 2 59.9636 223.2679 34.2104 0.0000 0.0000 0.0000
# 3 15.3927 34.2104 51.5581 0.0000 0.0000 0.0000
# 4 0.0000 0.0000 0.0000 53.5470 0.0000 0.0000
# 5 0.0000 0.0000 0.0000 0.0000 54.1265 0.0000
# 6 0.0000 0.0000 0.0000 0.0000 0.0000 21.2241
#
#
#
# Elastic Compliance Matrix: (Units=1/GPa)
#
#
# Indices 1 2 3 4 5 6 
#
# 1 0.011691 -0.002900 -0.001566 0.000000 0.000000 0.000000
# 2 -0.002900 0.005705 -0.002920 0.000000 0.000000 0.000000
# 3 -0.001566 -0.002920 0.021801 0.000000 0.000000 0.000000
# 4 0.000000 0.000000 0.000000 0.018675 0.000000 0.000000
# 5 0.000000 0.000000 0.000000 0.000000 0.018475 0.000000
# 6 0.000000 0.000000 0.000000 0.000000 0.000000 0.047116
#
#
# Mechanical properties :
#
#
# Convention : Reuss Voigt Hill
#
# Bulk Modulus (GPa) = 40.94181 66.27026 53.60603
# Shear Modulus (GPa) = 34.15851 43.62832 38.89342
#
# Velocity S-wave (km/s) = 4.10113 4.63488 4.37615
# Velocity P-wave (km/s) = 6.52571 7.82774 7.20619
#
# Compressibility (1/GPa) = 0.02442491
#
# Stress axis : x y z
#
# Youngs Moduli (GPa) = 85.53693 175.28076 45.87043
#
# Poissons Ratio (x) = 0.50829 0.07184
# Poissons Ratio (y) = 0.24805 0.13393
# Poissons Ratio (z) = 0.13396 0.51178
#
# Static dielectric constant tensor:
#      x y z
#    x 3.403730 0.000000 0.000000 
#    y 0.000000 4.675990 0.000000 
#    z 0.000000 0.000000 3.411770 
# 
# 
# High freq. dielectric constant tensor:
#      x y z
#    x 1.765660 0.000000 0.000000 
#    y 0.000000 1.829220 0.000000 
#    z 0.000000 0.000000 1.774020 
# 
# From -- ./inp_files/35149.got.cif
#   From: 2010.06.25/outbox.cif.g09.slc.cpg/sg58_18_cif.got.tgz:35149.got - 2010.06.26 21:38:00.
