data_PCOD8236128
_publ_section_title
;
Structure prediction by ZEFSAII (Michael W. Deem and Ramdas Pophale) SiO2 
 PCOD8236128
Probable space group: P N N M
;
_chemical_formula_sum "Si O2"
_cell_formula_units_Z 64
_cell_length_a 14.922409
_cell_length_b 16.673729
_cell_length_c 14.595171
_cell_angle_alpha 90.000000
_cell_angle_beta 90.000000
_cell_angle_gamma 90.000000
_cell_volume 3631.456660
_symmetry_space_group_name_H-M "P N N M"
_symmetry_group_IT_number 58
_symmetry_cell_setting 'orthorhombic'
loop_
_space_group_symop_operation_xyz
x,y,z
-x,-y,z
1/2+x,1/2-y,1/2-z
1/2-x,1/2+y,1/2-z
-x,-y,-z
x,y,-z
1/2-x,1/2+y,1/2+z
1/2+x,1/2-y,1/2+z
loop_
_atom_site_type_symbol
_atom_site_label
_atom_site_fract_x
_atom_site_fract_y
_atom_site_fract_z
Si Si1 0.346947 0.187360 0.899745
Si Si2 0.999480 0.405086 0.103830
Si Si3 0.943163 0.704230 0.601906
Si Si4 0.684462 0.464379 0.900714
Si Si5 0.648125 0.102601 0.744819
Si Si6 0.679643 0.636073 0.150784
Si Si7 0.663882 0.918933 0.270203
Si Si8 0.512441 0.378039 0.106288
O O1 0.452761 0.185023 0.888144
O O2 0.308780 0.278086 0.896906
O O3 0.308871 0.133787 0.817749
O O4 0.319524 0.152875 0.000000
O O5 0.915111 0.379628 0.167861
O O6 0.000000 0.500000 0.094636
O O7 0.090557 0.374692 0.153523
O O8 0.993204 0.368516 0.000000
O O9 0.909051 0.684726 0.500000
O O10 0.887691 0.648124 0.667809
O O11 0.928903 0.798056 0.624618
O O12 0.707608 0.558754 0.909897
O O13 0.746111 0.419558 0.828897
O O14 0.579089 0.452597 0.874353
O O15 0.701943 0.424965 0.000000
O O16 0.751916 0.130719 0.736315
O O17 0.637478 0.007799 0.763433
O O18 0.573896 0.622197 0.174138
O O19 0.477202 0.378173 0.000000
#
# Coordination Sequence:
#
# PCOD8236128 Si02
#       8
#     8   8   8   8   8   8   8   8
#     4  10  20  34  52  72 102 137 169 213 256 297
#     4   9  17  30  47  69 102 135 162 199 245 301
#     4   9  18  33  51  74 103 135 170 208 252 295
#     4  10  19  32  53  77 102 133 169 211 260 310
#     4  10  20  32  50  75 103 136 172 204 249 306
#     4  10  20  32  51  75 103 132 164 210 259 308
#     4  10  20  32  47  75 105 134 174 205 248 304
#     4   9  18  32  52  76 100 128 166 209 257 300
#
# _framework density 17.623781999999999
#
# number of rings (size 3 to 8) (size 9 to 14) (size 15 to 20)
#    0.000    2.375    1.250    2.625    1.750    5.500 
#    0.000    1.250    0.000    0.000    0.000    0.875 
#    0.000    4.000    0.000    0.000    0.000    0.000 
#
# Total GULP energy -792968.168791 kJ/mol
# GULP energy per Si atom -12390.127637 kJ/mol
# Density = 1.758367 g / cm^3
# Si number density = 17.623782 Si / 1000 Ang^3
#
#
#
# Elastic Constant Matrix: (Units=GPa)
#
#
# Indices 1 2 3 4 5 6 
#
# 1 92.2430 39.6415 53.5475 0.0000 0.0000 0.0000
# 2 39.6415 59.1075 52.3619 0.0000 0.0000 0.0000
# 3 53.5475 52.3619 118.8558 0.0000 0.0000 0.0000
# 4 0.0000 0.0000 0.0000 17.5963 0.0000 0.0000
# 5 0.0000 0.0000 0.0000 0.0000 20.2449 0.0000
# 6 0.0000 0.0000 0.0000 0.0000 0.0000 24.4371
#
#
#
# Elastic Compliance Matrix: (Units=1/GPa)
#
#
# Indices 1 2 3 4 5 6 
#
# 1 0.016402 -0.007305 -0.004171 0.000000 0.000000 0.000000
# 2 -0.007305 0.031001 -0.010366 0.000000 0.000000 0.000000
# 3 -0.004171 -0.010366 0.014860 0.000000 0.000000 0.000000
# 4 0.000000 0.000000 0.000000 0.056830 0.000000 0.000000
# 5 0.000000 0.000000 0.000000 0.000000 0.049395 0.000000
# 6 0.000000 0.000000 0.000000 0.000000 0.000000 0.040921
#
#
# Mechanical properties :
#
#
# Convention : Reuss Voigt Hill
#
# Bulk Modulus (GPa) = 53.82933 62.36757 58.09845
# Shear Modulus (GPa) = 19.28374 20.76603 20.02488
#
# Velocity S-wave (km/s) = 3.31144 3.43636 3.37448
# Velocity P-wave (km/s) = 6.72538 7.15611 6.94408
#
# Compressibility (1/GPa) = 0.01857723
#
# Stress axis : x y z
#
# Youngs Moduli (GPa) = 60.96972 32.25724 67.29631
#
# Poissons Ratio (x) = 0.23564 0.28070
# Poissons Ratio (y) = 0.44538 0.69762
# Poissons Ratio (z) = 0.25431 0.33439
#
# Static dielectric constant tensor:
#      x y z
#    x 3.315470 0.000000 0.000000 
#    y 0.000000 3.240310 0.000000 
#    z 0.000000 0.000000 3.198150 
# 
# 
# High freq. dielectric constant tensor:
#      x y z
#    x 1.677920 0.000000 0.000000 
#    y 0.000000 1.668710 0.000000 
#    z 0.000000 0.000000 1.656500 
# 
# From -- ./inp_files/22460.got.cif
#   From: 2010.06.25/outbox.cif.g09.slc.cpg/sg58_12_cif.got.tgz:22460.got - 2010.06.26 21:38:00.
