data_PCOD8236861
_publ_section_title
;
Structure prediction by ZEFSAII (Michael W. Deem and Ramdas Pophale) SiO2 
 PCOD8236861
Probable space group: P N N M
;
_chemical_formula_sum "Si O2"
_cell_formula_units_Z 40
_cell_length_a 10.205211
_cell_length_b 22.849817
_cell_length_c 8.345863
_cell_angle_alpha 90.000000
_cell_angle_beta 90.000000
_cell_angle_gamma 90.000000
_cell_volume 1946.148456
_symmetry_space_group_name_H-M "P N N M"
_symmetry_group_IT_number 58
_symmetry_cell_setting 'orthorhombic'
loop_
_space_group_symop_operation_xyz
x,y,z
-x,-y,z
1/2+x,1/2-y,1/2-z
1/2-x,1/2+y,1/2-z
-x,-y,-z
x,y,-z
1/2-x,1/2+y,1/2+z
1/2+x,1/2-y,1/2+z
loop_
_atom_site_type_symbol
_atom_site_label
_atom_site_fract_x
_atom_site_fract_y
_atom_site_fract_z
Si Si1 0.516184 0.198822 0.814176
Si Si2 0.752373 0.119919 0.189976
Si Si3 0.285445 0.126112 0.316905
Si Si4 0.522080 0.325196 0.313955
Si Si5 0.847895 0.496213 0.311376
O O1 0.643018 0.164948 0.745353
O O2 0.390115 0.157471 0.797092
O O3 0.496784 0.256614 0.709594
O O4 0.532971 0.215637 0.000000
O O5 0.894735 0.139984 0.249356
O O6 0.723056 0.054690 0.253179
O O7 0.742116 0.120120 0.000000
O O8 0.326291 0.136348 0.500000
O O9 0.143501 0.153622 0.289866
O O10 0.279850 0.057487 0.278259
O O11 0.547652 0.338486 0.500000
O O12 0.828585 0.487658 0.500000
O O13 0.000000 0.500000 0.265839
#
# Coordination Sequence:
#
# PCOD8236861 Si02
#       5
#     8   8   8   8   8
#     4  11  21  40  66  92 121 159 204 254 307 368
#     4   9  20  38  63  90 117 152 200 253 309 368
#     4  12  25  40  59  90 127 165 205 249 298 363
#     4  11  23  40  61  91 126 161 200 251 310 368
#     4  10  19  39  67  89 113 155 206 257 311 369
#
# _framework density 20.553415999999999
#
# number of rings (size 3 to 8) (size 9 to 14) (size 15 to 20)
#    0.000    1.400    2.000    4.200    0.000    2.800 
#    0.000    9.000    0.000    0.000    0.000    0.000 
#    0.000    0.000    0.000    0.000    0.000    0.000 
#
# Total GULP energy -496252.154519 kJ/mol
# GULP energy per Si atom -12406.303863 kJ/mol
# Density = 2.050664 g / cm^3
# Si number density = 20.553416 Si / 1000 Ang^3
#
#
#
# Elastic Constant Matrix: (Units=GPa)
#
#
# Indices 1 2 3 4 5 6 
#
# 1 103.5677 30.0663 14.6898 0.0000 0.0000 0.0000
# 2 30.0663 123.5264 14.1492 0.0000 0.0000 0.0000
# 3 14.6898 14.1492 47.1710 0.0000 0.0000 0.0000
# 4 0.0000 0.0000 0.0000 23.3231 0.0000 0.0000
# 5 0.0000 0.0000 0.0000 0.0000 17.9779 0.0000
# 6 0.0000 0.0000 0.0000 0.0000 0.0000 26.4776
#
#
#
# Elastic Compliance Matrix: (Units=1/GPa)
#
#
# Indices 1 2 3 4 5 6 
#
# 1 0.010698 -0.002301 -0.002641 0.000000 0.000000 0.000000
# 2 -0.002301 0.008879 -0.001946 0.000000 0.000000 0.000000
# 3 -0.002641 -0.001946 0.022606 0.000000 0.000000 0.000000
# 4 0.000000 0.000000 0.000000 0.042876 0.000000 0.000000
# 5 0.000000 0.000000 0.000000 0.000000 0.055624 0.000000
# 6 0.000000 0.000000 0.000000 0.000000 0.000000 0.037768
#
#
# Mechanical properties :
#
#
# Convention : Reuss Voigt Hill
#
# Bulk Modulus (GPa) = 35.20590 43.56397 39.38494
# Shear Modulus (GPa) = 24.78972 27.91306 26.35139
#
# Velocity S-wave (km/s) = 3.47668 3.68920 3.58452
# Velocity P-wave (km/s) = 5.76910 6.27602 6.02789
#
# Compressibility (1/GPa) = 0.02840433
#
# Stress axis : x y z
#
# Youngs Moduli (GPa) = 93.47312 112.63089 44.23633
#
# Poissons Ratio (x) = 0.25921 0.11684
# Poissons Ratio (y) = 0.21512 0.08611
# Poissons Ratio (z) = 0.24689 0.21923
#
# Static dielectric constant tensor:
#      x y z
#    x 3.770300 0.000000 0.000000 
#    y 0.000000 3.915510 0.000000 
#    z 0.000000 0.000000 3.377670 
# 
# 
# High freq. dielectric constant tensor:
#      x y z
#    x 1.807600 0.000000 0.000000 
#    y 0.000000 1.818380 0.000000 
#    z 0.000000 0.000000 1.783280 
# 
# From -- ./inp_files/2439.got.cif
#   From: 2010.06.25/outbox.cif.g09.slc.cpg/sg58_2_cif.got.tgz:2439.got - 2010.06.26 21:38:00.
