data_PCOD8236524
_publ_section_title
;
Structure prediction by ZEFSAII (Michael W. Deem and Ramdas Pophale) SiO2 
 PCOD8236524
Probable space group: P N N M
;
_chemical_formula_sum "Si O2"
_cell_formula_units_Z 64
_cell_length_a 28.749031
_cell_length_b 12.867893
_cell_length_c 8.945686
_cell_angle_alpha 90.000000
_cell_angle_beta 90.000000
_cell_angle_gamma 90.000000
_cell_volume 3309.362201
_symmetry_space_group_name_H-M "P N N M"
_symmetry_group_IT_number 58
_symmetry_cell_setting 'orthorhombic'
loop_
_space_group_symop_operation_xyz
x,y,z
-x,-y,z
1/2+x,1/2-y,1/2-z
1/2-x,1/2+y,1/2-z
-x,-y,-z
x,y,-z
1/2-x,1/2+y,1/2+z
1/2+x,1/2-y,1/2+z
loop_
_atom_site_type_symbol
_atom_site_label
_atom_site_fract_x
_atom_site_fract_y
_atom_site_fract_z
Si Si1 0.101424 0.108826 0.177187
Si Si2 0.604689 0.966313 0.176692
Si Si3 0.958790 0.293322 0.827565
Si Si4 0.571095 0.593705 0.169290
Si Si5 0.177080 0.846464 0.668635
Si Si6 0.202404 0.044662 0.824061
Si Si7 0.799439 0.378435 0.677214
Si Si8 0.564987 0.167276 0.328617
O O1 0.155133 0.100326 0.233646
O O2 0.082753 0.220679 0.228530
O O3 0.069718 0.019283 0.252262
O O4 0.097638 0.093436 0.000000
O O5 0.587879 0.078415 0.229330
O O6 0.576170 0.871880 0.247993
O O7 0.658992 0.956434 0.224350
O O8 0.598139 0.956624 0.000000
O O9 0.960131 0.178092 0.755878
O O10 0.009858 0.341437 0.811287
O O11 0.944216 0.282372 0.000000
O O12 0.622368 0.639332 0.172653
O O13 0.552712 0.581345 0.000000
O O14 0.196002 0.859890 0.500000
O O15 0.188157 0.734938 0.737782
O O16 0.203027 0.925509 0.776415
O O17 0.249305 0.092644 0.752650
O O18 0.204424 0.052892 0.000000
O O19 0.796057 0.376482 0.500000
O O20 0.580137 0.150279 0.500000
#
# Coordination Sequence:
#
# PCOD8236524 Si02
#       8
#     8   8   8   8   8   8   8   8
#     4   9  19  37  57  79 111 150 187 225 277 335
#     4  11  22  38  58  81 111 147 187 232 282 334
#     4  11  22  37  58  82 111 147 187 232 283 334
#     4  10  19  34  58  84 110 141 185 233 275 326
#     4   9  17  33  53  74 106 142 174 220 276 322
#     4   9  18  33  55  80 105 139 181 222 269 327
#     4   9  18  34  54  78 108 141 175 221 278 326
#     4  10  23  40  56  80 115 151 186 230 281 335
#
# _framework density 19.339075000000001
#
# number of rings (size 3 to 8) (size 9 to 14) (size 15 to 20)
#    0.000    2.250    1.250    1.500    0.000    5.000 
#    0.000    5.625    0.000    0.000    0.000    0.000 
#    0.000    0.000    0.000    0.000    0.000    0.000 
#
# Total GULP energy -793504.245140 kJ/mol
# GULP energy per Si atom -12398.503830 kJ/mol
# Density = 1.929506 g / cm^3
# Si number density = 19.339075 Si / 1000 Ang^3
#
#
#
# Elastic Constant Matrix: (Units=GPa)
#
#
# Indices 1 2 3 4 5 6 
#
# 1 51.8462 28.5371 23.8444 0.0000 0.0000 0.0000
# 2 28.5371 113.3537 32.7271 0.0000 0.0000 0.0000
# 3 23.8444 32.7271 59.2983 0.0000 0.0000 0.0000
# 4 0.0000 0.0000 0.0000 35.6955 0.0000 0.0000
# 5 0.0000 0.0000 0.0000 0.0000 20.5258 0.0000
# 6 0.0000 0.0000 0.0000 0.0000 0.0000 26.0613
#
#
#
# Elastic Compliance Matrix: (Units=1/GPa)
#
#
# Indices 1 2 3 4 5 6 
#
# 1 0.025140 -0.004057 -0.007870 0.000000 0.000000 0.000000
# 2 -0.004057 0.011149 -0.004522 0.000000 0.000000 0.000000
# 3 -0.007870 -0.004522 0.022524 0.000000 0.000000 0.000000
# 4 0.000000 0.000000 0.000000 0.028015 0.000000 0.000000
# 5 0.000000 0.000000 0.000000 0.000000 0.048719 0.000000
# 6 0.000000 0.000000 0.000000 0.000000 0.000000 0.038371
#
#
# Mechanical properties :
#
#
# Convention : Reuss Voigt Hill
#
# Bulk Modulus (GPa) = 38.58674 43.85728 41.22201
# Shear Modulus (GPa) = 23.20677 25.74916 24.47797
#
# Velocity S-wave (km/s) = 3.46785 3.65287 3.56156
# Velocity P-wave (km/s) = 6.00256 6.36542 6.18665
#
# Compressibility (1/GPa) = 0.02591564
#
# Stress axis : x y z
#
# Youngs Moduli (GPa) = 39.77669 89.69588 44.39685
#
# Poissons Ratio (x) = 0.36389 0.34941
# Poissons Ratio (y) = 0.16137 0.20075
# Poissons Ratio (z) = 0.31305 0.40558
#
# Static dielectric constant tensor:
#      x y z
#    x 3.731420 0.000000 0.000000 
#    y 0.000000 3.636730 0.000000 
#    z 0.000000 0.000000 3.435850 
# 
# 
# High freq. dielectric constant tensor:
#      x y z
#    x 1.753380 0.000000 0.000000 
#    y 0.000000 1.759440 0.000000 
#    z 0.000000 0.000000 1.737820 
# 
# From -- ./inp_files/11034.got.cif
#   From: 2010.06.25/outbox.cif.g09.slc.cpg/sg58_6_cif.got.tgz:11034.got - 2010.06.26 21:38:00.
