data_PCOD8236698
_publ_section_title
;
Structure prediction by ZEFSAII (Michael W. Deem and Ramdas Pophale) SiO2 
 PCOD8236698
Probable space group: P N N M
;
_chemical_formula_sum "Si O2"
_cell_formula_units_Z 64
_cell_length_a 18.170166
_cell_length_b 11.583523
_cell_length_c 15.463640
_cell_angle_alpha 90.000000
_cell_angle_beta 90.000000
_cell_angle_gamma 90.000000
_cell_volume 3254.702450
_symmetry_space_group_name_H-M "P N N M"
_symmetry_group_IT_number 58
_symmetry_cell_setting 'orthorhombic'
loop_
_space_group_symop_operation_xyz
x,y,z
-x,-y,z
1/2+x,1/2-y,1/2-z
1/2-x,1/2+y,1/2-z
-x,-y,-z
x,y,-z
1/2-x,1/2+y,1/2+z
1/2+x,1/2-y,1/2+z
loop_
_atom_site_type_symbol
_atom_site_label
_atom_site_fract_x
_atom_site_fract_y
_atom_site_fract_z
Si Si1 0.788175 0.405812 0.673337
Si Si2 0.332753 0.861834 0.899300
Si Si3 0.572755 0.246249 0.248137
Si Si4 0.919538 0.992200 0.678168
Si Si5 0.260818 0.507496 0.858835
Si Si6 0.190446 0.730691 0.906241
Si Si7 0.681772 0.223930 0.599730
Si Si8 0.092490 0.757670 0.753628
O O1 0.824523 0.501231 0.611653
O O2 0.753717 0.466298 0.757759
O O3 0.723058 0.342809 0.621807
O O4 0.852275 0.314913 0.694216
O O5 0.396579 0.812128 0.838888
O O6 0.258386 0.800829 0.864941
O O7 0.349361 0.832711 0.000000
O O8 0.576832 0.384951 0.244168
O O9 0.613058 0.204650 0.335589
O O10 0.488654 0.204021 0.249842
O O11 0.904838 0.108524 0.730339
O O12 0.847934 0.975515 0.617111
O O13 0.000000 0.000000 0.629432
O O14 0.213113 0.596626 0.914315
O O15 0.238622 0.379567 0.885219
O O16 0.117195 0.747786 0.852339
O O17 0.172249 0.780883 0.000000
O O18 0.654699 0.227023 0.500000
#
# Coordination Sequence:
#
# PCOD8236698 Si02
#       8
#     8   8   8   8   8   8   8   8
#     4  11  21  38  61  87 118 157 203 247 302 352
#     4  11  22  39  64  89 114 153 205 251 300 362
#     4  11  22  41  61  87 123 159 197 244 308 361
#     4  10  19  35  64  88 111 153 198 241 302 362
#     4  11  19  38  64  84 120 159 202 249 295 349
#     4  10  21  37  60  89 116 153 204 247 286 353
#     4  12  24  38  62  94 125 160 202 253 304 360
#     4  10  22  38  63  85 117 164 195 243 306 361
#
# _framework density 19.663855000000002
#
# number of rings (size 3 to 8) (size 9 to 14) (size 15 to 20)
#    0.000    1.250    5.000    2.250    0.000    1.000 
#    0.000    1.875    0.000    7.125    0.000    0.000 
#    0.000    0.000    0.000    0.000    0.000    0.000 
#
# Total GULP energy -793441.213977 kJ/mol
# GULP energy per Si atom -12397.518968 kJ/mol
# Density = 1.961910 g / cm^3
# Si number density = 19.663855 Si / 1000 Ang^3
#
#
#
# Elastic Constant Matrix: (Units=GPa)
#
#
# Indices 1 2 3 4 5 6 
#
# 1 112.3174 14.6114 36.8199 0.0000 0.0000 0.0000
# 2 14.6114 81.0129 15.3969 0.0000 0.0000 0.0000
# 3 36.8199 15.3969 97.3350 0.0000 0.0000 0.0000
# 4 0.0000 0.0000 0.0000 19.3578 0.0000 0.0000
# 5 0.0000 0.0000 0.0000 0.0000 14.8123 0.0000
# 6 0.0000 0.0000 0.0000 0.0000 0.0000 28.1623
#
#
#
# Elastic Compliance Matrix: (Units=1/GPa)
#
#
# Indices 1 2 3 4 5 6 
#
# 1 0.010266 -0.001148 -0.003702 0.000000 0.000000 0.000000
# 2 -0.001148 0.012855 -0.001599 0.000000 0.000000 0.000000
# 3 -0.003702 -0.001599 0.011927 0.000000 0.000000 0.000000
# 4 0.000000 0.000000 0.000000 0.051659 0.000000 0.000000
# 5 0.000000 0.000000 0.000000 0.000000 0.067512 0.000000
# 6 0.000000 0.000000 0.000000 0.000000 0.000000 0.035508
#
#
# Mechanical properties :
#
#
# Convention : Reuss Voigt Hill
#
# Bulk Modulus (GPa) = 45.14697 47.14684 46.14690
# Shear Modulus (GPa) = 23.80858 27.38896 25.59877
#
# Velocity S-wave (km/s) = 3.48340 3.73615 3.61199
# Velocity P-wave (km/s) = 6.26003 6.52995 6.39641
#
# Compressibility (1/GPa) = 0.02214988
#
# Stress axis : x y z
#
# Youngs Moduli (GPa) = 97.40659 77.79260 83.84259
#
# Poissons Ratio (x) = 0.08931 0.31038
# Poissons Ratio (y) = 0.11183 0.13408
# Poissons Ratio (z) = 0.36059 0.12440
#
# Static dielectric constant tensor:
#      x y z
#    x 3.762220 0.000000 0.000000 
#    y 0.000000 3.690380 0.000000 
#    z 0.000000 0.000000 3.406170 
# 
# 
# High freq. dielectric constant tensor:
#      x y z
#    x 1.764380 0.000000 0.000000 
#    y 0.000000 1.780570 0.000000 
#    z 0.000000 0.000000 1.746280 
# 
# From -- ./inp_files/22947.got.cif
#   From: 2010.06.25/outbox.cif.g09.slc.cpg/sg58_12_cif.got.tgz:22947.got - 2010.06.26 21:38:00.
