data_PCOD8236314
_publ_section_title
;
Structure prediction by ZEFSAII (Michael W. Deem and Ramdas Pophale) SiO2 
 PCOD8236314
Probable space group: P N N M
;
_chemical_formula_sum "Si O2"
_cell_formula_units_Z 56
_cell_length_a 14.333555
_cell_length_b 21.837470
_cell_length_c 8.918137
_cell_angle_alpha 90.000000
_cell_angle_beta 90.000000
_cell_angle_gamma 90.000000
_cell_volume 2791.453375
_symmetry_space_group_name_H-M "P N N M"
_symmetry_group_IT_number 58
_symmetry_cell_setting 'orthorhombic'
loop_
_space_group_symop_operation_xyz
x,y,z
-x,-y,z
1/2+x,1/2-y,1/2-z
1/2-x,1/2+y,1/2-z
-x,-y,-z
x,y,-z
1/2-x,1/2+y,1/2+z
1/2+x,1/2-y,1/2+z
loop_
_atom_site_type_symbol
_atom_site_label
_atom_site_fract_x
_atom_site_fract_y
_atom_site_fract_z
Si Si1 0.398228 0.214525 0.174579
Si Si2 0.282002 0.113818 0.677054
Si Si3 0.789397 0.603308 0.171567
Si Si4 0.088863 0.855109 0.673132
Si Si5 0.915483 0.716002 0.171534
Si Si6 0.607940 0.995097 0.175130
Si Si7 0.400835 0.643751 0.325274
O O1 0.319858 0.178678 0.265739
O O2 0.386280 0.285483 0.215120
O O3 0.500865 0.192028 0.223772
O O4 0.383736 0.200589 0.000000
O O5 0.278884 0.112616 0.500000
O O6 0.177500 0.104553 0.739622
O O7 0.348618 0.060217 0.732953
O O8 0.679158 0.603476 0.207727
O O9 0.827398 0.672026 0.196125
O O10 0.840388 0.557805 0.283779
O O11 0.806779 0.582387 0.000000
O O12 0.059442 0.859134 0.500000
O O13 0.002618 0.879061 0.771847
O O14 0.886244 0.784762 0.215664
O O15 0.950772 0.714500 0.000000
O O16 0.500000 0.000000 0.220367
O O17 0.620301 0.981907 0.000000
O O18 0.390588 0.630791 0.500000
#
# Coordination Sequence:
#
# PCOD8236314 Si02
#       7
#     8   8   8   8   8   8   8
#     4  10  19  33  55  84 118 152 186 229 278 329
#     4  12  24  38  58  82 111 150 192 233 281 336
#     4  10  20  36  58  82 112 150 188 227 274 331
#     4   9  19  36  57  84 118 152 185 225 277 333
#     4   9  18  33  55  85 119 153 186 224 276 334
#     4  11  25  43  61  83 111 143 183 233 284 332
#     4  10  20  36  58  85 117 150 187 232 278 328
#
# _framework density 20.061233000000001
#
# number of rings (size 3 to 8) (size 9 to 14) (size 15 to 20)
#    0.000    1.857    0.000    4.286    0.000    8.000 
#    0.000    2.143    0.000    4.286    0.000    0.000 
#    0.000    0.000    0.000    0.000    0.000    0.000 
#
# Total GULP energy -694656.406865 kJ/mol
# GULP energy per Si atom -12404.578694 kJ/mol
# Density = 2.001557 g / cm^3
# Si number density = 20.061233 Si / 1000 Ang^3
#
#
#
# Elastic Constant Matrix: (Units=GPa)
#
#
# Indices 1 2 3 4 5 6 
#
# 1 143.5743 40.8670 68.2468 0.0000 0.0000 0.0000
# 2 40.8670 47.5455 32.2478 0.0000 0.0000 0.0000
# 3 68.2468 32.2478 107.2769 0.0000 0.0000 0.0000
# 4 0.0000 0.0000 0.0000 29.0480 0.0000 0.0000
# 5 0.0000 0.0000 0.0000 0.0000 37.7633 0.0000
# 6 0.0000 0.0000 0.0000 0.0000 0.0000 30.2585
#
#
#
# Elastic Compliance Matrix: (Units=1/GPa)
#
#
# Indices 1 2 3 4 5 6 
#
# 1 0.011209 -0.006027 -0.005319 0.000000 0.000000 0.000000
# 2 -0.006027 0.029659 -0.005082 0.000000 0.000000 0.000000
# 3 -0.005319 -0.005082 0.014233 0.000000 0.000000 0.000000
# 4 0.000000 0.000000 0.000000 0.034426 0.000000 0.000000
# 5 0.000000 0.000000 0.000000 0.000000 0.026481 0.000000
# 6 0.000000 0.000000 0.000000 0.000000 0.000000 0.033049
#
#
# Mechanical properties :
#
#
# Convention : Reuss Voigt Hill
#
# Bulk Modulus (GPa) = 44.95131 64.56887 54.76009
# Shear Modulus (GPa) = 26.40935 29.88296 28.14616
#
# Velocity S-wave (km/s) = 3.63221 3.86370 3.74974
# Velocity P-wave (km/s) = 6.32821 7.22219 6.78993
#
# Compressibility (1/GPa) = 0.02224629
#
# Stress axis : x y z
#
# Youngs Moduli (GPa) = 89.21482 33.71626 70.25855
#
# Poissons Ratio (x) = 0.20320 0.37372
# Poissons Ratio (y) = 0.53767 0.35703
# Poissons Ratio (z) = 0.47455 0.17133
#
# Static dielectric constant tensor:
#      x y z
#    x 3.785310 0.000000 0.000000 
#    y 0.000000 3.423520 0.000000 
#    z 0.000000 0.000000 3.670410 
# 
# 
# High freq. dielectric constant tensor:
#      x y z
#    x 1.795430 0.000000 0.000000 
#    y 0.000000 1.761200 0.000000 
#    z 0.000000 0.000000 1.784090 
# 
# From -- ./inp_files/6309.got.cif
#   From: 2010.06.25/outbox.cif.g09.slc.cpg/sg58_4_cif.got.tgz:6309.got - 2010.06.26 21:38:00.
