data_PCOD8236991
_publ_section_title
;
Structure prediction by ZEFSAII (Michael W. Deem and Ramdas Pophale) SiO2 
 PCOD8236991
Probable space group: P N N M
;
_chemical_formula_sum "Si O2"
_cell_formula_units_Z 56
_cell_length_a 23.835228
_cell_length_b 13.349748
_cell_length_c 8.787462
_cell_angle_alpha 90.000000
_cell_angle_beta 90.000000
_cell_angle_gamma 90.000000
_cell_volume 2796.120208
_symmetry_space_group_name_H-M "P N N M"
_symmetry_group_IT_number 58
_symmetry_cell_setting 'orthorhombic'
loop_
_space_group_symop_operation_xyz
x,y,z
-x,-y,z
1/2+x,1/2-y,1/2-z
1/2-x,1/2+y,1/2-z
-x,-y,-z
x,y,-z
1/2-x,1/2+y,1/2+z
1/2+x,1/2-y,1/2+z
loop_
_atom_site_type_symbol
_atom_site_label
_atom_site_fract_x
_atom_site_fract_y
_atom_site_fract_z
Si Si1 0.553227 0.723579 0.179287
Si Si2 0.127134 0.385961 0.823413
Si Si3 0.943147 0.450983 0.320230
Si Si4 0.276306 0.774951 0.174899
Si Si5 0.937584 0.812955 0.821220
Si Si6 0.160396 0.869069 0.823623
Si Si7 0.662076 0.424557 0.821487
O O1 0.561290 0.837179 0.237169
O O2 0.501026 0.673792 0.265769
O O3 0.608126 0.661383 0.220513
O O4 0.542055 0.718886 0.000000
O O5 0.110171 0.488086 0.740178
O O6 0.189412 0.354773 0.774262
O O7 0.083369 0.298505 0.779159
O O8 0.127223 0.408720 0.000000
O O9 0.942917 0.456286 0.500000
O O10 0.000000 0.500000 0.253687
O O11 0.210471 0.790136 0.205126
O O12 0.293105 0.661966 0.220698
O O13 0.292141 0.795072 0.000000
O O14 0.900030 0.893116 0.731791
O O15 0.932742 0.834426 0.000000
O O16 0.181422 0.978068 0.771163
O O17 0.142881 0.870919 0.000000
O O18 0.661167 0.447868 0.000000
#
# Coordination Sequence:
#
# PCOD8236991 Si02
#       7
#     8   8   8   8   8   8   8
#     4  11  23  38  58  85 118 158 199 243 292 348
#     4  10  20  33  57  89 119 153 196 244 292 344
#     4  10  20  35  56  84 121 160 196 236 289 351
#     4   9  21  41  63  84 114 155 197 239 289 348
#     4  10  20  36  58  87 119 153 194 241 293 348
#     4  11  24  42  61  87 121 154 191 243 297 344
#     4  10  21  40  65  89 115 152 196 240 287 349
#
# _framework density 20.027750999999999
#
# number of rings (size 3 to 8) (size 9 to 14) (size 15 to 20)
#    0.000    1.857    1.429    2.143    0.000    6.000 
#    0.000    5.714    0.000    0.000    0.000    0.000 
#    0.000    0.000    0.000    0.000    0.000    0.000 
#
# Total GULP energy -694712.932171 kJ/mol
# GULP energy per Si atom -12405.588074 kJ/mol
# Density = 1.998217 g / cm^3
# Si number density = 20.027751 Si / 1000 Ang^3
#
#
#
# Elastic Constant Matrix: (Units=GPa)
#
#
# Indices 1 2 3 4 5 6 
#
# 1 94.5116 29.8204 18.5219 0.0000 0.0000 0.0000
# 2 29.8204 89.7541 20.2626 0.0000 0.0000 0.0000
# 3 18.5219 20.2626 44.5378 0.0000 0.0000 0.0000
# 4 0.0000 0.0000 0.0000 31.2580 0.0000 0.0000
# 5 0.0000 0.0000 0.0000 0.0000 30.0073 0.0000
# 6 0.0000 0.0000 0.0000 0.0000 0.0000 27.5728
#
#
#
# Elastic Compliance Matrix: (Units=1/GPa)
#
#
# Indices 1 2 3 4 5 6 
#
# 1 0.012327 -0.003274 -0.003637 0.000000 0.000000 0.000000
# 2 -0.003274 0.013287 -0.004683 0.000000 0.000000 0.000000
# 3 -0.003637 -0.004683 0.026096 0.000000 0.000000 0.000000
# 4 0.000000 0.000000 0.000000 0.031992 0.000000 0.000000
# 5 0.000000 0.000000 0.000000 0.000000 0.033325 0.000000
# 6 0.000000 0.000000 0.000000 0.000000 0.000000 0.036268
#
#
# Mechanical properties :
#
#
# Convention : Reuss Voigt Hill
#
# Bulk Modulus (GPa) = 35.06203 40.66815 37.86509
# Shear Modulus (GPa) = 26.88335 28.44752 27.66544
#
# Velocity S-wave (km/s) = 3.66772 3.77292 3.72069
# Velocity P-wave (km/s) = 5.95659 6.27135 6.11600
#
# Compressibility (1/GPa) = 0.02852088
#
# Stress axis : x y z
#
# Youngs Moduli (GPa) = 81.12569 75.26318 38.32045
#
# Poissons Ratio (x) = 0.24645 0.13935
# Poissons Ratio (y) = 0.26564 0.17946
# Poissons Ratio (z) = 0.29501 0.35246
#
# Static dielectric constant tensor:
#      x y z
#    x 3.507880 0.000000 0.000000 
#    y 0.000000 3.679490 0.000000 
#    z 0.000000 0.000000 3.557130 
# 
# 
# High freq. dielectric constant tensor:
#      x y z
#    x 1.776710 0.000000 0.000000 
#    y 0.000000 1.779580 0.000000 
#    z 0.000000 0.000000 1.785160 
# 
# From -- ./inp_files/8964.got.cif
#   From: 2010.06.25/outbox.cif.g09.slc.cpg/sg58_5_cif.got.tgz:8964.got - 2010.06.26 21:38:00.
