data_PCOD8236985
_publ_section_title
;
Structure prediction by ZEFSAII (Michael W. Deem and Ramdas Pophale) SiO2 
 PCOD8236985
Probable space group: P N N M
;
_chemical_formula_sum "Si O2"
_cell_formula_units_Z 44
_cell_length_a 8.189197
_cell_length_b 18.092157
_cell_length_c 14.915614
_cell_angle_alpha 90.000000
_cell_angle_beta 90.000000
_cell_angle_gamma 90.000000
_cell_volume 2209.900918
_symmetry_space_group_name_H-M "P N N M"
_symmetry_group_IT_number 58
_symmetry_cell_setting 'orthorhombic'
loop_
_space_group_symop_operation_xyz
x,y,z
-x,-y,z
1/2+x,1/2-y,1/2-z
1/2-x,1/2+y,1/2-z
-x,-y,-z
x,y,-z
1/2-x,1/2+y,1/2+z
1/2+x,1/2-y,1/2+z
loop_
_atom_site_type_symbol
_atom_site_label
_atom_site_fract_x
_atom_site_fract_y
_atom_site_fract_z
Si Si1 0.281844 0.052303 0.395194
Si Si2 0.084981 0.182547 0.327458
Si Si3 0.804322 0.175967 0.192880
Si Si4 0.369204 0.898667 0.650202
Si Si5 0.107264 0.279459 0.000000
Si Si6 0.295008 0.321196 0.500000
Si Si7 0.048040 0.753647 0.500000
O O1 0.290856 0.074778 0.500000
O O2 0.148109 0.099543 0.342496
O O3 0.449801 0.070089 0.345551
O O4 0.248763 0.964349 0.385038
O O5 0.231145 0.241900 0.322752
O O6 0.965120 0.197315 0.410462
O O7 0.982398 0.184994 0.235944
O O8 0.684813 0.124975 0.250376
O O9 0.826486 0.136920 0.094353
O O10 0.365992 0.828109 0.587471
O O11 0.263869 0.221829 0.000000
O O12 0.925566 0.246581 0.000000
O O13 0.100975 0.303546 0.500000
#
# Coordination Sequence:
#
# PCOD8236985 Si02
#       7
#     8   8   8   8   4   4   4
#     4  11  21  37  61  93 130 159 187 252 331 383
#     4  11  21  36  57  85 123 157 203 248 308 373
#     4  11  23  38  56  85 118 167 206 256 297 360
#     4  11  21  36  60  89 127 162 196 240 315 390
#     4  12  18  36  61  90 126 163 191 246 318 385
#     4  10  24  40  58  80 129 161 217 267 293 340
#     4  10  20  33  55  91 116 157 195 248 305 377
#
# _framework density 19.910395000000001
#
# number of rings (size 3 to 8) (size 9 to 14) (size 15 to 20)
#    0.000    1.091    4.545    4.909    0.000    0.727 
#    0.000    1.818    0.000    4.364    0.000    0.000 
#    0.000    0.000    0.000    0.000    0.000    0.000 
#
# Total GULP energy -545178.002708 kJ/mol
# GULP energy per Si atom -12390.409152 kJ/mol
# Density = 1.986508 g / cm^3
# Si number density = 19.910395 Si / 1000 Ang^3
#
#
#
# Elastic Constant Matrix: (Units=GPa)
#
#
# Indices 1 2 3 4 5 6 
#
# 1 80.5541 19.7073 32.0359 0.0000 0.0000 0.0000
# 2 19.7073 49.6980 26.1661 0.0000 0.0000 0.0000
# 3 32.0359 26.1661 172.4726 0.0000 0.0000 0.0000
# 4 0.0000 0.0000 0.0000 24.3304 0.0000 0.0000
# 5 0.0000 0.0000 0.0000 0.0000 38.3211 0.0000
# 6 0.0000 0.0000 0.0000 0.0000 0.0000 21.0945
#
#
#
# Elastic Compliance Matrix: (Units=1/GPa)
#
#
# Indices 1 2 3 4 5 6 
#
# 1 0.014330 -0.004653 -0.001956 0.000000 0.000000 0.000000
# 2 -0.004653 0.023379 -0.002683 0.000000 0.000000 0.000000
# 3 -0.001956 -0.002683 0.006568 0.000000 0.000000 0.000000
# 4 0.000000 0.000000 0.000000 0.041101 0.000000 0.000000
# 5 0.000000 0.000000 0.000000 0.000000 0.026095 0.000000
# 6 0.000000 0.000000 0.000000 0.000000 0.000000 0.047406
#
#
# Mechanical properties :
#
#
# Convention : Reuss Voigt Hill
#
# Bulk Modulus (GPa) = 38.91821 50.94926 44.93373
# Shear Modulus (GPa) = 26.87788 31.73690 29.30739
#
# Velocity S-wave (km/s) = 3.67814 3.99681 3.84078
# Velocity P-wave (km/s) = 6.13412 6.85158 6.50275
#
# Compressibility (1/GPa) = 0.02569491
#
# Stress axis : x y z
#
# Youngs Moduli (GPa) = 69.78302 42.77352 152.24634
#
# Poissons Ratio (x) = 0.19901 0.29778
# Poissons Ratio (y) = 0.32468 0.40842
# Poissons Ratio (z) = 0.13649 0.11475
#
# Static dielectric constant tensor:
#      x y z
#    x 3.766050 0.000000 0.000000 
#    y 0.000000 3.421460 0.000000 
#    z 0.000000 0.000000 3.995070 
# 
# 
# High freq. dielectric constant tensor:
#      x y z
#    x 1.791790 0.000000 0.000000 
#    y 0.000000 1.727350 0.000000 
#    z 0.000000 0.000000 1.782200 
# 
# From -- ./inp_files/19752.got.cif
#   From: 2010.06.25/outbox.cif.g09.slc.cpg/sg58_10_cif.got.tgz:19752.got - 2010.06.26 21:38:00.
