data_PCOD8236158
_publ_section_title
;
Structure prediction by ZEFSAII (Michael W. Deem and Ramdas Pophale) SiO2 
 PCOD8236158
Probable space group: P N N M
;
_chemical_formula_sum "Si O2"
_cell_formula_units_Z 64
_cell_length_a 20.769114
_cell_length_b 18.485097
_cell_length_c 8.978006
_cell_angle_alpha 90.000000
_cell_angle_beta 90.000000
_cell_angle_gamma 90.000000
_cell_volume 3446.827866
_symmetry_space_group_name_H-M "P N N M"
_symmetry_group_IT_number 58
_symmetry_cell_setting 'orthorhombic'
loop_
_space_group_symop_operation_xyz
x,y,z
-x,-y,z
1/2+x,1/2-y,1/2-z
1/2-x,1/2+y,1/2-z
-x,-y,-z
x,y,-z
1/2-x,1/2+y,1/2+z
1/2+x,1/2-y,1/2+z
loop_
_atom_site_type_symbol
_atom_site_label
_atom_site_fract_x
_atom_site_fract_y
_atom_site_fract_z
Si Si1 0.501890 0.155140 0.670366
Si Si2 0.736665 0.426930 0.825062
Si Si3 0.256880 0.421077 0.676101
Si Si4 0.627716 0.153294 0.824070
Si Si5 0.867284 0.816759 0.329061
Si Si6 0.853279 0.185459 0.670983
Si Si7 0.493919 0.300715 0.831933
Si Si8 0.139073 0.662164 0.827036
O O1 0.520699 0.144100 0.500000
O O2 0.560208 0.119704 0.764326
O O3 0.495535 0.239521 0.707355
O O4 0.430310 0.123567 0.704932
O O5 0.725918 0.502506 0.745499
O O6 0.683653 0.371636 0.755254
O O7 0.807314 0.396963 0.787956
O O8 0.726255 0.438971 0.000000
O O9 0.258703 0.427029 0.500000
O O10 0.186672 0.395475 0.732877
O O11 0.309159 0.362858 0.725529
O O12 0.637084 0.235393 0.761620
O O13 0.623967 0.154057 0.000000
O O14 0.846561 0.810934 0.500000
O O15 0.940635 0.847856 0.310127
O O16 0.830076 0.181025 0.500000
O O17 0.927155 0.155430 0.686010
O O18 0.849783 0.268383 0.723571
O O19 0.496362 0.266481 0.000000
O O20 0.143450 0.686537 0.000000
#
# Coordination Sequence:
#
# PCOD8236158 Si02
#       8
#     8   8   8   8   8   8   8   8
#     4   9  16  27  48  78 105 127 158 205 254 296
#     4  10  20  35  53  72  99 136 174 209 248 299
#     4  11  23  37  51  70 101 137 172 214 260 303
#     4   9  18  34  54  73  96 130 168 205 251 306
#     4   8  14  29  54  76  93 122 165 205 241 289
#     4  10  19  32  54  80 103 131 169 211 251 299
#     4   8  15  29  49  75 104 131 163 202 245 298
#     4   9  18  33  53  78 107 136 165 203 254 305
#
# _framework density 18.567796000000001
#
# number of rings (size 3 to 8) (size 9 to 14) (size 15 to 20)
#    0.000    2.750    0.000    2.625    0.000    4.500 
#    0.000    3.750    0.000    7.500    0.000    0.000 
#    0.000    0.000    0.000    0.000    0.000    0.000 
#
# Total GULP energy -793060.809454 kJ/mol
# GULP energy per Si atom -12391.575148 kJ/mol
# Density = 1.852554 g / cm^3
# Si number density = 18.567796 Si / 1000 Ang^3
#
#
#
# Elastic Constant Matrix: (Units=GPa)
#
#
# Indices 1 2 3 4 5 6 
#
# 1 95.1564 2.3214 19.3186 0.0000 0.0000 0.0000
# 2 2.3214 29.9248 10.1691 0.0000 0.0000 0.0000
# 3 19.3186 10.1691 33.4656 0.0000 0.0000 0.0000
# 4 0.0000 0.0000 0.0000 21.9461 0.0000 0.0000
# 5 0.0000 0.0000 0.0000 0.0000 26.3356 0.0000
# 6 0.0000 0.0000 0.0000 0.0000 0.0000 4.8385
#
#
#
# Elastic Compliance Matrix: (Units=1/GPa)
#
#
# Indices 1 2 3 4 5 6 
#
# 1 0.011971 0.001583 -0.007392 0.000000 0.000000 0.000000
# 2 0.001583 0.037475 -0.012301 0.000000 0.000000 0.000000
# 3 -0.007392 -0.012301 0.037886 0.000000 0.000000 0.000000
# 4 0.000000 0.000000 0.000000 0.045566 0.000000 0.000000
# 5 0.000000 0.000000 0.000000 0.000000 0.037971 0.000000
# 6 0.000000 0.000000 0.000000 0.000000 0.000000 0.206675
#
#
# Mechanical properties :
#
#
# Convention : Reuss Voigt Hill
#
# Bulk Modulus (GPa) = 19.56465 24.68500 22.12482
# Shear Modulus (GPa) = 11.60629 19.07321 15.33975
#
# Velocity S-wave (km/s) = 2.50286 3.20850 2.87740
# Velocity P-wave (km/s) = 4.34881 5.20090 4.79383
#
# Compressibility (1/GPa) = 0.05111260
#
# Stress axis : x y z
#
# Youngs Moduli (GPa) = 83.53506 26.68479 26.39480
#
# Poissons Ratio (x) = -0.04225 0.19510
# Poissons Ratio (y) = -0.13225 0.32469
# Poissons Ratio (z) = 0.61745 0.32826
#
# Static dielectric constant tensor:
#      x y z
#    x 3.980600 0.000000 0.000000 
#    y 0.000000 3.048830 0.000000 
#    z 0.000000 0.000000 3.274430 
# 
# 
# High freq. dielectric constant tensor:
#      x y z
#    x 1.748120 0.000000 0.000000 
#    y 0.000000 1.672060 0.000000 
#    z 0.000000 0.000000 1.706980 
# 
# From -- ./inp_files/8395.got.cif
#   From: 2010.06.25/outbox.cif.g09.slc.cpg/sg58_5_cif.got.tgz:8395.got - 2010.06.26 21:38:00.
