data_PCOD8236535
_publ_section_title
;
Structure prediction by ZEFSAII (Michael W. Deem and Ramdas Pophale) SiO2 
 PCOD8236535
Probable space group: P N N M
;
_chemical_formula_sum "Si O2"
_cell_formula_units_Z 64
_cell_length_a 24.855318
_cell_length_b 14.491899
_cell_length_c 8.918109
_cell_angle_alpha 90.000000
_cell_angle_beta 90.000000
_cell_angle_gamma 90.000000
_cell_volume 3212.309622
_symmetry_space_group_name_H-M "P N N M"
_symmetry_group_IT_number 58
_symmetry_cell_setting 'orthorhombic'
loop_
_space_group_symop_operation_xyz
x,y,z
-x,-y,z
1/2+x,1/2-y,1/2-z
1/2-x,1/2+y,1/2-z
-x,-y,-z
x,y,-z
1/2-x,1/2+y,1/2+z
1/2+x,1/2-y,1/2+z
loop_
_atom_site_type_symbol
_atom_site_label
_atom_site_fract_x
_atom_site_fract_y
_atom_site_fract_z
Si Si1 0.591864 0.250758 0.678368
Si Si2 0.355261 0.413656 0.326579
Si Si3 0.730274 0.485630 0.834486
Si Si4 0.847416 0.437912 0.171529
Si Si5 0.552857 0.449406 0.677984
Si Si6 0.051652 0.445828 0.177695
Si Si7 0.183812 0.746206 0.324275
Si Si8 0.705949 0.272181 0.172357
O O1 0.599187 0.253599 0.500000
O O2 0.561463 0.344000 0.736070
O O3 0.556216 0.161651 0.728884
O O4 0.651101 0.241158 0.748013
O O5 0.363684 0.390647 0.500000
O O6 0.296398 0.455385 0.296687
O O7 0.397791 0.488250 0.266863
O O8 0.360497 0.319992 0.231899
O O9 0.793992 0.499667 0.818892
O O10 0.712680 0.380957 0.812895
O O11 0.711838 0.520286 0.000000
O O12 0.895914 0.499555 0.233484
O O13 0.840784 0.351018 0.278218
O O14 0.856805 0.404389 0.000000
O O15 0.500000 0.500000 0.744559
O O16 0.549366 0.446604 0.500000
O O17 0.000000 0.500000 0.246064
O O18 0.048471 0.448182 0.000000
O O19 0.191578 0.749670 0.500000
O O20 0.241458 0.771599 0.250505
O O21 0.704623 0.240056 0.000000
#
# Coordination Sequence:
#
# PCOD8236535 Si02
#       8
#     8   8   8   8   8   8   8   8
#     4  10  19  34  58  87 115 151 198 242 291 348
#     4  11  21  34  55  86 120 154 194 238 288 344
#     4   9  18  32  52  79 116 152 185 235 290 348
#     4   9  19  37  57  83 116 153 195 242 295 344
#     4   9  19  35  56  86 120 154 195 243 288 338
#     4   9  19  35  59  89 117 151 198 249 294 340
#     4  11  23  37  56  83 118 159 198 239 294 353
#     4  10  20  36  57  84 117 152 193 240 294 347
#
# _framework density 19.923359999999999
#
# number of rings (size 3 to 8) (size 9 to 14) (size 15 to 20)
#    0.000    2.250    1.250    2.625    1.750    3.000 
#    0.000    4.375    0.000    6.375    0.000    0.000 
#    0.000    0.000    0.000    0.000    0.000    0.000 
#
# Total GULP energy -793361.728829 kJ/mol
# GULP energy per Si atom -12396.277013 kJ/mol
# Density = 1.987801 g / cm^3
# Si number density = 19.923360 Si / 1000 Ang^3
#
#
#
# Elastic Constant Matrix: (Units=GPa)
#
#
# Indices 1 2 3 4 5 6 
#
# 1 119.5766 75.8110 26.0618 0.0000 0.0000 0.0000
# 2 75.8110 129.0375 33.9477 0.0000 0.0000 0.0000
# 3 26.0618 33.9477 66.6077 0.0000 0.0000 0.0000
# 4 0.0000 0.0000 0.0000 22.0703 0.0000 0.0000
# 5 0.0000 0.0000 0.0000 0.0000 20.9844 0.0000
# 6 0.0000 0.0000 0.0000 0.0000 0.0000 30.7936
#
#
#
# Elastic Compliance Matrix: (Units=1/GPa)
#
#
# Indices 1 2 3 4 5 6 
#
# 1 0.013443 -0.007523 -0.001426 0.000000 0.000000 0.000000
# 2 -0.007523 0.013160 -0.003763 0.000000 0.000000 0.000000
# 3 -0.001426 -0.003763 0.017489 0.000000 0.000000 0.000000
# 4 0.000000 0.000000 0.000000 0.045310 0.000000 0.000000
# 5 0.000000 0.000000 0.000000 0.000000 0.047654 0.000000
# 6 0.000000 0.000000 0.000000 0.000000 0.000000 0.032474
#
#
# Mechanical properties :
#
#
# Convention : Reuss Voigt Hill
#
# Bulk Modulus (GPa) = 53.56859 65.20699 59.38779
# Shear Modulus (GPa) = 24.85373 26.72975 25.79174
#
# Velocity S-wave (km/s) = 3.53578 3.66680 3.60189
# Velocity P-wave (km/s) = 6.60414 7.12230 6.86811
#
# Compressibility (1/GPa) = 0.01866766
#
# Stress axis : x y z
#
# Youngs Moduli (GPa) = 74.38796 75.99036 57.17796
#
# Poissons Ratio (x) = 0.57166 0.08152
# Poissons Ratio (y) = 0.55961 0.21519
# Poissons Ratio (z) = 0.10606 0.28599
#
# Static dielectric constant tensor:
#      x y z
#    x 3.742900 0.000000 0.000000 
#    y 0.000000 3.809500 0.000000 
#    z 0.000000 0.000000 3.308680 
# 
# 
# High freq. dielectric constant tensor:
#      x y z
#    x 1.769750 0.000000 0.000000 
#    y 0.000000 1.787920 0.000000 
#    z 0.000000 0.000000 1.744430 
# 
# From -- ./inp_files/10041.got.cif
#   From: 2010.06.25/outbox.cif.g09.slc.cpg/sg58_6_cif.got.tgz:10041.got - 2010.06.26 21:38:00.
