data_PCOD8236248
_publ_section_title
;
Structure prediction by ZEFSAII (Michael W. Deem and Ramdas Pophale) SiO2 
 PCOD8236248
Probable space group: P N N M
;
_chemical_formula_sum "Si O2"
_cell_formula_units_Z 48
_cell_length_a 31.164080
_cell_length_b 8.998414
_cell_length_c 8.641150
_cell_angle_alpha 90.000000
_cell_angle_beta 90.000000
_cell_angle_gamma 90.000000
_cell_volume 2423.214310
_symmetry_space_group_name_H-M "P N N M"
_symmetry_group_IT_number 58
_symmetry_cell_setting 'orthorhombic'
loop_
_space_group_symop_operation_xyz
x,y,z
-x,-y,z
1/2+x,1/2-y,1/2-z
1/2-x,1/2+y,1/2-z
-x,-y,-z
x,y,-z
1/2-x,1/2+y,1/2+z
1/2+x,1/2-y,1/2+z
loop_
_atom_site_type_symbol
_atom_site_label
_atom_site_fract_x
_atom_site_fract_y
_atom_site_fract_z
Si Si1 0.873251 0.917442 0.315873
Si Si2 0.957725 0.082232 0.684525
Si Si3 0.373952 0.915722 0.182725
Si Si4 0.205786 0.579646 0.179147
Si Si5 0.790999 0.100280 0.318711
Si Si6 0.042336 0.582110 0.684617
O O1 0.873978 0.911879 0.500000
O O2 0.870969 0.750493 0.247640
O O3 0.915944 0.996934 0.251681
O O4 0.832001 0.008413 0.258565
O O5 0.957695 0.082001 0.500000
O O6 0.957190 0.249994 0.748463
O O7 0.000000 0.000000 0.748240
O O8 0.332219 0.009271 0.222811
O O9 0.416051 0.996880 0.250591
O O10 0.378052 0.906599 0.000000
O O11 0.211964 0.750141 0.222108
O O12 0.249434 0.495831 0.220437
O O13 0.194290 0.564681 0.000000
O O14 0.794841 0.137587 0.500000
O O15 0.042607 0.582731 0.500000
O O16 0.000000 0.500000 0.747602
#
# Coordination Sequence:
#
# PCOD8236248 Si02
#       6
#     8   8   8   8   8   8
#     4   9  17  30  49  73 100 134 174 212 256 310
#     4   9  15  23  38  65 102 135 165 210 262 307
#     4  10  19  33  54  77 106 142 177 217 265 315
#     4  11  23  37  55  80 107 135 173 218 262 314
#     4  10  21  37  55  75 102 136 173 213 258 309
#     4   9  16  26  44  73 105 138 178 220 261 306
#
# _framework density 19.808399999999999
#
# number of rings (size 3 to 8) (size 9 to 14) (size 15 to 20)
#    0.000    2.333    0.000    3.500    0.000    9.333 
#    0.000    0.833    0.000    0.500    0.000    0.000 
#    0.000    6.000    0.000    0.000    0.000    0.000 
#
# Total GULP energy -595288.169032 kJ/mol
# GULP energy per Si atom -12401.836855 kJ/mol
# Density = 1.976332 g / cm^3
# Si number density = 19.808400 Si / 1000 Ang^3
#
#
#
# Elastic Constant Matrix: (Units=GPa)
#
#
# Indices 1 2 3 4 5 6 
#
# 1 171.1191 77.3099 8.1028 0.0000 0.0000 0.0000
# 2 77.3099 179.7376 9.7974 0.0000 0.0000 0.0000
# 3 8.1028 9.7974 4.3480 0.0000 0.0000 0.0000
# 4 0.0000 0.0000 0.0000 12.7595 0.0000 0.0000
# 5 0.0000 0.0000 0.0000 0.0000 16.0428 0.0000
# 6 0.0000 0.0000 0.0000 0.0000 0.0000 46.3345
#
#
#
# Elastic Compliance Matrix: (Units=1/GPa)
#
#
# Indices 1 2 3 4 5 6 
#
# 1 0.007468 -0.002797 -0.007615 0.000000 0.000000 0.000000
# 2 -0.002797 0.007390 -0.011440 0.000000 0.000000 0.000000
# 3 -0.007615 -0.011440 0.269960 0.000000 0.000000 0.000000
# 4 0.000000 0.000000 0.000000 0.078373 0.000000 0.000000
# 5 0.000000 0.000000 0.000000 0.000000 0.062333 0.000000
# 6 0.000000 0.000000 0.000000 0.000000 0.000000 0.021582
#
#
# Mechanical properties :
#
#
# Convention : Reuss Voigt Hill
#
# Bulk Modulus (GPa) = 4.14741 60.62500 32.38620
# Shear Modulus (GPa) = 8.75378 32.36033 20.55706
#
# Velocity S-wave (km/s) = 2.10448 4.04625 3.22498
# Velocity P-wave (km/s) = 2.82903 7.24580 5.50023
#
# Compressibility (1/GPa) = 0.24111439
#
# Stress axis : x y z
#
# Youngs Moduli (GPa) = 133.90105 135.31047 3.70426
#
# Poissons Ratio (x) = 0.37849 0.02821
# Poissons Ratio (y) = 0.37455 0.04238
# Poissons Ratio (z) = 1.01961 1.54796
#
# Static dielectric constant tensor:
#      x y z
#    x 3.826280 0.000000 0.000000 
#    y 0.000000 3.878040 0.000000 
#    z 0.000000 0.000000 2.967160 
# 
# 
# High freq. dielectric constant tensor:
#      x y z
#    x 1.792880 0.000000 0.000000 
#    y 0.000000 1.793690 0.000000 
#    z 0.000000 0.000000 1.705920 
# 
# From -- ./inp_files/3013.got.cif
#   From: 2010.06.25/outbox.cif.g09.slc.cpg/sg58_2_cif.got.tgz:3013.got - 2010.06.26 21:38:00.
