data_PCOD8236387
_publ_section_title
;
Structure prediction by ZEFSAII (Michael W. Deem and Ramdas Pophale) SiO2 
 PCOD8236387
Probable space group: P N N M
;
_chemical_formula_sum "Si O2"
_cell_formula_units_Z 36
_cell_length_a 14.473338
_cell_length_b 7.675836
_cell_length_c 15.093876
_cell_angle_alpha 90.000000
_cell_angle_beta 90.000000
_cell_angle_gamma 90.000000
_cell_volume 1676.853684
_symmetry_space_group_name_H-M "P N N M"
_symmetry_group_IT_number 58
_symmetry_cell_setting 'orthorhombic'
loop_
_space_group_symop_operation_xyz
x,y,z
-x,-y,z
1/2+x,1/2-y,1/2-z
1/2-x,1/2+y,1/2-z
-x,-y,-z
x,y,-z
1/2-x,1/2+y,1/2+z
1/2+x,1/2-y,1/2+z
loop_
_atom_site_type_symbol
_atom_site_label
_atom_site_fract_x
_atom_site_fract_y
_atom_site_fract_z
Si Si1 0.850562 0.245599 0.177100
Si Si2 0.212816 0.601848 0.000000
Si Si3 0.331504 0.958033 0.190098
Si Si4 0.680463 0.061993 0.000000
Si Si5 0.044836 0.309479 0.166288
Si Si6 0.167328 0.227347 0.000000
O O1 0.775913 0.092892 0.175299
O O2 0.828580 0.356424 0.264318
O O3 0.957049 0.179752 0.183474
O O4 0.845950 0.364199 0.088733
O O5 0.236799 0.395134 0.000000
O O6 0.301020 0.728799 0.000000
O O7 0.375193 0.978787 0.090739
O O8 0.390211 0.817903 0.246218
O O9 0.776276 0.951604 0.000000
O O10 0.000000 0.500000 0.149295
O O11 0.102130 0.233221 0.085421
#
# Coordination Sequence:
#
# PCOD8236387 Si02
#       6
#     8   4   8   4   8   4
#     4  10  20  36  57  82 112 147 185 235 290 337
#     4  10  19  36  57  82 121 138 178 243 294 328
#     4  10  20  36  53  80 115 145 188 232 272 342
#     4  10  24  35  54  89 113 153 195 226 276 340
#     4  10  19  33  61  82 113 150 187 231 292 336
#     4  12  18  36  62  87 110 150 183 238 295 350
#
# _framework density 21.468778
#
# number of rings (size 3 to 8) (size 9 to 14) (size 15 to 20)
#    0.000    1.778    4.444    2.333    0.000    0.000 
#    0.000   19.444    0.000    0.000    0.000    4.667 
#    0.000    0.000    0.000    0.000    0.000    0.000 
#
# Total GULP energy -446018.125831 kJ/mol
# GULP energy per Si atom -12389.392384 kJ/mol
# Density = 2.141991 g / cm^3
# Si number density = 21.468778 Si / 1000 Ang^3
#
#
#
# Elastic Constant Matrix: (Units=GPa)
#
#
# Indices 1 2 3 4 5 6 
#
# 1 60.6571 5.1807 26.4763 0.0000 0.0000 0.0000
# 2 5.1807 31.6203 7.2466 0.0000 0.0000 0.0000
# 3 26.4763 7.2466 198.8598 0.0000 0.0000 0.0000
# 4 0.0000 0.0000 0.0000 19.5560 0.0000 0.0000
# 5 0.0000 0.0000 0.0000 0.0000 10.6403 0.0000
# 6 0.0000 0.0000 0.0000 0.0000 0.0000 28.2183
#
#
#
# Elastic Compliance Matrix: (Units=1/GPa)
#
#
# Indices 1 2 3 4 5 6 
#
# 1 0.017679 -0.002377 -0.002267 0.000000 0.000000 0.000000
# 2 -0.002377 0.032211 -0.000857 0.000000 0.000000 0.000000
# 3 -0.002267 -0.000857 0.005362 0.000000 0.000000 0.000000
# 4 0.000000 0.000000 0.000000 0.051135 0.000000 0.000000
# 5 0.000000 0.000000 0.000000 0.000000 0.093982 0.000000
# 6 0.000000 0.000000 0.000000 0.000000 0.000000 0.035438
#
#
# Mechanical properties :
#
#
# Convention : Reuss Voigt Hill
#
# Bulk Modulus (GPa) = 22.59945 40.99383 31.79664
# Shear Modulus (GPa) = 19.11612 28.49851 23.80732
#
# Velocity S-wave (km/s) = 2.98722 3.64736 3.33367
# Velocity P-wave (km/s) = 4.73788 6.07237 5.44615
#
# Compressibility (1/GPa) = 0.04424887
#
# Stress axis : x y z
#
# Youngs Moduli (GPa) = 56.56519 31.04516 186.50598
#
# Poissons Ratio (x) = 0.07379 0.42284
# Poissons Ratio (y) = 0.13445 0.15990
# Poissons Ratio (z) = 0.12824 0.02662
#
# Static dielectric constant tensor:
#      x y z
#    x 3.946670 0.000000 0.000000 
#    y 0.000000 3.580390 0.000000 
#    z 0.000000 0.000000 4.300750 
# 
# 
# High freq. dielectric constant tensor:
#      x y z
#    x 1.818030 0.000000 0.000000 
#    y 0.000000 1.817470 0.000000 
#    z 0.000000 0.000000 1.864130 
# 
# From -- ./inp_files/19415.got.cif
#   From: 2010.06.25/outbox.cif.g09.slc.cpg/sg58_10_cif.got.tgz:19415.got - 2010.06.26 21:38:00.
