data_PCOD8236374
_publ_section_title
;
Structure prediction by ZEFSAII (Michael W. Deem and Ramdas Pophale) SiO2 
 PCOD8236374
Probable space group: P N N M
;
_chemical_formula_sum "Si O2"
_cell_formula_units_Z 56
_cell_length_a 19.773899
_cell_length_b 16.283454
_cell_length_c 8.589074
_cell_angle_alpha 90.000000
_cell_angle_beta 90.000000
_cell_angle_gamma 90.000000
_cell_volume 2765.573389
_symmetry_space_group_name_H-M "P N N M"
_symmetry_group_IT_number 58
_symmetry_cell_setting 'orthorhombic'
loop_
_space_group_symop_operation_xyz
x,y,z
-x,-y,z
1/2+x,1/2-y,1/2-z
1/2-x,1/2+y,1/2-z
-x,-y,-z
x,y,-z
1/2-x,1/2+y,1/2+z
1/2+x,1/2-y,1/2+z
loop_
_atom_site_type_symbol
_atom_site_label
_atom_site_fract_x
_atom_site_fract_y
_atom_site_fract_z
Si Si1 0.129883 0.790829 0.317279
Si Si2 0.614042 0.357416 0.179715
Si Si3 0.507903 0.237420 0.680407
Si Si4 0.446639 0.931287 0.181263
Si Si5 0.662261 0.528992 0.184357
Si Si6 0.767752 0.736335 0.678158
Si Si7 0.191466 0.429472 0.181698
O O1 0.143776 0.785989 0.500000
O O2 0.060660 0.745901 0.277520
O O3 0.127183 0.886221 0.260641
O O4 0.191129 0.744252 0.230544
O O5 0.558382 0.311385 0.280892
O O6 0.620404 0.450493 0.246007
O O7 0.688187 0.318149 0.197520
O O8 0.590195 0.355454 0.000000
O O9 0.489853 0.240292 0.500000
O O10 0.541836 0.151244 0.721977
O O11 0.372092 0.965198 0.222510
O O12 0.500000 0.000000 0.232161
O O13 0.452434 0.910217 0.000000
O O14 0.740287 0.525919 0.241893
O O15 0.663610 0.524775 0.000000
O O16 0.768844 0.705492 0.500000
O O17 0.800678 0.667500 0.787707
O O18 0.178433 0.444146 0.000000
#
# Coordination Sequence:
#
# PCOD8236374 Si02
#       7
#     8   8   8   8   8   8   8
#     4  10  21  39  61  84 119 160 204 253 303 360
#     4  10  20  37  61  87 119 158 203 245 296 360
#     4  12  25  40  60  87 121 159 202 248 304 367
#     4  11  24  41  61  87 119 156 198 247 305 363
#     4   8  18  36  59  87 115 154 199 244 293 351
#     4  10  19  33  58  86 115 154 200 249 299 356
#     4  10  19  35  59  85 117 153 194 240 293 355
#
# _framework density 20.248965999999999
#
# number of rings (size 3 to 8) (size 9 to 14) (size 15 to 20)
#    0.000    1.857    1.429    3.857    0.000    3.429 
#    0.000    8.571    0.000    0.000    0.000    0.000 
#    0.000    0.000    0.000    0.000    0.000    0.000 
#
# Total GULP energy -694485.747892 kJ/mol
# GULP energy per Si atom -12401.531212 kJ/mol
# Density = 2.020288 g / cm^3
# Si number density = 20.248966 Si / 1000 Ang^3
#
#
#
# Elastic Constant Matrix: (Units=GPa)
#
#
# Indices 1 2 3 4 5 6 
#
# 1 95.5938 5.9553 12.4840 0.0000 0.0000 0.0000
# 2 5.9553 30.7741 8.9798 0.0000 0.0000 0.0000
# 3 12.4840 8.9798 50.6634 0.0000 0.0000 0.0000
# 4 0.0000 0.0000 0.0000 15.8493 0.0000 0.0000
# 5 0.0000 0.0000 0.0000 0.0000 34.0880 0.0000
# 6 0.0000 0.0000 0.0000 0.0000 0.0000 31.5092
#
#
#
# Elastic Compliance Matrix: (Units=1/GPa)
#
#
# Indices 1 2 3 4 5 6 
#
# 1 0.010865 -0.001393 -0.002430 0.000000 0.000000 0.000000
# 2 -0.001393 0.034446 -0.005762 0.000000 0.000000 0.000000
# 3 -0.002430 -0.005762 0.021358 0.000000 0.000000 0.000000
# 4 0.000000 0.000000 0.000000 0.063094 0.000000 0.000000
# 5 0.000000 0.000000 0.000000 0.000000 0.029336 0.000000
# 6 0.000000 0.000000 0.000000 0.000000 0.000000 0.031737
#
#
# Mechanical properties :
#
#
# Convention : Reuss Voigt Hill
#
# Bulk Modulus (GPa) = 21.05364 25.76330 23.40847
# Shear Modulus (GPa) = 22.13955 26.26343 24.20149
#
# Velocity S-wave (km/s) = 3.31020 3.60533 3.46091
# Velocity P-wave (km/s) = 5.00298 5.48472 5.24938
#
# Compressibility (1/GPa) = 0.04749772
#
# Stress axis : x y z
#
# Youngs Moduli (GPa) = 92.03765 29.03111 46.82030
#
# Poissons Ratio (x) = 0.04045 0.11379
# Poissons Ratio (y) = 0.12825 0.26978
# Poissons Ratio (z) = 0.22368 0.16728
#
# Static dielectric constant tensor:
#      x y z
#    x 3.810410 0.000000 0.000000 
#    y 0.000000 3.701400 0.000000 
#    z 0.000000 0.000000 3.554610 
# 
# 
# High freq. dielectric constant tensor:
#      x y z
#    x 1.800490 0.000000 0.000000 
#    y 0.000000 1.777990 0.000000 
#    z 0.000000 0.000000 1.780320 
# 
# From -- ./inp_files/9054.got.cif
#   From: 2010.06.25/outbox.cif.g09.slc.cpg/sg58_5_cif.got.tgz:9054.got - 2010.06.26 21:38:00.
