data_PCOD8236957
_publ_section_title
;
Structure prediction by ZEFSAII (Michael W. Deem and Ramdas Pophale) SiO2 
 PCOD8236957
Probable space group: P N N M
;
_chemical_formula_sum "Si O2"
_cell_formula_units_Z 40
_cell_length_a 8.930962
_cell_length_b 18.432444
_cell_length_c 13.455519
_cell_angle_alpha 90.000000
_cell_angle_beta 90.000000
_cell_angle_gamma 90.000000
_cell_volume 2215.040231
_symmetry_space_group_name_H-M "P N N M"
_symmetry_group_IT_number 58
_symmetry_cell_setting 'orthorhombic'
loop_
_space_group_symop_operation_xyz
x,y,z
-x,-y,z
1/2+x,1/2-y,1/2-z
1/2-x,1/2+y,1/2-z
-x,-y,-z
x,y,-z
1/2-x,1/2+y,1/2+z
1/2+x,1/2-y,1/2+z
loop_
_atom_site_type_symbol
_atom_site_label
_atom_site_fract_x
_atom_site_fract_y
_atom_site_fract_z
Si Si1 0.327333 0.636106 0.697143
Si Si2 0.823147 0.504455 0.613341
Si Si3 0.668143 0.728666 0.888804
Si Si4 0.826349 0.779543 0.389171
Si Si5 0.674379 0.644852 0.696286
O O1 0.244714 0.562090 0.673493
O O2 0.267536 0.700056 0.626892
O O3 0.293907 0.655639 0.812165
O O4 0.502535 0.624728 0.678149
O O5 0.763708 0.503863 0.500000
O O6 0.776327 0.577565 0.668012
O O7 0.000000 0.500000 0.615720
O O8 0.494612 0.750694 0.873847
O O9 0.710053 0.665371 0.811064
O O10 0.697242 0.698941 0.000000
O O11 0.802997 0.810693 0.500000
O O12 0.713345 0.713286 0.372690
#
# Coordination Sequence:
#
# PCOD8236957 Si02
#       5
#     8   8   8   8   8
#     4  10  20  33  52  78 103 129 167 210 246 288
#     4  11  23  37  52  71 100 136 167 201 252 305
#     4   9  18  34  54  75 102 135 166 199 246 300
#     4   9  18  34  54  75 102 135 166 199 246 300
#     4  10  20  33  52  78 103 129 167 210 246 288
#
# _framework density 18.058364000000001
#
# number of rings (size 3 to 8) (size 9 to 14) (size 15 to 20)
#    0.000    2.200    0.000    3.000    0.000    8.800 
#    0.000    1.000    0.000    6.000    0.000    0.000 
#    0.000    0.000    0.000    0.000    0.000    0.000 
#
# Total GULP energy -496080.173227 kJ/mol
# GULP energy per Si atom -12402.004331 kJ/mol
# Density = 1.801726 g / cm^3
# Si number density = 18.058364 Si / 1000 Ang^3
#
#
#
# Elastic Constant Matrix: (Units=GPa)
#
#
# Indices 1 2 3 4 5 6 
#
# 1 43.3825 9.6761 25.9958 0.0000 0.0000 0.0000
# 2 9.6761 60.1692 39.6646 0.0000 0.0000 0.0000
# 3 25.9958 39.6646 135.6476 0.0000 0.0000 0.0000
# 4 0.0000 0.0000 0.0000 15.7020 0.0000 0.0000
# 5 0.0000 0.0000 0.0000 0.0000 25.4887 0.0000
# 6 0.0000 0.0000 0.0000 0.0000 0.0000 33.0343
#
#
#
# Elastic Compliance Matrix: (Units=1/GPa)
#
#
# Indices 1 2 3 4 5 6 
#
# 1 0.026101 -0.001115 -0.004676 0.000000 0.000000 0.000000
# 2 -0.001115 0.020636 -0.005820 0.000000 0.000000 0.000000
# 3 -0.004676 -0.005820 0.009970 0.000000 0.000000 0.000000
# 4 0.000000 0.000000 0.000000 0.063686 0.000000 0.000000
# 5 0.000000 0.000000 0.000000 0.000000 0.039233 0.000000
# 6 0.000000 0.000000 0.000000 0.000000 0.000000 0.030272
#
#
# Mechanical properties :
#
#
# Convention : Reuss Voigt Hill
#
# Bulk Modulus (GPa) = 29.86451 43.31914 36.59182
# Shear Modulus (GPa) = 22.29324 25.76918 24.03121
#
# Velocity S-wave (km/s) = 3.51737 3.78166 3.65191
# Velocity P-wave (km/s) = 5.75061 6.56570 6.17163
#
# Compressibility (1/GPa) = 0.03348456
#
# Stress axis : x y z
#
# Youngs Moduli (GPa) = 38.31201 48.45886 100.29939
#
# Poissons Ratio (x) = 0.05403 0.46901
# Poissons Ratio (y) = 0.04272 0.58379
# Poissons Ratio (z) = 0.17915 0.28205
#
# Static dielectric constant tensor:
#      x y z
#    x 3.436510 0.000000 0.000000 
#    y 0.000000 3.156860 0.000000 
#    z 0.000000 0.000000 3.554120 
# 
# 
# High freq. dielectric constant tensor:
#      x y z
#    x 1.708940 0.000000 0.000000 
#    y 0.000000 1.680300 0.000000 
#    z 0.000000 0.000000 1.709190 
# 
# From -- ./inp_files/3785.got.cif
#   From: 2010.06.25/outbox.cif.g09.slc.cpg/sg58_2_cif.got.tgz:3785.got - 2010.06.26 21:38:00.
