data_PCOD8236123
_publ_section_title
;
Structure prediction by ZEFSAII (Michael W. Deem and Ramdas Pophale) SiO2 
 PCOD8236123
Probable space group: P N N M
;
_chemical_formula_sum "Si O2"
_cell_formula_units_Z 64
_cell_length_a 27.089333
_cell_length_b 12.827275
_cell_length_c 9.600380
_cell_angle_alpha 90.000000
_cell_angle_beta 90.000000
_cell_angle_gamma 90.000000
_cell_volume 3335.962353
_symmetry_space_group_name_H-M "P N N M"
_symmetry_group_IT_number 58
_symmetry_cell_setting 'orthorhombic'
loop_
_space_group_symop_operation_xyz
x,y,z
-x,-y,z
1/2+x,1/2-y,1/2-z
1/2-x,1/2+y,1/2-z
-x,-y,-z
x,y,-z
1/2-x,1/2+y,1/2+z
1/2+x,1/2-y,1/2+z
loop_
_atom_site_type_symbol
_atom_site_label
_atom_site_fract_x
_atom_site_fract_y
_atom_site_fract_z
Si Si1 0.053862 0.731226 0.153229
Si Si2 0.991172 0.617450 0.648027
Si Si3 0.793889 0.020516 0.836670
Si Si4 0.119754 0.360265 0.334972
Si Si5 0.527746 0.404907 0.342489
Si Si6 0.164164 0.761964 0.836721
Si Si7 0.313727 0.055624 0.836958
Si Si8 0.866275 0.838118 0.166981
O O1 0.106094 0.782847 0.190069
O O2 0.038686 0.641827 0.258642
O O3 0.009290 0.810491 0.164475
O O4 0.056796 0.681484 0.000000
O O5 0.993650 0.679326 0.500000
O O6 0.937282 0.636770 0.715416
O O7 0.000000 0.500000 0.611527
O O8 0.808851 0.134531 0.776822
O O9 0.737940 0.997259 0.795184
O O10 0.828121 0.926340 0.781483
O O11 0.802190 0.027110 0.000000
O O12 0.125205 0.338296 0.500000
O O13 0.144151 0.471882 0.298790
O O14 0.146964 0.269538 0.246560
O O15 0.500000 0.500000 0.263600
O O16 0.539630 0.440559 0.500000
O O17 0.580054 0.374553 0.275869
O O18 0.180645 0.660488 0.751789
O O19 0.175824 0.743406 0.000000
O O20 0.314899 0.085385 0.000000
O O21 0.864939 0.819124 0.000000
#
# Coordination Sequence:
#
# PCOD8236123 Si02
#       8
#     8   8   8   8   8   8   8   8
#     4  10  19  32  52  81 110 139 176 221 270 316
#     4  10  20  34  52  75 107 149 188 218 260 322
#     4   9  20  38  60  85 111 144 183 232 286 333
#     4  10  21  36  55  81 115 151 187 230 278 330
#     4   9  16  28  50  79 109 141 174 211 264 324
#     4  10  21  38  59  85 115 143 184 236 282 330
#     4  10  22  40  60  81 110 150 190 228 281 339
#     4  10  19  34  58  85 113 144 185 232 276 332
#
# _framework density 19.184868999999999
#
# number of rings (size 3 to 8) (size 9 to 14) (size 15 to 20)
#    0.000    2.250    1.250    1.500    1.750    5.250 
#    0.000    1.250    0.000    3.000    0.000    0.000 
#    0.000    0.000    0.000    0.000    0.000    0.000 
#
# Total GULP energy -793153.361280 kJ/mol
# GULP energy per Si atom -12393.021270 kJ/mol
# Density = 1.914120 g / cm^3
# Si number density = 19.184869 Si / 1000 Ang^3
#
#
#
# Elastic Constant Matrix: (Units=GPa)
#
#
# Indices 1 2 3 4 5 6 
#
# 1 96.1233 27.1245 28.4726 0.0000 0.0000 0.0000
# 2 27.1245 105.8831 40.3144 0.0000 0.0000 0.0000
# 3 28.4726 40.3144 49.0361 0.0000 0.0000 0.0000
# 4 0.0000 0.0000 0.0000 24.3469 0.0000 0.0000
# 5 0.0000 0.0000 0.0000 0.0000 19.6497 0.0000
# 6 0.0000 0.0000 0.0000 0.0000 0.0000 33.6719
#
#
#
# Elastic Compliance Matrix: (Units=1/GPa)
#
#
# Indices 1 2 3 4 5 6 
#
# 1 0.012594 -0.000643 -0.006784 0.000000 0.000000 0.000000
# 2 -0.000643 0.013781 -0.010956 0.000000 0.000000 0.000000
# 3 -0.006784 -0.010956 0.033339 0.000000 0.000000 0.000000
# 4 0.000000 0.000000 0.000000 0.041073 0.000000 0.000000
# 5 0.000000 0.000000 0.000000 0.000000 0.050891 0.000000
# 6 0.000000 0.000000 0.000000 0.000000 0.000000 0.029698
#
#
# Mechanical properties :
#
#
# Convention : Reuss Voigt Hill
#
# Bulk Modulus (GPa) = 43.57694 49.20727 46.39210
# Shear Modulus (GPa) = 22.14420 25.87578 24.00999
#
# Velocity S-wave (km/s) = 3.40112 3.67653 3.54150
# Velocity P-wave (km/s) = 6.17956 6.61265 6.39977
#
# Compressibility (1/GPa) = 0.02294792
#
# Stress axis : x y z
#
# Youngs Moduli (GPa) = 79.40102 72.56556 29.99448
#
# Poissons Ratio (x) = 0.04669 0.20348
# Poissons Ratio (y) = 0.05109 0.32862
# Poissons Ratio (z) = 0.53864 0.79503
#
# Static dielectric constant tensor:
#      x y z
#    x 3.190910 0.000000 0.000000 
#    y 0.000000 3.398170 0.000000 
#    z 0.000000 0.000000 3.333020 
# 
# 
# High freq. dielectric constant tensor:
#      x y z
#    x 1.758070 0.000000 0.000000 
#    y 0.000000 1.749540 0.000000 
#    z 0.000000 0.000000 1.711310 
# 
# From -- ./inp_files/17575.got.cif
#   From: 2010.06.25/outbox.cif.g09.slc.cpg/sg58_9_cif.got.tgz:17575.got - 2010.06.26 21:38:00.
