data_PCOD8236143
_publ_section_title
;
Structure prediction by ZEFSAII (Michael W. Deem and Ramdas Pophale) SiO2 
 PCOD8236143
Probable space group: P N N M
;
_chemical_formula_sum "Si O2"
_cell_formula_units_Z 48
_cell_length_a 16.714522
_cell_length_b 18.023534
_cell_length_c 8.829904
_cell_angle_alpha 90.000000
_cell_angle_beta 90.000000
_cell_angle_gamma 90.000000
_cell_volume 2660.050571
_symmetry_space_group_name_H-M "P N N M"
_symmetry_group_IT_number 58
_symmetry_cell_setting 'orthorhombic'
loop_
_space_group_symop_operation_xyz
x,y,z
-x,-y,z
1/2+x,1/2-y,1/2-z
1/2-x,1/2+y,1/2-z
-x,-y,-z
x,y,-z
1/2-x,1/2+y,1/2+z
1/2+x,1/2-y,1/2+z
loop_
_atom_site_type_symbol
_atom_site_label
_atom_site_fract_x
_atom_site_fract_y
_atom_site_fract_z
Si Si1 0.679131 0.092347 0.678570
Si Si2 0.505637 0.083324 0.680266
Si Si3 0.910222 0.021929 0.821825
Si Si4 0.162792 0.834409 0.679218
Si Si5 0.856735 0.323226 0.178978
Si Si6 0.266013 0.553889 0.178493
O O1 0.673182 0.088687 0.500000
O O2 0.591306 0.114825 0.740315
O O3 0.745092 0.152121 0.730142
O O4 0.705614 0.010629 0.734238
O O5 0.499801 0.083146 0.500000
O O6 0.433226 0.132367 0.744003
O O7 0.500000 0.000000 0.742676
O O8 0.892772 0.101365 0.746893
O O9 0.850907 0.957151 0.761802
O O10 0.899021 0.029557 0.000000
O O11 0.000000 0.000000 0.777244
O O12 0.153185 0.836977 0.500000
O O13 0.138291 0.755217 0.740721
O O14 0.775210 0.367607 0.220958
O O15 0.862368 0.311738 0.000000
O O16 0.281815 0.547784 0.000000
#
# Coordination Sequence:
#
# PCOD8236143 Si02
#       6
#     8   8   8   8   8   8
#     4   8  14  28  49  74  98 131 174 208 248 304
#     4   9  14  25  51  81 104 129 170 216 253 301
#     4  10  21  38  59  80 101 133 184 234 272 319
#     4  10  21  36  54  75 108 145 177 218 268 319
#     4  10  19  32  53  81 112 142 175 217 262 314
#     4   9  17  31  54  80 106 138 173 211 265 323
#
# _framework density 18.04477
#
# number of rings (size 3 to 8) (size 9 to 14) (size 15 to 20)
#    0.000    2.667    1.667    2.000    0.000    2.000 
#    3.000    0.000    0.000    4.500    0.000    0.000 
#    0.000    0.000    0.000    0.000    0.000    0.000 
#
# Total GULP energy -594912.844675 kJ/mol
# GULP energy per Si atom -12394.017597 kJ/mol
# Density = 1.800370 g / cm^3
# Si number density = 18.044770 Si / 1000 Ang^3
#
#
#
# Elastic Constant Matrix: (Units=GPa)
#
#
# Indices 1 2 3 4 5 6 
#
# 1 165.5231 83.2060 46.1866 0.0000 0.0000 0.0000
# 2 83.2060 124.7115 43.9151 0.0000 0.0000 0.0000
# 3 46.1866 43.9151 48.4119 0.0000 0.0000 0.0000
# 4 0.0000 0.0000 0.0000 25.5127 0.0000 0.0000
# 5 0.0000 0.0000 0.0000 0.0000 17.6987 0.0000
# 6 0.0000 0.0000 0.0000 0.0000 0.0000 25.8627
#
#
#
# Elastic Compliance Matrix: (Units=1/GPa)
#
#
# Indices 1 2 3 4 5 6 
#
# 1 0.009866 -0.004802 -0.005057 0.000000 0.000000 0.000000
# 2 -0.004802 0.014119 -0.008226 0.000000 0.000000 0.000000
# 3 -0.005057 -0.008226 0.032943 0.000000 0.000000 0.000000
# 4 0.000000 0.000000 0.000000 0.039196 0.000000 0.000000
# 5 0.000000 0.000000 0.000000 0.000000 0.056501 0.000000
# 6 0.000000 0.000000 0.000000 0.000000 0.000000 0.038666
#
#
# Mechanical properties :
#
#
# Convention : Reuss Voigt Hill
#
# Bulk Modulus (GPa) = 48.17481 76.14023 62.15752
# Shear Modulus (GPa) = 21.33274 24.83740 23.08507
#
# Velocity S-wave (km/s) = 3.44206 3.71405 3.58064
# Velocity P-wave (km/s) = 6.52322 7.78968 7.18441
#
# Compressibility (1/GPa) = 0.02075773
#
# Stress axis : x y z
#
# Youngs Moduli (GPa) = 101.35384 70.82565 30.35566
#
# Poissons Ratio (x) = 0.34011 0.15351
# Poissons Ratio (y) = 0.48671 0.24972
# Poissons Ratio (z) = 0.51253 0.58264
#
# Static dielectric constant tensor:
#      x y z
#    x 3.776100 0.000000 0.000000 
#    y 0.000000 3.262630 0.000000 
#    z 0.000000 0.000000 2.998200 
# 
# 
# High freq. dielectric constant tensor:
#      x y z
#    x 1.711000 0.000000 0.000000 
#    y 0.000000 1.687100 0.000000 
#    z 0.000000 0.000000 1.666190 
# 
# From -- ./inp_files/7857.got.cif
#   From: 2010.06.25/outbox.cif.g09.slc.cpg/sg58_4_cif.got.tgz:7857.got - 2010.06.26 21:38:00.
