data_PCOD8236828
_publ_section_title
;
Structure prediction by ZEFSAII (Michael W. Deem and Ramdas Pophale) SiO2 
 PCOD8236828
Probable space group: P N N M
;
_chemical_formula_sum "Si O2"
_cell_formula_units_Z 48
_cell_length_a 12.214796
_cell_length_b 21.273592
_cell_length_c 8.864884
_cell_angle_alpha 90.000000
_cell_angle_beta 90.000000
_cell_angle_gamma 90.000000
_cell_volume 2303.563036
_symmetry_space_group_name_H-M "P N N M"
_symmetry_group_IT_number 58
_symmetry_cell_setting 'orthorhombic'
loop_
_space_group_symop_operation_xyz
x,y,z
-x,-y,z
1/2+x,1/2-y,1/2-z
1/2-x,1/2+y,1/2-z
-x,-y,-z
x,y,-z
1/2-x,1/2+y,1/2+z
1/2+x,1/2-y,1/2+z
loop_
_atom_site_type_symbol
_atom_site_label
_atom_site_fract_x
_atom_site_fract_y
_atom_site_fract_z
Si Si1 0.483533 0.428177 0.178155
Si Si2 0.355742 0.146229 0.329193
Si Si3 0.623365 0.997720 0.670946
Si Si4 0.859037 0.832707 0.173722
Si Si5 0.757996 0.103277 0.822670
Si Si6 0.410110 0.807442 0.325440
O O1 0.500000 0.500000 0.233680
O O2 0.588297 0.387269 0.225316
O O3 0.378334 0.396061 0.252394
O O4 0.469229 0.426398 0.000000
O O5 0.344248 0.171918 0.500000
O O6 0.331871 0.072359 0.323841
O O7 0.266546 0.178717 0.222701
O O8 0.476837 0.161668 0.267597
O O9 0.627670 0.024856 0.500000
O O10 0.500000 0.000000 0.732260
O O11 0.698349 0.038988 0.778294
O O12 0.920399 0.766928 0.201006
O O13 0.864257 0.853276 0.000000
O O14 0.690364 0.163621 0.767185
O O15 0.770922 0.107328 0.000000
O O16 0.390081 0.823822 0.500000
#
# Coordination Sequence:
#
# PCOD8236828 Si02
#       6
#     8   8   8   8   8   8
#     4  11  25  46  70  94 126 173 220 259 317 394
#     4  10  21  40  66  90 122 167 213 256 307 381
#     4  10  19  37  63  89 121 166 210 253 309 375
#     4  11  25  42  65  97 130 164 209 268 322 370
#     4  12  25  39  63  97 133 167 209 270 324 370
#     4  10  23  44  64  90 128 173 216 255 313 387
#
# _framework density 20.837284
#
# number of rings (size 3 to 8) (size 9 to 14) (size 15 to 20)
#    0.000    1.333    1.667    3.500    2.333    8.333 
#    0.000    0.000    0.000    0.000    0.000    0.000 
#    0.000    0.000    0.000    0.000    0.000    0.000 
#
# Total GULP energy -595485.756825 kJ/mol
# GULP energy per Si atom -12405.953267 kJ/mol
# Density = 2.078986 g / cm^3
# Si number density = 20.837284 Si / 1000 Ang^3
#
#
#
# Elastic Constant Matrix: (Units=GPa)
#
#
# Indices 1 2 3 4 5 6 
#
# 1 118.5672 30.3322 44.5484 0.0000 0.0000 0.0000
# 2 30.3322 95.1025 39.0242 0.0000 0.0000 0.0000
# 3 44.5484 39.0242 94.2352 0.0000 0.0000 0.0000
# 4 0.0000 0.0000 0.0000 23.5610 0.0000 0.0000
# 5 0.0000 0.0000 0.0000 0.0000 31.2679 0.0000
# 6 0.0000 0.0000 0.0000 0.0000 0.0000 29.2044
#
#
#
# Elastic Compliance Matrix: (Units=1/GPa)
#
#
# Indices 1 2 3 4 5 6 
#
# 1 0.010447 -0.001573 -0.004288 0.000000 0.000000 0.000000
# 2 -0.001573 0.012904 -0.004600 0.000000 0.000000 0.000000
# 3 -0.004288 -0.004600 0.014544 0.000000 0.000000 0.000000
# 4 0.000000 0.000000 0.000000 0.042443 0.000000 0.000000
# 5 0.000000 0.000000 0.000000 0.000000 0.031982 0.000000
# 6 0.000000 0.000000 0.000000 0.000000 0.000000 0.034241
#
#
# Mechanical properties :
#
#
# Convention : Reuss Voigt Hill
#
# Bulk Modulus (GPa) = 58.91357 59.52383 59.21870
# Shear Modulus (GPa) = 28.87826 29.74001 29.30913
#
# Velocity S-wave (km/s) = 3.72680 3.78199 3.75450
# Velocity P-wave (km/s) = 6.84494 6.90647 6.87578
#
# Compressibility (1/GPa) = 0.01697402
#
# Stress axis : x y z
#
# Youngs Moduli (GPa) = 95.71846 77.49365 68.75833
#
# Poissons Ratio (x) = 0.12188 0.29480
# Poissons Ratio (y) = 0.15054 0.31631
# Poissons Ratio (z) = 0.41040 0.35650
#
# Static dielectric constant tensor:
#      x y z
#    x 3.878150 0.000000 0.000000 
#    y 0.000000 3.764060 0.000000 
#    z 0.000000 0.000000 3.650690 
# 
# 
# High freq. dielectric constant tensor:
#      x y z
#    x 1.827220 0.000000 0.000000 
#    y 0.000000 1.821240 0.000000 
#    z 0.000000 0.000000 1.805010 
# 
# From -- ./inp_files/4207.got.cif
#   From: 2010.06.25/outbox.cif.g09.slc.cpg/sg58_3_cif.got.tgz:4207.got - 2010.06.26 21:38:00.
