data_PCOD8236115
_publ_section_title
;
Structure prediction by ZEFSAII (Michael W. Deem and Ramdas Pophale) SiO2 
 PCOD8236115
Probable space group: P N N M
;
_chemical_formula_sum "Si O2"
_cell_formula_units_Z 40
_cell_length_a 28.094866
_cell_length_b 9.410355
_cell_length_c 8.840733
_cell_angle_alpha 90.000000
_cell_angle_beta 90.000000
_cell_angle_gamma 90.000000
_cell_volume 2337.336531
_symmetry_space_group_name_H-M "P N N M"
_symmetry_group_IT_number 58
_symmetry_cell_setting 'orthorhombic'
loop_
_space_group_symop_operation_xyz
x,y,z
-x,-y,z
1/2+x,1/2-y,1/2-z
1/2-x,1/2+y,1/2-z
-x,-y,-z
x,y,-z
1/2-x,1/2+y,1/2+z
1/2+x,1/2-y,1/2+z
loop_
_atom_site_type_symbol
_atom_site_label
_atom_site_fract_x
_atom_site_fract_y
_atom_site_fract_z
Si Si1 0.051685 0.033750 0.171964
Si Si2 0.795835 0.632844 0.176467
Si Si3 0.142738 0.880932 0.171697
Si Si4 0.707110 0.832288 0.176326
Si Si5 0.634638 0.337860 0.821599
O O1 0.084794 0.891137 0.175138
O O2 0.078945 0.155677 0.269195
O O3 0.045678 0.089137 0.000000
O O4 0.000000 0.000000 0.243242
O O5 0.784635 0.476465 0.234244
O O6 0.842056 0.693087 0.262324
O O7 0.750625 0.729211 0.214749
O O8 0.807231 0.629374 0.000000
O O9 0.159063 0.743772 0.265142
O O10 0.162751 0.026976 0.248049
O O11 0.162051 0.872416 0.000000
O O12 0.701995 0.865042 0.000000
O O13 0.638531 0.346687 0.000000
#
# Coordination Sequence:
#
# PCOD8236115 Si02
#       5
#     8   8   8   8   8
#     4   8  16  32  55  81 108 140 178 218 264 319
#     4  11  23  37  53  74 105 144 180 216 266 322
#     4   9  18  33  53  77 106 139 175 214 262 316
#     4  11  23  36  53  77 105 139 180 224 266 312
#     4  10  19  32  52  79 108 136 175 221 264 307
#
# _framework density 17.113496000000001
#
# number of rings (size 3 to 8) (size 9 to 14) (size 15 to 20)
#    1.200    1.000    0.000    4.200    0.000    6.800 
#    0.000    0.000    0.000    1.200    0.000    8.400 
#    0.000    0.000    0.000    0.000    0.000    0.000 
#
# Total GULP energy -495760.594924 kJ/mol
# GULP energy per Si atom -12394.014873 kJ/mol
# Density = 1.707455 g / cm^3
# Si number density = 17.113496 Si / 1000 Ang^3
#
#
#
# Elastic Constant Matrix: (Units=GPa)
#
#
# Indices 1 2 3 4 5 6 
#
# 1 86.9818 34.8496 37.0532 0.0000 0.0000 0.0000
# 2 34.8496 90.4979 33.9362 0.0000 0.0000 0.0000
# 3 37.0532 33.9362 91.0454 0.0000 0.0000 0.0000
# 4 0.0000 0.0000 0.0000 32.2356 0.0000 0.0000
# 5 0.0000 0.0000 0.0000 0.0000 18.3821 0.0000
# 6 0.0000 0.0000 0.0000 0.0000 0.0000 22.6908
#
#
#
# Elastic Compliance Matrix: (Units=1/GPa)
#
#
# Indices 1 2 3 4 5 6 
#
# 1 0.015102 -0.004081 -0.004625 0.000000 0.000000 0.000000
# 2 -0.004081 0.013948 -0.003538 0.000000 0.000000 0.000000
# 3 -0.004625 -0.003538 0.014185 0.000000 0.000000 0.000000
# 4 0.000000 0.000000 0.000000 0.031022 0.000000 0.000000
# 5 0.000000 0.000000 0.000000 0.000000 0.054401 0.000000
# 6 0.000000 0.000000 0.000000 0.000000 0.000000 0.044071
#
#
# Mechanical properties :
#
#
# Convention : Reuss Voigt Hill
#
# Bulk Modulus (GPa) = 53.34372 53.35588 53.34980
# Shear Modulus (GPa) = 24.57420 25.50743 25.04081
#
# Velocity S-wave (km/s) = 3.79351 3.86487 3.82936
# Velocity P-wave (km/s) = 7.10112 7.15274 7.12697
#
# Compressibility (1/GPa) = 0.01874635
#
# Stress axis : x y z
#
# Youngs Moduli (GPa) = 66.21644 71.69271 70.49928
#
# Poissons Ratio (x) = 0.29260 0.32605
# Poissons Ratio (y) = 0.27025 0.24944
# Poissons Ratio (z) = 0.30624 0.25366
#
# Static dielectric constant tensor:
#      x y z
#    x 3.131610 0.000000 0.000000 
#    y 0.000000 2.980490 0.000000 
#    z 0.000000 0.000000 3.206090 
# 
# 
# High freq. dielectric constant tensor:
#      x y z
#    x 1.645860 0.000000 0.000000 
#    y 0.000000 1.635400 0.000000 
#    z 0.000000 0.000000 1.673920 
# 
# From -- ./inp_files/2627.got.cif
#   From: 2010.06.25/outbox.cif.g09.slc.cpg/sg58_2_cif.got.tgz:2627.got - 2010.06.26 21:38:00.
