data_PCOD8236803
_publ_section_title
;
Structure prediction by ZEFSAII (Michael W. Deem and Ramdas Pophale) SiO2 
 PCOD8236803
Probable space group: P N N M
;
_chemical_formula_sum "Si O2"
_cell_formula_units_Z 64
_cell_length_a 7.583688
_cell_length_b 22.848400
_cell_length_c 18.197068
_cell_angle_alpha 90.000000
_cell_angle_beta 90.000000
_cell_angle_gamma 90.000000
_cell_volume 3153.099449
_symmetry_space_group_name_H-M "P N N M"
_symmetry_group_IT_number 58
_symmetry_cell_setting 'orthorhombic'
loop_
_space_group_symop_operation_xyz
x,y,z
-x,-y,z
1/2+x,1/2-y,1/2-z
1/2-x,1/2+y,1/2-z
-x,-y,-z
x,y,-z
1/2-x,1/2+y,1/2+z
1/2+x,1/2-y,1/2+z
loop_
_atom_site_type_symbol
_atom_site_label
_atom_site_fract_x
_atom_site_fract_y
_atom_site_fract_z
Si Si1 0.083614 0.865737 0.191286
Si Si2 0.045453 0.062575 0.311606
Si Si3 0.143992 0.539323 0.300145
Si Si4 0.257841 0.762518 0.415543
Si Si5 0.915746 0.833926 0.415174
Si Si6 0.324925 0.164932 0.815290
Si Si7 0.177930 0.963957 0.917727
Si Si8 0.874850 0.264517 0.169755
O O1 0.113299 0.904666 0.265917
O O2 0.877662 0.852081 0.192132
O O3 0.145072 0.901168 0.120056
O O4 0.177706 0.802389 0.190731
O O5 0.191396 0.046372 0.252054
O O6 0.115970 0.103822 0.376233
O O7 0.000000 0.000000 0.347959
O O8 0.067078 0.603827 0.322233
O O9 0.182915 0.503226 0.374220
O O10 0.000000 0.500000 0.257268
O O11 0.309019 0.753458 0.500000
O O12 0.154304 0.704736 0.387512
O O13 0.437703 0.772372 0.370743
O O14 0.120675 0.815856 0.405296
O O15 0.866191 0.841024 0.500000
O O16 0.784099 0.786672 0.380668
O O17 0.391666 0.199461 0.744305
O O18 0.248109 0.952010 0.000000
O O19 0.000000 0.000000 0.919739
#
# Coordination Sequence:
#
# PCOD8236803 Si02
#       8
#     8   8   8   8   8   8   8   8
#     4  10  19  37  60  91 118 160 213 249 308 377
#     4  11  20  42  65  85 125 163 213 266 313 376
#     4  11  22  38  58  91 124 163 208 257 314 371
#     4  10  24  42  62  94 133 170 209 263 327 387
#     4  11  24  43  66  93 128 165 211 268 326 387
#     4  10  21  38  61  92 124 164 210 258 315 378
#     4  11  21  38  62  86 120 167 210 251 306 380
#     4  11  22  39  66  93 130 167 211 263 324 384
#
# _framework density 20.29749
#
# number of rings (size 3 to 8) (size 9 to 14) (size 15 to 20)
#    0.000    1.375    6.250    1.125    1.750    5.500 
#    0.000    1.250    0.000    0.375    0.000    0.000 
#    0.000    0.000    0.000    0.000    0.000    0.000 
#
# Total GULP energy -793224.411720 kJ/mol
# GULP energy per Si atom -12394.131433 kJ/mol
# Density = 2.025129 g / cm^3
# Si number density = 20.297490 Si / 1000 Ang^3
#
#
#
# Elastic Constant Matrix: (Units=GPa)
#
#
# Indices 1 2 3 4 5 6 
#
# 1 50.1546 39.5082 41.8316 0.0000 0.0000 0.0000
# 2 39.5082 178.8127 74.6859 0.0000 0.0000 0.0000
# 3 41.8316 74.6859 111.0618 0.0000 0.0000 0.0000
# 4 0.0000 0.0000 0.0000 31.9919 0.0000 0.0000
# 5 0.0000 0.0000 0.0000 0.0000 511.2420 0.0000
# 6 0.0000 0.0000 0.0000 0.0000 0.0000 32.3520
#
#
#
# Elastic Compliance Matrix: (Units=1/GPa)
#
#
# Indices 1 2 3 4 5 6 
#
# 1 0.029947 -0.002650 -0.009498 0.000000 0.000000 0.000000
# 2 -0.002650 0.008011 -0.004389 0.000000 0.000000 0.000000
# 3 -0.009498 -0.004389 0.015533 0.000000 0.000000 0.000000
# 4 0.000000 0.000000 0.000000 0.031258 0.000000 0.000000
# 5 0.000000 0.000000 0.000000 0.000000 0.001956 0.000000
# 6 0.000000 0.000000 0.000000 0.000000 0.000000 0.030910
#
#
# Mechanical properties :
#
#
# Convention : Reuss Voigt Hill
#
# Bulk Modulus (GPa) = 48.97673 72.45339 60.71506
# Shear Modulus (GPa) = 31.74702 127.38408 79.56555
#
# Velocity S-wave (km/s) = 3.95914 7.93062 6.26776
# Velocity P-wave (km/s) = 6.71428 10.93768 9.07509
#
# Compressibility (1/GPa) = 0.02041786
#
# Stress axis : x y z
#
# Youngs Moduli (GPa) = 33.39193 124.82524 64.37901
#
# Poissons Ratio (x) = 0.33076 0.61146
# Poissons Ratio (y) = 0.08848 0.28258
# Poissons Ratio (z) = 0.31715 0.54789
#
# Static dielectric constant tensor:
#      x y z
#    x 3.555650 0.000000 0.000000 
#    y 0.000000 5.093260 0.000000 
#    z 0.000000 0.000000 3.711190 
# 
# 
# High freq. dielectric constant tensor:
#      x y z
#    x 1.780330 0.000000 0.000000 
#    y 0.000000 1.810950 0.000000 
#    z 0.000000 0.000000 1.781440 
# 
# From -- ./inp_files/25656.got.cif
#   From: 2010.06.25/outbox.cif.g09.slc.cpg/sg58_13_cif.got.tgz:25656.got - 2010.06.26 21:38:00.
