data_PCOD8236890
_publ_section_title
;
Structure prediction by ZEFSAII (Michael W. Deem and Ramdas Pophale) SiO2 
 PCOD8236890
Probable space group: P N N M
;
_chemical_formula_sum "Si O2"
_cell_formula_units_Z 56
_cell_length_a 16.783876
_cell_length_b 8.897827
_cell_length_c 19.075350
_cell_angle_alpha 90.000000
_cell_angle_beta 90.000000
_cell_angle_gamma 90.000000
_cell_volume 2848.713247
_symmetry_space_group_name_H-M "P N N M"
_symmetry_group_IT_number 58
_symmetry_cell_setting 'orthorhombic'
loop_
_space_group_symop_operation_xyz
x,y,z
-x,-y,z
1/2+x,1/2-y,1/2-z
1/2-x,1/2+y,1/2-z
-x,-y,-z
x,y,-z
1/2-x,1/2+y,1/2+z
1/2+x,1/2-y,1/2+z
loop_
_atom_site_type_symbol
_atom_site_label
_atom_site_fract_x
_atom_site_fract_y
_atom_site_fract_z
Si Si1 0.070481 0.889393 0.828492
Si Si2 0.733256 0.400823 0.182721
Si Si3 0.815894 0.601971 0.080090
Si Si4 0.168100 0.680162 0.419539
Si Si5 0.513940 0.174022 0.423102
Si Si6 0.078151 0.912525 0.333500
Si Si7 0.748794 0.551252 0.671192
O O1 0.051180 0.736511 0.869209
O O2 0.068516 0.855084 0.745919
O O3 0.156013 0.954437 0.852251
O O4 0.000000 0.000000 0.851543
O O5 0.799509 0.454289 0.126811
O O6 0.648308 0.466720 0.160903
O O7 0.761256 0.455980 0.258565
O O8 0.725883 0.222136 0.184316
O O9 0.744942 0.717589 0.089557
O O10 0.895051 0.691469 0.104619
O O11 0.825352 0.546522 0.000000
O O12 0.143510 0.654722 0.500000
O O13 0.094916 0.764727 0.380697
O O14 0.191433 0.519137 0.386349
O O15 0.504098 0.250832 0.500000
O O16 0.500000 0.000000 0.430690
O O17 0.000000 0.000000 0.360555
#
# Coordination Sequence:
#
# PCOD8236890 Si02
#       7
#     8   8   8   8   8   8   8
#     4  10  20  33  52  77 109 146 181 218 259 310
#     4  10  20  34  56  80 108 144 182 226 272 319
#     4   9  18  34  54  78 110 146 182 218 263 323
#     4  10  21  37  58  81 106 139 179 224 275 330
#     4  10  20  32  48  76 113 148 180 214 255 306
#     4   9  20  39  58  81 106 136 179 225 280 336
#     4  11  21  35  54  80 110 142 185 229 268 319
#
# _framework density 19.657999
#
# number of rings (size 3 to 8) (size 9 to 14) (size 15 to 20)
#    0.000    2.143    0.000    4.286    0.000    4.000 
#    0.000    0.714    0.000    0.857    0.000    0.000 
#    0.000    0.000    0.000    0.000    0.000    0.000 
#
# Total GULP energy -694342.924622 kJ/mol
# GULP energy per Si atom -12398.980797 kJ/mol
# Density = 1.961326 g / cm^3
# Si number density = 19.657999 Si / 1000 Ang^3
#
#
#
# Elastic Constant Matrix: (Units=GPa)
#
#
# Indices 1 2 3 4 5 6 
#
# 1 86.1780 32.6134 49.6121 0.0000 0.0000 0.0000
# 2 32.6134 122.0513 65.9736 0.0000 0.0000 0.0000
# 3 49.6121 65.9736 106.3239 0.0000 0.0000 0.0000
# 4 0.0000 0.0000 0.0000 140.7114 0.0000 0.0000
# 5 0.0000 0.0000 0.0000 0.0000 23.2805 0.0000
# 6 0.0000 0.0000 0.0000 0.0000 0.0000 27.1435
#
#
#
# Elastic Compliance Matrix: (Units=1/GPa)
#
#
# Indices 1 2 3 4 5 6 
#
# 1 0.015876 -0.000358 -0.007186 0.000000 0.000000 0.000000
# 2 -0.000358 0.012336 -0.007488 0.000000 0.000000 0.000000
# 3 -0.007186 -0.007488 0.017404 0.000000 0.000000 0.000000
# 4 0.000000 0.000000 0.000000 0.007107 0.000000 0.000000
# 5 0.000000 0.000000 0.000000 0.000000 0.042954 0.000000
# 6 0.000000 0.000000 0.000000 0.000000 0.000000 0.036841
#
#
# Mechanical properties :
#
#
# Convention : Reuss Voigt Hill
#
# Bulk Modulus (GPa) = 64.29295 67.88350 66.08823
# Shear Modulus (GPa) = 29.80329 49.31735 39.56032
#
# Velocity S-wave (km/s) = 3.89792 5.01419 4.49088
# Velocity P-wave (km/s) = 7.28252 8.25409 7.78348
#
# Compressibility (1/GPa) = 0.01555380
#
# Stress axis : x y z
#
# Youngs Moduli (GPa) = 62.98705 81.06188 57.45721
#
# Poissons Ratio (x) = 0.02902 0.41288
# Poissons Ratio (y) = 0.02255 0.43021
# Poissons Ratio (z) = 0.45262 0.60695
#
# Static dielectric constant tensor:
#      x y z
#    x 4.058030 0.000000 0.000000 
#    y 0.000000 3.427660 0.000000 
#    z 0.000000 0.000000 3.628330 
# 
# 
# High freq. dielectric constant tensor:
#      x y z
#    x 1.766380 0.000000 0.000000 
#    y 0.000000 1.757500 0.000000 
#    z 0.000000 0.000000 1.762460 
# 
# From -- ./inp_files/30013.got.cif
#   From: 2010.06.25/outbox.cif.g09.slc.cpg/sg58_16_cif.got.tgz:30013.got - 2010.06.26 21:38:00.
