data_PCOD8236051
_publ_section_title
;
Structure prediction by ZEFSAII (Michael W. Deem and Ramdas Pophale) SiO2 
 PCOD8236051
Probable space group: P N N M
;
_chemical_formula_sum "Si O2"
_cell_formula_units_Z 64
_cell_length_a 9.384877
_cell_length_b 19.129846
_cell_length_c 20.366703
_cell_angle_alpha 90.000000
_cell_angle_beta 90.000000
_cell_angle_gamma 90.000000
_cell_volume 3656.459683
_symmetry_space_group_name_H-M "P N N M"
_symmetry_group_IT_number 58
_symmetry_cell_setting 'orthorhombic'
loop_
_space_group_symop_operation_xyz
x,y,z
-x,-y,z
1/2+x,1/2-y,1/2-z
1/2-x,1/2+y,1/2-z
-x,-y,-z
x,y,-z
1/2-x,1/2+y,1/2+z
1/2+x,1/2-y,1/2+z
loop_
_atom_site_type_symbol
_atom_site_label
_atom_site_fract_x
_atom_site_fract_y
_atom_site_fract_z
Si Si1 0.271469 0.295539 0.188824
Si Si2 0.627104 0.944771 0.876750
Si Si3 0.362190 0.459372 0.642689
Si Si4 0.287781 0.941161 0.721940
Si Si5 0.879178 0.417088 0.771486
Si Si6 0.297694 0.194930 0.072657
Si Si7 0.532217 0.675956 0.425626
Si Si8 0.439276 0.231258 0.693770
O O1 0.278062 0.380134 0.175874
O O2 0.331593 0.256162 0.124699
O O3 0.374759 0.279801 0.249582
O O4 0.108823 0.275252 0.206501
O O5 0.662805 0.915073 0.804637
O O6 0.603095 0.874342 0.919294
O O7 0.500000 0.000000 0.881209
O O8 0.766078 0.987481 0.900105
O O9 0.500000 0.500000 0.668933
O O10 0.276592 0.431262 0.705648
O O11 0.398996 0.396998 0.593967
O O12 0.455300 0.932326 0.726710
O O13 0.277588 0.021952 0.695460
O O14 0.853728 0.342382 0.805475
O O15 0.136771 0.169327 0.081933
O O16 0.324393 0.225970 0.000000
O O17 0.576052 0.695407 0.500000
O O18 0.590653 0.736492 0.377710
#
# Coordination Sequence:
#
# PCOD8236051 Si02
#       8
#     8   8   8   8   8   8   8   8
#     4  10  19  32  54  74  98 131 169 212 254 296
#     4  11  19  31  50  70 101 136 167 202 243 300
#     4  11  19  29  49  73  98 134 170 197 240 298
#     4   9  17  30  49  75 102 124 163 210 253 299
#     4   9  16  30  50  73 102 128 156 210 262 292
#     4  10  21  35  50  72 103 138 170 204 250 303
#     4  10  21  35  49  72 104 138 169 205 251 301
#     4  10  19  31  54  75  96 132 170 210 254 301
#
# _framework density 17.503269
#
# number of rings (size 3 to 8) (size 9 to 14) (size 15 to 20)
#    0.000    2.000    6.250    0.000    0.000    1.000 
#    0.000    0.000    0.000    0.750    0.000    5.250 
#    0.000    0.500    0.000    0.125    0.000    0.000 
#
# Total GULP energy -792862.162832 kJ/mol
# GULP energy per Si atom -12388.471294 kJ/mol
# Density = 1.746343 g / cm^3
# Si number density = 17.503269 Si / 1000 Ang^3
#
#
#
# Elastic Constant Matrix: (Units=GPa)
#
#
# Indices 1 2 3 4 5 6 
#
# 1 23.3740 24.3023 13.9062 0.0000 0.0000 0.0000
# 2 24.3023 130.9710 61.2086 0.0000 0.0000 0.0000
# 3 13.9062 61.2086 93.5454 0.0000 0.0000 0.0000
# 4 0.0000 0.0000 0.0000 -320.0780 0.0000 0.0000
# 5 0.0000 0.0000 0.0000 0.0000 15.9067 0.0000
# 6 0.0000 0.0000 0.0000 0.0000 0.0000 24.2082
#
#
#
# Elastic Compliance Matrix: (Units=1/GPa)
#
#
# Indices 1 2 3 4 5 6 
#
# 1 0.053292 -0.008911 -0.002091 0.000000 0.000000 0.000000
# 2 -0.008911 0.012489 -0.006847 0.000000 0.000000 0.000000
# 3 -0.002091 -0.006847 0.015481 0.000000 0.000000 0.000000
# 4 0.000000 0.000000 0.000000 -0.003124 0.000000 0.000000
# 5 0.000000 0.000000 0.000000 0.000000 0.062867 0.000000
# 6 0.000000 0.000000 0.000000 0.000000 0.000000 0.041308
#
#
# Mechanical properties :
#
#
# Convention : Reuss Voigt Hill
#
# Bulk Modulus (GPa) = 21.94784 49.63607 35.79195
# Shear Modulus (GPa) = 21.44092 -46.09441 -12.32675
#
# Velocity S-wave (km/s) = 3.50375 -5.13731 -2.65666
# Velocity P-wave (km/s) = 5.37911 2.60182 3.32907
#
# Compressibility (1/GPa) = 0.04556258
#
# Stress axis : x y z
#
# Youngs Moduli (GPa) = 18.76455 80.07284 64.59559
#
# Poissons Ratio (x) = 0.71354 0.13510
# Poissons Ratio (y) = 0.16721 0.44228
# Poissons Ratio (z) = 0.03925 0.54825
#
# Static dielectric constant tensor:
#      x y z
#    x 3.277410 0.000000 0.000000 
#    y 0.000000 2.703190 0.000000 
#    z 0.000000 0.000000 3.031320 
# 
# 
# High freq. dielectric constant tensor:
#      x y z
#    x 1.662240 0.000000 0.000000 
#    y 0.000000 1.691660 0.000000 
#    z 0.000000 0.000000 1.636280 
# 
# From -- ./inp_files/25648.got.cif
#   From: 2010.06.25/outbox.cif.g09.slc.cpg/sg58_13_cif.got.tgz:25648.got - 2010.06.26 21:38:00.
