data_PCOD8236271
_publ_section_title
;
Structure prediction by ZEFSAII (Michael W. Deem and Ramdas Pophale) SiO2 
 PCOD8236271
Probable space group: P N N M
;
_chemical_formula_sum "Si O2"
_cell_formula_units_Z 64
_cell_length_a 24.732263
_cell_length_b 15.230620
_cell_length_c 8.813649
_cell_angle_alpha 90.000000
_cell_angle_beta 90.000000
_cell_angle_gamma 90.000000
_cell_volume 3319.993166
_symmetry_space_group_name_H-M "P N N M"
_symmetry_group_IT_number 58
_symmetry_cell_setting 'orthorhombic'
loop_
_space_group_symop_operation_xyz
x,y,z
-x,-y,z
1/2+x,1/2-y,1/2-z
1/2-x,1/2+y,1/2-z
-x,-y,-z
x,y,-z
1/2-x,1/2+y,1/2+z
1/2+x,1/2-y,1/2+z
loop_
_atom_site_type_symbol
_atom_site_label
_atom_site_fract_x
_atom_site_fract_y
_atom_site_fract_z
Si Si1 0.670156 0.983427 0.676445
Si Si2 0.940135 0.157926 0.177722
Si Si3 0.767961 0.777958 0.675606
Si Si4 0.218018 0.039255 0.178659
Si Si5 0.563200 0.321322 0.675218
Si Si6 0.391023 0.506716 0.178590
Si Si7 0.645662 0.794333 0.676091
Si Si8 0.144385 0.327999 0.825707
O O1 0.683557 0.967453 0.500000
O O2 0.631928 0.068354 0.702152
O O3 0.726844 0.001598 0.758545
O O4 0.642129 0.894475 0.741578
O O5 0.933087 0.065514 0.261773
O O6 0.898962 0.230117 0.249837
O O7 0.000230 0.192620 0.209637
O O8 0.929564 0.142450 0.000000
O O9 0.776427 0.802332 0.500000
O O10 0.787846 0.858961 0.776851
O O11 0.705311 0.755564 0.708095
O O12 0.804321 0.695517 0.721533
O O13 0.167336 0.986864 0.247972
O O14 0.216506 0.028186 0.000000
O O15 0.573075 0.346986 0.500000
O O16 0.587728 0.397265 0.778124
O O17 0.591955 0.229139 0.717383
O O18 0.386023 0.500261 0.000000
O O19 0.631927 0.797892 0.500000
O O20 0.160903 0.312500 0.000000
#
# Coordination Sequence:
#
# PCOD8236271 Si02
#       8
#     8   8   8   8   8   8   8   8
#     4   9  19  36  56  82 117 151 187 233 281 330
#     4  10  21  38  59  81 109 151 194 235 282 334
#     4  10  19  33  54  81 112 148 186 228 278 332
#     4  11  21  35  55  81 113 148 185 227 284 341
#     4  10  21  38  58  82 113 149 191 234 278 333
#     4  12  24  37  55  82 113 148 187 233 287 340
#     4   8  17  35  56  79 111 147 186 232 279 325
#     4  10  20  34  55  83 115 151 189 230 277 332
#
# _framework density 19.277149000000001
#
# number of rings (size 3 to 8) (size 9 to 14) (size 15 to 20)
#    0.000    2.000    1.250    3.750    1.750    2.500 
#    0.000    3.125    0.000    3.750    0.000    0.000 
#    0.000    7.000    0.000    0.000    0.000    0.000 
#
# Total GULP energy -793592.787853 kJ/mol
# GULP energy per Si atom -12399.887310 kJ/mol
# Density = 1.923327 g / cm^3
# Si number density = 19.277149 Si / 1000 Ang^3
#
#
#
# Elastic Constant Matrix: (Units=GPa)
#
#
# Indices 1 2 3 4 5 6 
#
# 1 102.3420 48.8775 36.1697 0.0000 0.0000 0.0000
# 2 48.8775 88.6437 25.9909 0.0000 0.0000 0.0000
# 3 36.1697 25.9909 80.9179 0.0000 0.0000 0.0000
# 4 0.0000 0.0000 0.0000 17.4300 0.0000 0.0000
# 5 0.0000 0.0000 0.0000 0.0000 21.6044 0.0000
# 6 0.0000 0.0000 0.0000 0.0000 0.0000 29.7679
#
#
#
# Elastic Compliance Matrix: (Units=1/GPa)
#
#
# Indices 1 2 3 4 5 6 
#
# 1 0.014517 -0.006736 -0.004325 0.000000 0.000000 0.000000
# 2 -0.006736 0.015580 -0.001993 0.000000 0.000000 0.000000
# 3 -0.004325 -0.001993 0.014932 0.000000 0.000000 0.000000
# 4 0.000000 0.000000 0.000000 0.057372 0.000000 0.000000
# 5 0.000000 0.000000 0.000000 0.000000 0.046287 0.000000
# 6 0.000000 0.000000 0.000000 0.000000 0.000000 0.033593
#
#
# Mechanical properties :
#
#
# Convention : Reuss Voigt Hill
#
# Bulk Modulus (GPa) = 52.85671 54.88664 53.87167
# Shear Modulus (GPa) = 23.28862 24.48484 23.88673
#
# Velocity S-wave (km/s) = 3.47954 3.56778 3.52393
# Velocity P-wave (km/s) = 6.60468 6.74583 6.67563
#
# Compressibility (1/GPa) = 0.01891907
#
# Stress axis : x y z
#
# Youngs Moduli (GPa) = 68.88468 64.18512 66.97128
#
# Poissons Ratio (x) = 0.43238 0.28967
# Poissons Ratio (y) = 0.46403 0.13349
# Poissons Ratio (z) = 0.29794 0.12793
#
# Static dielectric constant tensor:
#      x y z
#    x 3.556700 0.000000 0.000000 
#    y 0.000000 3.631760 0.000000 
#    z 0.000000 0.000000 3.326830 
# 
# 
# High freq. dielectric constant tensor:
#      x y z
#    x 1.740370 0.000000 0.000000 
#    y 0.000000 1.752110 0.000000 
#    z 0.000000 0.000000 1.731930 
# 
# From -- ./inp_files/10081.got.cif
#   From: 2010.06.25/outbox.cif.g09.slc.cpg/sg58_6_cif.got.tgz:10081.got - 2010.06.26 21:38:00.
