data_PCOD8236162
_publ_section_title
;
Structure prediction by ZEFSAII (Michael W. Deem and Ramdas Pophale) SiO2 
 PCOD8236162
Probable space group: P N N M
;
_chemical_formula_sum "Si O2"
_cell_formula_units_Z 48
_cell_length_a 17.159872
_cell_length_b 13.349002
_cell_length_c 10.484355
_cell_angle_alpha 90.000000
_cell_angle_beta 90.000000
_cell_angle_gamma 90.000000
_cell_volume 2401.621483
_symmetry_space_group_name_H-M "P N N M"
_symmetry_group_IT_number 58
_symmetry_cell_setting 'orthorhombic'
loop_
_space_group_symop_operation_xyz
x,y,z
-x,-y,z
1/2+x,1/2-y,1/2-z
1/2-x,1/2+y,1/2-z
-x,-y,-z
x,y,-z
1/2-x,1/2+y,1/2+z
1/2+x,1/2-y,1/2+z
loop_
_atom_site_type_symbol
_atom_site_label
_atom_site_fract_x
_atom_site_fract_y
_atom_site_fract_z
Si Si1 0.361657 0.341324 0.857919
Si Si2 0.721622 0.309899 0.643330
Si Si3 0.964066 0.330797 0.357731
Si Si4 0.213978 0.962793 0.142082
Si Si5 0.087027 0.534572 0.136936
Si Si6 0.360966 0.855490 0.220092
O O1 0.301789 0.249617 0.844365
O O2 0.446362 0.288220 0.840936
O O3 0.347336 0.421868 0.746961
O O4 0.355109 0.390572 0.000000
O O5 0.689614 0.308303 0.500000
O O6 0.734742 0.424457 0.687222
O O7 0.656239 0.256002 0.729543
O O8 0.937484 0.365424 0.500000
O O9 0.910936 0.387929 0.253979
O O10 0.055778 0.353625 0.348912
O O11 0.291290 0.894174 0.130040
O O12 0.176022 0.961940 0.000000
O O13 0.139048 0.436391 0.164776
O O14 0.000000 0.500000 0.118558
O O15 0.115646 0.580903 0.000000
#
# Coordination Sequence:
#
# PCOD8236162 Si02
#       6
#     8   8   8   8   8   8
#     4   9  19  36  54  74 104 140 172 210 266 323
#     4   9  18  34  54  75 104 141 176 211 258 315
#     4  10  20  34  54  80 110 141 173 217 273 321
#     4  10  20  35  55  79 104 135 179 225 264 310
#     4   9  18  30  47  75 107 136 168 206 251 305
#     4  10  19  32  54  80 108 139 176 219 266 318
#
# _framework density 19.986495999999999
#
# number of rings (size 3 to 8) (size 9 to 14) (size 15 to 20)
#    0.000    2.500    0.000    2.000    0.000    7.000 
#    0.000    5.000    0.000    4.000    0.000    0.000 
#    0.000    0.000    0.000    0.000    0.000    0.000 
#
# Total GULP energy -594711.056557 kJ/mol
# GULP energy per Si atom -12389.813678 kJ/mol
# Density = 1.994101 g / cm^3
# Si number density = 19.986496 Si / 1000 Ang^3
#
#
#
# Elastic Constant Matrix: (Units=GPa)
#
#
# Indices 1 2 3 4 5 6 
#
# 1 31.8976 13.5804 16.1043 0.0000 0.0000 0.0000
# 2 13.5804 100.3238 49.5262 0.0000 0.0000 0.0000
# 3 16.1043 49.5262 132.7580 0.0000 0.0000 0.0000
# 4 0.0000 0.0000 0.0000 32.4331 0.0000 0.0000
# 5 0.0000 0.0000 0.0000 0.0000 14.0614 0.0000
# 6 0.0000 0.0000 0.0000 0.0000 0.0000 29.9844
#
#
#
# Elastic Compliance Matrix: (Units=1/GPa)
#
#
# Indices 1 2 3 4 5 6 
#
# 1 0.034196 -0.003164 -0.002968 0.000000 0.000000 0.000000
# 2 -0.003164 0.012511 -0.004283 0.000000 0.000000 0.000000
# 3 -0.002968 -0.004283 0.009490 0.000000 0.000000 0.000000
# 4 0.000000 0.000000 0.000000 0.030833 0.000000 0.000000
# 5 0.000000 0.000000 0.000000 0.000000 0.071116 0.000000
# 6 0.000000 0.000000 0.000000 0.000000 0.000000 0.033351
#
#
# Mechanical properties :
#
#
# Convention : Reuss Voigt Hill
#
# Bulk Modulus (GPa) = 28.27524 47.04459 37.65992
# Shear Modulus (GPa) = 22.30994 27.68035 24.99515
#
# Velocity S-wave (km/s) = 3.34466 3.72553 3.54022
# Velocity P-wave (km/s) = 5.39384 6.48810 5.96611
#
# Compressibility (1/GPa) = 0.03536663
#
# Stress axis : x y z
#
# Youngs Moduli (GPa) = 29.24347 79.93271 105.36910
#
# Poissons Ratio (x) = 0.25289 0.31272
# Poissons Ratio (y) = 0.09252 0.45133
# Poissons Ratio (z) = 0.08679 0.34238
#
# Static dielectric constant tensor:
#      x y z
#    x 3.445620 0.000000 0.000000 
#    y 0.000000 3.579350 0.000000 
#    z 0.000000 0.000000 3.983630 
# 
# 
# High freq. dielectric constant tensor:
#      x y z
#    x 1.752970 0.000000 0.000000 
#    y 0.000000 1.761430 0.000000 
#    z 0.000000 0.000000 1.787220 
# 
# From -- ./inp_files/6056.got.cif
#   From: 2010.06.25/outbox.cif.g09.slc.cpg/sg58_4_cif.got.tgz:6056.got - 2010.06.26 21:38:00.
