data_PCOD8236590
_publ_section_title
;
Structure prediction by ZEFSAII (Michael W. Deem and Ramdas Pophale) SiO2 
 PCOD8236590
Probable space group: P N N M
;
_chemical_formula_sum "Si O2"
_cell_formula_units_Z 48
_cell_length_a 19.998486
_cell_length_b 14.799499
_cell_length_c 9.121899
_cell_angle_alpha 90.000000
_cell_angle_beta 90.000000
_cell_angle_gamma 90.000000
_cell_volume 2699.786313
_symmetry_space_group_name_H-M "P N N M"
_symmetry_group_IT_number 58
_symmetry_cell_setting 'orthorhombic'
loop_
_space_group_symop_operation_xyz
x,y,z
-x,-y,z
1/2+x,1/2-y,1/2-z
1/2-x,1/2+y,1/2-z
-x,-y,-z
x,y,-z
1/2-x,1/2+y,1/2+z
1/2+x,1/2-y,1/2+z
loop_
_atom_site_type_symbol
_atom_site_label
_atom_site_fract_x
_atom_site_fract_y
_atom_site_fract_z
Si Si1 0.445910 0.576195 0.671804
Si Si2 0.462245 0.090503 0.671032
Si Si3 0.480201 0.271451 0.174259
Si Si4 0.690556 0.889817 0.332385
Si Si5 0.155950 0.807423 0.170289
Si Si6 0.196512 0.001869 0.829520
O O1 0.500000 0.500000 0.709161
O O2 0.446934 0.599851 0.500000
O O3 0.460727 0.665494 0.765384
O O4 0.373886 0.541310 0.725743
O O5 0.471964 0.113572 0.500000
O O6 0.493602 0.170943 0.766002
O O7 0.384146 0.078999 0.708463
O O8 0.500000 0.000000 0.717345
O O9 0.410010 0.309864 0.231664
O O10 0.480720 0.270802 0.000000
O O11 0.706597 0.910090 0.500000
O O12 0.698772 0.782832 0.297627
O O13 0.741799 0.947540 0.240587
O O14 0.200406 0.894988 0.208449
O O15 0.132530 0.809319 0.000000
O O16 0.203087 0.018156 0.000000
#
# Coordination Sequence:
#
# PCOD8236590 Si02
#       6
#     8   8   8   8   8   8
#     4  10  19  35  57  78 105 144 187 221 261 328
#     4   9  19  39  63  80 104 147 191 221 260 328
#     4  11  21  32  53  85 114 137 171 229 282 318
#     4   9  19  35  56  80 108 138 175 226 273 319
#     4   9  18  37  58  74 101 149 189 211 262 332
#     4  10  20  35  57  79 104 143 185 226 266 321
#
# _framework density 17.779184999999998
#
# number of rings (size 3 to 8) (size 9 to 14) (size 15 to 20)
#    0.000    2.333    1.667    2.500    0.000    4.667 
#    3.000    0.000    0.000    0.000    0.000    0.000 
#    0.000    0.000    0.000    0.000    0.000    0.000 
#
# Total GULP energy -595228.303039 kJ/mol
# GULP energy per Si atom -12400.589647 kJ/mol
# Density = 1.773872 g / cm^3
# Si number density = 17.779185 Si / 1000 Ang^3
#
#
#
# Elastic Constant Matrix: (Units=GPa)
#
#
# Indices 1 2 3 4 5 6 
#
# 1 91.3602 83.1588 38.4854 0.0000 0.0000 0.0000
# 2 83.1588 164.6936 64.7707 0.0000 0.0000 0.0000
# 3 38.4854 64.7707 70.0854 0.0000 0.0000 0.0000
# 4 0.0000 0.0000 0.0000 26.0967 0.0000 0.0000
# 5 0.0000 0.0000 0.0000 0.0000 30.6239 0.0000
# 6 0.0000 0.0000 0.0000 0.0000 0.0000 32.4833
#
#
#
# Elastic Compliance Matrix: (Units=1/GPa)
#
#
# Indices 1 2 3 4 5 6 
#
# 1 0.020567 -0.009337 -0.002665 0.000000 0.000000 0.000000
# 2 -0.009337 0.013777 -0.007606 0.000000 0.000000 0.000000
# 3 -0.002665 -0.007606 0.022761 0.000000 0.000000 0.000000
# 4 0.000000 0.000000 0.000000 0.038319 0.000000 0.000000
# 5 0.000000 0.000000 0.000000 0.000000 0.032654 0.000000
# 6 0.000000 0.000000 0.000000 0.000000 0.000000 0.030785
#
#
# Mechanical properties :
#
#
# Convention : Reuss Voigt Hill
#
# Bulk Modulus (GPa) = 55.89667 77.66323 66.77995
# Shear Modulus (GPa) = 24.50480 27.15572 25.83026
#
# Velocity S-wave (km/s) = 3.71655 3.91242 3.81575
# Velocity P-wave (km/s) = 7.06574 8.01164 7.55351
#
# Compressibility (1/GPa) = 0.01789015
#
# Stress axis : x y z
#
# Youngs Moduli (GPa) = 48.62174 72.58229 43.93550
#
# Poissons Ratio (x) = 0.67769 0.11709
# Poissons Ratio (y) = 0.45397 0.33416
# Poissons Ratio (z) = 0.12958 0.55204
#
# Static dielectric constant tensor:
#      x y z
#    x 3.175420 0.000000 0.000000 
#    y 0.000000 3.529820 0.000000 
#    z 0.000000 0.000000 3.147920 
# 
# 
# High freq. dielectric constant tensor:
#      x y z
#    x 1.670400 0.000000 0.000000 
#    y 0.000000 1.700650 0.000000 
#    z 0.000000 0.000000 1.678130 
# 
# From -- ./inp_files/6028.got.cif
#   From: 2010.06.25/outbox.cif.g09.slc.cpg/sg58_4_cif.got.tgz:6028.got - 2010.06.26 21:38:00.
