data_PCOD8236838
_publ_section_title
;
Structure prediction by ZEFSAII (Michael W. Deem and Ramdas Pophale) SiO2 
 PCOD8236838
Probable space group: P N N M
;
_chemical_formula_sum "Si O2"
_cell_formula_units_Z 56
_cell_length_a 15.150797
_cell_length_b 8.909261
_cell_length_c 19.027805
_cell_angle_alpha 90.000000
_cell_angle_beta 90.000000
_cell_angle_gamma 90.000000
_cell_volume 2568.418878
_symmetry_space_group_name_H-M "P N N M"
_symmetry_group_IT_number 58
_symmetry_cell_setting 'orthorhombic'
loop_
_space_group_symop_operation_xyz
x,y,z
-x,-y,z
1/2+x,1/2-y,1/2-z
1/2-x,1/2+y,1/2-z
-x,-y,-z
x,y,-z
1/2-x,1/2+y,1/2+z
1/2+x,1/2-y,1/2+z
loop_
_atom_site_type_symbol
_atom_site_label
_atom_site_fract_x
_atom_site_fract_y
_atom_site_fract_z
Si Si1 0.588467 0.912343 0.577731
Si Si2 0.720243 0.045318 0.079128
Si Si3 0.832207 0.362045 0.780004
Si Si4 0.442695 0.145367 0.920933
Si Si5 0.914492 0.065435 0.922105
Si Si6 0.483668 0.323728 0.212717
Si Si7 0.336564 0.822514 0.790926
O O1 0.622539 0.968163 0.500000
O O2 0.660978 0.928098 0.640177
O O3 0.566150 0.739406 0.572522
O O4 0.500000 0.000000 0.599504
O O5 0.819162 0.023914 0.112353
O O6 0.671699 0.175707 0.123969
O O7 0.661910 0.894039 0.080616
O O8 0.729600 0.108692 0.000000
O O9 0.910159 0.240794 0.766014
O O10 0.742537 0.276723 0.761053
O O11 0.834337 0.502179 0.728357
O O12 0.458967 0.281619 0.867580
O O13 0.500000 0.000000 0.897563
O O14 0.470329 0.193950 0.000000
O O15 0.912586 0.991841 0.000000
O O16 0.000000 0.000000 0.879738
O O17 0.500000 0.500000 0.218574
O O18 0.573611 0.246172 0.236584
#
# Coordination Sequence:
#
# PCOD8236838 Si02
#       7
#     8   8   8   8   8   8   8
#     4  10  21  39  63  92 124 161 207 263 333 392
#     4  10  19  37  68  97 124 168 219 263 320 388
#     4  12  25  45  65  94 131 175 220 275 330 401
#     4  10  19  37  67  97 129 172 218 268 329 393
#     4   9  18  35  59  90 126 162 208 261 310 375
#     4  12  25  43  65  95 133 175 220 272 332 399
#     4  12  24  44  68  93 128 171 220 272 329 399
#
# _framework density 21.803297000000001
#
# number of rings (size 3 to 8) (size 9 to 14) (size 15 to 20)
#    0.000    1.286    4.286    2.143    0.000    0.857 
#    5.143    0.000    0.000    2.571    0.000    0.000 
#    0.000    0.000    0.000    0.000    0.000    0.000 
#
# Total GULP energy -693982.752534 kJ/mol
# GULP energy per Si atom -12392.549152 kJ/mol
# Density = 2.175367 g / cm^3
# Si number density = 21.803297 Si / 1000 Ang^3
#
#
#
# Elastic Constant Matrix: (Units=GPa)
#
#
# Indices 1 2 3 4 5 6 
#
# 1 141.8476 46.2973 14.9488 0.0000 0.0000 0.0000
# 2 46.2973 104.9161 19.4196 0.0000 0.0000 0.0000
# 3 14.9488 19.4196 82.4035 0.0000 0.0000 0.0000
# 4 0.0000 0.0000 0.0000 17.4420 0.0000 0.0000
# 5 0.0000 0.0000 0.0000 0.0000 24.2818 0.0000
# 6 0.0000 0.0000 0.0000 0.0000 0.0000 38.9914
#
#
#
# Elastic Compliance Matrix: (Units=1/GPa)
#
#
# Indices 1 2 3 4 5 6 
#
# 1 0.008271 -0.003526 -0.000670 0.000000 0.000000 0.000000
# 2 -0.003526 0.011469 -0.002063 0.000000 0.000000 0.000000
# 3 -0.000670 -0.002063 0.012743 0.000000 0.000000 0.000000
# 4 0.000000 0.000000 0.000000 0.057333 0.000000 0.000000
# 5 0.000000 0.000000 0.000000 0.000000 0.041183 0.000000
# 6 0.000000 0.000000 0.000000 0.000000 0.000000 0.025647
#
#
# Mechanical properties :
#
#
# Convention : Reuss Voigt Hill
#
# Bulk Modulus (GPa) = 50.08504 54.49986 52.29245
# Shear Modulus (GPa) = 28.43829 32.70980 30.57405
#
# Velocity S-wave (km/s) = 3.61544 3.87747 3.74875
# Velocity P-wave (km/s) = 6.36001 6.71542 6.54013
#
# Compressibility (1/GPa) = 0.01996604
#
# Stress axis : x y z
#
# Youngs Moduli (GPa) = 120.90115 87.18949 78.47383
#
# Poissons Ratio (x) = 0.30743 0.05254
# Poissons Ratio (y) = 0.42630 0.16191
# Poissons Ratio (z) = 0.08095 0.17989
#
# Static dielectric constant tensor:
#      x y z
#    x 4.269250 0.000000 0.000000 
#    y 0.000000 3.619490 0.000000 
#    z 0.000000 0.000000 4.299610 
# 
# 
# High freq. dielectric constant tensor:
#      x y z
#    x 1.866010 0.000000 0.000000 
#    y 0.000000 1.823710 0.000000 
#    z 0.000000 0.000000 1.868000 
# 
# From -- ./inp_files/30008.got.cif
#   From: 2010.06.25/outbox.cif.g09.slc.cpg/sg58_16_cif.got.tgz:30008.got - 2010.06.26 21:38:00.
