data_PCOD8236391
_publ_section_title
;
Structure prediction by ZEFSAII (Michael W. Deem and Ramdas Pophale) SiO2 
 PCOD8236391
Probable space group: P N N M
;
_chemical_formula_sum "Si O2"
_cell_formula_units_Z 48
_cell_length_a 9.884751
_cell_length_b 14.237191
_cell_length_c 19.086785
_cell_angle_alpha 90.000000
_cell_angle_beta 90.000000
_cell_angle_gamma 90.000000
_cell_volume 2686.104019
_symmetry_space_group_name_H-M "P N N M"
_symmetry_group_IT_number 58
_symmetry_cell_setting 'orthorhombic'
loop_
_space_group_symop_operation_xyz
x,y,z
-x,-y,z
1/2+x,1/2-y,1/2-z
1/2-x,1/2+y,1/2-z
-x,-y,-z
x,y,-z
1/2-x,1/2+y,1/2+z
1/2+x,1/2-y,1/2+z
loop_
_atom_site_type_symbol
_atom_site_label
_atom_site_fract_x
_atom_site_fract_y
_atom_site_fract_z
Si Si1 0.574980 0.903895 0.924119
Si Si2 0.153513 0.507358 0.806013
Si Si3 0.859626 0.321249 0.287083
Si Si4 0.175585 0.324488 0.277703
Si Si5 0.640535 0.455687 0.920020
Si Si6 0.166415 0.264103 0.575912
O O1 0.673958 0.873291 0.861141
O O2 0.472942 0.818357 0.932935
O O3 0.500000 0.000000 0.901644
O O4 0.648971 0.918750 0.000000
O O5 0.182080 0.609615 0.775133
O O6 0.184438 0.432468 0.744776
O O7 0.245390 0.493742 0.873891
O O8 0.000000 0.500000 0.832003
O O9 0.761208 0.232345 0.279989
O O10 0.018074 0.292110 0.280980
O O11 0.241690 0.308934 0.355790
O O12 0.500000 0.500000 0.895163
O O13 0.635875 0.344351 0.908670
O O14 0.671826 0.482454 0.000000
O O15 0.245047 0.274117 0.500000
#
# Coordination Sequence:
#
# PCOD8236391 Si02
#       6
#     8   8   8   8   8   8
#     4   9  17  30  52  78 104 135 170 216 265 304
#     4  10  21  35  51  76 109 139 170 212 265 320
#     4  10  19  34  50  77 106 133 173 213 257 311
#     4  10  20  32  53  76 102 139 171 215 260 307
#     4  10  21  35  54  79 105 138 180 222 260 307
#     4   9  17  32  52  75 103 134 174 216 258 305
#
# _framework density 17.869747
#
# number of rings (size 3 to 8) (size 9 to 14) (size 15 to 20)
#    0.000    2.333    1.667    2.500    4.667    0.333 
#    0.000    0.000    0.000    2.000    0.000    0.000 
#    0.000   16.000    0.000    0.000    0.000    0.000 
#
# Total GULP energy -594703.844603 kJ/mol
# GULP energy per Si atom -12389.663429 kJ/mol
# Density = 1.782908 g / cm^3
# Si number density = 17.869747 Si / 1000 Ang^3
#
#
#
# Elastic Constant Matrix: (Units=GPa)
#
#
# Indices 1 2 3 4 5 6 
#
# 1 56.2309 31.2802 46.1964 0.0000 0.0000 0.0000
# 2 31.2802 68.9647 31.8469 0.0000 0.0000 0.0000
# 3 46.1964 31.8469 129.5739 0.0000 0.0000 0.0000
# 4 0.0000 0.0000 0.0000 29.9644 0.0000 0.0000
# 5 0.0000 0.0000 0.0000 0.0000 29.5103 0.0000
# 6 0.0000 0.0000 0.0000 0.0000 0.0000 23.3856
#
#
#
# Elastic Compliance Matrix: (Units=1/GPa)
#
#
# Indices 1 2 3 4 5 6 
#
# 1 0.030060 -0.009797 -0.008309 0.000000 0.000000 0.000000
# 2 -0.009797 0.019550 -0.001312 0.000000 0.000000 0.000000
# 3 -0.008309 -0.001312 0.011003 0.000000 0.000000 0.000000
# 4 0.000000 0.000000 0.000000 0.033373 0.000000 0.000000
# 5 0.000000 0.000000 0.000000 0.000000 0.033886 0.000000
# 6 0.000000 0.000000 0.000000 0.000000 0.000000 0.042761
#
#
# Mechanical properties :
#
#
# Convention : Reuss Voigt Hill
#
# Bulk Modulus (GPa) = 45.92317 52.60184 49.26251
# Shear Modulus (GPa) = 23.07026 26.26845 24.66936
#
# Velocity S-wave (km/s) = 3.59698 3.83821 3.71955
# Velocity P-wave (km/s) = 6.55787 7.01018 6.78779
#
# Compressibility (1/GPa) = 0.02177550
#
# Stress axis : x y z
#
# Youngs Moduli (GPa) = 33.26637 51.15146 90.88806
#
# Poissons Ratio (x) = 0.50115 0.75522
# Poissons Ratio (y) = 0.32592 0.11924
# Poissons Ratio (z) = 0.27642 0.06711
#
# Static dielectric constant tensor:
#      x y z
#    x 2.900410 0.000000 0.000000 
#    y 0.000000 3.343970 0.000000 
#    z 0.000000 0.000000 3.975600 
# 
# 
# High freq. dielectric constant tensor:
#      x y z
#    x 1.631180 0.000000 0.000000 
#    y 0.000000 1.703120 0.000000 
#    z 0.000000 0.000000 1.714240 
# 
# From -- ./inp_files/25262.got.cif
#   From: 2010.06.25/outbox.cif.g09.slc.cpg/sg58_13_cif.got.tgz:25262.got - 2010.06.26 21:38:00.
