data_PCOD8236192
_publ_section_title
;
Structure prediction by ZEFSAII (Michael W. Deem and Ramdas Pophale) SiO2 
 PCOD8236192
Probable space group: P N N M
;
_chemical_formula_sum "Si O2"
_cell_formula_units_Z 56
_cell_length_a 19.359769
_cell_length_b 15.841380
_cell_length_c 8.864232
_cell_angle_alpha 90.000000
_cell_angle_beta 90.000000
_cell_angle_gamma 90.000000
_cell_volume 2718.531046
_symmetry_space_group_name_H-M "P N N M"
_symmetry_group_IT_number 58
_symmetry_cell_setting 'orthorhombic'
loop_
_space_group_symop_operation_xyz
x,y,z
-x,-y,z
1/2+x,1/2-y,1/2-z
1/2-x,1/2+y,1/2-z
-x,-y,-z
x,y,-z
1/2-x,1/2+y,1/2+z
1/2+x,1/2-y,1/2+z
loop_
_atom_site_type_symbol
_atom_site_label
_atom_site_fract_x
_atom_site_fract_y
_atom_site_fract_z
Si Si1 0.501985 0.598911 0.822632
Si Si2 0.736146 0.821007 0.322195
Si Si3 0.825708 0.476322 0.668484
Si Si4 0.620666 0.298085 0.329375
Si Si5 0.601443 0.722170 0.322516
Si Si6 0.595742 0.103638 0.331185
Si Si7 0.964758 0.374243 0.669107
O O1 0.500000 0.500000 0.784516
O O2 0.436187 0.641200 0.743111
O O3 0.574750 0.637349 0.761010
O O4 0.497222 0.615625 0.000000
O O5 0.732046 0.830629 0.500000
O O6 0.726040 0.913569 0.251730
O O7 0.810779 0.792558 0.270248
O O8 0.678323 0.752054 0.269141
O O9 0.797854 0.493702 0.500000
O O10 0.834071 0.564993 0.757406
O O11 0.900923 0.436246 0.667644
O O12 0.636520 0.329034 0.500000
O O13 0.593871 0.203688 0.331091
O O14 0.598935 0.705363 0.500000
O O15 0.548279 0.795761 0.279905
O O16 0.589392 0.067167 0.500000
O O17 0.530335 0.074518 0.231734
O O18 0.979893 0.340577 0.500000
#
# Coordination Sequence:
#
# PCOD8236192 Si02
#       7
#     8   8   8   8   8   8   8
#     4  11  24  42  66  95 124 163 211 262 317 373
#     4  10  22  41  64  89 122 162 205 256 315 377
#     4  10  21  36  56  85 119 157 199 242 296 360
#     4  11  24  42  64  90 123 164 207 257 316 371
#     4  10  20  37  62  91 120 157 202 251 309 369
#     4  11  22  35  55  86 120 156 197 243 298 359
#     4  10  19  32  55  85 118 154 191 237 290 352
#
# _framework density 20.599360000000001
#
# number of rings (size 3 to 8) (size 9 to 14) (size 15 to 20)
#    0.000    1.571    1.429    3.429    0.000    8.000 
#    2.571    0.000    0.000    0.000    0.000    0.000 
#    0.000    0.000    0.000    0.000    0.000    0.000 
#
# Total GULP energy -694292.906700 kJ/mol
# GULP energy per Si atom -12398.087620 kJ/mol
# Density = 2.055247 g / cm^3
# Si number density = 20.599360 Si / 1000 Ang^3
#
#
#
# Elastic Constant Matrix: (Units=GPa)
#
#
# Indices 1 2 3 4 5 6 
#
# 1 81.6257 16.7723 27.9439 0.0000 0.0000 0.0000
# 2 16.7723 85.1505 31.7304 0.0000 0.0000 0.0000
# 3 27.9439 31.7304 105.8318 0.0000 0.0000 0.0000
# 4 0.0000 0.0000 0.0000 33.7020 0.0000 0.0000
# 5 0.0000 0.0000 0.0000 0.0000 29.0840 0.0000
# 6 0.0000 0.0000 0.0000 0.0000 0.0000 16.7697
#
#
#
# Elastic Compliance Matrix: (Units=1/GPa)
#
#
# Indices 1 2 3 4 5 6 
#
# 1 0.013640 -0.001514 -0.003148 0.000000 0.000000 0.000000
# 2 -0.001514 0.013389 -0.003615 0.000000 0.000000 0.000000
# 3 -0.003148 -0.003615 0.011364 0.000000 0.000000 0.000000
# 4 0.000000 0.000000 0.000000 0.029672 0.000000 0.000000
# 5 0.000000 0.000000 0.000000 0.000000 0.034383 0.000000
# 6 0.000000 0.000000 0.000000 0.000000 0.000000 0.059631
#
#
# Mechanical properties :
#
#
# Convention : Reuss Voigt Hill
#
# Bulk Modulus (GPa) = 45.78626 47.27793 46.53210
# Shear Modulus (GPa) = 26.89462 28.98856 27.94159
#
# Velocity S-wave (km/s) = 3.61724 3.75541 3.68697
# Velocity P-wave (km/s) = 6.30247 6.46569 6.38460
#
# Compressibility (1/GPa) = 0.02184061
#
# Stress axis : x y z
#
# Youngs Moduli (GPa) = 73.31580 74.68805 87.99893
#
# Poissons Ratio (x) = 0.11306 0.27698
# Poissons Ratio (y) = 0.11098 0.31808
# Poissons Ratio (z) = 0.23077 0.26997
#
# Static dielectric constant tensor:
#      x y z
#    x 3.623040 0.000000 0.000000 
#    y 0.000000 3.738650 0.000000 
#    z 0.000000 0.000000 4.000960 
# 
# 
# High freq. dielectric constant tensor:
#      x y z
#    x 1.792650 0.000000 0.000000 
#    y 0.000000 1.800480 0.000000 
#    z 0.000000 0.000000 1.820570 
# 
# From -- ./inp_files/9051.got.cif
#   From: 2010.06.25/outbox.cif.g09.slc.cpg/sg58_5_cif.got.tgz:9051.got - 2010.06.26 21:38:00.
