data_PCOD8236290
_publ_section_title
;
Structure prediction by ZEFSAII (Michael W. Deem and Ramdas Pophale) SiO2 
 PCOD8236290
Probable space group: P N N M
;
_chemical_formula_sum "Si O2"
_cell_formula_units_Z 64
_cell_length_a 20.769623
_cell_length_b 18.471835
_cell_length_c 8.668501
_cell_angle_alpha 90.000000
_cell_angle_beta 90.000000
_cell_angle_gamma 90.000000
_cell_volume 3325.696840
_symmetry_space_group_name_H-M "P N N M"
_symmetry_group_IT_number 58
_symmetry_cell_setting 'orthorhombic'
loop_
_space_group_symop_operation_xyz
x,y,z
-x,-y,z
1/2+x,1/2-y,1/2-z
1/2-x,1/2+y,1/2-z
-x,-y,-z
x,y,-z
1/2-x,1/2+y,1/2+z
1/2+x,1/2-y,1/2+z
loop_
_atom_site_type_symbol
_atom_site_label
_atom_site_fract_x
_atom_site_fract_y
_atom_site_fract_z
Si Si1 0.243425 0.081164 0.179194
Si Si2 0.859038 0.653227 0.817424
Si Si3 0.503259 0.144536 0.675426
Si Si4 0.634990 0.691537 0.822726
Si Si5 0.993982 0.791354 0.325999
Si Si6 0.731499 0.570394 0.818912
Si Si7 0.364960 0.151666 0.317028
Si Si8 0.646383 0.310237 0.823575
O O1 0.310008 0.096980 0.265941
O O2 0.189970 0.140732 0.215665
O O3 0.217034 0.003642 0.231194
O O4 0.257992 0.081891 0.000000
O O5 0.927418 0.616633 0.759529
O O6 0.803475 0.596381 0.779332
O O7 0.845818 0.727004 0.725925
O O8 0.862185 0.670814 0.000000
O O9 0.499919 0.120643 0.500000
O O10 0.506888 0.231012 0.694017
O O11 0.434351 0.121559 0.750894
O O12 0.560625 0.664287 0.803837
O O13 0.680941 0.629452 0.754289
O O14 0.649285 0.767236 0.739673
O O15 0.653468 0.704364 0.000000
O O16 0.993978 0.757095 0.500000
O O17 0.928224 0.837423 0.306389
O O18 0.721776 0.557397 0.000000
O O19 0.368431 0.154192 0.500000
O O20 0.669807 0.318152 0.000000
#
# Coordination Sequence:
#
# PCOD8236290 Si02
#       8
#     8   8   8   8   8   8   8   8
#     4  12  25  38  51  69  99 137 175 218 263 306
#     4   9  17  32  55  82 109 136 168 205 250 302
#     4   8  15  28  49  78 107 133 163 203 248 296
#     4   9  17  32  55  82 109 136 168 205 250 302
#     4   8  15  28  49  78 107 133 163 203 248 296
#     4  10  21  36  53  73 101 137 173 210 251 300
#     4  10  19  33  55  80 105 134 170 210 252 302
#     4  10  19  33  55  80 105 134 170 210 252 302
#
# _framework density 19.244085999999999
#
# number of rings (size 3 to 8) (size 9 to 14) (size 15 to 20)
#    0.000    2.500    0.000    2.625    0.000    3.000 
#    0.000    1.250    0.000    7.500    0.000    0.000 
#    0.000    0.000    0.000    0.000    0.000    0.000 
#
# Total GULP energy -792895.771166 kJ/mol
# GULP energy per Si atom -12388.996424 kJ/mol
# Density = 1.920029 g / cm^3
# Si number density = 19.244086 Si / 1000 Ang^3
#
#
#
# Elastic Constant Matrix: (Units=GPa)
#
#
# Indices 1 2 3 4 5 6 
#
# 1 94.0865 6.2200 9.4454 0.0000 0.0000 0.0000
# 2 6.2200 39.7789 12.6884 0.0000 0.0000 0.0000
# 3 9.4454 12.6884 38.0478 0.0000 0.0000 0.0000
# 4 0.0000 0.0000 0.0000 25.8044 0.0000 0.0000
# 5 0.0000 0.0000 0.0000 0.0000 19.6513 0.0000
# 6 0.0000 0.0000 0.0000 0.0000 0.0000 4.1569
#
#
#
# Elastic Compliance Matrix: (Units=1/GPa)
#
#
# Indices 1 2 3 4 5 6 
#
# 1 0.010932 -0.000944 -0.002399 0.000000 0.000000 0.000000
# 2 -0.000944 0.028213 -0.009174 0.000000 0.000000 0.000000
# 3 -0.002399 -0.009174 0.029938 0.000000 0.000000 0.000000
# 4 0.000000 0.000000 0.000000 0.038753 0.000000 0.000000
# 5 0.000000 0.000000 0.000000 0.000000 0.050887 0.000000
# 6 0.000000 0.000000 0.000000 0.000000 0.000000 0.240563
#
#
# Mechanical properties :
#
#
# Convention : Reuss Voigt Hill
#
# Bulk Modulus (GPa) = 22.70259 25.40229 24.05244
# Shear Modulus (GPa) = 11.38945 19.49316 15.44130
#
# Velocity S-wave (km/s) = 2.43542 3.18613 2.83573
# Velocity P-wave (km/s) = 4.44197 5.17339 4.82157
#
# Compressibility (1/GPa) = 0.04404784
#
# Stress axis : x y z
#
# Youngs Moduli (GPa) = 91.47646 35.44475 33.40264
#
# Poissons Ratio (x) = 0.03346 0.08013
# Poissons Ratio (y) = 0.08637 0.30644
# Poissons Ratio (z) = 0.21945 0.32518
#
# Static dielectric constant tensor:
#      x y z
#    x 4.167480 0.000000 0.000000 
#    y 0.000000 3.091130 0.000000 
#    z 0.000000 0.000000 3.439120 
# 
# 
# High freq. dielectric constant tensor:
#      x y z
#    x 1.779720 0.000000 0.000000 
#    y 0.000000 1.699610 0.000000 
#    z 0.000000 0.000000 1.738950 
# 
# From -- ./inp_files/9244.got.cif
#   From: 2010.06.25/outbox.cif.g09.slc.cpg/sg58_5_cif.got.tgz:9244.got - 2010.06.26 21:38:00.
