data_PCOD8236915
_publ_section_title
;
Structure prediction by ZEFSAII (Michael W. Deem and Ramdas Pophale) SiO2 
 PCOD8236915
Probable space group: P N N M
;
_chemical_formula_sum "Si O2"
_cell_formula_units_Z 64
_cell_length_a 9.189169
_cell_length_b 22.411361
_cell_length_c 18.059658
_cell_angle_alpha 90.000000
_cell_angle_beta 90.000000
_cell_angle_gamma 90.000000
_cell_volume 3719.238182
_symmetry_space_group_name_H-M "P N N M"
_symmetry_group_IT_number 58
_symmetry_cell_setting 'orthorhombic'
loop_
_space_group_symop_operation_xyz
x,y,z
-x,-y,z
1/2+x,1/2-y,1/2-z
1/2-x,1/2+y,1/2-z
-x,-y,-z
x,y,-z
1/2-x,1/2+y,1/2+z
1/2+x,1/2-y,1/2+z
loop_
_atom_site_type_symbol
_atom_site_label
_atom_site_fract_x
_atom_site_fract_y
_atom_site_fract_z
Si Si1 0.158480 0.263749 0.085444
Si Si2 0.840369 0.805016 0.286520
Si Si3 0.781973 0.634345 0.355761
Si Si4 0.180386 0.739765 0.914632
Si Si5 0.298342 0.636346 0.357357
Si Si6 0.536938 0.932555 0.912773
Si Si7 0.687894 0.690865 0.215921
Si Si8 0.956515 0.063252 0.914220
O O1 0.232311 0.199714 0.103013
O O2 0.242933 0.314451 0.133517
O O3 0.989026 0.261895 0.108176
O O4 0.180298 0.280171 0.000000
O O5 0.770310 0.810731 0.368458
O O6 0.788712 0.858346 0.232231
O O7 0.771436 0.745214 0.254111
O O8 0.014950 0.800188 0.289727
O O9 0.745603 0.695117 0.398788
O O10 0.950922 0.617558 0.364917
O O11 0.730941 0.635419 0.269368
O O12 0.711235 0.577583 0.398405
O O13 0.201198 0.723559 0.000000
O O14 0.462935 0.618229 0.375187
O O15 0.202241 0.582865 0.390825
O O16 0.500000 0.000000 0.888372
O O17 0.511323 0.923929 0.000000
O O18 0.995394 0.063092 0.000000
O O19 0.000000 0.000000 0.878552
#
# Coordination Sequence:
#
# PCOD8236915 Si02
#       8
#     8   8   8   8   8   8   8   8
#     4  10  20  33  52  77 103 131 166 203 246 302
#     4  10  20  33  49  73  99 131 168 204 246 298
#     4  11  20  34  50  69  99 136 168 204 247 290
#     4  10  20  33  52  77 103 131 166 203 246 302
#     4  11  20  34  50  69  99 136 168 204 247 290
#     4  11  24  36  47  70 101 133 174 215 246 282
#     4  10  20  33  49  73  99 131 168 204 246 298
#     4  11  20  32  51  70  93 129 172 211 244 282
#
# _framework density 17.207825
#
# number of rings (size 3 to 8) (size 9 to 14) (size 15 to 20)
#    0.000    1.500    2.500    5.250    8.750    2.500 
#    0.000    0.000    0.000    0.000    0.000    0.000 
#    0.000    6.000    0.000    0.000    0.000    0.000 
#
# Total GULP energy -793239.899753 kJ/mol
# GULP energy per Si atom -12394.373434 kJ/mol
# Density = 1.716866 g / cm^3
# Si number density = 17.207825 Si / 1000 Ang^3
#
#
#
# Elastic Constant Matrix: (Units=GPa)
#
#
# Indices 1 2 3 4 5 6 
#
# 1 83.6922 18.0895 41.1811 0.0000 0.0000 0.0000
# 2 18.0895 43.8109 34.8514 0.0000 0.0000 0.0000
# 3 41.1811 34.8514 111.5144 0.0000 0.0000 0.0000
# 4 0.0000 0.0000 0.0000 20.4281 0.0000 0.0000
# 5 0.0000 0.0000 0.0000 0.0000 33.1862 0.0000
# 6 0.0000 0.0000 0.0000 0.0000 0.0000 20.2989
#
#
#
# Elastic Compliance Matrix: (Units=1/GPa)
#
#
# Indices 1 2 3 4 5 6 
#
# 1 0.014780 -0.002343 -0.004726 0.000000 0.000000 0.000000
# 2 -0.002343 0.030749 -0.008745 0.000000 0.000000 0.000000
# 3 -0.004726 -0.008745 0.013446 0.000000 0.000000 0.000000
# 4 0.000000 0.000000 0.000000 0.048952 0.000000 0.000000
# 5 0.000000 0.000000 0.000000 0.000000 0.030133 0.000000
# 6 0.000000 0.000000 0.000000 0.000000 0.000000 0.049264
#
#
# Mechanical properties :
#
#
# Convention : Reuss Voigt Hill
#
# Bulk Modulus (GPa) = 36.56641 47.47350 42.01996
# Shear Modulus (GPa) = 21.92328 24.44233 23.18281
#
# Velocity S-wave (km/s) = 3.57323 3.77293 3.67444
# Velocity P-wave (km/s) = 6.19031 6.82849 6.51722
#
# Compressibility (1/GPa) = 0.02734750
#
# Stress axis : x y z
#
# Youngs Moduli (GPa) = 67.65690 32.52111 74.37371
#
# Poissons Ratio (x) = 0.07621 0.35148
# Poissons Ratio (y) = 0.15855 0.65037
# Poissons Ratio (z) = 0.31974 0.28438
#
# Static dielectric constant tensor:
#      x y z
#    x 3.334080 0.000000 0.000000 
#    y 0.000000 3.013870 0.000000 
#    z 0.000000 0.000000 3.709340 
# 
# 
# High freq. dielectric constant tensor:
#      x y z
#    x 1.683610 0.000000 0.000000 
#    y 0.000000 1.616550 0.000000 
#    z 0.000000 0.000000 1.660890 
# 
# From -- ./inp_files/25670.got.cif
#   From: 2010.06.25/outbox.cif.g09.slc.cpg/sg58_13_cif.got.tgz:25670.got - 2010.06.26 21:38:00.
