data_PCOD8236279
_publ_section_title
;
Structure prediction by ZEFSAII (Michael W. Deem and Ramdas Pophale) SiO2 
 PCOD8236279
Probable space group: P N N M
;
_chemical_formula_sum "Si O2"
_cell_formula_units_Z 40
_cell_length_a 19.266550
_cell_length_b 11.468184
_cell_length_c 10.430132
_cell_angle_alpha 90.000000
_cell_angle_beta 90.000000
_cell_angle_gamma 90.000000
_cell_volume 2304.562077
_symmetry_space_group_name_H-M "P N N M"
_symmetry_group_IT_number 58
_symmetry_cell_setting 'orthorhombic'
loop_
_space_group_symop_operation_xyz
x,y,z
-x,-y,z
1/2+x,1/2-y,1/2-z
1/2-x,1/2+y,1/2-z
-x,-y,-z
x,y,-z
1/2-x,1/2+y,1/2+z
1/2+x,1/2-y,1/2+z
loop_
_atom_site_type_symbol
_atom_site_label
_atom_site_fract_x
_atom_site_fract_y
_atom_site_fract_z
Si Si1 0.486974 0.307931 0.000000
Si Si2 0.375503 0.827722 0.644787
Si Si3 0.304952 0.667461 0.144507
Si Si4 0.389976 0.509275 0.000000
Si Si5 0.155621 0.588621 0.147107
Si Si6 0.486110 0.129889 0.226462
O O1 0.496981 0.227299 0.878594
O O2 0.412085 0.373829 0.000000
O O3 0.544122 0.406501 0.000000
O O4 0.362401 0.781237 0.500000
O O5 0.345150 0.741061 0.750016
O O6 0.458307 0.845419 0.661131
O O7 0.337453 0.950369 0.667044
O O8 0.343994 0.541651 0.126827
O O9 0.226903 0.647617 0.194628
O O10 0.305958 0.726589 0.000000
O O11 0.092188 0.643204 0.224935
O O12 0.142027 0.618204 0.000000
O O13 0.500000 0.000000 0.170633
#
# Coordination Sequence:
#
# PCOD8236279 Si02
#       6
#     4   8   8   4   8   8
#     4  11  19  34  56  84 105 145 189 226 262 331
#     4  10  19  34  57  79 108 144 180 226 271 328
#     4   9  18  37  54  74 107 148 180 220 271 320
#     4   9  20  34  58  74 103 150 188 212 269 324
#     4   9  19  34  53  78 108 143 179 219 278 333
#     4  10  19  33  54  84 111 139 179 231 275 316
#
# _framework density 17.356877000000001
#
# number of rings (size 3 to 8) (size 9 to 14) (size 15 to 20)
#    0.600    1.800    2.000    0.900    0.000    4.000 
#    3.600    0.000    0.000    3.600    0.000    0.000 
#    0.000    0.000    0.000    0.000    0.000    0.000 
#
# Total GULP energy -495618.685881 kJ/mol
# GULP energy per Si atom -12390.467147 kJ/mol
# Density = 1.731737 g / cm^3
# Si number density = 17.356877 Si / 1000 Ang^3
#
#
#
# Elastic Constant Matrix: (Units=GPa)
#
#
# Indices 1 2 3 4 5 6 
#
# 1 110.5400 31.7698 31.3805 0.0000 0.0000 0.0000
# 2 31.7698 61.3043 36.2481 0.0000 0.0000 0.0000
# 3 31.3805 36.2481 80.0367 0.0000 0.0000 0.0000
# 4 0.0000 0.0000 0.0000 24.9323 0.0000 0.0000
# 5 0.0000 0.0000 0.0000 0.0000 21.2362 0.0000
# 6 0.0000 0.0000 0.0000 0.0000 0.0000 25.3357
#
#
#
# Elastic Compliance Matrix: (Units=1/GPa)
#
#
# Indices 1 2 3 4 5 6 
#
# 1 0.010945 -0.004281 -0.002352 0.000000 0.000000 0.000000
# 2 -0.004281 0.023952 -0.009169 0.000000 0.000000 0.000000
# 3 -0.002352 -0.009169 0.017569 0.000000 0.000000 0.000000
# 4 0.000000 0.000000 0.000000 0.040109 0.000000 0.000000
# 5 0.000000 0.000000 0.000000 0.000000 0.047089 0.000000
# 6 0.000000 0.000000 0.000000 0.000000 0.000000 0.039470
#
#
# Mechanical properties :
#
#
# Convention : Reuss Voigt Hill
#
# Bulk Modulus (GPa) = 47.93651 50.07531 49.00591
# Shear Modulus (GPa) = 22.96811 24.46636 23.71723
#
# Velocity S-wave (km/s) = 3.64165 3.75854 3.70056
# Velocity P-wave (km/s) = 6.73500 6.91004 6.82308
#
# Compressibility (1/GPa) = 0.02086093
#
# Stress axis : x y z
#
# Youngs Moduli (GPa) = 91.36883 41.74971 56.91745
#
# Poissons Ratio (x) = 0.17873 0.13389
# Poissons Ratio (y) = 0.39115 0.52190
# Poissons Ratio (z) = 0.21493 0.38282
#
# Static dielectric constant tensor:
#      x y z
#    x 3.516730 0.000000 0.000000 
#    y 0.000000 3.071270 0.000000 
#    z 0.000000 0.000000 3.091980 
# 
# 
# High freq. dielectric constant tensor:
#      x y z
#    x 1.687970 0.000000 0.000000 
#    y 0.000000 1.647740 0.000000 
#    z 0.000000 0.000000 1.655550 
# 
# From -- ./inp_files/4029.got.cif
#   From: 2010.06.25/outbox.cif.g09.slc.cpg/sg58_3_cif.got.tgz:4029.got - 2010.06.26 21:38:00.
