data_PCOD8236392
_publ_section_title
;
Structure prediction by ZEFSAII (Michael W. Deem and Ramdas Pophale) SiO2 
 PCOD8236392
Probable space group: P N N M
;
_chemical_formula_sum "Si O2"
_cell_formula_units_Z 64
_cell_length_a 12.955609
_cell_length_b 28.922549
_cell_length_c 9.327147
_cell_angle_alpha 90.000000
_cell_angle_beta 90.000000
_cell_angle_gamma 90.000000
_cell_volume 3494.968128
_symmetry_space_group_name_H-M "P N N M"
_symmetry_group_IT_number 58
_symmetry_cell_setting 'orthorhombic'
loop_
_space_group_symop_operation_xyz
x,y,z
-x,-y,z
1/2+x,1/2-y,1/2-z
1/2-x,1/2+y,1/2-z
-x,-y,-z
x,y,-z
1/2-x,1/2+y,1/2+z
1/2+x,1/2-y,1/2+z
loop_
_atom_site_type_symbol
_atom_site_label
_atom_site_fract_x
_atom_site_fract_y
_atom_site_fract_z
Si Si1 0.115292 0.945611 0.666592
Si Si2 0.006775 0.254199 0.669306
Si Si3 0.279803 0.114833 0.167154
Si Si4 0.228133 0.380835 0.669707
Si Si5 0.501533 0.141691 0.830697
Si Si6 0.674905 0.289878 0.345599
Si Si7 0.311938 0.297524 0.156983
Si Si8 0.117738 0.053555 0.666137
O O1 0.134152 0.934699 0.500000
O O2 0.202091 0.920185 0.759432
O O3 0.998464 0.929853 0.710247
O O4 0.127873 0.999508 0.697901
O O5 0.003451 0.258084 0.500000
O O6 0.005636 0.306180 0.736065
O O7 0.103802 0.224231 0.715136
O O8 0.915993 0.221706 0.727610
O O9 0.399590 0.113730 0.222773
O O10 0.240000 0.165871 0.201873
O O11 0.207898 0.078341 0.247060
O O12 0.274613 0.102551 0.000000
O O13 0.244979 0.382175 0.500000
O O14 0.106103 0.386633 0.709052
O O15 0.261165 0.331172 0.728272
O O16 0.492522 0.147655 0.000000
O O17 0.618650 0.299859 0.500000
O O18 0.747958 0.247524 0.373834
O O19 0.328635 0.322173 0.000000
O O20 0.135175 0.064332 0.500000
#
# Coordination Sequence:
#
# PCOD8236392 Si02
#       8
#     8   8   8   8   8   8   8   8
#     4   9  20  41  63  81 109 141 171 216 276 334
#     4  10  19  34  52  69 101 149 188 220 263 316
#     4  10  20  36  57  80 110 145 180 224 272 319
#     4  11  22  35  56  83 110 142 186 230 266 318
#     4   9  18  35  54  75 108 149 185 219 265 315
#     4  10  20  33  50  76 108 141 182 225 266 310
#     4  10  20  34  52  74 106 150 188 219 268 323
#     4   9  20  40  63  84 106 138 176 217 270 333
#
# _framework density 18.312041000000001
#
# number of rings (size 3 to 8) (size 9 to 14) (size 15 to 20)
#    0.000    2.250    2.500    1.125    1.750    2.000 
#    0.000    3.750    0.000    3.750    0.000    0.000 
#    0.000    0.000    0.000    0.000    0.000    0.000 
#
# Total GULP energy -792975.548736 kJ/mol
# GULP energy per Si atom -12390.242949 kJ/mol
# Density = 1.827036 g / cm^3
# Si number density = 18.312041 Si / 1000 Ang^3
#
#
#
# Elastic Constant Matrix: (Units=GPa)
#
#
# Indices 1 2 3 4 5 6 
#
# 1 168.1130 64.3677 59.6653 0.0000 0.0000 0.0000
# 2 64.3677 77.9108 42.0448 0.0000 0.0000 0.0000
# 3 59.6653 42.0448 54.3235 0.0000 0.0000 0.0000
# 4 0.0000 0.0000 0.0000 32.1256 0.0000 0.0000
# 5 0.0000 0.0000 0.0000 0.0000 29.7535 0.0000
# 6 0.0000 0.0000 0.0000 0.0000 0.0000 31.8538
#
#
#
# Elastic Compliance Matrix: (Units=1/GPa)
#
#
# Indices 1 2 3 4 5 6 
#
# 1 0.010494 -0.004207 -0.008270 0.000000 0.000000 0.000000
# 2 -0.004207 0.023728 -0.013744 0.000000 0.000000 0.000000
# 3 -0.008270 -0.013744 0.038129 0.000000 0.000000 0.000000
# 4 0.000000 0.000000 0.000000 0.031128 0.000000 0.000000
# 5 0.000000 0.000000 0.000000 0.000000 0.033609 0.000000
# 6 0.000000 0.000000 0.000000 0.000000 0.000000 0.031393
#
#
# Mechanical properties :
#
#
# Convention : Reuss Voigt Hill
#
# Bulk Modulus (GPa) = 50.22863 70.27810 60.25336
# Shear Modulus (GPa) = 21.97217 27.69788 24.83503
#
# Velocity S-wave (km/s) = 3.46768 3.89337 3.68667
# Velocity P-wave (km/s) = 6.59711 7.65980 7.14823
#
# Compressibility (1/GPa) = 0.01990897
#
# Stress axis : x y z
#
# Youngs Moduli (GPa) = 95.28900 42.14437 26.22684
#
# Poissons Ratio (x) = 0.17731 0.21690
# Poissons Ratio (y) = 0.40090 0.36046
# Poissons Ratio (z) = 0.78805 0.57923
#
# Static dielectric constant tensor:
#      x y z
#    x 3.602600 0.000000 0.000000 
#    y 0.000000 2.771410 0.000000 
#    z 0.000000 0.000000 3.162090 
# 
# 
# High freq. dielectric constant tensor:
#      x y z
#    x 1.720830 0.000000 0.000000 
#    y 0.000000 1.698400 0.000000 
#    z 0.000000 0.000000 1.692360 
# 
# From -- ./inp_files/4818.got.cif
#   From: 2010.06.25/outbox.cif.g09.slc.cpg/sg58_3_cif.got.tgz:4818.got - 2010.06.26 21:38:00.
