data_PCOD8236199
_publ_section_title
;
Structure prediction by ZEFSAII (Michael W. Deem and Ramdas Pophale) SiO2 
 PCOD8236199
Probable space group: P N N M
;
_chemical_formula_sum "Si O2"
_cell_formula_units_Z 32
_cell_length_a 8.519156
_cell_length_b 7.634434
_cell_length_c 19.325737
_cell_angle_alpha 90.000000
_cell_angle_beta 90.000000
_cell_angle_gamma 90.000000
_cell_volume 1256.925337
_symmetry_space_group_name_H-M "P N N M"
_symmetry_group_IT_number 58
_symmetry_cell_setting 'orthorhombic'
loop_
_space_group_symop_operation_xyz
x,y,z
-x,-y,z
1/2+x,1/2-y,1/2-z
1/2-x,1/2+y,1/2-z
-x,-y,-z
x,y,-z
1/2-x,1/2+y,1/2+z
1/2+x,1/2-y,1/2+z
loop_
_atom_site_type_symbol
_atom_site_label
_atom_site_fract_x
_atom_site_fract_y
_atom_site_fract_z
Si Si1 0.801593 0.859051 0.142152
Si Si2 0.181995 0.964800 0.272869
Si Si3 0.304113 0.660989 0.000000
Si Si4 0.605120 0.835304 0.371603
Si Si5 0.844672 0.255525 0.500000
O O1 0.779012 0.035867 0.189153
O O2 0.723531 0.711596 0.189309
O O3 0.988412 0.826642 0.141171
O O4 0.723658 0.858922 0.066519
O O5 0.291165 0.119206 0.304648
O O6 0.000000 0.000000 0.288931
O O7 0.216536 0.729048 0.067243
O O8 0.302792 0.449427 0.000000
O O9 0.468606 0.762222 0.000000
O O10 0.500000 0.000000 0.396272
#
# Coordination Sequence:
#
# PCOD8236199 Si02
#       5
#     8   8   4   8   4
#     4  11  23  39  64  95 128 165 209 260 315 372
#     4  11  22  39  61  93 129 164 207 256 313 373
#     4  11  18  33  60  90 124 158 219 265 298 357
#     4  10  19  32  56  89 123 157 203 259 305 355
#     4  11  21  36  64  91 123 165 219 262 304 373
#
# _framework density 25.458952
#
# number of rings (size 3 to 8) (size 9 to 14) (size 15 to 20)
#    0.000    1.250    5.000    4.125    0.000    0.000 
#    0.000    3.125    0.000    3.000    0.000   23.625 
#    0.000    0.000    0.000    0.000    0.000    0.000 
#
# Total GULP energy -396642.793256 kJ/mol
# GULP energy per Si atom -12395.087289 kJ/mol
# Density = 2.540101 g / cm^3
# Si number density = 25.458952 Si / 1000 Ang^3
#
#
#
# Elastic Constant Matrix: (Units=GPa)
#
#
# Indices 1 2 3 4 5 6 
#
# 1 176.1498 2.9192 76.6615 0.0000 0.0000 0.0000
# 2 2.9192 36.6625 22.4379 0.0000 0.0000 0.0000
# 3 76.6615 22.4379 214.4150 0.0000 0.0000 0.0000
# 4 0.0000 0.0000 0.0000 47.1092 0.0000 0.0000
# 5 0.0000 0.0000 0.0000 0.0000 30.8930 0.0000
# 6 0.0000 0.0000 0.0000 0.0000 0.0000 15.4414
#
#
#
# Elastic Compliance Matrix: (Units=1/GPa)
#
#
# Indices 1 2 3 4 5 6 
#
# 1 0.006758 0.001005 -0.002521 0.000000 0.000000 0.000000
# 2 0.001005 0.029292 -0.003425 0.000000 0.000000 0.000000
# 3 -0.002521 -0.003425 0.005924 0.000000 0.000000 0.000000
# 4 0.000000 0.000000 0.000000 0.021227 0.000000 0.000000
# 5 0.000000 0.000000 0.000000 0.000000 0.032370 0.000000
# 6 0.000000 0.000000 0.000000 0.000000 0.000000 0.064761
#
#
# Mechanical properties :
#
#
# Convention : Reuss Voigt Hill
#
# Bulk Modulus (GPa) = 31.16115 70.14049 50.65082
# Shear Modulus (GPa) = 27.63810 40.36932 34.00371
#
# Velocity S-wave (km/s) = 3.29841 3.98636 3.65859
# Velocity P-wave (km/s) = 5.17420 6.98558 6.14698
#
# Compressibility (1/GPa) = 0.03209124
#
# Stress axis : x y z
#
# Youngs Moduli (GPa) = 147.98147 34.13930 168.81397
#
# Poissons Ratio (x) = -0.03431 0.42563
# Poissons Ratio (y) = -0.14872 0.57812
# Poissons Ratio (z) = 0.37310 0.11691
#
# Static dielectric constant tensor:
#      x y z
#    x 4.789000 0.000000 0.000000 
#    y 0.000000 4.768550 0.000000 
#    z 0.000000 0.000000 4.798140 
# 
# 
# High freq. dielectric constant tensor:
#      x y z
#    x 2.030540 0.000000 0.000000 
#    y 0.000000 2.019280 0.000000 
#    z 0.000000 0.000000 2.030670 
# 
# From -- ./inp_files/19126.got.cif
#   From: 2010.06.25/outbox.cif.g09.slc.cpg/sg58_10_cif.got.tgz:19126.got - 2010.06.26 21:38:00.
