data_PCOD8236112
_publ_section_title
;
Structure prediction by ZEFSAII (Michael W. Deem and Ramdas Pophale) SiO2 
 PCOD8236112
Probable space group: P N N M
;
_chemical_formula_sum "Si O2"
_cell_formula_units_Z 64
_cell_length_a 14.496322
_cell_length_b 24.753402
_cell_length_c 9.009060
_cell_angle_alpha 90.000000
_cell_angle_beta 90.000000
_cell_angle_gamma 90.000000
_cell_volume 3232.750603
_symmetry_space_group_name_H-M "P N N M"
_symmetry_group_IT_number 58
_symmetry_cell_setting 'orthorhombic'
loop_
_space_group_symop_operation_xyz
x,y,z
-x,-y,z
1/2+x,1/2-y,1/2-z
1/2-x,1/2+y,1/2-z
-x,-y,-z
x,y,-z
1/2-x,1/2+y,1/2+z
1/2+x,1/2-y,1/2+z
loop_
_atom_site_type_symbol
_atom_site_label
_atom_site_fract_x
_atom_site_fract_y
_atom_site_fract_z
Si Si1 0.878340 0.274512 0.171506
Si Si2 0.724602 0.507425 0.172519
Si Si3 0.359733 0.586681 0.325771
Si Si4 0.946509 0.695045 0.328105
Si Si5 0.649894 0.668089 0.165638
Si Si6 0.464282 0.431428 0.836957
Si Si7 0.803639 0.604357 0.671002
Si Si8 0.831326 0.801748 0.328482
O O1 0.890234 0.223180 0.275131
O O2 0.778329 0.299682 0.199152
O O3 0.962317 0.311949 0.227094
O O4 0.891803 0.259352 0.000000
O O5 0.723085 0.448602 0.251519
O O6 0.626849 0.535521 0.203902
O O7 0.802691 0.547531 0.239691
O O8 0.746384 0.499612 0.000000
O O9 0.345110 0.586533 0.500000
O O10 0.456025 0.557395 0.282491
O O11 0.365071 0.647853 0.268032
O O12 0.973193 0.702824 0.500000
O O13 0.897573 0.637264 0.304072
O O14 0.880704 0.745632 0.278205
O O15 0.559381 0.631431 0.160112
O O16 0.724423 0.645049 0.277868
O O17 0.692980 0.673580 0.000000
O O18 0.501886 0.448683 0.000000
O O19 0.786849 0.590381 0.500000
O O20 0.852879 0.813513 0.500000
#
# Coordination Sequence:
#
# PCOD8236112 Si02
#       8
#     8   8   8   8   8   8   8   8
#     4  11  22  36  56  83 113 149 194 238 283 337
#     4  10  21  37  57  80 109 151 191 230 284 342
#     4  12  24  35  52  81 111 146 191 238 283 333
#     4  10  21  38  59  84 116 152 186 229 291 344
#     4  10  19  32  52  78 111 149 186 226 278 335
#     4   9  19  34  52  77 110 150 188 225 277 341
#     4  10  19  35  57  82 112 144 184 232 276 328
#     4  10  22  41  58  78 116 159 190 227 285 345
#
# _framework density 19.797383
#
# number of rings (size 3 to 8) (size 9 to 14) (size 15 to 20)
#    0.000    1.750    1.250    4.500    0.000   10.000 
#    0.000    0.000    0.000    0.750    0.000    5.250 
#    0.000    0.000    0.000    0.000    0.000    0.000 
#
# Total GULP energy -793380.639950 kJ/mol
# GULP energy per Si atom -12396.572499 kJ/mol
# Density = 1.975232 g / cm^3
# Si number density = 19.797383 Si / 1000 Ang^3
#
#
#
# Elastic Constant Matrix: (Units=GPa)
#
#
# Indices 1 2 3 4 5 6 
#
# 1 58.3100 -7.5212 18.0059 0.0000 0.0000 0.0000
# 2 -7.5212 44.3012 15.4582 0.0000 0.0000 0.0000
# 3 18.0059 15.4582 91.4923 0.0000 0.0000 0.0000
# 4 0.0000 0.0000 0.0000 -6.8818 0.0000 0.0000
# 5 0.0000 0.0000 0.0000 0.0000 29.0018 0.0000
# 6 0.0000 0.0000 0.0000 0.0000 0.0000 8.2021
#
#
#
# Elastic Compliance Matrix: (Units=1/GPa)
#
#
# Indices 1 2 3 4 5 6 
#
# 1 0.019198 0.004864 -0.004600 0.000000 0.000000 0.000000
# 2 0.004864 0.025219 -0.005218 0.000000 0.000000 0.000000
# 3 -0.004600 -0.005218 0.012717 0.000000 0.000000 0.000000
# 4 0.000000 0.000000 0.000000 -0.145311 0.000000 0.000000
# 5 0.000000 0.000000 0.000000 0.000000 0.034481 0.000000
# 6 0.000000 0.000000 0.000000 0.000000 0.000000 0.121920
#
#
# Mechanical properties :
#
#
# Convention : Reuss Voigt Hill
#
# Bulk Modulus (GPa) = 21.17481 27.33217 24.25349
# Shear Modulus (GPa) = 53.26357 17.27513 35.26935
#
# Velocity S-wave (km/s) = 5.19257 2.95718 4.22538
# Velocity P-wave (km/s) = 6.83150 5.04934 6.00688
#
# Compressibility (1/GPa) = 0.04722593
#
# Stress axis : x y z
#
# Youngs Moduli (GPa) = 52.08985 39.65198 78.63590
#
# Poissons Ratio (x) = -0.19288 0.36173
# Poissons Ratio (y) = -0.25338 0.41035
# Poissons Ratio (z) = 0.23961 0.20692
#
# Static dielectric constant tensor:
#      x y z
#    x 3.398550 0.000000 0.000000 
#    y 0.000000 3.745120 0.000000 
#    z 0.000000 0.000000 3.594250 
# 
# 
# High freq. dielectric constant tensor:
#      x y z
#    x 1.744530 0.000000 0.000000 
#    y 0.000000 1.772650 0.000000 
#    z 0.000000 0.000000 1.774430 
# 
# From -- ./inp_files/6979.got.cif
#   From: 2010.06.25/outbox.cif.g09.slc.cpg/sg58_4_cif.got.tgz:6979.got - 2010.06.26 21:38:00.
