data_PCOD8236747
_publ_section_title
;
Structure prediction by ZEFSAII (Michael W. Deem and Ramdas Pophale) SiO2 
 PCOD8236747
Probable space group: P N N M
;
_chemical_formula_sum "Si O2"
_cell_formula_units_Z 48
_cell_length_a 28.880366
_cell_length_b 10.007845
_cell_length_c 9.020358
_cell_angle_alpha 90.000000
_cell_angle_beta 90.000000
_cell_angle_gamma 90.000000
_cell_volume 2607.156116
_symmetry_space_group_name_H-M "P N N M"
_symmetry_group_IT_number 58
_symmetry_cell_setting 'orthorhombic'
loop_
_space_group_symop_operation_xyz
x,y,z
-x,-y,z
1/2+x,1/2-y,1/2-z
1/2-x,1/2+y,1/2-z
-x,-y,-z
x,y,-z
1/2-x,1/2+y,1/2+z
1/2+x,1/2-y,1/2+z
loop_
_atom_site_type_symbol
_atom_site_label
_atom_site_fract_x
_atom_site_fract_y
_atom_site_fract_z
Si Si1 0.289162 0.702002 0.325685
Si Si2 0.025251 0.139267 0.831452
Si Si3 0.783300 0.490303 0.173047
Si Si4 0.473321 0.131521 0.828656
Si Si5 0.615573 0.291042 0.170711
Si Si6 0.624080 0.984162 0.167579
O O1 0.293818 0.682910 0.500000
O O2 0.251553 0.600411 0.264236
O O3 0.274730 0.854217 0.286364
O O4 0.337931 0.664440 0.253093
O O5 0.072408 0.130465 0.738584
O O6 0.989463 0.246860 0.770254
O O7 0.037857 0.175301 0.000000
O O8 0.000000 0.000000 0.817663
O O9 0.835254 0.448715 0.218498
O O10 0.776562 0.462681 0.000000
O O11 0.418426 0.115087 0.803457
O O12 0.500000 0.000000 0.775133
O O13 0.485182 0.160958 0.000000
O O14 0.605705 0.134193 0.191858
O O15 0.620795 0.331504 0.000000
O O16 0.643142 0.968547 0.000000
#
# Coordination Sequence:
#
# PCOD8236747 Si02
#       6
#     8   8   8   8   8   8
#     4  10  21  38  60  86 115 146 185 232 280 332
#     4  11  24  39  54  80 118 154 189 230 278 332
#     4  10  21  37  58  85 114 147 188 228 277 337
#     4  10  19  36  60  86 111 142 187 233 277 330
#     4  10  19  36  61  84 110 148 189 228 279 337
#     4   9  18  34  58  85 112 142 182 234 283 329
#
# _framework density 18.410865999999999
#
# number of rings (size 3 to 8) (size 9 to 14) (size 15 to 20)
#    0.000    2.000    1.667    2.000    0.000    5.000 
#    3.000    0.000    0.000    0.000    0.000    0.000 
#    0.000    0.000    0.000    0.000    0.000    0.000 
#
# Total GULP energy -595392.700822 kJ/mol
# GULP energy per Si atom -12404.014600 kJ/mol
# Density = 1.836896 g / cm^3
# Si number density = 18.410866 Si / 1000 Ang^3
#
#
#
# Elastic Constant Matrix: (Units=GPa)
#
#
# Indices 1 2 3 4 5 6 
#
# 1 114.8630 51.4582 66.3060 0.0000 0.0000 0.0000
# 2 51.4582 71.9070 55.3869 0.0000 0.0000 0.0000
# 3 66.3060 55.3869 114.5149 0.0000 0.0000 0.0000
# 4 0.0000 0.0000 0.0000 32.8087 0.0000 0.0000
# 5 0.0000 0.0000 0.0000 0.0000 34.3355 0.0000
# 6 0.0000 0.0000 0.0000 0.0000 0.0000 25.4297
#
#
#
# Elastic Compliance Matrix: (Units=1/GPa)
#
#
# Indices 1 2 3 4 5 6 
#
# 1 0.014676 -0.006307 -0.005447 0.000000 0.000000 0.000000
# 2 -0.006307 0.024874 -0.008379 0.000000 0.000000 0.000000
# 3 -0.005447 -0.008379 0.015939 0.000000 0.000000 0.000000
# 4 0.000000 0.000000 0.000000 0.030480 0.000000 0.000000
# 5 0.000000 0.000000 0.000000 0.000000 0.029124 0.000000
# 6 0.000000 0.000000 0.000000 0.000000 0.000000 0.039324
#
#
# Mechanical properties :
#
#
# Convention : Reuss Voigt Hill
#
# Bulk Modulus (GPa) = 65.68915 71.95413 68.82164
# Shear Modulus (GPa) = 25.03035 27.05705 26.04370
#
# Velocity S-wave (km/s) = 3.69120 3.83773 3.76517
# Velocity P-wave (km/s) = 7.34327 7.66843 7.50761
#
# Compressibility (1/GPa) = 0.01522321
#
# Stress axis : x y z
#
# Youngs Moduli (GPa) = 68.13926 40.20260 62.73815
#
# Poissons Ratio (x) = 0.25354 0.34175
# Poissons Ratio (y) = 0.42972 0.52569
# Poissons Ratio (z) = 0.37117 0.33686
#
# Static dielectric constant tensor:
#      x y z
#    x 3.464640 0.000000 0.000000 
#    y 0.000000 3.360490 0.000000 
#    z 0.000000 0.000000 3.511720 
# 
# 
# High freq. dielectric constant tensor:
#      x y z
#    x 1.723600 0.000000 0.000000 
#    y 0.000000 1.696490 0.000000 
#    z 0.000000 0.000000 1.724200 
# 
# From -- ./inp_files/2891.got.cif
#   From: 2010.06.25/outbox.cif.g09.slc.cpg/sg58_2_cif.got.tgz:2891.got - 2010.06.26 21:38:00.
