data_PCOD8236455
_publ_section_title
;
Structure prediction by ZEFSAII (Michael W. Deem and Ramdas Pophale) SiO2 
 PCOD8236455
Probable space group: P N N M
;
_chemical_formula_sum "Si O2"
_cell_formula_units_Z 64
_cell_length_a 32.745450
_cell_length_b 10.646841
_cell_length_c 9.541983
_cell_angle_alpha 90.000000
_cell_angle_beta 90.000000
_cell_angle_gamma 90.000000
_cell_volume 3326.674965
_symmetry_space_group_name_H-M "P N N M"
_symmetry_group_IT_number 58
_symmetry_cell_setting 'orthorhombic'
loop_
_space_group_symop_operation_xyz
x,y,z
-x,-y,z
1/2+x,1/2-y,1/2-z
1/2-x,1/2+y,1/2-z
-x,-y,-z
x,y,-z
1/2-x,1/2+y,1/2+z
1/2+x,1/2-y,1/2+z
loop_
_atom_site_type_symbol
_atom_site_label
_atom_site_fract_x
_atom_site_fract_y
_atom_site_fract_z
Si Si1 0.660943 0.278736 0.166007
Si Si2 0.660955 0.756749 0.161338
Si Si3 0.416536 0.222027 0.335655
Si Si4 0.571219 0.258498 0.154099
Si Si5 0.499250 0.356141 0.340163
Si Si6 0.784969 0.015367 0.336835
Si Si7 0.297290 0.978985 0.835263
Si Si8 0.546239 0.983508 0.154438
O O1 0.614643 0.296920 0.223677
O O2 0.686668 0.399761 0.214816
O O3 0.680096 0.147056 0.220296
O O4 0.657977 0.270981 0.000000
O O5 0.623278 0.722022 0.261145
O O6 0.694650 0.650503 0.190402
O O7 0.676932 0.895863 0.199125
O O8 0.646576 0.751817 0.000000
O O9 0.408093 0.206616 0.500000
O O10 0.453934 0.313463 0.301547
O O11 0.427677 0.089294 0.268920
O O12 0.533164 0.289794 0.249500
O O13 0.571291 0.109953 0.136764
O O14 0.566050 0.321394 0.000000
O O15 0.500000 0.500000 0.304044
O O16 0.509868 0.325373 0.500000
O O17 0.774062 0.998289 0.500000
O O18 0.744705 0.008868 0.246049
O O19 0.287861 0.969918 0.000000
O O20 0.500000 0.000000 0.210401
O O21 0.544711 0.916799 0.000000
#
# Coordination Sequence:
#
# PCOD8236455 Si02
#       8
#     8   8   8   8   8   8   8   8
#     4   9  19  35  56  82 112 145 181 227 275 328
#     4  10  22  38  58  85 117 150 187 237 288 335
#     4  11  23  37  57  83 113 151 193 234 282 340
#     4  10  20  36  59  84 109 145 192 232 277 337
#     4  10  23  40  54  75 114 155 188 233 287 332
#     4  10  21  37  58  85 114 143 183 234 281 331
#     4  10  20  38  61  83 112 149 182 221 283 346
#     4  10  19  34  56  82 110 142 184 236 287 334
#
# _framework density 19.238427000000001
#
# number of rings (size 3 to 8) (size 9 to 14) (size 15 to 20)
#    0.000    2.000    1.250    1.875    1.750    4.500 
#    0.000    1.250    0.000    0.000    0.000    0.000 
#    0.000    0.000    0.000    0.000    0.000    0.000 
#
# Total GULP energy -793515.907450 kJ/mol
# GULP energy per Si atom -12398.686054 kJ/mol
# Density = 1.919464 g / cm^3
# Si number density = 19.238427 Si / 1000 Ang^3
#
#
#
# Elastic Constant Matrix: (Units=GPa)
#
#
# Indices 1 2 3 4 5 6 
#
# 1 137.6974 24.5043 74.8904 0.0000 0.0000 0.0000
# 2 24.5043 99.2526 35.1667 0.0000 0.0000 0.0000
# 3 74.8904 35.1667 81.0230 0.0000 0.0000 0.0000
# 4 0.0000 0.0000 0.0000 18.0037 0.0000 0.0000
# 5 0.0000 0.0000 0.0000 0.0000 45.5391 0.0000
# 6 0.0000 0.0000 0.0000 0.0000 0.0000 17.6122
#
#
#
# Elastic Compliance Matrix: (Units=1/GPa)
#
#
# Indices 1 2 3 4 5 6 
#
# 1 0.014768 0.001407 -0.014261 0.000000 0.000000 0.000000
# 2 0.001407 0.012040 -0.006526 0.000000 0.000000 0.000000
# 3 -0.014261 -0.006526 0.028356 0.000000 0.000000 0.000000
# 4 0.000000 0.000000 0.000000 0.055544 0.000000 0.000000
# 5 0.000000 0.000000 0.000000 0.000000 0.021959 0.000000
# 6 0.000000 0.000000 0.000000 0.000000 0.000000 0.056779
#
#
# Mechanical properties :
#
#
# Convention : Reuss Voigt Hill
#
# Bulk Modulus (GPa) = 60.96057 65.23286 63.09672
# Shear Modulus (GPa) = 21.39718 28.45843 24.92781
#
# Velocity S-wave (km/s) = 3.33860 3.85027 3.60353
# Velocity P-wave (km/s) = 6.82769 7.33126 7.08395
#
# Compressibility (1/GPa) = 0.01640404
#
# Stress axis : x y z
#
# Youngs Moduli (GPa) = 67.71326 83.05430 35.26553
#
# Poissons Ratio (x) = -0.11684 0.50292
# Poissons Ratio (y) = -0.09526 0.23015
# Poissons Ratio (z) = 0.96566 0.54203
#
# Static dielectric constant tensor:
#      x y z
#    x 3.551930 0.000000 0.000000 
#    y 0.000000 3.650740 0.000000 
#    z 0.000000 0.000000 3.396040 
# 
# 
# High freq. dielectric constant tensor:
#      x y z
#    x 1.759460 0.000000 0.000000 
#    y 0.000000 1.753090 0.000000 
#    z 0.000000 0.000000 1.730950 
# 
# From -- ./inp_files/11031.got.cif
#   From: 2010.06.25/outbox.cif.g09.slc.cpg/sg58_6_cif.got.tgz:11031.got - 2010.06.26 21:38:00.
