data_PCOD8236206
_publ_section_title
;
Structure prediction by ZEFSAII (Michael W. Deem and Ramdas Pophale) SiO2 
 PCOD8236206
Probable space group: P N N M
;
_chemical_formula_sum "Si O2"
_cell_formula_units_Z 64
_cell_length_a 9.225395
_cell_length_b 21.011070
_cell_length_c 18.852703
_cell_angle_alpha 90.000000
_cell_angle_beta 90.000000
_cell_angle_gamma 90.000000
_cell_volume 3654.321606
_symmetry_space_group_name_H-M "P N N M"
_symmetry_group_IT_number 58
_symmetry_cell_setting 'orthorhombic'
loop_
_space_group_symop_operation_xyz
x,y,z
-x,-y,z
1/2+x,1/2-y,1/2-z
1/2-x,1/2+y,1/2-z
-x,-y,-z
x,y,-z
1/2-x,1/2+y,1/2+z
1/2+x,1/2-y,1/2+z
loop_
_atom_site_type_symbol
_atom_site_label
_atom_site_fract_x
_atom_site_fract_y
_atom_site_fract_z
Si Si1 0.859971 0.180837 0.291820
Si Si2 0.316234 0.721175 0.209614
Si Si3 0.274648 0.641933 0.341958
Si Si4 0.963785 0.427753 0.579268
Si Si5 0.809563 0.728844 0.081728
Si Si6 0.641949 0.757298 0.419903
Si Si7 0.777392 0.113348 0.078752
Si Si8 0.950704 0.068897 0.800893
O O1 0.745244 0.210836 0.236345
O O2 0.786399 0.181109 0.369795
O O3 0.894994 0.108829 0.267373
O O4 0.008956 0.221936 0.291974
O O5 0.253393 0.667957 0.262436
O O6 0.253463 0.706187 0.131624
O O7 0.273110 0.698634 0.398981
O O8 0.423222 0.603764 0.344252
O O9 0.146117 0.594676 0.360787
O O10 0.895774 0.423580 0.500000
O O11 0.103979 0.382367 0.583391
O O12 0.000000 0.500000 0.597686
O O13 0.979973 0.718200 0.096332
O O14 0.769511 0.716083 0.000000
O O15 0.687682 0.773895 0.500000
O O16 0.651971 0.681935 0.406080
O O17 0.827792 0.062971 0.138542
O O18 0.822529 0.089205 0.000000
O O19 0.000000 0.000000 0.772680
#
# Coordination Sequence:
#
# PCOD8236206 Si02
#       8
#     8   8   8   8   8   8   8   8
#     4  10  21  34  52  77 104 132 177 216 264 320
#     4  10  19  33  50  73 100 132 166 216 264 305
#     4  10  20  33  50  73 103 133 174 214 254 306
#     4  10  21  34  46  69 105 143 182 212 241 294
#     4  10  20  34  54  76 101 130 166 218 268 321
#     4  10  19  33  51  76 105 130 166 210 265 320
#     4  10  20  32  48  71 102 139 178 214 248 298
#     4  11  21  35  53  73 104 143 181 216 255 308
#
# _framework density 17.513511999999999
#
# number of rings (size 3 to 8) (size 9 to 14) (size 15 to 20)
#    0.000    1.875    2.500    2.625    3.500    2.250 
#    0.000    0.000    0.000    0.375    0.000    0.000 
#    0.000    8.500    0.000    0.000    0.000    0.000 
#
# Total GULP energy -793464.545000 kJ/mol
# GULP energy per Si atom -12397.883516 kJ/mol
# Density = 1.747365 g / cm^3
# Si number density = 17.513512 Si / 1000 Ang^3
#
#
#
# Elastic Constant Matrix: (Units=GPa)
#
#
# Indices 1 2 3 4 5 6 
#
# 1 73.7284 22.8951 48.4531 0.0000 0.0000 0.0000
# 2 22.8951 50.8063 27.0998 0.0000 0.0000 0.0000
# 3 48.4531 27.0998 112.0609 0.0000 0.0000 0.0000
# 4 0.0000 0.0000 0.0000 17.3250 0.0000 0.0000
# 5 0.0000 0.0000 0.0000 0.0000 31.9758 0.0000
# 6 0.0000 0.0000 0.0000 0.0000 0.0000 20.5558
#
#
#
# Elastic Compliance Matrix: (Units=1/GPa)
#
#
# Indices 1 2 3 4 5 6 
#
# 1 0.020018 -0.005056 -0.007433 0.000000 0.000000 0.000000
# 2 -0.005056 0.023875 -0.003587 0.000000 0.000000 0.000000
# 3 -0.007433 -0.003587 0.013005 0.000000 0.000000 0.000000
# 4 0.000000 0.000000 0.000000 0.057720 0.000000 0.000000
# 5 0.000000 0.000000 0.000000 0.000000 0.031274 0.000000
# 6 0.000000 0.000000 0.000000 0.000000 0.000000 0.048648
#
#
# Mechanical properties :
#
#
# Convention : Reuss Voigt Hill
#
# Bulk Modulus (GPa) = 40.41218 48.16573 44.28895
# Shear Modulus (GPa) = 21.28199 23.18115 22.23157
#
# Velocity S-wave (km/s) = 3.48972 3.64210 3.56672
# Velocity P-wave (km/s) = 6.27395 6.72668 6.50426
#
# Compressibility (1/GPa) = 0.02474502
#
# Stress axis : x y z
#
# Youngs Moduli (GPa) = 49.95491 41.88549 76.89337
#
# Poissons Ratio (x) = 0.21178 0.57152
# Poissons Ratio (y) = 0.25259 0.27585
# Poissons Ratio (z) = 0.37130 0.15026
#
# Static dielectric constant tensor:
#      x y z
#    x 3.375580 0.000000 0.000000 
#    y 0.000000 2.963970 0.000000 
#    z 0.000000 0.000000 3.342420 
# 
# 
# High freq. dielectric constant tensor:
#      x y z
#    x 1.687790 0.000000 0.000000 
#    y 0.000000 1.633660 0.000000 
#    z 0.000000 0.000000 1.676900 
# 
# From -- ./inp_files/27553.got.cif
#   From: 2010.06.25/outbox.cif.g09.slc.cpg/sg58_14_cif.got.tgz:27553.got - 2010.06.26 21:38:00.
