data_PCOD8236309
_publ_section_title
;
Structure prediction by ZEFSAII (Michael W. Deem and Ramdas Pophale) SiO2 
 PCOD8236309
Probable space group: P N N M
;
_chemical_formula_sum "Si O2"
_cell_formula_units_Z 64
_cell_length_a 24.503883
_cell_length_b 14.885248
_cell_length_c 8.616035
_cell_angle_alpha 90.000000
_cell_angle_beta 90.000000
_cell_angle_gamma 90.000000
_cell_volume 3142.667537
_symmetry_space_group_name_H-M "P N N M"
_symmetry_group_IT_number 58
_symmetry_cell_setting 'orthorhombic'
loop_
_space_group_symop_operation_xyz
x,y,z
-x,-y,z
1/2+x,1/2-y,1/2-z
1/2-x,1/2+y,1/2-z
-x,-y,-z
x,y,-z
1/2-x,1/2+y,1/2+z
1/2+x,1/2-y,1/2+z
loop_
_atom_site_type_symbol
_atom_site_label
_atom_site_fract_x
_atom_site_fract_y
_atom_site_fract_z
Si Si1 0.445540 0.448578 0.318399
Si Si2 0.055665 0.756488 0.681964
Si Si3 0.170002 0.996117 0.683986
Si Si4 0.983226 0.595624 0.678544
Si Si5 0.759358 0.633658 0.685033
Si Si6 0.264325 0.665448 0.180905
Si Si7 0.641289 0.858565 0.321235
Si Si8 0.868330 0.539479 0.321671
O O1 0.500000 0.500000 0.264425
O O2 0.434915 0.459926 0.500000
O O3 0.455842 0.345723 0.276821
O O4 0.393045 0.488126 0.230153
O O5 0.048512 0.775920 0.500000
O O6 0.116781 0.722082 0.718271
O O7 0.013952 0.681426 0.751233
O O8 0.175712 0.992404 0.500000
O O9 0.193176 0.091841 0.749638
O O10 0.204720 0.912805 0.751209
O O11 0.002195 0.592595 0.500000
O O12 0.918001 0.610415 0.695634
O O13 0.000000 0.500000 0.755748
O O14 0.754707 0.636289 0.500000
O O15 0.767583 0.734464 0.753158
O O16 0.812701 0.581019 0.744075
O O17 0.204531 0.628270 0.217671
O O18 0.275963 0.674250 0.000000
O O19 0.631102 0.834707 0.500000
O O20 0.613470 0.952442 0.275594
O O21 0.860901 0.510513 0.500000
#
# Coordination Sequence:
#
# PCOD8236309 Si02
#       8
#     8   8   8   8   8   8   8   8
#     4  11  26  47  66  87 120 158 198 249 309 363
#     4  11  22  38  64  93 119 156 208 254 297 356
#     4  11  22  40  65  92 121 155 204 255 299 356
#     4   9  17  32  54  83 121 156 192 243 297 350
#     4  10  20  36  59  87 121 161 201 246 307 362
#     4   9  20  36  56  84 119 157 196 245 301 354
#     4  11  20  34  56  83 123 163 199 245 302 358
#     4  10  19  33  55  82 114 157 205 248 297 357
#
# _framework density 20.364865000000002
#
# number of rings (size 3 to 8) (size 9 to 14) (size 15 to 20)
#    0.000    1.750    2.500    2.250    0.000    3.000 
#    0.000    6.250    0.000    0.000    0.000    0.000 
#    0.000    0.000    0.000    0.000    0.000    0.000 
#
# Total GULP energy -793466.390981 kJ/mol
# GULP energy per Si atom -12397.912359 kJ/mol
# Density = 2.031851 g / cm^3
# Si number density = 20.364865 Si / 1000 Ang^3
#
#
#
# Elastic Constant Matrix: (Units=GPa)
#
#
# Indices 1 2 3 4 5 6 
#
# 1 121.7858 62.4613 22.2793 0.0000 0.0000 0.0000
# 2 62.4613 153.6940 18.9224 0.0000 0.0000 0.0000
# 3 22.2793 18.9224 29.7492 0.0000 0.0000 0.0000
# 4 0.0000 0.0000 0.0000 25.7931 0.0000 0.0000
# 5 0.0000 0.0000 0.0000 0.0000 14.1544 0.0000
# 6 0.0000 0.0000 0.0000 0.0000 0.0000 37.0725
#
#
#
# Elastic Compliance Matrix: (Units=1/GPa)
#
#
# Indices 1 2 3 4 5 6 
#
# 1 0.011282 -0.003846 -0.006003 0.000000 0.000000 0.000000
# 2 -0.003846 0.008370 -0.002444 0.000000 0.000000 0.000000
# 3 -0.006003 -0.002444 0.039664 0.000000 0.000000 0.000000
# 4 0.000000 0.000000 0.000000 0.038770 0.000000 0.000000
# 5 0.000000 0.000000 0.000000 0.000000 0.070649 0.000000
# 6 0.000000 0.000000 0.000000 0.000000 0.000000 0.026974
#
#
# Mechanical properties :
#
#
# Convention : Reuss Voigt Hill
#
# Bulk Modulus (GPa) = 28.79242 56.95055 42.87149
# Shear Modulus (GPa) = 21.56364 28.84173 25.20268
#
# Velocity S-wave (km/s) = 3.25755 3.76739 3.52171
# Velocity P-wave (km/s) = 5.32145 6.85202 6.13465
#
# Compressibility (1/GPa) = 0.03473136
#
# Stress axis : x y z
#
# Youngs Moduli (GPa) = 88.63899 119.47038 25.21167
#
# Poissons Ratio (x) = 0.45947 0.15134
# Poissons Ratio (y) = 0.34089 0.06161
# Poissons Ratio (z) = 0.53207 0.29197
#
# Static dielectric constant tensor:
#      x y z
#    x 3.791200 0.000000 0.000000 
#    y 0.000000 3.911050 0.000000 
#    z 0.000000 0.000000 3.377260 
# 
# 
# High freq. dielectric constant tensor:
#      x y z
#    x 1.804180 0.000000 0.000000 
#    y 0.000000 1.801300 0.000000 
#    z 0.000000 0.000000 1.765100 
# 
# From -- ./inp_files/10056.got.cif
#   From: 2010.06.25/outbox.cif.g09.slc.cpg/sg58_6_cif.got.tgz:10056.got - 2010.06.26 21:38:00.
