data_PCOD8236714
_publ_section_title
;
Structure prediction by ZEFSAII (Michael W. Deem and Ramdas Pophale) SiO2 
 PCOD8236714
Probable space group: P N N M
;
_chemical_formula_sum "Si O2"
_cell_formula_units_Z 64
_cell_length_a 14.198322
_cell_length_b 24.565402
_cell_length_c 9.523367
_cell_angle_alpha 90.000000
_cell_angle_beta 90.000000
_cell_angle_gamma 90.000000
_cell_volume 3321.631250
_symmetry_space_group_name_H-M "P N N M"
_symmetry_group_IT_number 58
_symmetry_cell_setting 'orthorhombic'
loop_
_space_group_symop_operation_xyz
x,y,z
-x,-y,z
1/2+x,1/2-y,1/2-z
1/2-x,1/2+y,1/2-z
-x,-y,-z
x,y,-z
1/2-x,1/2+y,1/2+z
1/2+x,1/2-y,1/2+z
loop_
_atom_site_type_symbol
_atom_site_label
_atom_site_fract_x
_atom_site_fract_y
_atom_site_fract_z
Si Si1 0.719042 0.198710 0.334118
Si Si2 0.773121 0.528760 0.339785
Si Si3 0.944216 0.553102 0.159593
Si Si4 0.656441 0.599021 0.840274
Si Si5 0.960665 0.941815 0.659200
Si Si6 0.283558 0.589409 0.339861
Si Si7 0.491257 0.826896 0.338492
Si Si8 0.829027 0.305112 0.666323
O O1 0.716112 0.194750 0.500000
O O2 0.790950 0.152278 0.278824
O O3 0.612046 0.190389 0.279211
O O4 0.760318 0.256476 0.285162
O O5 0.769478 0.548250 0.500000
O O6 0.857444 0.559792 0.263464
O O7 0.679679 0.547334 0.258173
O O8 0.782427 0.463731 0.327928
O O9 0.000000 0.500000 0.209065
O O10 0.005274 0.607832 0.173138
O O11 0.907788 0.545843 0.000000
O O12 0.543329 0.603820 0.834068
O O13 0.689286 0.587260 0.000000
O O14 0.923628 0.949112 0.500000
O O15 0.877680 0.917809 0.751926
O O16 0.000000 0.000000 0.713698
O O17 0.314806 0.599668 0.500000
O O18 0.222191 0.639739 0.284088
O O19 0.503260 0.808060 0.500000
O O20 0.571079 0.798582 0.244430
O O21 0.848426 0.304285 0.500000
#
# Coordination Sequence:
#
# PCOD8236714 Si02
#       8
#     8   8   8   8   8   8   8   8
#     4   9  19  38  62  81 107 148 189 229 279 332
#     4  11  21  32  51  80 112 146 182 226 280 334
#     4  10  20  34  55  82 111 147 186 227 282 339
#     4  10  19  36  58  80 108 144 187 234 281 331
#     4  10  20  33  55  84 111 146 191 235 279 328
#     4  10  22  37  53  78 117 155 184 223 282 342
#     4  10  20  37  60  85 111 144 186 233 280 327
#     4  10  22  40  59  82 113 152 189 226 279 336
#
# _framework density 19.267643
#
# number of rings (size 3 to 8) (size 9 to 14) (size 15 to 20)
#    0.000    2.000    2.500    1.125    0.000    3.500 
#    0.000    1.250    0.000    0.000    0.000    0.000 
#    0.000    0.000    0.000    0.000    0.000    0.000 
#
# Total GULP energy -793502.557111 kJ/mol
# GULP energy per Si atom -12398.477455 kJ/mol
# Density = 1.922379 g / cm^3
# Si number density = 19.267643 Si / 1000 Ang^3
#
#
#
# Elastic Constant Matrix: (Units=GPa)
#
#
# Indices 1 2 3 4 5 6 
#
# 1 116.2960 40.8066 42.0197 0.0000 0.0000 0.0000
# 2 40.8066 91.2548 23.9777 0.0000 0.0000 0.0000
# 3 42.0197 23.9777 66.5014 0.0000 0.0000 0.0000
# 4 0.0000 0.0000 0.0000 20.0700 0.0000 0.0000
# 5 0.0000 0.0000 0.0000 0.0000 29.0744 0.0000
# 6 0.0000 0.0000 0.0000 0.0000 0.0000 31.0224
#
#
#
# Elastic Compliance Matrix: (Units=1/GPa)
#
#
# Indices 1 2 3 4 5 6 
#
# 1 0.012228 -0.003798 -0.006357 0.000000 0.000000 0.000000
# 2 -0.003798 0.013285 -0.002390 0.000000 0.000000 0.000000
# 3 -0.006357 -0.002390 0.019916 0.000000 0.000000 0.000000
# 4 0.000000 0.000000 0.000000 0.049826 0.000000 0.000000
# 5 0.000000 0.000000 0.000000 0.000000 0.034394 0.000000
# 6 0.000000 0.000000 0.000000 0.000000 0.000000 0.032235
#
#
# Mechanical properties :
#
#
# Convention : Reuss Voigt Hill
#
# Bulk Modulus (GPa) = 49.16807 54.18448 51.67628
# Shear Modulus (GPa) = 25.80593 27.18324 26.49458
#
# Velocity S-wave (km/s) = 3.66367 3.76017 3.71223
# Velocity P-wave (km/s) = 6.59322 6.85820 6.72701
#
# Compressibility (1/GPa) = 0.02033840
#
# Stress axis : x y z
#
# Youngs Moduli (GPa) = 81.77733 75.27493 50.21075
#
# Poissons Ratio (x) = 0.28588 0.31920
# Poissons Ratio (y) = 0.31057 0.12002
# Poissons Ratio (z) = 0.51988 0.17993
#
# Static dielectric constant tensor:
#      x y z
#    x 3.506860 0.000000 0.000000 
#    y 0.000000 3.587670 0.000000 
#    z 0.000000 0.000000 3.337980 
# 
# 
# High freq. dielectric constant tensor:
#      x y z
#    x 1.750330 0.000000 0.000000 
#    y 0.000000 1.744930 0.000000 
#    z 0.000000 0.000000 1.729610 
# 
# From -- ./inp_files/6966.got.cif
#   From: 2010.06.25/outbox.cif.g09.slc.cpg/sg58_4_cif.got.tgz:6966.got - 2010.06.26 21:38:00.
