data_PCOD8236650
_publ_section_title
;
Structure prediction by ZEFSAII (Michael W. Deem and Ramdas Pophale) SiO2 
 PCOD8236650
Probable space group: P N N M
;
_chemical_formula_sum "Si O2"
_cell_formula_units_Z 48
_cell_length_a 19.818038
_cell_length_b 14.929150
_cell_length_c 8.454225
_cell_angle_alpha 90.000000
_cell_angle_beta 90.000000
_cell_angle_gamma 90.000000
_cell_volume 2501.321640
_symmetry_space_group_name_H-M "P N N M"
_symmetry_group_IT_number 58
_symmetry_cell_setting 'orthorhombic'
loop_
_space_group_symop_operation_xyz
x,y,z
-x,-y,z
1/2+x,1/2-y,1/2-z
1/2-x,1/2+y,1/2-z
-x,-y,-z
x,y,-z
1/2-x,1/2+y,1/2+z
1/2+x,1/2-y,1/2+z
loop_
_atom_site_type_symbol
_atom_site_label
_atom_site_fract_x
_atom_site_fract_y
_atom_site_fract_z
Si Si1 0.438205 0.063823 0.183542
Si Si2 0.962176 0.911007 0.684519
Si Si3 0.699544 0.001282 0.315765
Si Si4 0.512237 0.223942 0.685499
Si Si5 0.318527 0.612672 0.315931
Si Si6 0.161786 0.308324 0.813832
O O1 0.456733 0.166682 0.220646
O O2 0.500000 0.000000 0.233857
O O3 0.374253 0.038883 0.289165
O O4 0.419748 0.052847 0.000000
O O5 0.972826 0.894030 0.500000
O O6 0.882890 0.922715 0.720316
O O7 0.996340 0.829003 0.778449
O O8 0.000000 0.000000 0.741896
O O9 0.718177 0.994833 0.500000
O O10 0.701116 0.104078 0.250631
O O11 0.754064 0.947555 0.215916
O O12 0.503765 0.206733 0.500000
O O13 0.585395 0.193394 0.751583
O O14 0.337690 0.610425 0.500000
O O15 0.301324 0.715641 0.265009
O O16 0.156874 0.318023 0.000000
#
# Coordination Sequence:
#
# PCOD8236650 Si02
#       6
#     8   8   8   8   8   8
#     4  11  22  35  55  87 120 151 189 235 286 341
#     4  10  21  39  62  87 115 151 192 236 289 344
#     4  11  21  37  59  83 113 152 193 236 289 344
#     4  10  19  35  59  85 113 149 190 236 285 338
#     4  10  21  39  59  84 114 150 193 238 286 341
#     4   8  17  34  57  79 106 146 185 226 283 340
#
# _framework density 19.189855999999999
#
# number of rings (size 3 to 8) (size 9 to 14) (size 15 to 20)
#    0.000    2.000    1.667    3.500    0.000    2.000 
#    3.000    2.500    0.000    0.000    0.000    0.000 
#    0.000    0.000    0.000    0.000    0.000    0.000 
#
# Total GULP energy -595226.465010 kJ/mol
# GULP energy per Si atom -12400.551354 kJ/mol
# Density = 1.914618 g / cm^3
# Si number density = 19.189856 Si / 1000 Ang^3
#
#
#
# Elastic Constant Matrix: (Units=GPa)
#
#
# Indices 1 2 3 4 5 6 
#
# 1 70.1388 61.3476 5.2654 0.0000 0.0000 0.0000
# 2 61.3476 152.0134 17.1385 0.0000 0.0000 0.0000
# 3 5.2654 17.1385 39.8105 0.0000 0.0000 0.0000
# 4 0.0000 0.0000 0.0000 28.5305 0.0000 0.0000
# 5 0.0000 0.0000 0.0000 0.0000 27.9691 0.0000
# 6 0.0000 0.0000 0.0000 0.0000 0.0000 36.7984
#
#
#
# Elastic Compliance Matrix: (Units=1/GPa)
#
#
# Indices 1 2 3 4 5 6 
#
# 1 0.022071 -0.009015 0.000962 0.000000 0.000000 0.000000
# 2 -0.009015 0.010597 -0.003369 0.000000 0.000000 0.000000
# 3 0.000962 -0.003369 0.026442 0.000000 0.000000 0.000000
# 4 0.000000 0.000000 0.000000 0.035050 0.000000 0.000000
# 5 0.000000 0.000000 0.000000 0.000000 0.035754 0.000000
# 6 0.000000 0.000000 0.000000 0.000000 0.000000 0.027175
#
#
# Mechanical properties :
#
#
# Convention : Reuss Voigt Hill
#
# Bulk Modulus (GPa) = 27.57562 47.71840 37.64701
# Shear Modulus (GPa) = 26.03863 30.54035 28.28949
#
# Velocity S-wave (km/s) = 3.68760 3.99367 3.84368
# Velocity P-wave (km/s) = 5.70371 6.79605 6.27370
#
# Compressibility (1/GPa) = 0.03626392
#
# Stress axis : x y z
#
# Youngs Moduli (GPa) = 45.30893 94.36984 37.81814
#
# Poissons Ratio (x) = 0.85079 -0.03638
# Poissons Ratio (y) = 0.40848 0.12743
# Poissons Ratio (z) = -0.04359 0.31798
#
# Static dielectric constant tensor:
#      x y z
#    x 3.250890 0.000000 0.000000 
#    y 0.000000 3.841890 0.000000 
#    z 0.000000 0.000000 3.333800 
# 
# 
# High freq. dielectric constant tensor:
#      x y z
#    x 1.722960 0.000000 0.000000 
#    y 0.000000 1.760890 0.000000 
#    z 0.000000 0.000000 1.742040 
# 
# From -- ./inp_files/6026.got.cif
#   From: 2010.06.25/outbox.cif.g09.slc.cpg/sg58_4_cif.got.tgz:6026.got - 2010.06.26 21:38:00.
