data_PCOD8236567
_publ_section_title
;
Structure prediction by ZEFSAII (Michael W. Deem and Ramdas Pophale) SiO2 
 PCOD8236567
Probable space group: P N N M
;
_chemical_formula_sum "Si O2"
_cell_formula_units_Z 24
_cell_length_a 7.281003
_cell_length_b 5.251518
_cell_length_c 25.468352
_cell_angle_alpha 90.000000
_cell_angle_beta 90.000000
_cell_angle_gamma 90.000000
_cell_volume 973.816014
_symmetry_space_group_name_H-M "P N N M"
_symmetry_group_IT_number 58
_symmetry_cell_setting 'orthorhombic'
loop_
_space_group_symop_operation_xyz
x,y,z
-x,-y,z
1/2+x,1/2-y,1/2-z
1/2-x,1/2+y,1/2-z
-x,-y,-z
x,y,-z
1/2-x,1/2+y,1/2+z
1/2+x,1/2-y,1/2+z
loop_
_atom_site_type_symbol
_atom_site_label
_atom_site_fract_x
_atom_site_fract_y
_atom_site_fract_z
Si Si1 0.704617 0.416769 0.219973
Si Si2 0.292723 0.722565 0.561586
Si Si3 0.798064 0.278677 0.893796
O O1 0.500000 0.500000 0.205477
O O2 0.806402 0.668783 0.242233
O O3 0.810947 0.322582 0.168338
O O4 0.287304 0.675258 0.500000
O O5 0.194416 0.484620 0.591155
O O6 0.499881 0.750809 0.582136
O O7 0.192183 0.984972 0.578279
#
# Coordination Sequence:
#
# PCOD8236567 Si02
#       3
#     8   8   8
#     4  12  28  45  68  96 136 182 236 282 343 402
#     4  10  19  34  65  98 129 170 223 270 327 408
#     4  10  20  35  59  90 131 164 216 274 332 377
#
# _framework density 24.645309000000001
#
# number of rings (size 3 to 8) (size 9 to 14) (size 15 to 20)
#    0.000    1.333    0.000    8.000   14.000    0.000 
#    0.000    0.000    0.000   11.000    0.000    0.000 
#    0.000    0.000    0.000    0.000    0.000    0.000 
#
# Total GULP energy -297426.360306 kJ/mol
# GULP energy per Si atom -12392.765013 kJ/mol
# Density = 2.458922 g / cm^3
# Si number density = 24.645309 Si / 1000 Ang^3
#
#
#
# Elastic Constant Matrix: (Units=GPa)
#
#
# Indices 1 2 3 4 5 6 
#
# 1 19.8916 5.2743 8.2026 0.0000 0.0000 0.0000
# 2 5.2743 300.6691 89.8115 0.0000 0.0000 0.0000
# 3 8.2026 89.8115 182.9370 0.0000 0.0000 0.0000
# 4 0.0000 0.0000 0.0000 57.7776 0.0000 0.0000
# 5 0.0000 0.0000 0.0000 0.0000 20.2937 0.0000
# 6 0.0000 0.0000 0.0000 0.0000 0.0000 10.6380
#
#
#
# Elastic Compliance Matrix: (Units=1/GPa)
#
#
# Indices 1 2 3 4 5 6 
#
# 1 0.051235 -0.000249 -0.002175 0.000000 0.000000 0.000000
# 2 -0.000249 0.003899 -0.001903 0.000000 0.000000 0.000000
# 3 -0.002175 -0.001903 0.006498 0.000000 0.000000 0.000000
# 4 0.000000 0.000000 0.000000 0.017308 0.000000 0.000000
# 5 0.000000 0.000000 0.000000 0.000000 0.049276 0.000000
# 6 0.000000 0.000000 0.000000 0.000000 0.000000 0.094002
#
#
# Mechanical properties :
#
#
# Convention : Reuss Voigt Hill
#
# Bulk Modulus (GPa) = 18.87565 78.89714 48.88640
# Shear Modulus (GPa) = 20.11815 44.42250 32.27032
#
# Velocity S-wave (km/s) = 2.86021 4.25016 3.62248
# Velocity P-wave (km/s) = 4.31083 7.49451 6.11355
#
# Compressibility (1/GPa) = 0.05297831
#
# Stress axis : x y z
#
# Youngs Moduli (GPa) = 19.51773 256.49715 153.89155
#
# Poissons Ratio (x) = 0.06388 0.33472
# Poissons Ratio (y) = 0.00486 0.29283
# Poissons Ratio (z) = 0.04245 0.48808
#
# Static dielectric constant tensor:
#      x y z
#    x 3.770800 0.000000 0.000000 
#    y 0.000000 3.619390 0.000000 
#    z 0.000000 0.000000 4.281260 
# 
# 
# High freq. dielectric constant tensor:
#      x y z
#    x 1.934130 0.000000 0.000000 
#    y 0.000000 2.031470 0.000000 
#    z 0.000000 0.000000 1.980680 
# 
# From -- ./inp_files/31153.got.cif
#   From: 2010.06.25/outbox.cif.g09.slc.cpg/sg58_16_cif.got.tgz:31153.got - 2010.06.26 21:38:00.
