data_PCOD8236746
_publ_section_title
;
Structure prediction by ZEFSAII (Michael W. Deem and Ramdas Pophale) SiO2 
 PCOD8236746
Probable space group: P N N M
;
_chemical_formula_sum "Si O2"
_cell_formula_units_Z 64
_cell_length_a 31.019088
_cell_length_b 12.046591
_cell_length_c 8.732932
_cell_angle_alpha 90.000000
_cell_angle_beta 90.000000
_cell_angle_gamma 90.000000
_cell_volume 3263.271958
_symmetry_space_group_name_H-M "P N N M"
_symmetry_group_IT_number 58
_symmetry_cell_setting 'orthorhombic'
loop_
_space_group_symop_operation_xyz
x,y,z
-x,-y,z
1/2+x,1/2-y,1/2-z
1/2-x,1/2+y,1/2-z
-x,-y,-z
x,y,-z
1/2-x,1/2+y,1/2+z
1/2+x,1/2-y,1/2+z
loop_
_atom_site_type_symbol
_atom_site_label
_atom_site_fract_x
_atom_site_fract_y
_atom_site_fract_z
Si Si1 0.547541 0.520747 0.174866
Si Si2 0.085611 0.746489 0.325668
Si Si3 0.623745 0.144638 0.817516
Si Si4 0.547745 0.985787 0.181498
Si Si5 0.206565 0.971285 0.180400
Si Si6 0.125476 0.110744 0.181434
Si Si7 0.300642 0.014141 0.820152
Si Si8 0.672066 0.762218 0.675956
O O1 0.500000 0.500000 0.242104
O O2 0.552360 0.653001 0.183940
O O3 0.582725 0.455570 0.272978
O O4 0.551274 0.478128 0.000000
O O5 0.102697 0.731061 0.500000
O O6 0.063489 0.634762 0.265573
O O7 0.123684 0.776348 0.209582
O O8 0.624468 0.266646 0.749311
O O9 0.580880 0.080054 0.758843
O O10 0.665813 0.077540 0.756396
O O11 0.623965 0.151531 0.000000
O O12 0.500000 0.000000 0.252779
O O13 0.545323 0.992797 0.000000
O O14 0.201675 0.841796 0.219976
O O15 0.167726 0.046531 0.248719
O O16 0.252875 0.003130 0.253190
O O17 0.206075 0.990080 0.000000
O O18 0.127453 0.118492 0.000000
O O19 0.317380 0.136039 0.784893
O O20 0.297370 0.998048 0.000000
O O21 0.677758 0.797113 0.500000
#
# Coordination Sequence:
#
# PCOD8236746 Si02
#       8
#     8   8   8   8   8   8   8   8
#     4  10  22  38  61  90 116 147 195 245 281 328
#     4  10  19  36  60  85 112 148 191 234 283 337
#     4  10  21  37  59  83 112 149 192 239 285 336
#     4   9  18  33  57  85 111 143 185 235 287 334
#     4   9  21  39  58  81 115 154 187 233 288 342
#     4  11  23  40  58  81 119 158 189 227 291 354
#     4  10  21  40  61  83 113 151 196 241 288 340
#     4  11  21  37  60  85 115 148 188 237 290 341
#
# _framework density 19.612217999999999
#
# number of rings (size 3 to 8) (size 9 to 14) (size 15 to 20)
#    0.000    2.000    2.500    0.750    3.500    0.750 
#    0.000    1.875    0.000    0.750    0.000    0.000 
#    0.000    0.000    0.000    0.000    0.000    0.000 
#
# Total GULP energy -793527.387767 kJ/mol
# GULP energy per Si atom -12398.865434 kJ/mol
# Density = 1.956758 g / cm^3
# Si number density = 19.612218 Si / 1000 Ang^3
#
#
#
# Elastic Constant Matrix: (Units=GPa)
#
#
# Indices 1 2 3 4 5 6 
#
# 1 152.1917 50.7217 21.6697 0.0000 0.0000 0.0000
# 2 50.7217 116.5479 24.5712 0.0000 0.0000 0.0000
# 3 21.6697 24.5712 17.5640 0.0000 0.0000 0.0000
# 4 0.0000 0.0000 0.0000 27.0286 0.0000 0.0000
# 5 0.0000 0.0000 0.0000 0.0000 18.9466 0.0000
# 6 0.0000 0.0000 0.0000 0.0000 0.0000 32.1817
#
#
#
# Elastic Compliance Matrix: (Units=1/GPa)
#
#
# Indices 1 2 3 4 5 6 
#
# 1 0.008306 -0.002063 -0.007362 0.000000 0.000000 0.000000
# 2 -0.002063 0.012682 -0.015196 0.000000 0.000000 0.000000
# 3 -0.007362 -0.015196 0.087277 0.000000 0.000000 0.000000
# 4 0.000000 0.000000 0.000000 0.036998 0.000000 0.000000
# 5 0.000000 0.000000 0.000000 0.000000 0.052780 0.000000
# 6 0.000000 0.000000 0.000000 0.000000 0.000000 0.031074
#
#
# Mechanical properties :
#
#
# Convention : Reuss Voigt Hill
#
# Bulk Modulus (GPa) = 16.94276 53.35879 35.15077
# Shear Modulus (GPa) = 16.77670 28.25409 22.51540
#
# Velocity S-wave (km/s) = 2.92793 3.79969 3.39193
# Velocity P-wave (km/s) = 4.48196 6.82028 5.77080
#
# Compressibility (1/GPa) = 0.05902226
#
# Stress axis : x y z
#
# Youngs Moduli (GPa) = 120.38874 78.85445 11.45783
#
# Poissons Ratio (x) = 0.16266 0.08436
# Poissons Ratio (y) = 0.24834 0.17411
# Poissons Ratio (z) = 0.88635 1.19827
#
# Static dielectric constant tensor:
#      x y z
#    x 4.054720 0.000000 0.000000 
#    y 0.000000 3.643650 0.000000 
#    z 0.000000 0.000000 3.212930 
# 
# 
# High freq. dielectric constant tensor:
#      x y z
#    x 1.777040 0.000000 0.000000 
#    y 0.000000 1.777250 0.000000 
#    z 0.000000 0.000000 1.726330 
# 
# From -- ./inp_files/4690.got.cif
#   From: 2010.06.25/outbox.cif.g09.slc.cpg/sg58_3_cif.got.tgz:4690.got - 2010.06.26 21:38:00.
