data_PCOD8236281
_publ_section_title
;
Structure prediction by ZEFSAII (Michael W. Deem and Ramdas Pophale) SiO2 
 PCOD8236281
Probable space group: P N N M
;
_chemical_formula_sum "Si O2"
_cell_formula_units_Z 48
_cell_length_a 21.301059
_cell_length_b 12.134125
_cell_length_c 9.671108
_cell_angle_alpha 90.000000
_cell_angle_beta 90.000000
_cell_angle_gamma 90.000000
_cell_volume 2499.688505
_symmetry_space_group_name_H-M "P N N M"
_symmetry_group_IT_number 58
_symmetry_cell_setting 'orthorhombic'
loop_
_space_group_symop_operation_xyz
x,y,z
-x,-y,z
1/2+x,1/2-y,1/2-z
1/2-x,1/2+y,1/2-z
-x,-y,-z
x,y,-z
1/2-x,1/2+y,1/2+z
1/2+x,1/2-y,1/2+z
loop_
_atom_site_type_symbol
_atom_site_label
_atom_site_fract_x
_atom_site_fract_y
_atom_site_fract_z
Si Si1 0.927076 0.505737 0.660284
Si Si2 0.094023 0.244808 0.658921
Si Si3 0.169659 0.626295 0.838759
Si Si4 0.307178 0.563903 0.838949
Si Si5 0.146127 0.868241 0.846130
Si Si6 0.997052 0.123630 0.155921
O O1 0.920904 0.472372 0.500000
O O2 0.897038 0.625838 0.688327
O O3 0.887644 0.419509 0.749531
O O4 0.000000 0.500000 0.705832
O O5 0.075342 0.225379 0.500000
O O6 0.157399 0.178464 0.697668
O O7 0.036481 0.204379 0.749799
O O8 0.234692 0.569083 0.794298
O O9 0.181859 0.755612 0.809056
O O10 0.154237 0.606667 0.000000
O O11 0.339259 0.463954 0.760180
O O12 0.313618 0.538472 0.000000
O O13 0.073592 0.834101 0.840696
O O14 0.164479 0.909667 0.000000
O O15 0.024737 0.125335 0.000000
O O16 0.000000 0.000000 0.215837
#
# Coordination Sequence:
#
# PCOD8236281 Si02
#       6
#     8   8   8   8   8   8
#     4  10  22  40  62  89 118 151 195 240 288 349
#     4  10  21  36  57  84 117 155 189 233 290 341
#     4  10  23  40  59  84 114 152 195 236 284 345
#     4  10  22  38  55  82 115 148 192 236 281 342
#     4  10  21  38  60  83 113 150 188 234 288 338
#     4  10  19  33  54  85 116 144 188 237 280 337
#
# _framework density 19.202393000000001
#
# number of rings (size 3 to 8) (size 9 to 14) (size 15 to 20)
#    0.000    2.000    1.667    1.000    2.333    3.333 
#    0.000    0.000    0.000    0.000    0.000    0.000 
#    0.000    0.000    0.000    0.000    0.000    0.000 
#
# Total GULP energy -595276.977083 kJ/mol
# GULP energy per Si atom -12401.603689 kJ/mol
# Density = 1.915869 g / cm^3
# Si number density = 19.202393 Si / 1000 Ang^3
#
#
#
# Elastic Constant Matrix: (Units=GPa)
#
#
# Indices 1 2 3 4 5 6 
#
# 1 95.0525 40.2383 46.1333 0.0000 0.0000 0.0000
# 2 40.2383 85.8452 44.2260 0.0000 0.0000 0.0000
# 3 46.1333 44.2260 62.6353 0.0000 0.0000 0.0000
# 4 0.0000 0.0000 0.0000 32.8171 0.0000 0.0000
# 5 0.0000 0.0000 0.0000 0.0000 24.2036 0.0000
# 6 0.0000 0.0000 0.0000 0.0000 0.0000 27.8683
#
#
#
# Elastic Compliance Matrix: (Units=1/GPa)
#
#
# Indices 1 2 3 4 5 6 
#
# 1 0.016667 -0.002339 -0.010625 0.000000 0.000000 0.000000
# 2 -0.002339 0.018637 -0.011437 0.000000 0.000000 0.000000
# 3 -0.010625 -0.011437 0.031866 0.000000 0.000000 0.000000
# 4 0.000000 0.000000 0.000000 0.030472 0.000000 0.000000
# 5 0.000000 0.000000 0.000000 0.000000 0.041316 0.000000
# 6 0.000000 0.000000 0.000000 0.000000 0.000000 0.035883
#
#
# Mechanical properties :
#
#
# Convention : Reuss Voigt Hill
#
# Bulk Modulus (GPa) = 54.43628 56.08093 55.25860
# Shear Modulus (GPa) = 21.76127 24.50683 23.13405
#
# Velocity S-wave (km/s) = 3.37004 3.57632 3.47471
# Velocity P-wave (km/s) = 6.59948 6.80603 6.70355
#
# Compressibility (1/GPa) = 0.01837010
#
# Stress axis : x y z
#
# Youngs Moduli (GPa) = 59.99816 53.65596 31.38105
#
# Poissons Ratio (x) = 0.12549 0.33341
# Poissons Ratio (y) = 0.14032 0.35890
# Poissons Ratio (z) = 0.63746 0.61366
#
# Static dielectric constant tensor:
#      x y z
#    x 3.538270 0.000000 0.000000 
#    y 0.000000 3.489780 0.000000 
#    z 0.000000 0.000000 3.444420 
# 
# 
# High freq. dielectric constant tensor:
#      x y z
#    x 1.749060 0.000000 0.000000 
#    y 0.000000 1.751660 0.000000 
#    z 0.000000 0.000000 1.741070 
# 
# From -- ./inp_files/4210.got.cif
#   From: 2010.06.25/outbox.cif.g09.slc.cpg/sg58_3_cif.got.tgz:4210.got - 2010.06.26 21:38:00.
