data_PCOD8236539
_publ_section_title
;
Structure prediction by ZEFSAII (Michael W. Deem and Ramdas Pophale) SiO2 
 PCOD8236539
Probable space group: P N N M
;
_chemical_formula_sum "Si O2"
_cell_formula_units_Z 64
_cell_length_a 24.511619
_cell_length_b 14.416424
_cell_length_c 8.918616
_cell_angle_alpha 90.000000
_cell_angle_beta 90.000000
_cell_angle_gamma 90.000000
_cell_volume 3151.570377
_symmetry_space_group_name_H-M "P N N M"
_symmetry_group_IT_number 58
_symmetry_cell_setting 'orthorhombic'
loop_
_space_group_symop_operation_xyz
x,y,z
-x,-y,z
1/2+x,1/2-y,1/2-z
1/2-x,1/2+y,1/2-z
-x,-y,-z
x,y,-z
1/2-x,1/2+y,1/2+z
1/2+x,1/2-y,1/2+z
loop_
_atom_site_type_symbol
_atom_site_label
_atom_site_fract_x
_atom_site_fract_y
_atom_site_fract_z
Si Si1 0.560628 0.965492 0.173509
Si Si2 0.809310 0.288039 0.175234
Si Si3 0.407262 0.712290 0.179134
Si Si4 0.168480 0.501430 0.823671
Si Si5 0.481630 0.217569 0.167958
Si Si6 0.609761 0.646620 0.169534
Si Si7 0.199636 0.319650 0.325203
Si Si8 0.062069 0.021293 0.822947
O O1 0.606604 0.018035 0.268711
O O2 0.558022 0.860082 0.239527
O O3 0.500000 0.000000 0.204766
O O4 0.578105 0.974767 0.000000
O O5 0.811625 0.395858 0.229023
O O6 0.850882 0.224991 0.266837
O O7 0.749880 0.247504 0.211131
O O8 0.823701 0.281155 0.000000
O O9 0.458716 0.772199 0.241262
O O10 0.353225 0.764364 0.234371
O O11 0.412197 0.611853 0.250287
O O12 0.409182 0.701210 0.000000
O O13 0.206205 0.419660 0.755430
O O14 0.172121 0.492834 0.000000
O O15 0.452066 0.315830 0.169670
O O16 0.491781 0.179731 0.000000
O O17 0.605873 0.556850 0.273950
O O18 0.627884 0.620950 0.000000
O O19 0.194600 0.340679 0.500000
O O20 0.062812 0.031331 0.000000
O O21 0.000000 0.000000 0.767735
#
# Coordination Sequence:
#
# PCOD8236539 Si02
#       8
#     8   8   8   8   8   8   8   8
#     4  10  19  34  58  87 119 157 203 249 297 360
#     4  10  23  43  63  88 122 158 199 250 303 357
#     4  10  20  38  62  88 119 159 207 254 300 356
#     4  11  23  39  61  90 126 160 197 248 306 364
#     4   9  17  30  53  85 115 146 195 250 293 346
#     4  11  21  36  61  88 115 155 205 251 295 353
#     4  10  23  43  66  89 119 160 204 250 299 353
#     4  11  23  37  56  87 127 166 201 247 309 367
#
# _framework density 20.307338000000001
#
# number of rings (size 3 to 8) (size 9 to 14) (size 15 to 20)
#    0.000    1.750    2.500    1.875    0.000    5.250 
#    0.000    1.875    0.000    0.000    0.000    0.000 
#    0.000    0.000    0.000    0.000    0.000    0.000 
#
# Total GULP energy -793263.858571 kJ/mol
# GULP energy per Si atom -12394.747790 kJ/mol
# Density = 2.026112 g / cm^3
# Si number density = 20.307338 Si / 1000 Ang^3
#
#
#
# Elastic Constant Matrix: (Units=GPa)
#
#
# Indices 1 2 3 4 5 6 
#
# 1 97.1156 40.6957 30.8038 0.0000 0.0000 0.0000
# 2 40.6957 123.0096 38.3156 0.0000 0.0000 0.0000
# 3 30.8038 38.3156 52.4776 0.0000 0.0000 0.0000
# 4 0.0000 0.0000 0.0000 32.5524 0.0000 0.0000
# 5 0.0000 0.0000 0.0000 0.0000 21.7608 0.0000
# 6 0.0000 0.0000 0.0000 0.0000 0.0000 32.5128
#
#
#
# Elastic Compliance Matrix: (Units=1/GPa)
#
#
# Indices 1 2 3 4 5 6 
#
# 1 0.013237 -0.002536 -0.005919 0.000000 0.000000 0.000000
# 2 -0.002536 0.011008 -0.006549 0.000000 0.000000 0.000000
# 3 -0.005919 -0.006549 0.027312 0.000000 0.000000 0.000000
# 4 0.000000 0.000000 0.000000 0.030720 0.000000 0.000000
# 5 0.000000 0.000000 0.000000 0.000000 0.045954 0.000000
# 6 0.000000 0.000000 0.000000 0.000000 0.000000 0.030757
#
#
# Mechanical properties :
#
#
# Convention : Reuss Voigt Hill
#
# Bulk Modulus (GPa) = 46.40345 54.69257 50.54801
# Shear Modulus (GPa) = 25.48712 28.21771 26.85241
#
# Velocity S-wave (km/s) = 3.54654 3.73169 3.64029
# Velocity P-wave (km/s) = 6.29847 6.74968 6.52798
#
# Compressibility (1/GPa) = 0.02155012
#
# Stress axis : x y z
#
# Youngs Moduli (GPa) = 75.54677 90.84082 36.61456
#
# Poissons Ratio (x) = 0.23034 0.21670
# Poissons Ratio (y) = 0.19156 0.23979
# Poissons Ratio (z) = 0.44712 0.59492
#
# Static dielectric constant tensor:
#      x y z
#    x 3.710430 0.000000 0.000000 
#    y 0.000000 4.010800 0.000000 
#    z 0.000000 0.000000 3.448670 
# 
# 
# High freq. dielectric constant tensor:
#      x y z
#    x 1.789010 0.000000 0.000000 
#    y 0.000000 1.810400 0.000000 
#    z 0.000000 0.000000 1.769320 
# 
# From -- ./inp_files/9956.got.cif
#   From: 2010.06.25/outbox.cif.g09.slc.cpg/sg58_5_cif.got.tgz:9956.got - 2010.06.26 21:38:00.
