data_PCOD8236709
_publ_section_title
;
Structure prediction by ZEFSAII (Michael W. Deem and Ramdas Pophale) SiO2 
 PCOD8236709
Probable space group: P N N M
;
_chemical_formula_sum "Si O2"
_cell_formula_units_Z 64
_cell_length_a 12.165091
_cell_length_b 13.641722
_cell_length_c 18.959741
_cell_angle_alpha 90.000000
_cell_angle_beta 90.000000
_cell_angle_gamma 90.000000
_cell_volume 3146.421908
_symmetry_space_group_name_H-M "P N N M"
_symmetry_group_IT_number 58
_symmetry_cell_setting 'orthorhombic'
loop_
_space_group_symop_operation_xyz
x,y,z
-x,-y,z
1/2+x,1/2-y,1/2-z
1/2-x,1/2+y,1/2-z
-x,-y,-z
x,y,-z
1/2-x,1/2+y,1/2+z
1/2+x,1/2-y,1/2+z
loop_
_atom_site_type_symbol
_atom_site_label
_atom_site_fract_x
_atom_site_fract_y
_atom_site_fract_z
Si Si1 0.346132 0.169102 0.576737
Si Si2 0.421676 0.414436 0.164225
Si Si3 0.530241 0.359649 0.691215
Si Si4 0.312207 0.251915 0.920255
Si Si5 0.345519 0.390791 0.581470
Si Si6 0.083443 0.332701 0.123473
Si Si7 0.190086 0.509143 0.811055
Si Si8 0.261094 0.057514 0.161620
O O1 0.304395 0.130616 0.500000
O O2 0.302059 0.279377 0.588838
O O3 0.478855 0.165491 0.572142
O O4 0.299647 0.105442 0.640633
O O5 0.500000 0.500000 0.131937
O O6 0.472947 0.371444 0.234602
O O7 0.405328 0.325779 0.109141
O O8 0.303738 0.453001 0.185721
O O9 0.457275 0.399884 0.626458
O O10 0.559005 0.245336 0.684939
O O11 0.640310 0.422303 0.691820
O O12 0.192025 0.302004 0.919289
O O13 0.313181 0.149875 0.878223
O O14 0.344129 0.227827 0.000000
O O15 0.372413 0.416397 0.500000
O O16 0.249960 0.463581 0.609855
O O17 0.094606 0.438782 0.159640
O O18 0.162923 0.535737 0.729847
#
# Coordination Sequence:
#
# PCOD8236709 Si02
#       8
#     8   8   8   8   8   8   8   8
#     4  10  22  38  58  87 125 159 195 245 304 371
#     4  11  21  40  61  86 119 158 205 252 291 357
#     4  10  19  36  57  86 119 152 194 242 300 356
#     4  10  23  38  59  91 121 158 201 253 311 356
#     4  10  20  34  58  86 119 159 194 237 299 368
#     4   9  21  36  61  86 121 154 194 245 307 373
#     4  11  22  35  57  92 117 159 200 242 305 352
#     4  11  21  35  58  85 125 155 195 251 298 361
#
# _framework density 20.340564000000001
#
# number of rings (size 3 to 8) (size 9 to 14) (size 15 to 20)
#    0.000    1.750    2.500    1.500    3.500    8.250 
#    0.000    0.000    0.000    0.000    0.000    0.875 
#    0.000    0.000    0.000    0.000    0.000    0.000 
#
# Total GULP energy -793504.112526 kJ/mol
# GULP energy per Si atom -12398.501758 kJ/mol
# Density = 2.029427 g / cm^3
# Si number density = 20.340564 Si / 1000 Ang^3
#
#
#
# Elastic Constant Matrix: (Units=GPa)
#
#
# Indices 1 2 3 4 5 6 
#
# 1 28.2019 26.4038 23.6125 0.0000 0.0000 0.0000
# 2 26.4038 134.4560 69.4685 0.0000 0.0000 0.0000
# 3 23.6125 69.4685 140.9969 0.0000 0.0000 0.0000
# 4 0.0000 0.0000 0.0000 29.4243 0.0000 0.0000
# 5 0.0000 0.0000 0.0000 0.0000 16.2682 0.0000
# 6 0.0000 0.0000 0.0000 0.0000 0.0000 36.7296
#
#
#
# Elastic Compliance Matrix: (Units=1/GPa)
#
#
# Indices 1 2 3 4 5 6 
#
# 1 0.045308 -0.006677 -0.004298 0.000000 0.000000 0.000000
# 2 -0.006677 0.010961 -0.004282 0.000000 0.000000 0.000000
# 3 -0.004298 -0.004282 0.009922 0.000000 0.000000 0.000000
# 4 0.000000 0.000000 0.000000 0.033986 0.000000 0.000000
# 5 0.000000 0.000000 0.000000 0.000000 0.061469 0.000000
# 6 0.000000 0.000000 0.000000 0.000000 0.000000 0.027226
#
#
# Mechanical properties :
#
#
# Convention : Reuss Voigt Hill
#
# Bulk Modulus (GPa) = 28.02921 60.29160 44.16041
# Shear Modulus (GPa) = 21.61891 28.76243 25.19067
#
# Velocity S-wave (km/s) = 3.26367 3.76446 3.52297
# Velocity P-wave (km/s) = 5.29263 6.97139 6.18919
#
# Compressibility (1/GPa) = 0.03567706
#
# Stress axis : x y z
#
# Youngs Moduli (GPa) = 22.07101 91.23227 100.78591
#
# Poissons Ratio (x) = 0.60913 0.43319
# Poissons Ratio (y) = 0.14736 0.43160
# Poissons Ratio (z) = 0.09486 0.39068
#
# Static dielectric constant tensor:
#      x y z
#    x 3.480990 0.000000 0.000000 
#    y 0.000000 4.017940 0.000000 
#    z 0.000000 0.000000 3.647990 
# 
# 
# High freq. dielectric constant tensor:
#      x y z
#    x 1.759560 0.000000 0.000000 
#    y 0.000000 1.812510 0.000000 
#    z 0.000000 0.000000 1.793830 
# 
# From -- ./inp_files/26356.got.cif
#   From: 2010.06.25/outbox.cif.g09.slc.cpg/sg58_14_cif.got.tgz:26356.got - 2010.06.26 21:38:00.
