data_PCOD8236691
_publ_section_title
;
Structure prediction by ZEFSAII (Michael W. Deem and Ramdas Pophale) SiO2 
 PCOD8236691
Probable space group: P N N M
;
_chemical_formula_sum "Si O2"
_cell_formula_units_Z 56
_cell_length_a 17.035080
_cell_length_b 20.306484
_cell_length_c 7.945075
_cell_angle_alpha 90.000000
_cell_angle_beta 90.000000
_cell_angle_gamma 90.000000
_cell_volume 2748.380838
_symmetry_space_group_name_H-M "P N N M"
_symmetry_group_IT_number 58
_symmetry_cell_setting 'orthorhombic'
loop_
_space_group_symop_operation_xyz
x,y,z
-x,-y,z
1/2+x,1/2-y,1/2-z
1/2-x,1/2+y,1/2-z
-x,-y,-z
x,y,-z
1/2-x,1/2+y,1/2+z
1/2+x,1/2-y,1/2+z
loop_
_atom_site_type_symbol
_atom_site_label
_atom_site_fract_x
_atom_site_fract_y
_atom_site_fract_z
Si Si1 0.829445 0.134915 0.687936
Si Si2 0.701638 0.227490 0.192070
Si Si3 0.495812 0.337727 0.310207
Si Si4 0.129106 0.499970 0.500000
Si Si5 0.493444 0.105462 0.000000
Si Si6 0.541691 0.189243 0.690171
Si Si7 0.253359 0.998964 0.698454
Si Si8 0.339447 0.628517 0.802789
O O1 0.802475 0.149889 0.500000
O O2 0.785918 0.191759 0.795571
O O3 0.923210 0.138665 0.698513
O O4 0.805028 0.061178 0.738347
O O5 0.636429 0.185866 0.294175
O O6 0.703921 0.303646 0.256045
O O7 0.673526 0.227034 0.000000
O O8 0.468374 0.347849 0.500000
O O9 0.514703 0.262655 0.268863
O O10 0.574267 0.379677 0.276995
O O11 0.091716 0.572294 0.500000
O O12 0.174481 0.489802 0.675358
O O13 0.062830 0.445833 0.500000
O O14 0.497367 0.145821 0.173060
O O15 0.518578 0.167229 0.500000
O O16 0.279001 0.000482 0.500000
O O17 0.211997 0.066667 0.754532
O O18 0.351290 0.627665 0.000000
#
# Coordination Sequence:
#
# PCOD8236691 Si02
#       8
#     8   8   8   4   4   8   8   8
#     4  11  23  37  59  89 125 165 206 259 310 367
#     4  10  19  35  62  90 120 160 209 259 313 371
#     4  10  22  37  59  93 126 158 207 259 311 374
#     4  11  26  42  64  91 122 162 216 261 310 376
#     4  11  24  42  64  94 122 165 206 260 324 367
#     4  10  21  39  63  90 125 163 200 252 318 378
#     4  10  24  44  63  88 125 169 212 257 308 375
#     4   9  20  40  62  84 121 166 205 256 315 372
#
# _framework density 20.375632
#
# number of rings (size 3 to 8) (size 9 to 14) (size 15 to 20)
#    0.000    1.857    0.714    2.143    5.000    4.571 
#    0.000    7.143    0.000    0.000    0.000    0.000 
#    0.000    0.000    0.000    0.000    0.000    0.000 
#
# Total GULP energy -694351.789816 kJ/mol
# GULP energy per Si atom -12399.139104 kJ/mol
# Density = 2.032926 g / cm^3
# Si number density = 20.375632 Si / 1000 Ang^3
#
#
#
# Elastic Constant Matrix: (Units=GPa)
#
#
# Indices 1 2 3 4 5 6 
#
# 1 68.8593 23.3658 29.0876 0.0000 0.0000 0.0000
# 2 23.3658 76.6893 29.0901 0.0000 0.0000 0.0000
# 3 29.0876 29.0901 80.8594 0.0000 0.0000 0.0000
# 4 0.0000 0.0000 0.0000 29.6591 0.0000 0.0000
# 5 0.0000 0.0000 0.0000 0.0000 26.1554 0.0000
# 6 0.0000 0.0000 0.0000 0.0000 0.0000 28.9247
#
#
#
# Elastic Compliance Matrix: (Units=1/GPa)
#
#
# Indices 1 2 3 4 5 6 
#
# 1 0.017895 -0.003486 -0.005183 0.000000 0.000000 0.000000
# 2 -0.003486 0.015779 -0.004423 0.000000 0.000000 0.000000
# 3 -0.005183 -0.004423 0.015823 0.000000 0.000000 0.000000
# 4 0.000000 0.000000 0.000000 0.033716 0.000000 0.000000
# 5 0.000000 0.000000 0.000000 0.000000 0.038233 0.000000
# 6 0.000000 0.000000 0.000000 0.000000 0.000000 0.034573
#
#
# Mechanical properties :
#
#
# Convention : Reuss Voigt Hill
#
# Bulk Modulus (GPa) = 42.89454 43.27723 43.08588
# Shear Modulus (GPa) = 26.31939 26.60548 26.46243
#
# Velocity S-wave (km/s) = 3.59793 3.61744 3.60770
# Velocity P-wave (km/s) = 6.19336 6.22363 6.20852
#
# Compressibility (1/GPa) = 0.02331299
#
# Stress axis : x y z
#
# Youngs Moduli (GPa) = 55.88222 63.37353 63.19981
#
# Poissons Ratio (x) = 0.22093 0.32757
# Poissons Ratio (y) = 0.19481 0.27952
# Poissons Ratio (z) = 0.28964 0.28029
#
# Static dielectric constant tensor:
#      x y z
#    x 3.550140 0.000000 0.000000 
#    y 0.000000 3.923720 0.000000 
#    z 0.000000 0.000000 3.715140 
# 
# 
# High freq. dielectric constant tensor:
#      x y z
#    x 1.786380 0.000000 0.000000 
#    y 0.000000 1.796980 0.000000 
#    z 0.000000 0.000000 1.805650 
# 
# From -- ./inp_files/6511.got.cif
#   From: 2010.06.25/outbox.cif.g09.slc.cpg/sg58_4_cif.got.tgz:6511.got - 2010.06.26 21:38:00.
