data_PCOD8236401
_publ_section_title
;
Structure prediction by ZEFSAII (Michael W. Deem and Ramdas Pophale) SiO2 
 PCOD8236401
Probable space group: P N N M
;
_chemical_formula_sum "Si O2"
_cell_formula_units_Z 64
_cell_length_a 24.552618
_cell_length_b 14.871544
_cell_length_c 8.952324
_cell_angle_alpha 90.000000
_cell_angle_beta 90.000000
_cell_angle_gamma 90.000000
_cell_volume 3268.809858
_symmetry_space_group_name_H-M "P N N M"
_symmetry_group_IT_number 58
_symmetry_cell_setting 'orthorhombic'
loop_
_space_group_symop_operation_xyz
x,y,z
-x,-y,z
1/2+x,1/2-y,1/2-z
1/2-x,1/2+y,1/2-z
-x,-y,-z
x,y,-z
1/2-x,1/2+y,1/2+z
1/2+x,1/2-y,1/2+z
loop_
_atom_site_type_symbol
_atom_site_label
_atom_site_fract_x
_atom_site_fract_y
_atom_site_fract_z
Si Si1 0.236226 0.177141 0.675732
Si Si2 0.124786 0.460746 0.171135
Si Si3 0.944691 0.251410 0.327858
Si Si4 0.052865 0.947317 0.321495
Si Si5 0.829123 0.993584 0.322237
Si Si6 0.654859 0.868343 0.171539
Si Si7 0.975733 0.596603 0.676871
Si Si8 0.239462 0.367034 0.170559
O O1 0.233194 0.187285 0.500000
O O2 0.191081 0.104939 0.732828
O O3 0.294308 0.137601 0.719829
O O4 0.228363 0.274795 0.744433
O O5 0.118357 0.548257 0.275368
O O6 0.081695 0.389660 0.238187
O O7 0.185532 0.425087 0.186045
O O8 0.110685 0.483385 0.000000
O O9 0.960536 0.244516 0.500000
O O10 0.951612 0.153335 0.254389
O O11 0.881679 0.279355 0.310294
O O12 0.985248 0.325148 0.257558
O O13 0.053946 0.946281 0.500000
O O14 0.109200 0.992160 0.263451
O O15 0.000000 0.000000 0.261000
O O16 0.825875 0.996781 0.500000
O O17 0.789426 0.073727 0.262092
O O18 0.673108 0.881214 0.000000
O O19 0.967195 0.604626 0.500000
O O20 0.000000 0.500000 0.721159
O O21 0.252317 0.341250 0.000000
#
# Coordination Sequence:
#
# PCOD8236401 Si02
#       8
#     8   8   8   8   8   8   8   8
#     4  11  22  36  56  86 116 148 191 240 289 344
#     4  11  22  36  55  81 114 151 191 237 289 345
#     4   9  18  32  53  78 107 146 191 230 275 344
#     4   9  17  30  51  78 104 138 185 230 275 330
#     4   9  18  35  55  77 113 149 181 232 291 337
#     4  11  20  35  58  81 110 152 193 232 287 346
#     4  10  19  34  53  79 114 149 186 233 287 345
#     4  10  21  39  57  78 114 156 189 229 289 354
#
# _framework density 19.578990000000001
#
# number of rings (size 3 to 8) (size 9 to 14) (size 15 to 20)
#    0.000    2.000    2.500    1.875    0.000    4.250 
#    0.000    2.500    0.000    0.000    0.000    0.000 
#    0.000   10.000    0.000    0.000    0.000    0.000 
#
# Total GULP energy -793444.764090 kJ/mol
# GULP energy per Si atom -12397.574439 kJ/mol
# Density = 1.953443 g / cm^3
# Si number density = 19.578990 Si / 1000 Ang^3
#
#
#
# Elastic Constant Matrix: (Units=GPa)
#
#
# Indices 1 2 3 4 5 6 
#
# 1 125.6812 60.9317 24.2796 0.0000 0.0000 0.0000
# 2 60.9317 152.0219 35.7492 0.0000 0.0000 0.0000
# 3 24.2796 35.7492 39.5704 0.0000 0.0000 0.0000
# 4 0.0000 0.0000 0.0000 23.3775 0.0000 0.0000
# 5 0.0000 0.0000 0.0000 0.0000 26.8590 0.0000
# 6 0.0000 0.0000 0.0000 0.0000 0.0000 27.9535
#
#
#
# Elastic Compliance Matrix: (Units=1/GPa)
#
#
# Indices 1 2 3 4 5 6 
#
# 1 0.010196 -0.003321 -0.003256 0.000000 0.000000 0.000000
# 2 -0.003321 0.009434 -0.006485 0.000000 0.000000 0.000000
# 3 -0.003256 -0.006485 0.033128 0.000000 0.000000 0.000000
# 4 0.000000 0.000000 0.000000 0.042776 0.000000 0.000000
# 5 0.000000 0.000000 0.000000 0.000000 0.037232 0.000000
# 6 0.000000 0.000000 0.000000 0.000000 0.000000 0.035774
#
#
# Mechanical properties :
#
#
# Convention : Reuss Voigt Hill
#
# Bulk Modulus (GPa) = 37.54604 62.13271 49.83938
# Shear Modulus (GPa) = 24.56504 28.72552 26.64528
#
# Velocity S-wave (km/s) = 3.54597 3.83451 3.69306
# Velocity P-wave (km/s) = 5.99862 7.16993 6.61027
#
# Compressibility (1/GPa) = 0.02663397
#
# Stress axis : x y z
#
# Youngs Moduli (GPa) = 98.08174 105.99783 30.18576
#
# Poissons Ratio (x) = 0.35201 0.09827
# Poissons Ratio (y) = 0.32572 0.19577
# Poissons Ratio (z) = 0.31932 0.68745
#
# Static dielectric constant tensor:
#      x y z
#    x 3.702280 0.000000 0.000000 
#    y 0.000000 3.849900 0.000000 
#    z 0.000000 0.000000 3.162580 
# 
# 
# High freq. dielectric constant tensor:
#      x y z
#    x 1.772200 0.000000 0.000000 
#    y 0.000000 1.768950 0.000000 
#    z 0.000000 0.000000 1.717550 
# 
# From -- ./inp_files/9978.got.cif
#   From: 2010.06.25/outbox.cif.g09.slc.cpg/sg58_5_cif.got.tgz:9978.got - 2010.06.26 21:38:00.
