data_PCOD8236202
_publ_section_title
;
Structure prediction by ZEFSAII (Michael W. Deem and Ramdas Pophale) SiO2 
 PCOD8236202
Probable space group: P N N M
;
_chemical_formula_sum "Si O2"
_cell_formula_units_Z 56
_cell_length_a 5.014875
_cell_length_b 16.203086
_cell_length_c 34.194862
_cell_angle_alpha 90.000000
_cell_angle_beta 90.000000
_cell_angle_gamma 90.000000
_cell_volume 2778.553125
_symmetry_space_group_name_H-M "P N N M"
_symmetry_group_IT_number 58
_symmetry_cell_setting 'orthorhombic'
loop_
_space_group_symop_operation_xyz
x,y,z
-x,-y,z
1/2+x,1/2-y,1/2-z
1/2-x,1/2+y,1/2-z
-x,-y,-z
x,y,-z
1/2-x,1/2+y,1/2+z
1/2+x,1/2-y,1/2+z
loop_
_atom_site_type_symbol
_atom_site_label
_atom_site_fract_x
_atom_site_fract_y
_atom_site_fract_z
Si Si1 0.258490 0.054241 0.599490
Si Si2 0.584237 0.276402 0.072349
Si Si3 0.760446 0.444742 0.187680
Si Si4 0.819448 0.770532 0.726056
Si Si5 0.403990 0.689023 0.456040
Si Si6 0.101478 0.321309 0.647723
Si Si7 0.612291 0.408828 0.619422
O O1 0.194930 0.130652 0.571073
O O2 0.333618 0.083980 0.643412
O O3 0.500000 0.000000 0.581650
O O4 0.000000 0.000000 0.602135
O O5 0.302286 0.265274 0.050194
O O6 0.530054 0.251003 0.117204
O O7 0.795791 0.218575 0.050782
O O8 0.500000 0.500000 0.189136
O O9 0.726525 0.364862 0.214261
O O10 0.000000 0.500000 0.204904
O O11 0.541780 0.732069 0.740374
O O12 0.928412 0.715055 0.690709
O O13 0.378550 0.654614 0.500000
O O14 0.340563 0.614473 0.426132
O O15 0.403413 0.348350 0.640056
O O16 0.893998 0.397435 0.641903
O O17 0.500000 0.500000 0.622886
#
# Coordination Sequence:
#
# PCOD8236202 Si02
#       7
#     8   8   8   8   8   8   8
#     4  10  19  32  57  86 108 140 188 243 288 325
#     4  10  19  36  58  81 115 148 191 243 279 348
#     4  10  21  38  59  84 115 144 188 250 295 330
#     4  12  24  40  61  87 120 159 196 239 295 360
#     4  10  21  35  58  86 116 155 192 238 294 342
#     4  10  21  39  58  84 113 149 198 238 289 346
#     4  10  21  38  62  86 116 153 196 245 290 345
#
# _framework density 20.154373
#
# number of rings (size 3 to 8) (size 9 to 14) (size 15 to 20)
#    0.000    1.714    1.429    3.429    0.000    0.286 
#    0.000    7.143    0.000   13.714    0.000    0.000 
#    0.000    0.000    0.000    0.000    0.000    0.000 
#
# Total GULP energy -694515.119454 kJ/mol
# GULP energy per Si atom -12402.055705 kJ/mol
# Density = 2.010850 g / cm^3
# Si number density = 20.154373 Si / 1000 Ang^3
#
#
#
# Elastic Constant Matrix: (Units=GPa)
#
#
# Indices 1 2 3 4 5 6 
#
# 1 108.6256 18.5956 18.1708 0.0000 0.0000 0.0000
# 2 18.5956 90.2516 30.9180 0.0000 0.0000 0.0000
# 3 18.1708 30.9180 81.3593 0.0000 0.0000 0.0000
# 4 0.0000 0.0000 0.0000 20.8724 0.0000 0.0000
# 5 0.0000 0.0000 0.0000 0.0000 25.1872 0.0000
# 6 0.0000 0.0000 0.0000 0.0000 0.0000 39.4964
#
#
#
# Elastic Compliance Matrix: (Units=1/GPa)
#
#
# Indices 1 2 3 4 5 6 
#
# 1 0.009725 -0.001448 -0.001622 0.000000 0.000000 0.000000
# 2 -0.001448 0.012954 -0.004599 0.000000 0.000000 0.000000
# 3 -0.001622 -0.004599 0.014401 0.000000 0.000000 0.000000
# 4 0.000000 0.000000 0.000000 0.047910 0.000000 0.000000
# 5 0.000000 0.000000 0.000000 0.000000 0.039703 0.000000
# 6 0.000000 0.000000 0.000000 0.000000 0.000000 0.025319
#
#
# Mechanical properties :
#
#
# Convention : Reuss Voigt Hill
#
# Bulk Modulus (GPa) = 45.99404 46.17837 46.08620
# Shear Modulus (GPa) = 28.96904 31.28133 30.12518
#
# Velocity S-wave (km/s) = 3.79536 3.94393 3.87036
# Velocity P-wave (km/s) = 6.48666 6.61071 6.54898
#
# Compressibility (1/GPa) = 0.02174195
#
# Stress axis : x y z
#
# Youngs Moduli (GPa) = 102.82647 77.19522 69.43871
#
# Poissons Ratio (x) = 0.11180 0.11260
# Poissons Ratio (y) = 0.14892 0.31937
# Poissons Ratio (z) = 0.16675 0.35505
#
# Static dielectric constant tensor:
#      x y z
#    x 3.836360 0.000000 0.000000 
#    y 0.000000 3.408290 0.000000 
#    z 0.000000 0.000000 3.559220 
# 
# 
# High freq. dielectric constant tensor:
#      x y z
#    x 1.809040 0.000000 0.000000 
#    y 0.000000 1.772370 0.000000 
#    z 0.000000 0.000000 1.767020 
# 
# From -- ./inp_files/34195.got.cif
#   From: 2010.06.25/outbox.cif.g09.slc.cpg/sg58_18_cif.got.tgz:34195.got - 2010.06.26 21:38:00.
