data_PCOD8236136
_publ_section_title
;
Structure prediction by ZEFSAII (Michael W. Deem and Ramdas Pophale) SiO2 
 PCOD8236136
Probable space group: P N N M
;
_chemical_formula_sum "Si O2"
_cell_formula_units_Z 56
_cell_length_a 16.645071
_cell_length_b 19.561627
_cell_length_c 9.145773
_cell_angle_alpha 90.000000
_cell_angle_beta 90.000000
_cell_angle_gamma 90.000000
_cell_volume 2977.906402
_symmetry_space_group_name_H-M "P N N M"
_symmetry_group_IT_number 58
_symmetry_cell_setting 'orthorhombic'
loop_
_space_group_symop_operation_xyz
x,y,z
-x,-y,z
1/2+x,1/2-y,1/2-z
1/2-x,1/2+y,1/2-z
-x,-y,-z
x,y,-z
1/2-x,1/2+y,1/2+z
1/2+x,1/2-y,1/2+z
loop_
_atom_site_type_symbol
_atom_site_label
_atom_site_fract_x
_atom_site_fract_y
_atom_site_fract_z
Si Si1 0.465327 0.343812 0.327955
Si Si2 0.560418 0.941257 0.171434
Si Si3 0.266206 0.233341 0.832504
Si Si4 0.860070 0.873527 0.828898
Si Si5 0.238810 0.511899 0.672883
Si Si6 0.192244 0.885229 0.669760
Si Si7 0.579711 0.807919 0.670228
O O1 0.452955 0.357363 0.500000
O O2 0.549441 0.373779 0.266013
O O3 0.395543 0.382918 0.242240
O O4 0.465993 0.262794 0.295048
O O5 0.535210 0.870805 0.250614
O O6 0.500000 0.000000 0.226074
O O7 0.650949 0.961226 0.215195
O O8 0.551317 0.929196 0.000000
O O9 0.180373 0.199903 0.794690
O O10 0.261181 0.314046 0.805577
O O11 0.329991 0.197312 0.728563
O O12 0.291193 0.216844 0.000000
O O13 0.805567 0.934923 0.766105
O O14 0.867208 0.884194 0.000000
O O15 0.246134 0.500835 0.500000
O O16 0.252226 0.440623 0.753188
O O17 0.181556 0.902589 0.500000
O O18 0.582221 0.823769 0.500000
#
# Coordination Sequence:
#
# PCOD8236136 Si02
#       7
#     8   8   8   8   8   8   8
#     4   9  19  35  55  80 107 139 184 229 270 319
#     4  10  21  37  57  80 108 146 186 223 269 331
#     4   9  17  34  57  76 100 141 187 223 265 327
#     4   9  17  33  58  80  99 139 192 227 258 319
#     4  10  20  36  57  78 105 144 185 224 267 323
#     4  10  21  35  54  80 113 147 178 223 277 325
#     4  10  19  32  53  80 108 136 171 225 279 320
#
# _framework density 18.805157000000001
#
# number of rings (size 3 to 8) (size 9 to 14) (size 15 to 20)
#    0.000    2.429    1.429    0.857    0.000    3.714 
#    0.000    5.714    0.000    0.000    0.000    0.000 
#    0.000    0.000    0.000    0.000    0.000    0.000 
#
# Total GULP energy -694371.692722 kJ/mol
# GULP energy per Si atom -12399.494513 kJ/mol
# Density = 1.876236 g / cm^3
# Si number density = 18.805157 Si / 1000 Ang^3
#
#
#
# Elastic Constant Matrix: (Units=GPa)
#
#
# Indices 1 2 3 4 5 6 
#
# 1 57.4636 23.4501 23.6962 0.0000 0.0000 0.0000
# 2 23.4501 90.1151 35.5249 0.0000 0.0000 0.0000
# 3 23.6962 35.5249 48.1281 0.0000 0.0000 0.0000
# 4 0.0000 0.0000 0.0000 33.9059 0.0000 0.0000
# 5 0.0000 0.0000 0.0000 0.0000 18.3788 0.0000
# 6 0.0000 0.0000 0.0000 0.0000 0.0000 30.1874
#
#
#
# Elastic Compliance Matrix: (Units=1/GPa)
#
#
# Indices 1 2 3 4 5 6 
#
# 1 0.022104 -0.002062 -0.009361 0.000000 0.000000 0.000000
# 2 -0.002062 0.015843 -0.010680 0.000000 0.000000 0.000000
# 3 -0.009361 -0.010680 0.033270 0.000000 0.000000 0.000000
# 4 0.000000 0.000000 0.000000 0.029493 0.000000 0.000000
# 5 0.000000 0.000000 0.000000 0.000000 0.054410 0.000000
# 6 0.000000 0.000000 0.000000 0.000000 0.000000 0.033126
#
#
# Mechanical properties :
#
#
# Convention : Reuss Voigt Hill
#
# Bulk Modulus (GPa) = 37.01996 40.11658 38.56827
# Shear Modulus (GPa) = 20.70766 24.03012 22.36889
#
# Velocity S-wave (km/s) = 3.32199 3.57858 3.45267
# Velocity P-wave (km/s) = 5.86881 6.20113 6.03726
#
# Compressibility (1/GPa) = 0.02701245
#
# Stress axis : x y z
#
# Youngs Moduli (GPa) = 45.24078 63.11761 30.05723
#
# Poissons Ratio (x) = 0.13012 0.28137
# Poissons Ratio (y) = 0.09327 0.32100
# Poissons Ratio (z) = 0.42351 0.67407
#
# Static dielectric constant tensor:
#      x y z
#    x 3.499400 0.000000 0.000000 
#    y 0.000000 3.572960 0.000000 
#    z 0.000000 0.000000 3.288580 
# 
# 
# High freq. dielectric constant tensor:
#      x y z
#    x 1.723740 0.000000 0.000000 
#    y 0.000000 1.738630 0.000000 
#    z 0.000000 0.000000 1.710950 
# 
# From -- ./inp_files/6413.got.cif
#   From: 2010.06.25/outbox.cif.g09.slc.cpg/sg58_4_cif.got.tgz:6413.got - 2010.06.26 21:38:00.
