data_PCOD8236659
_publ_section_title
;
Structure prediction by ZEFSAII (Michael W. Deem and Ramdas Pophale) SiO2 
 PCOD8236659
Probable space group: P N N M
;
_chemical_formula_sum "Si O2"
_cell_formula_units_Z 64
_cell_length_a 30.765150
_cell_length_b 11.916110
_cell_length_c 8.892105
_cell_angle_alpha 90.000000
_cell_angle_beta 90.000000
_cell_angle_gamma 90.000000
_cell_volume 3259.853799
_symmetry_space_group_name_H-M "P N N M"
_symmetry_group_IT_number 58
_symmetry_cell_setting 'orthorhombic'
loop_
_space_group_symop_operation_xyz
x,y,z
-x,-y,z
1/2+x,1/2-y,1/2-z
1/2-x,1/2+y,1/2-z
-x,-y,-z
x,y,-z
1/2-x,1/2+y,1/2+z
1/2+x,1/2-y,1/2+z
loop_
_atom_site_type_symbol
_atom_site_label
_atom_site_fract_x
_atom_site_fract_y
_atom_site_fract_z
Si Si1 0.797583 0.730994 0.823831
Si Si2 0.370209 0.373354 0.677562
Si Si3 0.080325 0.490193 0.328975
Si Si4 0.446353 0.238234 0.826757
Si Si5 0.831845 0.492381 0.826236
Si Si6 0.456136 0.752994 0.172200
Si Si7 0.878142 0.871971 0.821955
Si Si8 0.701839 0.772744 0.177761
O O1 0.802498 0.599680 0.788475
O O2 0.837037 0.803569 0.751939
O O3 0.750968 0.767712 0.757729
O O4 0.798413 0.753722 0.000000
O O5 0.365103 0.367273 0.500000
O O6 0.411944 0.301163 0.723333
O O7 0.375886 0.500350 0.735403
O O8 0.326363 0.325853 0.749861
O O9 0.098513 0.488923 0.500000
O O10 0.055051 0.605207 0.296769
O O11 0.118895 0.475647 0.210199
O O12 0.048134 0.386390 0.301558
O O13 0.494604 0.280690 0.784585
O O14 0.435238 0.264868 0.000000
O O15 0.817623 0.392491 0.718865
O O16 0.827907 0.456208 0.000000
O O17 0.423344 0.681980 0.272170
O O18 0.446439 0.722388 0.000000
O O19 0.876754 0.866474 0.000000
O O20 0.700635 0.756234 0.000000
#
# Coordination Sequence:
#
# PCOD8236659 Si02
#       8
#     8   8   8   8   8   8   8   8
#     4   9  21  40  61  85 117 155 192 236 292 346
#     4  11  24  40  60  85 116 154 200 245 289 346
#     4  10  19  35  59  88 120 153 190 235 290 347
#     4  10  21  38  60  85 120 157 191 238 295 347
#     4  11  21  37  62  90 120 151 192 242 289 343
#     4  10  21  37  60  90 117 151 197 242 288 347
#     4  10  22  42  61  81 115 158 195 240 294 345
#     4  11  23  40  62  87 119 157 195 238 295 349
#
# _framework density 19.632783
#
# number of rings (size 3 to 8) (size 9 to 14) (size 15 to 20)
#    0.000    1.750    2.500    1.500    1.750    3.500 
#    0.000    5.625    0.000    2.250    0.000    0.000 
#    0.000    0.000    0.000    0.000    0.000    0.000 
#
# Total GULP energy -793720.274717 kJ/mol
# GULP energy per Si atom -12401.879292 kJ/mol
# Density = 1.958810 g / cm^3
# Si number density = 19.632783 Si / 1000 Ang^3
#
#
#
# Elastic Constant Matrix: (Units=GPa)
#
#
# Indices 1 2 3 4 5 6 
#
# 1 109.6695 29.9466 22.8232 0.0000 0.0000 0.0000
# 2 29.9466 96.8590 31.2158 0.0000 0.0000 0.0000
# 3 22.8232 31.2158 44.0940 0.0000 0.0000 0.0000
# 4 0.0000 0.0000 0.0000 22.3773 0.0000 0.0000
# 5 0.0000 0.0000 0.0000 0.0000 27.4891 0.0000
# 6 0.0000 0.0000 0.0000 0.0000 0.0000 21.5300
#
#
#
# Elastic Compliance Matrix: (Units=1/GPa)
#
#
# Indices 1 2 3 4 5 6 
#
# 1 0.010492 -0.001935 -0.004061 0.000000 0.000000 0.000000
# 2 -0.001935 0.013733 -0.008720 0.000000 0.000000 0.000000
# 3 -0.004061 -0.008720 0.030954 0.000000 0.000000 0.000000
# 4 0.000000 0.000000 0.000000 0.044688 0.000000 0.000000
# 5 0.000000 0.000000 0.000000 0.000000 0.036378 0.000000
# 6 0.000000 0.000000 0.000000 0.000000 0.000000 0.046447
#
#
# Mechanical properties :
#
#
# Convention : Reuss Voigt Hill
#
# Bulk Modulus (GPa) = 38.84027 46.51042 42.67535
# Shear Modulus (GPa) = 22.65449 25.38839 24.02144
#
# Velocity S-wave (km/s) = 3.40061 3.59996 3.50170
# Velocity P-wave (km/s) = 5.93677 6.40478 6.17521
#
# Compressibility (1/GPa) = 0.02574647
#
# Stress axis : x y z
#
# Youngs Moduli (GPa) = 95.31280 72.81710 32.30582
#
# Poissons Ratio (x) = 0.14091 0.13118
# Poissons Ratio (y) = 0.18445 0.28172
# Poissons Ratio (z) = 0.38703 0.63500
#
# Static dielectric constant tensor:
#      x y z
#    x 3.782030 0.000000 0.000000 
#    y 0.000000 3.677290 0.000000 
#    z 0.000000 0.000000 3.401360 
# 
# 
# High freq. dielectric constant tensor:
#      x y z
#    x 1.774680 0.000000 0.000000 
#    y 0.000000 1.771710 0.000000 
#    z 0.000000 0.000000 1.747950 
# 
# From -- ./inp_files/10942.got.cif
#   From: 2010.06.25/outbox.cif.g09.slc.cpg/sg58_6_cif.got.tgz:10942.got - 2010.06.26 21:38:00.
