data_PCOD8236528
_publ_section_title
;
Structure prediction by ZEFSAII (Michael W. Deem and Ramdas Pophale) SiO2 
 PCOD8236528
Probable space group: P N N M
;
_chemical_formula_sum "Si O2"
_cell_formula_units_Z 64
_cell_length_a 24.472810
_cell_length_b 14.625260
_cell_length_c 8.985704
_cell_angle_alpha 90.000000
_cell_angle_beta 90.000000
_cell_angle_gamma 90.000000
_cell_volume 3216.174041
_symmetry_space_group_name_H-M "P N N M"
_symmetry_group_IT_number 58
_symmetry_cell_setting 'orthorhombic'
loop_
_space_group_symop_operation_xyz
x,y,z
-x,-y,z
1/2+x,1/2-y,1/2-z
1/2-x,1/2+y,1/2-z
-x,-y,-z
x,y,-z
1/2-x,1/2+y,1/2+z
1/2+x,1/2-y,1/2+z
loop_
_atom_site_type_symbol
_atom_site_label
_atom_site_fract_x
_atom_site_fract_y
_atom_site_fract_z
Si Si1 0.519557 0.401650 0.175370
Si Si2 0.556380 0.951394 0.325600
Si Si3 0.874077 0.930607 0.831605
Si Si4 0.167294 0.490878 0.322626
Si Si5 0.656976 0.627055 0.333744
Si Si6 0.742642 0.365952 0.323680
Si Si7 0.737415 0.158522 0.325116
Si Si8 0.943443 0.241762 0.828344
O O1 0.500000 0.500000 0.238727
O O2 0.580530 0.380878 0.232932
O O3 0.481782 0.319428 0.227092
O O4 0.519785 0.403060 0.000000
O O5 0.569022 0.962511 0.500000
O O6 0.605978 0.995460 0.234734
O O7 0.549728 0.846061 0.279843
O O8 0.500000 0.000000 0.280420
O O9 0.814022 0.909238 0.767704
O O10 0.882889 0.039652 0.823317
O O11 0.879898 0.893842 0.000000
O O12 0.167154 0.485782 0.500000
O O13 0.206443 0.573546 0.263259
O O14 0.188909 0.394486 0.258350
O O15 0.682896 0.632190 0.500000
O O16 0.704549 0.613439 0.213827
O O17 0.619872 0.715322 0.299912
O O18 0.745853 0.367188 0.500000
O O19 0.743177 0.262192 0.264422
O O20 0.725919 0.154127 0.500000
O O21 0.959479 0.225985 0.000000
#
# Coordination Sequence:
#
# PCOD8236528 Si02
#       8
#     8   8   8   8   8   8   8   8
#     4  11  23  36  53  84 122 152 189 241 296 351
#     4  10  23  43  64  88 119 154 198 248 298 352
#     4  10  19  36  59  79 111 154 194 234 286 349
#     4  11  22  41  65  89 120 156 199 245 294 349
#     4  10  19  34  58  85 113 147 196 245 286 341
#     4   9  20  38  58  84 117 154 191 232 288 351
#     4  11  22  36  59  88 119 155 193 234 290 351
#     4  10  21  38  62  87 113 156 205 246 293 355
#
# _framework density 19.899419999999999
#
# number of rings (size 3 to 8) (size 9 to 14) (size 15 to 20)
#    0.000    1.750    2.500    1.875    0.000    3.250 
#    0.000    8.125    0.000    0.000    0.000    0.000 
#    0.000    0.000    0.000    0.000    0.000    0.000 
#
# Total GULP energy -793663.170854 kJ/mol
# GULP energy per Si atom -12400.987045 kJ/mol
# Density = 1.985413 g / cm^3
# Si number density = 19.899420 Si / 1000 Ang^3
#
#
#
# Elastic Constant Matrix: (Units=GPa)
#
#
# Indices 1 2 3 4 5 6 
#
# 1 132.6769 55.0831 46.9777 0.0000 0.0000 0.0000
# 2 55.0831 105.6803 36.9348 0.0000 0.0000 0.0000
# 3 46.9777 36.9348 63.3751 0.0000 0.0000 0.0000
# 4 0.0000 0.0000 0.0000 24.2543 0.0000 0.0000
# 5 0.0000 0.0000 0.0000 0.0000 34.2338 0.0000
# 6 0.0000 0.0000 0.0000 0.0000 0.0000 32.1362
#
#
#
# Elastic Compliance Matrix: (Units=1/GPa)
#
#
# Indices 1 2 3 4 5 6 
#
# 1 0.011270 -0.003710 -0.006192 0.000000 0.000000 0.000000
# 2 -0.003710 0.013104 -0.004887 0.000000 0.000000 0.000000
# 3 -0.006192 -0.004887 0.023217 0.000000 0.000000 0.000000
# 4 0.000000 0.000000 0.000000 0.041230 0.000000 0.000000
# 5 0.000000 0.000000 0.000000 0.000000 0.029211 0.000000
# 6 0.000000 0.000000 0.000000 0.000000 0.000000 0.031118
#
#
# Mechanical properties :
#
#
# Convention : Reuss Voigt Hill
#
# Bulk Modulus (GPa) = 55.51410 64.41370 59.96390
# Shear Modulus (GPa) = 27.06644 28.97400 28.02022
#
# Velocity S-wave (km/s) = 3.69204 3.81993 3.75653
# Velocity P-wave (km/s) = 6.79211 7.20387 7.00102
#
# Compressibility (1/GPa) = 0.01801344
#
# Stress axis : x y z
#
# Youngs Moduli (GPa) = 88.73340 76.31106 43.07238
#
# Poissons Ratio (x) = 0.28312 0.26669
# Poissons Ratio (y) = 0.32921 0.21049
# Poissons Ratio (z) = 0.54940 0.37293
#
# Static dielectric constant tensor:
#      x y z
#    x 3.564930 0.000000 0.000000 
#    y 0.000000 3.773900 0.000000 
#    z 0.000000 0.000000 3.389450 
# 
# 
# High freq. dielectric constant tensor:
#      x y z
#    x 1.779670 0.000000 0.000000 
#    y 0.000000 1.779360 0.000000 
#    z 0.000000 0.000000 1.757360 
# 
# From -- ./inp_files/9940.got.cif
#   From: 2010.06.25/outbox.cif.g09.slc.cpg/sg58_5_cif.got.tgz:9940.got - 2010.06.26 21:38:00.
