data_PCOD8236164
_publ_section_title
;
Structure prediction by ZEFSAII (Michael W. Deem and Ramdas Pophale) SiO2 
 PCOD8236164
Probable space group: P N N M
;
_chemical_formula_sum "Si O2"
_cell_formula_units_Z 64
_cell_length_a 20.398311
_cell_length_b 19.433359
_cell_length_c 9.058282
_cell_angle_alpha 90.000000
_cell_angle_beta 90.000000
_cell_angle_gamma 90.000000
_cell_volume 3590.772740
_symmetry_space_group_name_H-M "P N N M"
_symmetry_group_IT_number 58
_symmetry_cell_setting 'orthorhombic'
loop_
_space_group_symop_operation_xyz
x,y,z
-x,-y,z
1/2+x,1/2-y,1/2-z
1/2-x,1/2+y,1/2-z
-x,-y,-z
x,y,-z
1/2-x,1/2+y,1/2+z
1/2+x,1/2-y,1/2+z
loop_
_atom_site_type_symbol
_atom_site_label
_atom_site_fract_x
_atom_site_fract_y
_atom_site_fract_z
Si Si1 0.191258 0.296529 0.326566
Si Si2 0.270673 0.070743 0.825749
Si Si3 0.573183 0.299860 0.169332
Si Si4 0.119117 0.069403 0.827559
Si Si5 0.121694 0.933719 0.330568
Si Si6 0.315648 0.205180 0.673772
Si Si7 0.273298 0.931724 0.327287
Si Si8 0.073964 0.785669 0.330953
O O1 0.191607 0.312541 0.500000
O O2 0.127465 0.254107 0.276427
O O3 0.255546 0.253994 0.279207
O O4 0.187120 0.367561 0.238193
O O5 0.194743 0.080990 0.782875
O O6 0.311370 0.133336 0.758580
O O7 0.297795 0.000750 0.753446
O O8 0.281554 0.067332 0.000000
O O9 0.576181 0.369445 0.262207
O O10 0.501957 0.265375 0.190055
O O11 0.586250 0.319989 0.000000
O O12 0.093764 0.996724 0.764770
O O13 0.108702 0.068046 0.000000
O O14 0.113220 0.954782 0.500000
O O15 0.197193 0.918866 0.292155
O O16 0.081092 0.865923 0.289642
O O17 0.315428 0.191153 0.500000
O O18 0.383607 0.239921 0.720759
O O19 0.287822 0.938425 0.500000
O O20 0.097285 0.773612 0.500000
#
# Coordination Sequence:
#
# PCOD8236164 Si02
#       8
#     8   8   8   8   8   8   8   8
#     4  10  20  34  54  80 107 140 178 219 267 316
#     4  10  20  34  54  80 110 141 177 221 268 321
#     4  10  21  37  55  75 107 147 184 220 263 322
#     4  10  20  32  50  76 107 142 180 221 264 310
#     4   9  18  32  50  73 104 141 181 217 257 314
#     4  11  21  34  56  82 109 140 178 226 272 316
#     4  10  19  32  54  81 108 138 175 222 269 314
#     4  10  21  37  55  77 106 145 186 221 265 320
#
# _framework density 17.823461000000002
#
# number of rings (size 3 to 8) (size 9 to 14) (size 15 to 20)
#    0.000    2.000    2.500    1.500    0.000    4.000 
#    0.000    2.500    0.000    0.750    0.000    5.250 
#    0.000    0.000    0.000    0.000    0.000    0.000 
#
# Total GULP energy -793904.507474 kJ/mol
# GULP energy per Si atom -12404.757929 kJ/mol
# Density = 1.778289 g / cm^3
# Si number density = 17.823461 Si / 1000 Ang^3
#
#
#
# Elastic Constant Matrix: (Units=GPa)
#
#
# Indices 1 2 3 4 5 6 
#
# 1 73.5536 42.6868 29.1633 0.0000 0.0000 0.0000
# 2 42.6868 115.4874 51.1607 0.0000 0.0000 0.0000
# 3 29.1633 51.1607 71.5418 0.0000 0.0000 0.0000
# 4 0.0000 0.0000 0.0000 36.8620 0.0000 0.0000
# 5 0.0000 0.0000 0.0000 0.0000 21.9163 0.0000
# 6 0.0000 0.0000 0.0000 0.0000 0.0000 22.2588
#
#
#
# Elastic Compliance Matrix: (Units=1/GPa)
#
#
# Indices 1 2 3 4 5 6 
#
# 1 0.017978 -0.004974 -0.003771 0.000000 0.000000 0.000000
# 2 -0.004974 0.014050 -0.008020 0.000000 0.000000 0.000000
# 3 -0.003771 -0.008020 0.021250 0.000000 0.000000 0.000000
# 4 0.000000 0.000000 0.000000 0.027128 0.000000 0.000000
# 5 0.000000 0.000000 0.000000 0.000000 0.045628 0.000000
# 6 0.000000 0.000000 0.000000 0.000000 0.000000 0.044926
#
#
# Mechanical properties :
#
#
# Convention : Reuss Voigt Hill
#
# Bulk Modulus (GPa) = 50.63945 56.28939 53.46442
# Shear Modulus (GPa) = 23.68837 25.37888 24.53363
#
# Velocity S-wave (km/s) = 3.64958 3.77756 3.71412
# Velocity P-wave (km/s) = 6.79945 7.11876 6.96094
#
# Compressibility (1/GPa) = 0.01974745
#
# Stress axis : x y z
#
# Youngs Moduli (GPa) = 55.62480 71.17243 47.05817
#
# Poissons Ratio (x) = 0.35403 0.17746
# Poissons Ratio (y) = 0.27670 0.37740
# Poissons Ratio (z) = 0.20977 0.57080
#
# Static dielectric constant tensor:
#      x y z
#    x 3.102180 0.000000 0.000000 
#    y 0.000000 3.282170 0.000000 
#    z 0.000000 0.000000 3.259340 
# 
# 
# High freq. dielectric constant tensor:
#      x y z
#    x 1.663100 0.000000 0.000000 
#    y 0.000000 1.691340 0.000000 
#    z 0.000000 0.000000 1.694320 
# 
# From -- ./inp_files/8243.got.cif
#   From: 2010.06.25/outbox.cif.g09.slc.cpg/sg58_5_cif.got.tgz:8243.got - 2010.06.26 21:38:00.
