data_PCOD8236207
_publ_section_title
;
Structure prediction by ZEFSAII (Michael W. Deem and Ramdas Pophale) SiO2 
 PCOD8236207
Probable space group: P N N M
;
_chemical_formula_sum "Si O2"
_cell_formula_units_Z 64
_cell_length_a 14.364710
_cell_length_b 9.949743
_cell_length_c 23.561565
_cell_angle_alpha 90.000000
_cell_angle_beta 90.000000
_cell_angle_gamma 90.000000
_cell_volume 3367.540748
_symmetry_space_group_name_H-M "P N N M"
_symmetry_group_IT_number 58
_symmetry_cell_setting 'orthorhombic'
loop_
_space_group_symop_operation_xyz
x,y,z
-x,-y,z
1/2+x,1/2-y,1/2-z
1/2-x,1/2+y,1/2-z
-x,-y,-z
x,y,-z
1/2-x,1/2+y,1/2+z
1/2+x,1/2-y,1/2+z
loop_
_atom_site_type_symbol
_atom_site_label
_atom_site_fract_x
_atom_site_fract_y
_atom_site_fract_z
Si Si1 0.394748 0.480228 0.878169
Si Si2 0.309186 0.428750 0.760532
Si Si3 0.858703 0.770252 0.753037
Si Si4 0.584812 0.782554 0.935897
Si Si5 0.031580 0.847000 0.819519
Si Si6 0.283308 0.981463 0.935700
Si Si7 0.418954 0.395249 0.438470
Si Si8 0.602439 0.231961 0.874824
O O1 0.500000 0.500000 0.856034
O O2 0.336300 0.424251 0.826030
O O3 0.385769 0.372433 0.928490
O O4 0.364094 0.625811 0.902581
O O5 0.209172 0.356807 0.759167
O O6 0.305965 0.585172 0.739772
O O7 0.380456 0.339587 0.722944
O O8 0.905881 0.759348 0.691754
O O9 0.944453 0.758103 0.797691
O O10 0.497549 0.820121 0.896380
O O11 0.673405 0.874120 0.920046
O O12 0.552569 0.806949 0.000000
O O13 0.062381 0.799310 0.883531
O O14 0.000000 0.000000 0.823185
O O15 0.172957 0.985304 0.927646
O O16 0.319887 0.874773 0.890393
O O17 0.311461 0.940484 0.000000
O O18 0.500000 0.500000 0.444931
O O19 0.410235 0.317085 0.500000
#
# Coordination Sequence:
#
# PCOD8236207 Si02
#       8
#     8   8   8   8   8   8   8   8
#     4   9  19  33  50  73 105 142 176 209 251 312
#     4  10  19  35  54  74 104 135 170 216 261 307
#     4  10  21  35  54  78 101 135 176 213 260 314
#     4  10  20  33  52  80 111 141 173 209 253 310
#     4   9  17  32  52  73 100 135 170 203 252 313
#     4  10  20  33  52  79 107 136 174 218 261 304
#     4   9  18  32  50  74 102 132 171 217 257 298
#     4  10  19  33  50  75 110 142 171 207 258 319
#
# _framework density 19.004968000000002
#
# number of rings (size 3 to 8) (size 9 to 14) (size 15 to 20)
#    0.000    2.375    0.000    4.125    0.000    7.750 
#    0.000    1.875    0.000    0.000    0.000    2.625 
#    0.000   22.000    0.000    0.000    0.000    0.000 
#
# Total GULP energy -793098.450799 kJ/mol
# GULP energy per Si atom -12392.163294 kJ/mol
# Density = 1.896171 g / cm^3
# Si number density = 19.004968 Si / 1000 Ang^3
#
#
#
# Elastic Constant Matrix: (Units=GPa)
#
#
# Indices 1 2 3 4 5 6 
#
# 1 113.9776 46.4893 56.8757 0.0000 0.0000 0.0000
# 2 46.4893 76.5169 37.1881 0.0000 0.0000 0.0000
# 3 56.8757 37.1881 85.7831 0.0000 0.0000 0.0000
# 4 0.0000 0.0000 0.0000 23.5720 0.0000 0.0000
# 5 0.0000 0.0000 0.0000 0.0000 28.5926 0.0000
# 6 0.0000 0.0000 0.0000 0.0000 0.0000 26.8623
#
#
#
# Elastic Compliance Matrix: (Units=1/GPa)
#
#
# Indices 1 2 3 4 5 6 
#
# 1 0.014625 -0.005287 -0.007405 0.000000 0.000000 0.000000
# 2 -0.005287 0.018469 -0.004501 0.000000 0.000000 0.000000
# 3 -0.007405 -0.004501 0.018518 0.000000 0.000000 0.000000
# 4 0.000000 0.000000 0.000000 0.042423 0.000000 0.000000
# 5 0.000000 0.000000 0.000000 0.000000 0.034974 0.000000
# 6 0.000000 0.000000 0.000000 0.000000 0.000000 0.037227
#
#
# Mechanical properties :
#
#
# Convention : Reuss Voigt Hill
#
# Bulk Modulus (GPa) = 58.05061 61.93151 59.99106
# Shear Modulus (GPa) = 24.22905 24.85370 24.54138
#
# Velocity S-wave (km/s) = 3.57442 3.62020 3.59738
# Velocity P-wave (km/s) = 6.90265 7.08041 6.99210
#
# Compressibility (1/GPa) = 0.01722635
#
# Stress axis : x y z
#
# Youngs Moduli (GPa) = 68.37540 54.14536 54.00132
#
# Poissons Ratio (x) = 0.28627 0.39987
# Poissons Ratio (y) = 0.36150 0.24307
# Poissons Ratio (z) = 0.50630 0.24371
#
# Static dielectric constant tensor:
#      x y z
#    x 3.501610 0.000000 0.000000 
#    y 0.000000 3.394580 0.000000 
#    z 0.000000 0.000000 3.929140 
# 
# 
# High freq. dielectric constant tensor:
#      x y z
#    x 1.735330 0.000000 0.000000 
#    y 0.000000 1.704090 0.000000 
#    z 0.000000 0.000000 1.747330 
# 
# From -- ./inp_files/32243.got.cif
#   From: 2010.06.25/outbox.cif.g09.slc.cpg/sg58_17_cif.got.tgz:32243.got - 2010.06.26 21:38:00.
