data_PCOD8236569
_publ_section_title
;
Structure prediction by ZEFSAII (Michael W. Deem and Ramdas Pophale) SiO2 
 PCOD8236569
Probable space group: P N N M
;
_chemical_formula_sum "Si O2"
_cell_formula_units_Z 64
_cell_length_a 19.072406
_cell_length_b 8.871214
_cell_length_c 20.771285
_cell_angle_alpha 90.000000
_cell_angle_beta 90.000000
_cell_angle_gamma 90.000000
_cell_volume 3514.405773
_symmetry_space_group_name_H-M "P N N M"
_symmetry_group_IT_number 58
_symmetry_cell_setting 'orthorhombic'
loop_
_space_group_symop_operation_xyz
x,y,z
-x,-y,z
1/2+x,1/2-y,1/2-z
1/2-x,1/2+y,1/2-z
-x,-y,-z
x,y,-z
1/2-x,1/2+y,1/2+z
1/2+x,1/2-y,1/2+z
loop_
_atom_site_type_symbol
_atom_site_label
_atom_site_fract_x
_atom_site_fract_y
_atom_site_fract_z
Si Si1 0.291936 0.915397 0.206452
Si Si2 0.929112 0.567016 0.876694
Si Si3 0.662035 0.586872 0.626470
Si Si4 0.428828 0.063493 0.233528
Si Si5 0.059938 0.117169 0.072310
Si Si6 0.925563 0.082644 0.255545
Si Si7 0.702092 0.432010 0.813095
Si Si8 0.302125 0.097284 0.426283
O O1 0.241388 0.951712 0.146376
O O2 0.303413 0.737121 0.214408
O O3 0.258841 0.974993 0.272426
O O4 0.364022 0.002282 0.191642
O O5 0.919132 0.501801 0.805342
O O6 0.939632 0.747387 0.876217
O O7 0.860321 0.533145 0.919090
O O8 0.000000 0.500000 0.908171
O O9 0.634938 0.468574 0.573591
O O10 0.610285 0.565934 0.686644
O O11 0.657805 0.754234 0.598534
O O12 0.433438 0.242037 0.229541
O O13 0.500000 0.000000 0.202540
O O14 0.046922 0.178141 0.000000
O O15 0.000000 0.000000 0.093320
O O16 0.874421 0.008413 0.309359
O O17 0.000000 0.000000 0.257727
O O18 0.731091 0.433811 0.886147
O O19 0.278629 0.112633 0.500000
#
# Coordination Sequence:
#
# PCOD8236569 Si02
#       8
#     8   8   8   8   8   8   8   8
#     4  10  19  35  53  80 109 142 180 233 280 333
#     4  11  23  35  51  74 107 144 190 230 272 318
#     4  10  21  34  56  79 110 145 185 225 279 327
#     4  11  22  35  54  81 110 142 181 223 284 345
#     4  11  24  37  51  74 108 152 195 229 267 317
#     4  11  22  36  57  83 113 143 181 233 296 346
#     4  10  21  35  56  82 110 146 188 230 290 330
#     4  11  21  38  57  79 114 152 195 230 270 330
#
# _framework density 18.210758999999999
#
# number of rings (size 3 to 8) (size 9 to 14) (size 15 to 20)
#    0.000    1.375    2.500    4.125    8.750    3.000 
#    0.000    0.000    0.000    0.375    0.000    0.000 
#    0.000   17.000    0.000    0.000    0.000    0.000 
#
# Total GULP energy -793607.924182 kJ/mol
# GULP energy per Si atom -12400.123815 kJ/mol
# Density = 1.816931 g / cm^3
# Si number density = 18.210759 Si / 1000 Ang^3
#
#
#
# Elastic Constant Matrix: (Units=GPa)
#
#
# Indices 1 2 3 4 5 6 
#
# 1 142.7797 67.2978 38.8815 0.0000 0.0000 0.0000
# 2 67.2978 147.6216 34.9953 0.0000 0.0000 0.0000
# 3 38.8815 34.9953 62.4933 0.0000 0.0000 0.0000
# 4 0.0000 0.0000 0.0000 15.9132 0.0000 0.0000
# 5 0.0000 0.0000 0.0000 0.0000 18.7813 0.0000
# 6 0.0000 0.0000 0.0000 0.0000 0.0000 35.9205
#
#
#
# Elastic Compliance Matrix: (Units=1/GPa)
#
#
# Indices 1 2 3 4 5 6 
#
# 1 0.009766 -0.003473 -0.004131 0.000000 0.000000 0.000000
# 2 -0.003473 0.009046 -0.002905 0.000000 0.000000 0.000000
# 3 -0.004131 -0.002905 0.020199 0.000000 0.000000 0.000000
# 4 0.000000 0.000000 0.000000 0.062841 0.000000 0.000000
# 5 0.000000 0.000000 0.000000 0.000000 0.053244 0.000000
# 6 0.000000 0.000000 0.000000 0.000000 0.000000 0.027839
#
#
# Mechanical properties :
#
#
# Convention : Reuss Voigt Hill
#
# Bulk Modulus (GPa) = 55.57853 70.58265 63.08059
# Shear Modulus (GPa) = 23.81520 28.23767 26.02643
#
# Velocity S-wave (km/s) = 3.62021 3.94204 3.78455
# Velocity P-wave (km/s) = 6.93256 7.71767 7.33563
#
# Compressibility (1/GPa) = 0.01799256
#
# Stress axis : x y z
#
# Youngs Moduli (GPa) = 102.40039 110.54836 49.50780
#
# Poissons Ratio (x) = 0.38389 0.20453
# Poissons Ratio (y) = 0.35559 0.14382
# Poissons Ratio (z) = 0.42304 0.32114
#
# Static dielectric constant tensor:
#      x y z
#    x 3.656860 0.000000 0.000000 
#    y 0.000000 3.494160 0.000000 
#    z 0.000000 0.000000 3.036930 
# 
# 
# High freq. dielectric constant tensor:
#      x y z
#    x 1.710470 0.000000 0.000000 
#    y 0.000000 1.723220 0.000000 
#    z 0.000000 0.000000 1.660200 
# 
# From -- ./inp_files/30294.got.cif
#   From: 2010.06.25/outbox.cif.g09.slc.cpg/sg58_16_cif.got.tgz:30294.got - 2010.06.26 21:38:00.
