data_PCOD8236287
_publ_section_title
;
Structure prediction by ZEFSAII (Michael W. Deem and Ramdas Pophale) SiO2 
 PCOD8236287
Probable space group: P N N M
;
_chemical_formula_sum "Si O2"
_cell_formula_units_Z 64
_cell_length_a 11.131933
_cell_length_b 34.889487
_cell_length_c 8.830379
_cell_angle_alpha 90.000000
_cell_angle_beta 90.000000
_cell_angle_gamma 90.000000
_cell_volume 3429.608221
_symmetry_space_group_name_H-M "P N N M"
_symmetry_group_IT_number 58
_symmetry_cell_setting 'orthorhombic'
loop_
_space_group_symop_operation_xyz
x,y,z
-x,-y,z
1/2+x,1/2-y,1/2-z
1/2-x,1/2+y,1/2-z
-x,-y,-z
x,y,-z
1/2-x,1/2+y,1/2+z
1/2+x,1/2-y,1/2+z
loop_
_atom_site_type_symbol
_atom_site_label
_atom_site_fract_x
_atom_site_fract_y
_atom_site_fract_z
Si Si1 0.366883 0.729534 0.822596
Si Si2 0.642320 0.725167 0.178811
Si Si3 0.868601 0.144644 0.826867
Si Si4 0.870611 0.998233 0.175901
Si Si5 0.779082 0.424936 0.673818
Si Si6 0.730901 0.070401 0.179392
Si Si7 0.997021 0.543505 0.175653
Si Si8 0.359201 0.650797 0.329105
O O1 0.506225 0.739265 0.767792
O O2 0.257601 0.752661 0.745860
O O3 0.340634 0.685202 0.787641
O O4 0.357798 0.736995 0.000000
O O5 0.660588 0.681250 0.224963
O O6 0.648862 0.729201 0.000000
O O7 0.796205 0.108527 0.759731
O O8 0.007960 0.133345 0.817245
O O9 0.831280 0.153914 0.000000
O O10 0.788768 0.031545 0.249134
O O11 0.825030 0.955534 0.201350
O O12 0.881543 0.008559 0.000000
O O13 0.000000 0.000000 0.255088
O O14 0.825539 0.427467 0.500000
O O15 0.732877 0.382702 0.712920
O O16 0.879008 0.435260 0.795062
O O17 0.595519 0.070332 0.236096
O O18 0.734453 0.070645 0.000000
O O19 0.000000 0.500000 0.240895
O O20 0.965146 0.542757 0.000000
O O21 0.335886 0.665920 0.500000
#
# Coordination Sequence:
#
# PCOD8236287 Si02
#       8
#     8   8   8   8   8   8   8   8
#     4  10  21  38  61  88 117 151 189 229 277 335
#     4  10  21  38  61  88 117 151 189 229 277 335
#     4   9  18  34  57  85 114 142 175 222 277 328
#     4   9  16  27  49  80 106 129 168 221 266 311
#     4  10  19  33  55  79 104 138 181 223 267 322
#     4  10  19  33  55  79 104 138 181 223 267 322
#     4  11  23  37  51  69 103 147 187 229 275 321
#     4   9  18  34  57  85 114 142 175 222 277 328
#
# _framework density 18.661023
#
# number of rings (size 3 to 8) (size 9 to 14) (size 15 to 20)
#    0.000    2.250    1.250    1.875    0.000    6.000 
#    2.250    0.000    0.000    3.000    0.000    0.000 
#    0.000    0.000    0.000    0.000    0.000    0.000 
#
# Total GULP energy -793228.247138 kJ/mol
# GULP energy per Si atom -12394.191362 kJ/mol
# Density = 1.861855 g / cm^3
# Si number density = 18.661023 Si / 1000 Ang^3
#
#
#
# Elastic Constant Matrix: (Units=GPa)
#
#
# Indices 1 2 3 4 5 6 
#
# 1 108.1538 48.7731 32.9514 0.0000 0.0000 0.0000
# 2 48.7731 91.0680 30.3523 0.0000 0.0000 0.0000
# 3 32.9514 30.3523 32.7554 0.0000 0.0000 0.0000
# 4 0.0000 0.0000 0.0000 26.0866 0.0000 0.0000
# 5 0.0000 0.0000 0.0000 0.0000 19.6701 0.0000
# 6 0.0000 0.0000 0.0000 0.0000 0.0000 37.9075
#
#
#
# Elastic Compliance Matrix: (Units=1/GPa)
#
#
# Indices 1 2 3 4 5 6 
#
# 1 0.014343 -0.004156 -0.010578 0.000000 0.000000 0.000000
# 2 -0.004156 0.017092 -0.011657 0.000000 0.000000 0.000000
# 3 -0.010578 -0.011657 0.051972 0.000000 0.000000 0.000000
# 4 0.000000 0.000000 0.000000 0.038334 0.000000 0.000000
# 5 0.000000 0.000000 0.000000 0.000000 0.050839 0.000000
# 6 0.000000 0.000000 0.000000 0.000000 0.000000 0.026380
#
#
# Mechanical properties :
#
#
# Convention : Reuss Voigt Hill
#
# Bulk Modulus (GPa) = 32.65251 50.68119 41.66685
# Shear Modulus (GPa) = 19.08769 24.72622 21.90695
#
# Velocity S-wave (km/s) = 3.20169 3.64403 3.43000
# Velocity P-wave (km/s) = 5.58601 6.70247 6.16955
#
# Compressibility (1/GPa) = 0.03062552
#
# Stress axis : x y z
#
# Youngs Moduli (GPa) = 69.71999 58.50733 19.24119
#
# Poissons Ratio (x) = 0.24317 0.20353
# Poissons Ratio (y) = 0.28977 0.22429
# Poissons Ratio (z) = 0.73747 0.68201
#
# Static dielectric constant tensor:
#      x y z
#    x 3.651480 0.000000 0.000000 
#    y 0.000000 3.398610 0.000000 
#    z 0.000000 0.000000 3.192320 
# 
# 
# High freq. dielectric constant tensor:
#      x y z
#    x 1.731770 0.000000 0.000000 
#    y 0.000000 1.720950 0.000000 
#    z 0.000000 0.000000 1.701970 
# 
# From -- ./inp_files/4719.got.cif
#   From: 2010.06.25/outbox.cif.g09.slc.cpg/sg58_3_cif.got.tgz:4719.got - 2010.06.26 21:38:00.
