data_PCOD8236968
_publ_section_title
;
Structure prediction by ZEFSAII (Michael W. Deem and Ramdas Pophale) SiO2 
 PCOD8236968
Probable space group: P N N M
;
_chemical_formula_sum "Si O2"
_cell_formula_units_Z 56
_cell_length_a 22.137873
_cell_length_b 14.581727
_cell_length_c 9.080030
_cell_angle_alpha 90.000000
_cell_angle_beta 90.000000
_cell_angle_gamma 90.000000
_cell_volume 2931.110142
_symmetry_space_group_name_H-M "P N N M"
_symmetry_group_IT_number 58
_symmetry_cell_setting 'orthorhombic'
loop_
_space_group_symop_operation_xyz
x,y,z
-x,-y,z
1/2+x,1/2-y,1/2-z
1/2-x,1/2+y,1/2-z
-x,-y,-z
x,y,-z
1/2-x,1/2+y,1/2+z
1/2+x,1/2-y,1/2+z
loop_
_atom_site_type_symbol
_atom_site_label
_atom_site_fract_x
_atom_site_fract_y
_atom_site_fract_z
Si Si1 0.569241 0.513170 0.324865
Si Si2 0.464510 0.135521 0.831623
Si Si3 0.852837 0.841378 0.825679
Si Si4 0.365252 0.032510 0.333015
Si Si5 0.282916 0.166601 0.825240
Si Si6 0.116705 0.807715 0.668431
Si Si7 0.414837 0.842957 0.331959
O O1 0.500000 0.500000 0.268119
O O2 0.569273 0.517946 0.500000
O O3 0.610259 0.429060 0.265546
O O4 0.600753 0.604991 0.266627
O O5 0.429424 0.064812 0.728918
O O6 0.438447 0.237537 0.814447
O O7 0.532773 0.133024 0.780258
O O8 0.459828 0.102283 0.000000
O O9 0.784960 0.832776 0.762349
O O10 0.886777 0.750859 0.773226
O O11 0.849030 0.846460 0.000000
O O12 0.358296 0.067261 0.500000
O O13 0.311369 0.073393 0.237013
O O14 0.363789 0.921991 0.325067
O O15 0.321619 0.256616 0.776144
O O16 0.285829 0.159893 0.000000
O O17 0.124359 0.839989 0.500000
O O18 0.439079 0.832894 0.500000
#
# Coordination Sequence:
#
# PCOD8236968 Si02
#       7
#     8   8   8   8   8   8   8
#     4  10  20  34  55  81 105 136 178 219 263 314
#     4  10  20  34  53  78 108 140 171 206 255 315
#     4   9  19  36  55  75 104 141 178 218 264 315
#     4  10  20  33  53  80 106 134 170 213 259 306
#     4   9  19  37  56  74 102 141 179 213 260 319
#     4   9  19  34  53  76 102 136 174 213 260 310
#     4  10  20  34  53  77 105 137 172 213 261 309
#
# _framework density 19.105388999999999
#
# number of rings (size 3 to 8) (size 9 to 14) (size 15 to 20)
#    0.000    2.429    0.000    3.000    0.000    8.286 
#    0.000    3.571    0.000    0.000    0.000    0.000 
#    0.000    0.000    0.000    0.000    0.000    0.000 
#
# Total GULP energy -694295.698758 kJ/mol
# GULP energy per Si atom -12398.137478 kJ/mol
# Density = 1.906190 g / cm^3
# Si number density = 19.105389 Si / 1000 Ang^3
#
#
#
# Elastic Constant Matrix: (Units=GPa)
#
#
# Indices 1 2 3 4 5 6 
#
# 1 103.0755 32.8876 10.1734 0.0000 0.0000 0.0000
# 2 32.8876 113.9626 22.1696 0.0000 0.0000 0.0000
# 3 10.1734 22.1696 32.5144 0.0000 0.0000 0.0000
# 4 0.0000 0.0000 0.0000 27.2840 0.0000 0.0000
# 5 0.0000 0.0000 0.0000 0.0000 18.2982 0.0000
# 6 0.0000 0.0000 0.0000 0.0000 0.0000 18.4316
#
#
#
# Elastic Compliance Matrix: (Units=1/GPa)
#
#
# Indices 1 2 3 4 5 6 
#
# 1 0.010744 -0.002821 -0.001438 0.000000 0.000000 0.000000
# 2 -0.002821 0.010857 -0.006520 0.000000 0.000000 0.000000
# 3 -0.001438 -0.006520 0.035651 0.000000 0.000000 0.000000
# 4 0.000000 0.000000 0.000000 0.036652 0.000000 0.000000
# 5 0.000000 0.000000 0.000000 0.000000 0.054650 0.000000
# 6 0.000000 0.000000 0.000000 0.000000 0.000000 0.054255
#
#
# Mechanical properties :
#
#
# Convention : Reuss Voigt Hill
#
# Bulk Modulus (GPa) = 28.01617 42.22374 35.11996
# Shear Modulus (GPa) = 21.16268 25.09089 23.12678
#
# Velocity S-wave (km/s) = 3.33180 3.62786 3.48298
# Velocity P-wave (km/s) = 5.43111 6.30055 5.88192
#
# Compressibility (1/GPa) = 0.03569367
#
# Stress axis : x y z
#
# Youngs Moduli (GPa) = 93.07918 92.10468 28.04932
#
# Poissons Ratio (x) = 0.25979 0.04034
# Poissons Ratio (y) = 0.26254 0.18289
# Poissons Ratio (z) = 0.13388 0.60055
#
# Static dielectric constant tensor:
#      x y z
#    x 3.646180 0.000000 0.000000 
#    y 0.000000 3.587920 0.000000 
#    z 0.000000 0.000000 3.306280 
# 
# 
# High freq. dielectric constant tensor:
#      x y z
#    x 1.740990 0.000000 0.000000 
#    y 0.000000 1.749190 0.000000 
#    z 0.000000 0.000000 1.724010 
# 
# From -- ./inp_files/9063.got.cif
#   From: 2010.06.25/outbox.cif.g09.slc.cpg/sg58_5_cif.got.tgz:9063.got - 2010.06.26 21:38:00.
