data_PCOD8236079
_publ_section_title
;
Structure prediction by ZEFSAII (Michael W. Deem and Ramdas Pophale) SiO2 
 PCOD8236079
Probable space group: P N N M
;
_chemical_formula_sum "Si O2"
_cell_formula_units_Z 64
_cell_length_a 30.213345
_cell_length_b 14.202308
_cell_length_c 8.880768
_cell_angle_alpha 90.000000
_cell_angle_beta 90.000000
_cell_angle_gamma 90.000000
_cell_volume 3810.730723
_symmetry_space_group_name_H-M "P N N M"
_symmetry_group_IT_number 58
_symmetry_cell_setting 'orthorhombic'
loop_
_space_group_symop_operation_xyz
x,y,z
-x,-y,z
1/2+x,1/2-y,1/2-z
1/2-x,1/2+y,1/2-z
-x,-y,-z
x,y,-z
1/2-x,1/2+y,1/2+z
1/2+x,1/2-y,1/2+z
loop_
_atom_site_type_symbol
_atom_site_label
_atom_site_fract_x
_atom_site_fract_y
_atom_site_fract_z
Si Si1 0.229261 0.524404 0.177397
Si Si2 0.678741 0.483153 0.328221
Si Si3 0.803429 0.651811 0.677331
Si Si4 0.550470 0.606918 0.677371
Si Si5 0.364471 0.350868 0.177242
Si Si6 0.214567 0.738653 0.176723
Si Si7 0.632956 0.289038 0.327254
Si Si8 0.952149 0.893575 0.822716
O O1 0.273666 0.495246 0.261670
O O2 0.193846 0.448295 0.236511
O O3 0.215288 0.629284 0.223318
O O4 0.236558 0.515515 0.000000
O O5 0.677686 0.518668 0.500000
O O6 0.643685 0.542948 0.233454
O O7 0.667549 0.374184 0.314943
O O8 0.803863 0.634979 0.500000
O O9 0.759982 0.710830 0.728780
O O10 0.848030 0.706042 0.724539
O O11 0.559529 0.611706 0.500000
O O12 0.586118 0.673188 0.762380
O O13 0.501127 0.645466 0.715542
O O14 0.553763 0.499586 0.739002
O O15 0.327785 0.281053 0.241504
O O16 0.363320 0.343836 0.000000
O O17 0.208203 0.751113 0.000000
O O18 0.628921 0.254729 0.500000
O O19 0.585376 0.322335 0.260135
O O20 0.944755 0.901045 0.000000
#
# Coordination Sequence:
#
# PCOD8236079 Si02
#       8
#     8   8   8   8   8   8   8   8
#     4  11  22  37  53  72  99 131 172 217 250 289
#     4  11  20  31  50  72 101 137 171 208 248 293
#     4  11  22  35  51  74 103 135 169 205 251 303
#     4   9  16  31  52  72 100 134 170 208 251 298
#     4  12  23  32  48  74 104 137 174 208 250 301
#     4  10  22  37  52  71  99 134 173 210 249 296
#     4  10  19  32  51  75 101 135 176 209 244 293
#     4   8  15  29  51  75  98 133 173 207 246 301
#
# _framework density 16.79468
#
# number of rings (size 3 to 8) (size 9 to 14) (size 15 to 20)
#    0.000    1.750    3.750    3.000    0.000    2.000 
#    0.000    1.875    0.000    0.000    0.000    0.875 
#    0.000    7.000    0.000    0.000    0.000    0.000 
#
# Total GULP energy -793481.731847 kJ/mol
# GULP energy per Si atom -12398.152060 kJ/mol
# Density = 1.675645 g / cm^3
# Si number density = 16.794680 Si / 1000 Ang^3
#
#
#
# Elastic Constant Matrix: (Units=GPa)
#
#
# Indices 1 2 3 4 5 6 
#
# 1 98.9718 25.3454 38.0109 0.0000 0.0000 0.0000
# 2 25.3454 65.9747 30.9173 0.0000 0.0000 0.0000
# 3 38.0109 30.9173 51.0491 0.0000 0.0000 0.0000
# 4 0.0000 0.0000 0.0000 21.8188 0.0000 0.0000
# 5 0.0000 0.0000 0.0000 0.0000 22.7719 0.0000
# 6 0.0000 0.0000 0.0000 0.0000 0.0000 25.5665
#
#
#
# Elastic Compliance Matrix: (Units=1/GPa)
#
#
# Indices 1 2 3 4 5 6 
#
# 1 0.014173 -0.000697 -0.010131 0.000000 0.000000 0.000000
# 2 -0.000697 0.021198 -0.012319 0.000000 0.000000 0.000000
# 3 -0.010131 -0.012319 0.034594 0.000000 0.000000 0.000000
# 4 0.000000 0.000000 0.000000 0.045832 0.000000 0.000000
# 5 0.000000 0.000000 0.000000 0.000000 0.043914 0.000000
# 6 0.000000 0.000000 0.000000 0.000000 0.000000 0.039114
#
#
# Mechanical properties :
#
#
# Convention : Reuss Voigt Hill
#
# Bulk Modulus (GPa) = 42.24779 44.94918 43.59849
# Shear Modulus (GPa) = 19.76204 22.14624 20.95414
#
# Velocity S-wave (km/s) = 3.43401 3.63526 3.53606
# Velocity P-wave (km/s) = 6.39791 6.66650 6.53358
#
# Compressibility (1/GPa) = 0.02366988
#
# Stress axis : x y z
#
# Youngs Moduli (GPa) = 70.55476 47.17359 28.90706
#
# Poissons Ratio (x) = 0.03289 0.29286
# Poissons Ratio (y) = 0.04920 0.35611
# Poissons Ratio (z) = 0.71480 0.58115
#
# Static dielectric constant tensor:
#      x y z
#    x 3.519520 0.000000 0.000000 
#    y 0.000000 3.018890 0.000000 
#    z 0.000000 0.000000 3.027950 
# 
# 
# High freq. dielectric constant tensor:
#      x y z
#    x 1.644640 0.000000 0.000000 
#    y 0.000000 1.618970 0.000000 
#    z 0.000000 0.000000 1.639580 
# 
# From -- ./inp_files/7164.got.cif
#   From: 2010.06.25/outbox.cif.g09.slc.cpg/sg58_4_cif.got.tgz:7164.got - 2010.06.26 21:38:00.
