data_PCOD8236768
_publ_section_title
;
Structure prediction by ZEFSAII (Michael W. Deem and Ramdas Pophale) SiO2 
 PCOD8236768
Probable space group: P N N M
;
_chemical_formula_sum "Si O2"
_cell_formula_units_Z 52
_cell_length_a 16.458104
_cell_length_b 8.223491
_cell_length_c 19.287873
_cell_angle_alpha 90.000000
_cell_angle_beta 90.000000
_cell_angle_gamma 90.000000
_cell_volume 2610.479948
_symmetry_space_group_name_H-M "P N N M"
_symmetry_group_IT_number 58
_symmetry_cell_setting 'orthorhombic'
loop_
_space_group_symop_operation_xyz
x,y,z
-x,-y,z
1/2+x,1/2-y,1/2-z
1/2-x,1/2+y,1/2-z
-x,-y,-z
x,y,-z
1/2-x,1/2+y,1/2+z
1/2+x,1/2-y,1/2+z
loop_
_atom_site_type_symbol
_atom_site_label
_atom_site_fract_x
_atom_site_fract_y
_atom_site_fract_z
Si Si1 0.500000 0.500000 0.352962
Si Si2 0.040542 0.337557 0.081619
Si Si3 0.193487 0.680187 0.685881
Si Si4 0.670947 0.565208 0.302730
Si Si5 0.722637 0.096830 0.581239
Si Si6 0.403471 0.997900 0.077368
Si Si7 0.762253 0.736010 0.578323
O O1 0.498036 0.331232 0.395892
O O2 0.581226 0.489784 0.307119
O O3 0.132955 0.354109 0.105777
O O4 0.000000 0.500000 0.114171
O O5 0.032056 0.343591 0.000000
O O6 0.263552 0.569328 0.721079
O O7 0.162447 0.791674 0.747518
O O8 0.221559 0.777383 0.619221
O O9 0.120109 0.585994 0.649043
O O10 0.701800 0.623157 0.377868
O O11 0.734205 0.119185 0.500000
O O12 0.751555 0.918915 0.605514
O O13 0.500000 0.000000 0.079858
O O14 0.356734 0.822528 0.083297
O O15 0.378809 0.068906 0.000000
O O16 0.729433 0.724318 0.500000
#
# Coordination Sequence:
#
# PCOD8236768 Si02
#       7
#     4   8   8   8   8   8   8
#     4  12  23  42  58  92 125 170 206 256 310 378
#     4  10  21  36  60  94 130 161 200 254 311 374
#     4  11  22  42  59  84 117 161 204 253 306 376
#     4  11  24  40  61  85 120 162 205 252 310 371
#     4  10  19  36  61  88 117 156 199 247 307 371
#     4   9  19  39  65  94 122 153 202 264 326 382
#     4   9  19  37  63  90 119 158 202 250 312 381
#
# _framework density 19.919708
#
# number of rings (size 3 to 8) (size 9 to 14) (size 15 to 20)
#    0.000    1.846    1.538    2.538    0.000    3.077 
#    8.308    0.000    0.000    3.692    0.000    0.000 
#    0.000    0.000    0.000    0.000    0.000    0.000 
#
# Total GULP energy -644235.753710 kJ/mol
# GULP energy per Si atom -12389.149110 kJ/mol
# Density = 1.987437 g / cm^3
# Si number density = 19.919708 Si / 1000 Ang^3
#
#
#
# Elastic Constant Matrix: (Units=GPa)
#
#
# Indices 1 2 3 4 5 6 
#
# 1 103.4375 28.3149 32.2912 0.0000 0.0000 0.0000
# 2 28.3149 102.9585 20.9910 0.0000 0.0000 0.0000
# 3 32.2912 20.9910 54.5086 0.0000 0.0000 0.0000
# 4 0.0000 0.0000 0.0000 13.2315 0.0000 0.0000
# 5 0.0000 0.0000 0.0000 0.0000 37.7410 0.0000
# 6 0.0000 0.0000 0.0000 0.0000 0.0000 22.4771
#
#
#
# Elastic Compliance Matrix: (Units=1/GPa)
#
#
# Indices 1 2 3 4 5 6 
#
# 1 0.012247 -0.002050 -0.006466 0.000000 0.000000 0.000000
# 2 -0.002050 0.010883 -0.002977 0.000000 0.000000 0.000000
# 3 -0.006466 -0.002977 0.023323 0.000000 0.000000 0.000000
# 4 0.000000 0.000000 0.000000 0.075577 0.000000 0.000000
# 5 0.000000 0.000000 0.000000 0.000000 0.026496 0.000000
# 6 0.000000 0.000000 0.000000 0.000000 0.000000 0.044490
#
#
# Mechanical properties :
#
#
# Convention : Reuss Voigt Hill
#
# Bulk Modulus (GPa) = 42.61130 47.12207 44.86668
# Shear Modulus (GPa) = 22.33894 26.64375 24.49134
#
# Velocity S-wave (km/s) = 3.35244 3.66123 3.51023
# Velocity P-wave (km/s) = 6.03515 6.44827 6.24513
#
# Compressibility (1/GPa) = 0.02346795
#
# Stress axis : x y z
#
# Youngs Moduli (GPa) = 81.65015 91.88391 42.87693
#
# Poissons Ratio (x) = 0.18835 0.27724
# Poissons Ratio (y) = 0.16738 0.12763
# Poissons Ratio (z) = 0.52795 0.27351
#
# Static dielectric constant tensor:
#      x y z
#    x 3.568800 0.000000 0.000000 
#    y 0.000000 3.753060 0.000000 
#    z 0.000000 0.000000 3.557850 
# 
# 
# High freq. dielectric constant tensor:
#      x y z
#    x 1.772960 0.000000 0.000000 
#    y 0.000000 1.781140 0.000000 
#    z 0.000000 0.000000 1.772620 
# 
# From -- ./inp_files/29952.got.cif
#   From: 2010.06.25/outbox.cif.g09.slc.cpg/sg58_15_cif.got.tgz:29952.got - 2010.06.26 21:38:00.
