data_PCOD8236998
_publ_section_title
;
Structure prediction by ZEFSAII (Michael W. Deem and Ramdas Pophale) SiO2 
 PCOD8236998
Probable space group: P N N M
;
_chemical_formula_sum "Si O2"
_cell_formula_units_Z 56
_cell_length_a 18.312909
_cell_length_b 20.613719
_cell_length_c 9.077471
_cell_angle_alpha 90.000000
_cell_angle_beta 90.000000
_cell_angle_gamma 90.000000
_cell_volume 3426.719524
_symmetry_space_group_name_H-M "P N N M"
_symmetry_group_IT_number 58
_symmetry_cell_setting 'orthorhombic'
loop_
_space_group_symop_operation_xyz
x,y,z
-x,-y,z
1/2+x,1/2-y,1/2-z
1/2-x,1/2+y,1/2-z
-x,-y,-z
x,y,-z
1/2-x,1/2+y,1/2+z
1/2+x,1/2-y,1/2+z
loop_
_atom_site_type_symbol
_atom_site_label
_atom_site_fract_x
_atom_site_fract_y
_atom_site_fract_z
Si Si1 0.414167 0.993663 0.670566
Si Si2 0.282273 0.317967 0.165739
Si Si3 0.091966 0.758486 0.172364
Si Si4 0.074246 0.251015 0.173069
Si Si5 0.162390 0.624733 0.172580
Si Si6 0.851569 0.629806 0.324930
Si Si7 0.210239 0.177499 0.162755
O O1 0.394863 0.978688 0.500000
O O2 0.384967 0.938075 0.776041
O O3 0.500000 0.000000 0.691318
O O4 0.377133 0.059953 0.727412
O O5 0.361635 0.313074 0.242026
O O6 0.229979 0.365354 0.258369
O O7 0.246974 0.247549 0.165010
O O8 0.291142 0.345098 0.000000
O O9 0.114603 0.686262 0.225286
O O10 0.007658 0.769767 0.212159
O O11 0.107405 0.766823 0.000000
O O12 0.095506 0.313960 0.265971
O O13 0.126445 0.189699 0.214260
O O14 0.082827 0.268798 0.000000
O O15 0.245234 0.628438 0.233895
O O16 0.169405 0.624325 0.000000
O O17 0.846935 0.634193 0.500000
O O18 0.211966 0.147127 0.000000
#
# Coordination Sequence:
#
# PCOD8236998 Si02
#       7
#     8   8   8   8   8   8   8
#     4  10  20  34  49  64  87 122 158 187 223 272
#     4   9  17  30  46  64  89 120 151 183 226 275
#     4   9  16  28  47  70  93 116 148 187 224 266
#     4   9  17  30  47  67  93 124 152 182 227 276
#     4   9  17  28  44  64  86 116 150 184 220 261
#     4  11  21  31  45  66  92 122 157 194 226 261
#     4   8  15  27  43  62  86 117 148 179 217 263
#
# _framework density 16.342161000000001
#
# number of rings (size 3 to 8) (size 9 to 14) (size 15 to 20)
#    0.000    2.714    0.000    3.429    0.000    7.143 
#    0.000    2.857    0.000    0.000    0.000    1.000 
#    0.000    8.000    0.000    0.000    0.000    0.000 
#
# Total GULP energy -694239.938809 kJ/mol
# GULP energy per Si atom -12397.141764 kJ/mol
# Density = 1.630497 g / cm^3
# Si number density = 16.342161 Si / 1000 Ang^3
#
#
#
# Elastic Constant Matrix: (Units=GPa)
#
#
# Indices 1 2 3 4 5 6 
#
# 1 134.2312 41.7584 47.8236 0.0000 0.0000 0.0000
# 2 41.7584 49.9582 31.5657 0.0000 0.0000 0.0000
# 3 47.8236 31.5657 69.7799 0.0000 0.0000 0.0000
# 4 0.0000 0.0000 0.0000 10.6604 0.0000 0.0000
# 5 0.0000 0.0000 0.0000 0.0000 28.5712 0.0000
# 6 0.0000 0.0000 0.0000 0.0000 0.0000 24.2325
#
#
#
# Elastic Compliance Matrix: (Units=1/GPa)
#
#
# Indices 1 2 3 4 5 6 
#
# 1 0.011098 -0.006260 -0.004774 0.000000 0.000000 0.000000
# 2 -0.006260 0.031559 -0.009986 0.000000 0.000000 0.000000
# 3 -0.004774 -0.009986 0.022120 0.000000 0.000000 0.000000
# 4 0.000000 0.000000 0.000000 0.093805 0.000000 0.000000
# 5 0.000000 0.000000 0.000000 0.000000 0.035000 0.000000
# 6 0.000000 0.000000 0.000000 0.000000 0.000000 0.041267
#
#
# Mechanical properties :
#
#
# Convention : Reuss Voigt Hill
#
# Bulk Modulus (GPa) = 43.98146 55.14054 49.56100
# Shear Modulus (GPa) = 17.57666 21.54759 19.56213
#
# Velocity S-wave (km/s) = 3.28310 3.63509 3.46357
# Velocity P-wave (km/s) = 6.42985 7.17169 6.81088
#
# Compressibility (1/GPa) = 0.02273685
#
# Stress axis : x y z
#
# Youngs Moduli (GPa) = 90.10379 31.68712 45.20799
#
# Poissons Ratio (x) = 0.19836 0.21584
# Poissons Ratio (y) = 0.56405 0.45143
# Poissons Ratio (z) = 0.43019 0.31641
#
# Static dielectric constant tensor:
#      x y z
#    x 3.329510 0.000000 0.000000 
#    y 0.000000 2.853030 0.000000 
#    z 0.000000 0.000000 3.116670 
# 
# 
# High freq. dielectric constant tensor:
#      x y z
#    x 1.634610 0.000000 0.000000 
#    y 0.000000 1.585610 0.000000 
#    z 0.000000 0.000000 1.628080 
# 
# From -- ./inp_files/8104.got.cif
#   From: 2010.06.25/outbox.cif.g09.slc.cpg/sg58_5_cif.got.tgz:8104.got - 2010.06.26 21:38:00.
