data_PCOD8236905
_publ_section_title
;
Structure prediction by ZEFSAII (Michael W. Deem and Ramdas Pophale) SiO2 
 PCOD8236905
Probable space group: P N N M
;
_chemical_formula_sum "Si O2"
_cell_formula_units_Z 64
_cell_length_a 7.848769
_cell_length_b 20.104130
_cell_length_c 21.831711
_cell_angle_alpha 90.000000
_cell_angle_beta 90.000000
_cell_angle_gamma 90.000000
_cell_volume 3444.884020
_symmetry_space_group_name_H-M "P N N M"
_symmetry_group_IT_number 58
_symmetry_cell_setting 'orthorhombic'
loop_
_space_group_symop_operation_xyz
x,y,z
-x,-y,z
1/2+x,1/2-y,1/2-z
1/2-x,1/2+y,1/2-z
-x,-y,-z
x,y,-z
1/2-x,1/2+y,1/2+z
1/2+x,1/2-y,1/2+z
loop_
_atom_site_type_symbol
_atom_site_label
_atom_site_fract_x
_atom_site_fract_y
_atom_site_fract_z
Si Si1 0.635736 0.557102 0.174501
Si Si2 0.434401 0.148041 0.665702
Si Si3 0.981495 0.791654 0.841356
Si Si4 0.315551 0.229820 0.069629
Si Si5 0.593653 0.063624 0.231242
Si Si6 0.926062 0.823501 0.290326
Si Si7 0.124982 0.310067 0.648828
Si Si8 0.312785 0.876662 0.569863
O O1 0.500000 0.500000 0.163627
O O2 0.729646 0.539172 0.238334
O O3 0.578313 0.633608 0.182710
O O4 0.741280 0.562651 0.111280
O O5 0.522299 0.217090 0.685499
O O6 0.492979 0.090340 0.710322
O O7 0.233198 0.149313 0.671542
O O8 0.495076 0.136123 0.595420
O O9 0.840049 0.804377 0.893164
O O10 0.926336 0.836507 0.783009
O O11 0.173604 0.803830 0.867602
O O12 0.500357 0.201396 0.090861
O O13 0.303156 0.309881 0.074962
O O14 0.292646 0.206832 0.000000
O O15 0.605130 0.117026 0.177312
O O16 0.500000 0.000000 0.202174
O O17 0.941738 0.744775 0.302537
O O18 0.325034 0.900881 0.500000
#
# Coordination Sequence:
#
# PCOD8236905 Si02
#       8
#     8   8   8   8   8   8   8   8
#     4  11  22  35  53  82 118 152 189 236 290 341
#     4   9  19  31  54  78 107 147 184 235 285 340
#     4  10  20  32  57  88 115 149 186 235 289 347
#     4  10  21  37  58  86 119 153 192 238 285 340
#     4  11  21  35  53  82 116 146 182 235 298 354
#     4  11  19  34  56  87 114 142 189 234 297 350
#     4  11  21  35  60  88 115 152 189 239 293 351
#     4   9  19  37  54  76 113 156 201 237 276 333
#
# _framework density 18.578275000000001
#
# number of rings (size 3 to 8) (size 9 to 14) (size 15 to 20)
#    0.000    1.750    3.750    1.500    1.750    0.750 
#    0.000    2.500    0.000   13.125    0.000    0.875 
#    0.000    0.000    0.000    0.000    0.000    0.000 
#
# Total GULP energy -792848.627015 kJ/mol
# GULP energy per Si atom -12388.259797 kJ/mol
# Density = 1.853599 g / cm^3
# Si number density = 18.578275 Si / 1000 Ang^3
#
#
#
# Elastic Constant Matrix: (Units=GPa)
#
#
# Indices 1 2 3 4 5 6 
#
# 1 104.5089 35.1289 48.6913 0.0000 0.0000 0.0000
# 2 35.1289 67.5588 21.7225 0.0000 0.0000 0.0000
# 3 48.6913 21.7225 101.2211 0.0000 0.0000 0.0000
# 4 0.0000 0.0000 0.0000 15.9618 0.0000 0.0000
# 5 0.0000 0.0000 0.0000 0.0000 23.5539 0.0000
# 6 0.0000 0.0000 0.0000 0.0000 0.0000 24.8740
#
#
#
# Elastic Compliance Matrix: (Units=1/GPa)
#
#
# Indices 1 2 3 4 5 6 
#
# 1 0.014005 -0.005495 -0.005558 0.000000 0.000000 0.000000
# 2 -0.005495 0.018055 -0.001231 0.000000 0.000000 0.000000
# 3 -0.005558 -0.001231 0.012817 0.000000 0.000000 0.000000
# 4 0.000000 0.000000 0.000000 0.062649 0.000000 0.000000
# 5 0.000000 0.000000 0.000000 0.000000 0.042456 0.000000
# 6 0.000000 0.000000 0.000000 0.000000 0.000000 0.040203
#
#
# Mechanical properties :
#
#
# Convention : Reuss Voigt Hill
#
# Bulk Modulus (GPa) = 49.23960 53.81936 51.52948
# Shear Modulus (GPa) = 22.57098 24.06102 23.31600
#
# Velocity S-wave (km/s) = 3.48934 3.60268 3.54646
# Velocity P-wave (km/s) = 6.54182 6.80717 6.67581
#
# Compressibility (1/GPa) = 0.02030886
#
# Stress axis : x y z
#
# Youngs Moduli (GPa) = 71.40276 55.38562 78.02099
#
# Poissons Ratio (x) = 0.30436 0.43361
# Poissons Ratio (y) = 0.39238 0.09607
# Poissons Ratio (z) = 0.39683 0.06820
#
# Static dielectric constant tensor:
#      x y z
#    x 3.632690 0.000000 0.000000 
#    y 0.000000 3.229930 0.000000 
#    z 0.000000 0.000000 3.250020 
# 
# 
# High freq. dielectric constant tensor:
#      x y z
#    x 1.727070 0.000000 0.000000 
#    y 0.000000 1.698560 0.000000 
#    z 0.000000 0.000000 1.698670 
# 
# From -- ./inp_files/25717.got.cif
#   From: 2010.06.25/outbox.cif.g09.slc.cpg/sg58_13_cif.got.tgz:25717.got - 2010.06.26 21:38:00.
