data_PCOD8236231
_publ_section_title
;
Structure prediction by ZEFSAII (Michael W. Deem and Ramdas Pophale) SiO2 
 PCOD8236231
Probable space group: P N N M
;
_chemical_formula_sum "Si O2"
_cell_formula_units_Z 64
_cell_length_a 12.146614
_cell_length_b 29.161600
_cell_length_c 9.428211
_cell_angle_alpha 90.000000
_cell_angle_beta 90.000000
_cell_angle_gamma 90.000000
_cell_volume 3339.610920
_symmetry_space_group_name_H-M "P N N M"
_symmetry_group_IT_number 58
_symmetry_cell_setting 'orthorhombic'
loop_
_space_group_symop_operation_xyz
x,y,z
-x,-y,z
1/2+x,1/2-y,1/2-z
1/2-x,1/2+y,1/2-z
-x,-y,-z
x,y,-z
1/2-x,1/2+y,1/2+z
1/2+x,1/2-y,1/2+z
loop_
_atom_site_type_symbol
_atom_site_label
_atom_site_fract_x
_atom_site_fract_y
_atom_site_fract_z
Si Si1 0.762574 0.023179 0.166216
Si Si2 0.046241 0.938991 0.657006
Si Si3 0.753873 0.336047 0.831289
Si Si4 0.708179 0.439237 0.162202
Si Si5 0.361087 0.341413 0.159992
Si Si6 0.951636 0.778541 0.334176
Si Si7 0.528464 0.819745 0.163542
Si Si8 0.831002 0.618703 0.663506
O O1 0.883016 0.037392 0.220755
O O2 0.678847 0.064856 0.204202
O O3 0.723891 0.976486 0.244696
O O4 0.767546 0.013405 0.000000
O O5 0.085022 0.956122 0.500000
O O6 0.057067 0.884530 0.664316
O O7 0.919826 0.951825 0.680803
O O8 0.731329 0.388134 0.781458
O O9 0.657381 0.302863 0.770687
O O10 0.866796 0.319102 0.763627
O O11 0.764137 0.332691 0.000000
O O12 0.746446 0.443566 0.000000
O O13 0.434288 0.300188 0.225923
O O14 0.252434 0.349347 0.250943
O O15 0.321672 0.330845 0.000000
O O16 0.951098 0.789789 0.500000
O O17 0.952304 0.724481 0.301666
O O18 0.455006 0.864785 0.195269
O O19 0.567024 0.818565 0.000000
O O20 0.800015 0.625846 0.500000
#
# Coordination Sequence:
#
# PCOD8236231 Si02
#       8
#     8   8   8   8   8   8   8   8
#     4  10  20  32  49  76 109 144 184 225 270 324
#     4   9  16  29  49  74 106 142 175 213 267 326
#     4  10  21  39  60  83 111 143 184 230 274 323
#     4  10  19  33  53  77 107 143 182 225 276 327
#     4   9  16  30  54  80 105 137 176 217 263 318
#     4   9  18  35  58  82 109 140 174 219 276 329
#     4  10  22  39  58  79 109 147 183 222 272 327
#     4   9  20  37  53  75 111 149 182 221 270 323
#
# _framework density 19.163907999999999
#
# number of rings (size 3 to 8) (size 9 to 14) (size 15 to 20)
#    0.000    2.500    1.250    0.750    1.750    3.500 
#    0.000    1.875    0.000    3.750    0.000    0.000 
#    0.000    0.000    0.000    0.000    0.000    0.000 
#
# Total GULP energy -793435.588960 kJ/mol
# GULP energy per Si atom -12397.431078 kJ/mol
# Density = 1.912029 g / cm^3
# Si number density = 19.163908 Si / 1000 Ang^3
#
#
#
# Elastic Constant Matrix: (Units=GPa)
#
#
# Indices 1 2 3 4 5 6 
#
# 1 77.6136 36.6192 32.4537 0.0000 0.0000 0.0000
# 2 36.6192 110.1857 36.4699 0.0000 0.0000 0.0000
# 3 32.4537 36.4699 52.9612 0.0000 0.0000 0.0000
# 4 0.0000 0.0000 0.0000 23.2496 0.0000 0.0000
# 5 0.0000 0.0000 0.0000 0.0000 23.9134 0.0000
# 6 0.0000 0.0000 0.0000 0.0000 0.0000 16.7753
#
#
#
# Elastic Compliance Matrix: (Units=1/GPa)
#
#
# Indices 1 2 3 4 5 6 
#
# 1 0.018073 -0.003032 -0.008987 0.000000 0.000000 0.000000
# 2 -0.003032 0.012263 -0.006587 0.000000 0.000000 0.000000
# 3 -0.008987 -0.006587 0.028925 0.000000 0.000000 0.000000
# 4 0.000000 0.000000 0.000000 0.043012 0.000000 0.000000
# 5 0.000000 0.000000 0.000000 0.000000 0.041818 0.000000
# 6 0.000000 0.000000 0.000000 0.000000 0.000000 0.059611
#
#
# Mechanical properties :
#
#
# Convention : Reuss Voigt Hill
#
# Bulk Modulus (GPa) = 45.35259 50.20513 47.77886
# Shear Modulus (GPa) = 20.14003 21.80217 20.97110
#
# Velocity S-wave (km/s) = 3.24533 3.37659 3.31161
# Velocity P-wave (km/s) = 6.14491 6.43867 6.29350
#
# Compressibility (1/GPa) = 0.02204946
#
# Stress axis : x y z
#
# Youngs Moduli (GPa) = 55.33249 81.54392 34.57272
#
# Poissons Ratio (x) = 0.24722 0.31070
# Poissons Ratio (y) = 0.16775 0.22773
# Poissons Ratio (z) = 0.49726 0.53712
#
# Static dielectric constant tensor:
#      x y z
#    x 3.221240 0.000000 0.000000 
#    y 0.000000 3.756000 0.000000 
#    z 0.000000 0.000000 3.305220 
# 
# 
# High freq. dielectric constant tensor:
#      x y z
#    x 1.720640 0.000000 0.000000 
#    y 0.000000 1.761830 0.000000 
#    z 0.000000 0.000000 1.722890 
# 
# From -- ./inp_files/4763.got.cif
#   From: 2010.06.25/outbox.cif.g09.slc.cpg/sg58_3_cif.got.tgz:4763.got - 2010.06.26 21:38:00.
