data_PCOD8236476
_publ_section_title
;
Structure prediction by ZEFSAII (Michael W. Deem and Ramdas Pophale) SiO2 
 PCOD8236476
Probable space group: P N N M
;
_chemical_formula_sum "Si O2"
_cell_formula_units_Z 64
_cell_length_a 19.297308
_cell_length_b 9.755828
_cell_length_c 18.196481
_cell_angle_alpha 90.000000
_cell_angle_beta 90.000000
_cell_angle_gamma 90.000000
_cell_volume 3425.691671
_symmetry_space_group_name_H-M "P N N M"
_symmetry_group_IT_number 58
_symmetry_cell_setting 'orthorhombic'
loop_
_space_group_symop_operation_xyz
x,y,z
-x,-y,z
1/2+x,1/2-y,1/2-z
1/2-x,1/2+y,1/2-z
-x,-y,-z
x,y,-z
1/2-x,1/2+y,1/2+z
1/2+x,1/2-y,1/2+z
loop_
_atom_site_type_symbol
_atom_site_label
_atom_site_fract_x
_atom_site_fract_y
_atom_site_fract_z
Si Si1 0.196668 0.664521 0.326942
Si Si2 0.692108 0.527579 0.837406
Si Si3 0.056927 0.889212 0.420006
Si Si4 0.688369 0.828201 0.342973
Si Si5 0.533836 0.858572 0.657172
Si Si6 0.552935 0.379860 0.581437
Si Si7 0.457548 0.135468 0.830913
Si Si8 0.180713 0.989291 0.833854
O O1 0.223265 0.819153 0.340139
O O2 0.190273 0.631706 0.241543
O O3 0.121836 0.626097 0.359700
O O4 0.252361 0.567242 0.364839
O O5 0.620844 0.533159 0.881590
O O6 0.747461 0.420311 0.874808
O O7 0.672597 0.490213 0.753512
O O8 0.080960 0.831948 0.500000
O O9 0.017646 0.771412 0.372750
O O10 0.000000 0.000000 0.433486
O O11 0.612242 0.864540 0.375147
O O12 0.695485 0.666726 0.357276
O O13 0.486100 0.741809 0.623063
O O14 0.535971 0.835584 0.744536
O O15 0.500000 0.000000 0.634543
O O16 0.500000 0.500000 0.569876
O O17 0.578280 0.331443 0.500000
O O18 0.615026 0.440503 0.629308
O O19 0.500000 0.000000 0.854355
#
# Coordination Sequence:
#
# PCOD8236476 Si02
#       8
#     8   8   8   8   8   8   8   8
#     4   8  17  32  52  82 112 136 183 231 276 330
#     4   9  19  34  56  80 109 148 186 231 281 338
#     4  10  22  37  54  81 116 146 185 231 279 341
#     4   9  17  33  52  82 110 140 180 231 284 318
#     4  10  21  36  59  86 114 143 189 240 278 332
#     4  11  24  39  56  82 117 152 193 232 281 341
#     4   9  19  36  59  88 113 145 188 235 284 339
#     4  10  19  34  57  80 110 148 185 235 280 333
#
# _framework density 18.682359000000002
#
# number of rings (size 3 to 8) (size 9 to 14) (size 15 to 20)
#    0.000    2.500    1.250    0.750    3.500    1.500 
#    4.500    3.750    0.000    0.000    0.000    0.000 
#    0.000    0.000    0.000    0.000    0.000    0.000 
#
# Total GULP energy -792905.575547 kJ/mol
# GULP energy per Si atom -12389.149618 kJ/mol
# Density = 1.863984 g / cm^3
# Si number density = 18.682359 Si / 1000 Ang^3
#
#
#
# Elastic Constant Matrix: (Units=GPa)
#
#
# Indices 1 2 3 4 5 6 
#
# 1 110.8502 80.3344 42.7746 0.0000 0.0000 0.0000
# 2 80.3344 129.6800 46.9547 0.0000 0.0000 0.0000
# 3 42.7746 46.9547 61.2695 0.0000 0.0000 0.0000
# 4 0.0000 0.0000 0.0000 30.6818 0.0000 0.0000
# 5 0.0000 0.0000 0.0000 0.0000 -1.7645 0.0000
# 6 0.0000 0.0000 0.0000 0.0000 0.0000 47.6107
#
#
#
# Elastic Compliance Matrix: (Units=1/GPa)
#
#
# Indices 1 2 3 4 5 6 
#
# 1 0.017589 -0.008927 -0.005438 0.000000 0.000000 0.000000
# 2 -0.008927 0.015204 -0.005419 0.000000 0.000000 0.000000
# 3 -0.005438 -0.005419 0.024271 0.000000 0.000000 0.000000
# 4 0.000000 0.000000 0.000000 0.032593 0.000000 0.000000
# 5 0.000000 0.000000 0.000000 0.000000 -0.566744 0.000000
# 6 0.000000 0.000000 0.000000 0.000000 0.000000 0.021004
#
#
# Mechanical properties :
#
#
# Convention : Reuss Voigt Hill
#
# Bulk Modulus (GPa) = 57.15986 71.32523 64.24254
# Shear Modulus (GPa) = -12.17484 24.08802 5.95659
#
# Velocity S-wave (km/s) = -2.55556 3.59464 1.78753
# Velocity P-wave (km/s) = 4.68553 7.44912 6.22268
#
# Compressibility (1/GPa) = 0.01749479
#
# Stress axis : x y z
#
# Youngs Moduli (GPa) = 56.85263 65.77368 41.20128
#
# Poissons Ratio (x) = 0.58717 0.22407
# Poissons Ratio (y) = 0.50753 0.22327
# Poissons Ratio (z) = 0.30919 0.35644
#
# Static dielectric constant tensor:
#      x y z
#    x 3.668680 0.000000 0.000000 
#    y 0.000000 3.590000 0.000000 
#    z 0.000000 0.000000 3.254730 
# 
# 
# High freq. dielectric constant tensor:
#      x y z
#    x 1.731800 0.000000 0.000000 
#    y 0.000000 1.731550 0.000000 
#    z 0.000000 0.000000 1.695590 
# 
# From -- ./inp_files/27561.got.cif
#   From: 2010.06.25/outbox.cif.g09.slc.cpg/sg58_14_cif.got.tgz:27561.got - 2010.06.26 21:38:00.
