data_PCOD8236680
_publ_section_title
;
Structure prediction by ZEFSAII (Michael W. Deem and Ramdas Pophale) SiO2 
 PCOD8236680
Probable space group: P N N M
;
_chemical_formula_sum "Si O2"
_cell_formula_units_Z 48
_cell_length_a 14.932528
_cell_length_b 19.124859
_cell_length_c 9.180277
_cell_angle_alpha 90.000000
_cell_angle_beta 90.000000
_cell_angle_gamma 90.000000
_cell_volume 2621.726388
_symmetry_space_group_name_H-M "P N N M"
_symmetry_group_IT_number 58
_symmetry_cell_setting 'orthorhombic'
loop_
_space_group_symop_operation_xyz
x,y,z
-x,-y,z
1/2+x,1/2-y,1/2-z
1/2-x,1/2+y,1/2-z
-x,-y,-z
x,y,-z
1/2-x,1/2+y,1/2+z
1/2+x,1/2-y,1/2+z
loop_
_atom_site_type_symbol
_atom_site_label
_atom_site_fract_x
_atom_site_fract_y
_atom_site_fract_z
Si Si1 0.376074 0.828106 0.327637
Si Si2 0.721610 0.930072 0.829221
Si Si3 0.224657 0.931111 0.331802
Si Si4 0.618496 0.328457 0.670605
Si Si5 0.480184 0.422442 0.832731
Si Si6 0.961658 0.424091 0.170460
O O1 0.370221 0.825186 0.500000
O O2 0.290245 0.871176 0.269801
O O3 0.374298 0.749801 0.263867
O O4 0.466601 0.866659 0.277975
O O5 0.789104 0.867182 0.793844
O O6 0.627466 0.909126 0.760027
O O7 0.762253 0.999520 0.760599
O O8 0.709255 0.941985 0.000000
O O9 0.247229 0.949002 0.500000
O O10 0.123936 0.903710 0.314597
O O11 0.598737 0.327035 0.500000
O O12 0.534548 0.365812 0.743303
O O13 0.500000 0.500000 0.771073
O O14 0.511410 0.418780 0.000000
O O15 0.000000 0.500000 0.209351
O O16 0.939758 0.418529 0.000000
#
# Coordination Sequence:
#
# PCOD8236680 Si02
#       6
#     8   8   8   8   8   8
#     4   9  19  37  58  80 108 146 188 224 272 335
#     4  11  22  34  54  85 116 145 179 227 281 329
#     4  10  19  36  60  81 107 146 191 230 265 326
#     4  10  22  38  55  79 115 151 179 221 283 340
#     4  10  20  34  58  87 109 140 189 236 272 315
#     4  10  19  35  61  84 103 143 192 229 267 323
#
# _framework density 18.308547000000001
#
# number of rings (size 3 to 8) (size 9 to 14) (size 15 to 20)
#    0.000    2.000    3.333    0.500    0.000    3.333 
#    0.000    3.333    0.000    0.000    0.000    0.000 
#    0.000    0.000    0.000    0.000    0.000    0.000 
#
# Total GULP energy -595335.595328 kJ/mol
# GULP energy per Si atom -12402.824903 kJ/mol
# Density = 1.826688 g / cm^3
# Si number density = 18.308547 Si / 1000 Ang^3
#
#
#
# Elastic Constant Matrix: (Units=GPa)
#
#
# Indices 1 2 3 4 5 6 
#
# 1 131.5339 71.4706 56.8749 0.0000 0.0000 0.0000
# 2 71.4706 165.1478 51.8051 0.0000 0.0000 0.0000
# 3 56.8749 51.8051 50.5016 0.0000 0.0000 0.0000
# 4 0.0000 0.0000 0.0000 19.8513 0.0000 0.0000
# 5 0.0000 0.0000 0.0000 0.0000 27.2638 0.0000
# 6 0.0000 0.0000 0.0000 0.0000 0.0000 31.3886
#
#
#
# Elastic Compliance Matrix: (Units=1/GPa)
#
#
# Indices 1 2 3 4 5 6 
#
# 1 0.015165 -0.001777 -0.015255 0.000000 0.000000 0.000000
# 2 -0.001777 0.009136 -0.007371 0.000000 0.000000 0.000000
# 3 -0.015255 -0.007371 0.044543 0.000000 0.000000 0.000000
# 4 0.000000 0.000000 0.000000 0.050375 0.000000 0.000000
# 5 0.000000 0.000000 0.000000 0.000000 0.036679 0.000000
# 6 0.000000 0.000000 0.000000 0.000000 0.000000 0.031859
#
#
# Mechanical properties :
#
#
# Convention : Reuss Voigt Hill
#
# Bulk Modulus (GPa) = 49.90669 78.60939 64.25804
# Shear Modulus (GPa) = 20.55572 26.83624 23.69598
#
# Velocity S-wave (km/s) = 3.35436 3.83270 3.60148
# Velocity P-wave (km/s) = 6.50540 7.91298 7.24346
#
# Compressibility (1/GPa) = 0.02003739
#
# Stress axis : x y z
#
# Youngs Moduli (GPa) = 65.94266 109.45169 22.45040
#
# Poissons Ratio (x) = 0.19454 0.34249
# Poissons Ratio (y) = 0.11721 0.16547
# Poissons Ratio (z) = 1.00597 0.80672
#
# Static dielectric constant tensor:
#      x y z
#    x 3.522700 0.000000 0.000000 
#    y 0.000000 3.575050 0.000000 
#    z 0.000000 0.000000 3.175060 
# 
# 
# High freq. dielectric constant tensor:
#      x y z
#    x 1.725450 0.000000 0.000000 
#    y 0.000000 1.710940 0.000000 
#    z 0.000000 0.000000 1.686870 
# 
# From -- ./inp_files/5858.got.cif
#   From: 2010.06.25/outbox.cif.g09.slc.cpg/sg58_3_cif.got.tgz:5858.got - 2010.06.26 21:38:00.
