data_PCOD8236443
_publ_section_title
;
Structure prediction by ZEFSAII (Michael W. Deem and Ramdas Pophale) SiO2 
 PCOD8236443
Probable space group: P N N M
;
_chemical_formula_sum "Si O2"
_cell_formula_units_Z 64
_cell_length_a 33.276360
_cell_length_b 10.910299
_cell_length_c 9.114317
_cell_angle_alpha 90.000000
_cell_angle_beta 90.000000
_cell_angle_gamma 90.000000
_cell_volume 3308.998698
_symmetry_space_group_name_H-M "P N N M"
_symmetry_group_IT_number 58
_symmetry_cell_setting 'orthorhombic'
loop_
_space_group_symop_operation_xyz
x,y,z
-x,-y,z
1/2+x,1/2-y,1/2-z
1/2-x,1/2+y,1/2-z
-x,-y,-z
x,y,-z
1/2-x,1/2+y,1/2+z
1/2+x,1/2-y,1/2+z
loop_
_atom_site_type_symbol
_atom_site_label
_atom_site_fract_x
_atom_site_fract_y
_atom_site_fract_z
Si Si1 0.664448 0.267113 0.172864
Si Si2 0.667126 0.751385 0.169603
Si Si3 0.423374 0.219644 0.164853
Si Si4 0.575791 0.221424 0.173117
Si Si5 0.501560 0.370268 0.167129
Si Si6 0.788517 0.008481 0.324031
Si Si7 0.297309 0.990186 0.824618
Si Si8 0.545559 0.998675 0.329586
O O1 0.617732 0.284784 0.218826
O O2 0.688247 0.386036 0.233276
O O3 0.680764 0.135032 0.231065
O O4 0.668565 0.264936 0.000000
O O5 0.620233 0.725429 0.198865
O O6 0.690428 0.633584 0.236325
O O7 0.679524 0.886254 0.231259
O O8 0.677567 0.753569 0.000000
O O9 0.456380 0.324181 0.173747
O O10 0.434754 0.130668 0.296271
O O11 0.423906 0.159985 0.000000
O O12 0.536595 0.289354 0.241520
O O13 0.574857 0.088599 0.243792
O O14 0.572845 0.204500 0.000000
O O15 0.500000 0.500000 0.249675
O O16 0.516167 0.387445 0.000000
O O17 0.785641 0.007957 0.500000
O O18 0.745375 0.004976 0.251822
O O19 0.292942 0.989122 0.000000
O O20 0.545927 0.029341 0.500000
O O21 0.500000 0.000000 0.267560
#
# Coordination Sequence:
#
# PCOD8236443 Si02
#       8
#     8   8   8   8   8   8   8   8
#     4   9  19  33  54  80 108 136 172 219 268 313
#     4   9  19  33  54  80 108 136 172 219 268 313
#     4  10  19  34  56  80 106 139 178 219 263 316
#     4  10  19  34  56  80 106 139 178 219 263 316
#     4   9  18  29  49  82 110 133 172 223 264 303
#     4  10  20  35  55  81 106 137 173 215 267 321
#     4  10  19  35  53  74 104 141 175 214 263 316
#     4  11  22  35  51  74 107 141 177 222 265 306
#
# _framework density 19.341199
#
# number of rings (size 3 to 8) (size 9 to 14) (size 15 to 20)
#    0.000    2.250    1.250    1.875    1.750    2.500 
#    0.000    3.750    0.000    1.500    0.000    0.000 
#    0.000    0.000    0.000    0.000    0.000    0.000 
#
# Total GULP energy -793076.309187 kJ/mol
# GULP energy per Si atom -12391.817331 kJ/mol
# Density = 1.929718 g / cm^3
# Si number density = 19.341199 Si / 1000 Ang^3
#
#
#
# Elastic Constant Matrix: (Units=GPa)
#
#
# Indices 1 2 3 4 5 6 
#
# 1 149.3505 61.7121 25.1113 0.0000 0.0000 0.0000
# 2 61.7121 143.6476 17.4596 0.0000 0.0000 0.0000
# 3 25.1113 17.4596 20.7670 0.0000 0.0000 0.0000
# 4 0.0000 0.0000 0.0000 5.8227 0.0000 0.0000
# 5 0.0000 0.0000 0.0000 0.0000 24.3048 0.0000
# 6 0.0000 0.0000 0.0000 0.0000 0.0000 25.0802
#
#
#
# Elastic Compliance Matrix: (Units=1/GPa)
#
#
# Indices 1 2 3 4 5 6 
#
# 1 0.009416 -0.002964 -0.008893 0.000000 0.000000 0.000000
# 2 -0.002964 0.008687 -0.003719 0.000000 0.000000 0.000000
# 3 -0.008893 -0.003719 0.062034 0.000000 0.000000 0.000000
# 4 0.000000 0.000000 0.000000 0.171740 0.000000 0.000000
# 5 0.000000 0.000000 0.000000 0.000000 0.041144 0.000000
# 6 0.000000 0.000000 0.000000 0.000000 0.000000 0.039872
#
#
# Mechanical properties :
#
#
# Convention : Reuss Voigt Hill
#
# Bulk Modulus (GPa) = 20.41514 58.03678 39.22596
# Shear Modulus (GPa) = 13.14493 25.00702 19.07598
#
# Velocity S-wave (km/s) = 2.60981 3.59965 3.14393
# Velocity P-wave (km/s) = 4.43392 6.88103 5.78827
#
# Compressibility (1/GPa) = 0.04898325
#
# Stress axis : x y z
#
# Youngs Moduli (GPa) = 106.20491 115.11525 16.12017
#
# Poissons Ratio (x) = 0.34122 0.14336
# Poissons Ratio (y) = 0.31481 0.05995
# Poissons Ratio (z) = 0.94453 0.42814
#
# Static dielectric constant tensor:
#      x y z
#    x 3.785350 0.000000 0.000000 
#    y 0.000000 4.193390 0.000000 
#    z 0.000000 0.000000 3.034290 
# 
# 
# High freq. dielectric constant tensor:
#      x y z
#    x 1.768380 0.000000 0.000000 
#    y 0.000000 1.763470 0.000000 
#    z 0.000000 0.000000 1.696760 
# 
# From -- ./inp_files/11032.got.cif
#   From: 2010.06.25/outbox.cif.g09.slc.cpg/sg58_6_cif.got.tgz:11032.got - 2010.06.26 21:38:00.
