data_PCOD8236404
_publ_section_title
;
Structure prediction by ZEFSAII (Michael W. Deem and Ramdas Pophale) SiO2 
 PCOD8236404
Probable space group: P N N M
;
_chemical_formula_sum "Si O2"
_cell_formula_units_Z 48
_cell_length_a 20.378411
_cell_length_b 14.562655
_cell_length_c 9.065585
_cell_angle_alpha 90.000000
_cell_angle_beta 90.000000
_cell_angle_gamma 90.000000
_cell_volume 2690.337171
_symmetry_space_group_name_H-M "P N N M"
_symmetry_group_IT_number 58
_symmetry_cell_setting 'orthorhombic'
loop_
_space_group_symop_operation_xyz
x,y,z
-x,-y,z
1/2+x,1/2-y,1/2-z
1/2-x,1/2+y,1/2-z
-x,-y,-z
x,y,-z
1/2-x,1/2+y,1/2+z
1/2+x,1/2-y,1/2+z
loop_
_atom_site_type_symbol
_atom_site_label
_atom_site_fract_x
_atom_site_fract_y
_atom_site_fract_z
Si Si1 0.270146 0.493080 0.674375
Si Si2 0.621760 0.005995 0.174723
Si Si3 0.428443 0.816985 0.331468
Si Si4 0.076011 0.671971 0.829511
Si Si5 0.311236 0.689053 0.328101
Si Si6 0.805149 0.204417 0.825031
O O1 0.266542 0.488396 0.500000
O O2 0.196024 0.498598 0.736276
O O3 0.310215 0.583068 0.726194
O O4 0.305823 0.400950 0.733216
O O5 0.580879 0.921804 0.239514
O O6 0.588863 0.100210 0.224160
O O7 0.618988 0.000040 0.000000
O O8 0.417483 0.849530 0.500000
O O9 0.503542 0.786301 0.305739
O O10 0.383261 0.729074 0.294988
O O11 0.128335 0.746554 0.770199
O O12 0.089476 0.649214 0.000000
O O13 0.292826 0.695267 0.500000
O O14 0.257933 0.745975 0.239550
O O15 0.799107 0.207750 0.000000
#
# Coordination Sequence:
#
# PCOD8236404 Si02
#       6
#     8   8   8   8   8   8
#     4   9  18  32  51  77 103 125 164 215 253 291
#     4  11  20  32  53  79 106 135 169 212 259 303
#     4  10  21  35  51  75 107 139 170 207 256 310
#     4  10  21  35  51  75 107 139 170 207 256 310
#     4  10  19  34  54  74 101 134 169 210 253 299
#     4  10  19  34  54  74 101 134 169 210 253 299
#
# _framework density 17.841629999999999
#
# number of rings (size 3 to 8) (size 9 to 14) (size 15 to 20)
#    0.000    2.000    3.333    1.000    0.000    2.667 
#    0.000    1.667    0.000    5.000    0.000    0.000 
#    0.000    5.333    0.000    0.000    0.000    0.000 
#
# Total GULP energy -595196.822401 kJ/mol
# GULP energy per Si atom -12399.933800 kJ/mol
# Density = 1.780102 g / cm^3
# Si number density = 17.841630 Si / 1000 Ang^3
#
#
#
# Elastic Constant Matrix: (Units=GPa)
#
#
# Indices 1 2 3 4 5 6 
#
# 1 92.8694 30.1631 12.2287 0.0000 0.0000 0.0000
# 2 30.1631 111.2496 10.4172 0.0000 0.0000 0.0000
# 3 12.2287 10.4172 25.5844 0.0000 0.0000 0.0000
# 4 0.0000 0.0000 0.0000 15.1048 0.0000 0.0000
# 5 0.0000 0.0000 0.0000 0.0000 22.1129 0.0000
# 6 0.0000 0.0000 0.0000 0.0000 0.0000 29.6700
#
#
#
# Elastic Compliance Matrix: (Units=1/GPa)
#
#
# Indices 1 2 3 4 5 6 
#
# 1 0.012331 -0.002902 -0.004712 0.000000 0.000000 0.000000
# 2 -0.002902 0.010028 -0.002696 0.000000 0.000000 0.000000
# 3 -0.004712 -0.002696 0.042436 0.000000 0.000000 0.000000
# 4 0.000000 0.000000 0.000000 0.066204 0.000000 0.000000
# 5 0.000000 0.000000 0.000000 0.000000 0.045222 0.000000
# 6 0.000000 0.000000 0.000000 0.000000 0.000000 0.033704
#
#
# Mechanical properties :
#
#
# Convention : Reuss Voigt Hill
#
# Bulk Modulus (GPa) = 22.63738 37.25794 29.94766
# Shear Modulus (GPa) = 20.38559 25.17050 22.77805
#
# Velocity S-wave (km/s) = 3.38388 3.76010 3.57694
# Velocity P-wave (km/s) = 5.28990 6.30707 5.82074
#
# Compressibility (1/GPa) = 0.04417472
#
# Stress axis : x y z
#
# Youngs Moduli (GPa) = 81.09741 99.72008 23.56468
#
# Poissons Ratio (x) = 0.28939 0.11104
# Poissons Ratio (y) = 0.23535 0.06353
# Poissons Ratio (z) = 0.38215 0.26885
#
# Static dielectric constant tensor:
#      x y z
#    x 3.443010 0.000000 0.000000 
#    y 0.000000 3.674640 0.000000 
#    z 0.000000 0.000000 3.133980 
# 
# 
# High freq. dielectric constant tensor:
#      x y z
#    x 1.690120 0.000000 0.000000 
#    y 0.000000 1.692630 0.000000 
#    z 0.000000 0.000000 1.671530 
# 
# From -- ./inp_files/5777.got.cif
#   From: 2010.06.25/outbox.cif.g09.slc.cpg/sg58_3_cif.got.tgz:5777.got - 2010.06.26 21:38:00.
