data_PCOD8236516
_publ_section_title
;
Structure prediction by ZEFSAII (Michael W. Deem and Ramdas Pophale) SiO2 
 PCOD8236516
Probable space group: P N N M
;
_chemical_formula_sum "Si O2"
_cell_formula_units_Z 64
_cell_length_a 19.845910
_cell_length_b 19.587977
_cell_length_c 9.092580
_cell_angle_alpha 90.000000
_cell_angle_beta 90.000000
_cell_angle_gamma 90.000000
_cell_volume 3534.660721
_symmetry_space_group_name_H-M "P N N M"
_symmetry_group_IT_number 58
_symmetry_cell_setting 'orthorhombic'
loop_
_space_group_symop_operation_xyz
x,y,z
-x,-y,z
1/2+x,1/2-y,1/2-z
1/2-x,1/2+y,1/2-z
-x,-y,-z
x,y,-z
1/2-x,1/2+y,1/2+z
1/2+x,1/2-y,1/2+z
loop_
_atom_site_type_symbol
_atom_site_label
_atom_site_fract_x
_atom_site_fract_y
_atom_site_fract_z
Si Si1 0.482256 0.576202 0.170184
Si Si2 0.829400 0.939816 0.332523
Si Si3 0.202389 0.906289 0.672229
Si Si4 0.910956 0.326921 0.831061
Si Si5 0.970959 0.573649 0.828126
Si Si6 0.200946 0.594416 0.671729
Si Si7 0.665370 0.059154 0.826858
Si Si8 0.086530 0.831168 0.829568
O O1 0.500000 0.500000 0.221720
O O2 0.403313 0.590471 0.194843
O O3 0.521698 0.629520 0.269512
O O4 0.503409 0.585838 0.000000
O O5 0.806284 0.929659 0.500000
O O6 0.776964 0.898946 0.231740
O O7 0.830429 0.020119 0.294357
O O8 0.210681 0.892355 0.500000
O O9 0.274781 0.899410 0.749098
O O10 0.153620 0.850011 0.741122
O O11 0.844981 0.346961 0.740264
O O12 0.927867 0.248306 0.805443
O O13 0.975293 0.369935 0.777494
O O14 0.895420 0.344058 0.000000
O O15 0.904312 0.588258 0.734536
O O16 0.000000 0.500000 0.786829
O O17 0.953157 0.578685 0.000000
O O18 0.203574 0.606229 0.500000
O O19 0.170852 0.520677 0.714535
O O20 0.669870 0.071391 0.000000
O O21 0.097061 0.849421 0.000000
#
# Coordination Sequence:
#
# PCOD8236516 Si02
#       8
#     8   8   8   8   8   8   8   8
#     4  10  19  36  58  83 111 145 189 229 269 331
#     4   9  18  33  56  81 108 141 180 227 273 319
#     4  10  19  35  57  80 108 145 186 224 268 333
#     4  10  22  39  56  78 112 150 189 228 277 340
#     4  10  19  34  58  82 106 148 196 231 272 333
#     4  10  20  33  53  82 112 141 180 228 278 329
#     4  10  20  33  53  85 117 139 175 234 287 324
#     4  11  23  37  55  82 115 148 182 231 287 334
#
# _framework density 18.106404999999999
#
# number of rings (size 3 to 8) (size 9 to 14) (size 15 to 20)
#    0.000    2.000    2.500    1.500    0.000    4.000 
#    0.000    1.250    0.000    3.000    0.000    0.000 
#    0.000    0.000    0.000    0.000    0.000    0.000 
#
# Total GULP energy -793918.219324 kJ/mol
# GULP energy per Si atom -12404.972177 kJ/mol
# Density = 1.806519 g / cm^3
# Si number density = 18.106405 Si / 1000 Ang^3
#
#
#
# Elastic Constant Matrix: (Units=GPa)
#
#
# Indices 1 2 3 4 5 6 
#
# 1 129.3471 53.8521 62.6657 0.0000 0.0000 0.0000
# 2 53.8521 81.8325 46.3607 0.0000 0.0000 0.0000
# 3 62.6657 46.3607 89.9034 0.0000 0.0000 0.0000
# 4 0.0000 0.0000 0.0000 23.7788 0.0000 0.0000
# 5 0.0000 0.0000 0.0000 0.0000 34.4956 0.0000
# 6 0.0000 0.0000 0.0000 0.0000 0.0000 28.0271
#
#
#
# Elastic Compliance Matrix: (Units=1/GPa)
#
#
# Indices 1 2 3 4 5 6 
#
# 1 0.012877 -0.004788 -0.006507 0.000000 0.000000 0.000000
# 2 -0.004788 0.019044 -0.006483 0.000000 0.000000 0.000000
# 3 -0.006507 -0.006483 0.019002 0.000000 0.000000 0.000000
# 4 0.000000 0.000000 0.000000 0.042054 0.000000 0.000000
# 5 0.000000 0.000000 0.000000 0.000000 0.028989 0.000000
# 6 0.000000 0.000000 0.000000 0.000000 0.000000 0.035680
#
#
# Mechanical properties :
#
#
# Convention : Reuss Voigt Hill
#
# Bulk Modulus (GPa) = 65.07417 69.64887 67.36152
# Shear Modulus (GPa) = 25.21147 26.47393 25.84270
#
# Velocity S-wave (km/s) = 3.73554 3.82793 3.78202
# Velocity P-wave (km/s) = 7.39078 7.62150 7.50703
#
# Compressibility (1/GPa) = 0.01536708
#
# Stress axis : x y z
#
# Youngs Moduli (GPa) = 77.65932 52.51100 52.62722
#
# Poissons Ratio (x) = 0.25141 0.34243
# Poissons Ratio (y) = 0.37181 0.34119
# Poissons Ratio (z) = 0.50530 0.34043
#
# Static dielectric constant tensor:
#      x y z
#    x 3.407360 0.000000 0.000000 
#    y 0.000000 3.105480 0.000000 
#    z 0.000000 0.000000 3.334090 
# 
# 
# High freq. dielectric constant tensor:
#      x y z
#    x 1.713010 0.000000 0.000000 
#    y 0.000000 1.673120 0.000000 
#    z 0.000000 0.000000 1.706150 
# 
# From -- ./inp_files/9306.got.cif
#   From: 2010.06.25/outbox.cif.g09.slc.cpg/sg58_5_cif.got.tgz:9306.got - 2010.06.26 21:38:00.
