data_PCOD8236863
_publ_section_title
;
Structure prediction by ZEFSAII (Michael W. Deem and Ramdas Pophale) SiO2 
 PCOD8236863
Probable space group: P N N M
;
_chemical_formula_sum "Si O2"
_cell_formula_units_Z 48
_cell_length_a 18.354852
_cell_length_b 8.794228
_cell_length_c 14.871738
_cell_angle_alpha 90.000000
_cell_angle_beta 90.000000
_cell_angle_gamma 90.000000
_cell_volume 2400.547665
_symmetry_space_group_name_H-M "P N N M"
_symmetry_group_IT_number 58
_symmetry_cell_setting 'orthorhombic'
loop_
_space_group_symop_operation_xyz
x,y,z
-x,-y,z
1/2+x,1/2-y,1/2-z
1/2-x,1/2+y,1/2-z
-x,-y,-z
x,y,-z
1/2-x,1/2+y,1/2+z
1/2+x,1/2-y,1/2+z
loop_
_atom_site_type_symbol
_atom_site_label
_atom_site_fract_x
_atom_site_fract_y
_atom_site_fract_z
Si Si1 0.266076 0.505373 0.500000
Si Si2 0.960044 0.651288 0.671572
Si Si3 0.698089 0.030734 0.182787
Si Si4 0.544948 0.653445 0.306969
Si Si5 0.572122 0.599846 0.500000
Si Si6 0.685369 0.668089 0.193610
Si Si7 0.504965 0.679943 0.000000
Si Si8 0.329289 0.303425 0.000000
O O1 0.236610 0.421410 0.410731
O O2 0.354364 0.504299 0.500000
O O3 0.232044 0.673019 0.500000
O O4 0.877124 0.617568 0.693225
O O5 0.000000 0.500000 0.638996
O O6 0.997508 0.713413 0.762541
O O7 0.963757 0.768999 0.589865
O O8 0.743986 0.092549 0.265434
O O9 0.688292 0.850482 0.191154
O O10 0.500000 0.500000 0.312581
O O11 0.569957 0.701541 0.408531
O O12 0.614851 0.614859 0.247210
O O13 0.500000 0.500000 0.500000
O O14 0.681109 0.601515 0.091750
O O15 0.500000 0.500000 0.000000
O O16 0.586386 0.752726 0.000000
#
# Coordination Sequence:
#
# PCOD8236863 Si02
#       8
#     4   8   8   8   4   8   4   4
#     4  10  19  40  62  91 129 166 217 271 320 399
#     4  12  23  42  65  94 133 175 216 269 337 399
#     4  11  24  39  66  92 128 172 216 268 335 399
#     4  11  23  41  67  93 128 170 224 276 325 401
#     4  10  22  39  67  96 124 173 232 275 327 388
#     4  11  23  42  62  94 130 168 216 266 329 396
#     4  12  24  39  67 100 135 167 218 269 326 403
#     4  10  22  38  62  95 131 163 202 269 335 387
#
# _framework density 19.995436999999999
#
# number of rings (size 3 to 8) (size 9 to 14) (size 15 to 20)
#    0.000    1.000    5.000    2.250    2.333    1.333 
#    0.000    2.083    0.000    0.000    0.000    0.000 
#    0.000    0.000    0.000    0.000    0.000    0.000 
#
# Total GULP energy -595093.513286 kJ/mol
# GULP energy per Si atom -12397.781527 kJ/mol
# Density = 1.994993 g / cm^3
# Si number density = 19.995437 Si / 1000 Ang^3
#
#
#
# Elastic Constant Matrix: (Units=GPa)
#
#
# Indices 1 2 3 4 5 6 
#
# 1 151.6658 21.1503 58.0002 0.0000 0.0000 0.0000
# 2 21.1503 69.8291 34.5618 0.0000 0.0000 0.0000
# 3 58.0002 34.5618 197.9193 0.0000 0.0000 0.0000
# 4 0.0000 0.0000 0.0000 24.9931 0.0000 0.0000
# 5 0.0000 0.0000 0.0000 0.0000 34.8250 0.0000
# 6 0.0000 0.0000 0.0000 0.0000 0.0000 33.2548
#
#
#
# Elastic Compliance Matrix: (Units=1/GPa)
#
#
# Indices 1 2 3 4 5 6 
#
# 1 0.007532 -0.001301 -0.001980 0.000000 0.000000 0.000000
# 2 -0.001301 0.015900 -0.002395 0.000000 0.000000 0.000000
# 3 -0.001980 -0.002395 0.006051 0.000000 0.000000 0.000000
# 4 0.000000 0.000000 0.000000 0.040011 0.000000 0.000000
# 5 0.000000 0.000000 0.000000 0.000000 0.028715 0.000000
# 6 0.000000 0.000000 0.000000 0.000000 0.000000 0.030071
#
#
# Mechanical properties :
#
#
# Convention : Reuss Voigt Hill
#
# Bulk Modulus (GPa) = 55.15633 71.87096 63.51365
# Shear Modulus (GPa) = 34.32247 38.99471 36.65859
#
# Velocity S-wave (km/s) = 4.14758 4.42088 4.28641
# Velocity P-wave (km/s) = 7.11202 7.87912 7.50538
#
# Compressibility (1/GPa) = 0.01813029
#
# Stress axis : x y z
#
# Youngs Moduli (GPa) = 132.76448 62.89165 165.25959
#
# Poissons Ratio (x) = 0.08184 0.32722
# Poissons Ratio (y) = 0.17277 0.39584
# Poissons Ratio (z) = 0.26288 0.15064
#
# Static dielectric constant tensor:
#      x y z
#    x 3.982320 0.000000 0.000000 
#    y 0.000000 3.281320 0.000000 
#    z 0.000000 0.000000 4.441400 
# 
# 
# High freq. dielectric constant tensor:
#      x y z
#    x 1.797070 0.000000 0.000000 
#    y 0.000000 1.745790 0.000000 
#    z 0.000000 0.000000 1.805190 
# 
# From -- ./inp_files/19900.got.cif
#   From: 2010.06.25/outbox.cif.g09.slc.cpg/sg58_10_cif.got.tgz:19900.got - 2010.06.26 21:38:00.
