data_PCOD8236096
_publ_section_title
;
Structure prediction by ZEFSAII (Michael W. Deem and Ramdas Pophale) SiO2 
 PCOD8236096
Probable space group: P N N M
;
_chemical_formula_sum "Si O2"
_cell_formula_units_Z 64
_cell_length_a 19.837856
_cell_length_b 18.833915
_cell_length_c 9.463251
_cell_angle_alpha 90.000000
_cell_angle_beta 90.000000
_cell_angle_gamma 90.000000
_cell_volume 3535.702364
_symmetry_space_group_name_H-M "P N N M"
_symmetry_group_IT_number 58
_symmetry_cell_setting 'orthorhombic'
loop_
_space_group_symop_operation_xyz
x,y,z
-x,-y,z
1/2+x,1/2-y,1/2-z
1/2-x,1/2+y,1/2-z
-x,-y,-z
x,y,-z
1/2-x,1/2+y,1/2+z
1/2+x,1/2-y,1/2+z
loop_
_atom_site_type_symbol
_atom_site_label
_atom_site_fract_x
_atom_site_fract_y
_atom_site_fract_z
Si Si1 0.344314 0.782901 0.834789
Si Si2 0.688272 0.061505 0.167397
Si Si3 0.568409 0.965065 0.831230
Si Si4 0.309772 0.531806 0.661288
Si Si5 0.250242 0.184062 0.161186
Si Si6 0.982110 0.788273 0.665153
Si Si7 0.098266 0.690553 0.668218
Si Si8 0.943388 0.942727 0.666790
O O1 0.323822 0.859461 0.772339
O O2 0.302266 0.722530 0.759744
O O3 0.422519 0.767371 0.803033
O O4 0.328746 0.777788 0.000000
O O5 0.631146 0.009799 0.230496
O O6 0.762923 0.034404 0.209136
O O7 0.680139 0.062681 0.000000
O O8 0.572640 0.884948 0.772414
O O9 0.500000 0.000000 0.773795
O O10 0.569987 0.965175 0.000000
O O11 0.334711 0.522901 0.500000
O O12 0.262058 0.600328 0.674724
O O13 0.374055 0.533986 0.761531
O O14 0.325003 0.203352 0.215968
O O15 0.240375 0.209182 0.000000
O O16 0.991927 0.799726 0.500000
O O17 0.966815 0.866238 0.729569
O O18 0.050572 0.753694 0.728883
O O19 0.093731 0.688456 0.500000
O O20 0.929946 0.938815 0.500000
O O21 0.000000 0.000000 0.705262
#
# Coordination Sequence:
#
# PCOD8236096 Si02
#       8
#     8   8   8   8   8   8   8   8
#     4  10  19  32  52  75 101 134 170 210 257 306
#     4   9  17  29  46  73 104 131 165 211 257 303
#     4   9  14  22  40  68 100 128 156 196 247 298
#     4  10  19  34  54  75 104 138 171 212 260 309
#     4  10  19  32  52  75 102 137 170 205 252 305
#     4   9  17  30  48  72 102 135 168 206 253 303
#     4   9  16  27  45  71 101 129 160 203 251 295
#     4  10  21  36  54  76 103 137 177 217 257 302
#
# _framework density 18.101071999999998
#
# number of rings (size 3 to 8) (size 9 to 14) (size 15 to 20)
#    0.000    2.500    2.500    0.750    0.000    4.250 
#    0.000    1.875    0.000    1.500    0.000    0.000 
#    0.000    2.500    0.000    0.000    0.000    0.000 
#
# Total GULP energy -793429.732209 kJ/mol
# GULP energy per Si atom -12397.339566 kJ/mol
# Density = 1.805987 g / cm^3
# Si number density = 18.101072 Si / 1000 Ang^3
#
#
#
# Elastic Constant Matrix: (Units=GPa)
#
#
# Indices 1 2 3 4 5 6 
#
# 1 94.3557 19.3672 33.8070 0.0000 0.0000 0.0000
# 2 19.3672 82.5429 19.4809 0.0000 0.0000 0.0000
# 3 33.8070 19.4809 21.5069 0.0000 0.0000 0.0000
# 4 0.0000 0.0000 0.0000 13.8289 0.0000 0.0000
# 5 0.0000 0.0000 0.0000 0.0000 18.3822 0.0000
# 6 0.0000 0.0000 0.0000 0.0000 0.0000 35.1082
#
#
#
# Elastic Compliance Matrix: (Units=1/GPa)
#
#
# Indices 1 2 3 4 5 6 
#
# 1 0.025470 0.004417 -0.044037 0.000000 0.000000 0.000000
# 2 0.004417 0.016175 -0.021595 0.000000 0.000000 0.000000
# 3 -0.044037 -0.021595 0.135280 0.000000 0.000000 0.000000
# 4 0.000000 0.000000 0.000000 0.072313 0.000000 0.000000
# 5 0.000000 0.000000 0.000000 0.000000 0.054401 0.000000
# 6 0.000000 0.000000 0.000000 0.000000 0.000000 0.028483
#
#
# Mechanical properties :
#
#
# Convention : Reuss Voigt Hill
#
# Bulk Modulus (GPa) = 18.35030 38.19063 28.27047
# Shear Modulus (GPa) = 10.57716 21.84721 16.21218
#
# Velocity S-wave (km/s) = 2.41993 3.47790 2.99598
# Velocity P-wave (km/s) = 4.23884 6.10508 5.25547
#
# Compressibility (1/GPa) = 0.05449501
#
# Stress axis : x y z
#
# Youngs Moduli (GPa) = 39.26220 61.82347 7.39207
#
# Poissons Ratio (x) = -0.27309 0.32553
# Poissons Ratio (y) = -0.17343 0.15963
# Poissons Ratio (z) = 1.72900 1.33507
#
# Static dielectric constant tensor:
#      x y z
#    x 3.478290 0.000000 0.000000 
#    y 0.000000 3.617490 0.000000 
#    z 0.000000 0.000000 2.779090 
# 
# 
# High freq. dielectric constant tensor:
#      x y z
#    x 1.713570 0.000000 0.000000 
#    y 0.000000 1.711910 0.000000 
#    z 0.000000 0.000000 1.634560 
# 
# From -- ./inp_files/16625.got.cif
#   From: 2010.06.25/outbox.cif.g09.slc.cpg/sg58_9_cif.got.tgz:16625.got - 2010.06.26 21:38:00.
