data_PCOD8236604
_publ_section_title
;
Structure prediction by ZEFSAII (Michael W. Deem and Ramdas Pophale) SiO2 
 PCOD8236604
Probable space group: P N N M
;
_chemical_formula_sum "Si O2"
_cell_formula_units_Z 64
_cell_length_a 21.857377
_cell_length_b 16.965090
_cell_length_c 8.518288
_cell_angle_alpha 90.000000
_cell_angle_beta 90.000000
_cell_angle_gamma 90.000000
_cell_volume 3158.686544
_symmetry_space_group_name_H-M "P N N M"
_symmetry_group_IT_number 58
_symmetry_cell_setting 'orthorhombic'
loop_
_space_group_symop_operation_xyz
x,y,z
-x,-y,z
1/2+x,1/2-y,1/2-z
1/2-x,1/2+y,1/2-z
-x,-y,-z
x,y,-z
1/2-x,1/2+y,1/2+z
1/2+x,1/2-y,1/2+z
loop_
_atom_site_type_symbol
_atom_site_label
_atom_site_fract_x
_atom_site_fract_y
_atom_site_fract_z
Si Si1 0.398597 0.776001 0.314702
Si Si2 0.338166 0.622900 0.315666
Si Si3 0.875405 0.200389 0.684084
Si Si4 0.815521 0.593520 0.682347
Si Si5 0.469321 0.176674 0.685806
Si Si6 0.714885 0.815097 0.317694
Si Si7 0.678775 0.551107 0.687256
Si Si8 0.622908 0.933481 0.817725
O O1 0.400341 0.779322 0.500000
O O2 0.391061 0.684127 0.260184
O O3 0.340467 0.827169 0.260429
O O4 0.462447 0.808919 0.247487
O O5 0.338428 0.613113 0.500000
O O6 0.276338 0.663904 0.266946
O O7 0.342258 0.534653 0.245873
O O8 0.887061 0.207623 0.500000
O O9 0.929305 0.246316 0.773475
O O10 0.810331 0.236842 0.734150
O O11 0.871165 0.109734 0.737639
O O12 0.809618 0.610616 0.500000
O O13 0.748366 0.568534 0.746287
O O14 0.865920 0.525361 0.716454
O O15 0.468318 0.163511 0.500000
O O16 0.444965 0.096968 0.771592
O O17 0.725428 0.797603 0.500000
O O18 0.667746 0.886083 0.295747
O O19 0.675452 0.555790 0.500000
O O20 0.636654 0.913743 0.000000
#
# Coordination Sequence:
#
# PCOD8236604 Si02
#       8
#     8   8   8   8   8   8   8   8
#     4  10  23  39  58  82 111 150 191 234 281 333
#     4  10  20  38  59  81 113 150 186 231 283 339
#     4  11  22  36  57  83 110 146 189 232 282 334
#     4  10  21  36  57  85 117 149 184 227 280 339
#     4  10  21  39  58  81 111 148 195 237 279 330
#     4  11  20  32  54  84 114 146 183 227 282 336
#     4  10  20  37  59  85 116 146 182 231 283 336
#     4  10  19  35  57  83 112 151 190 227 278 334
#
# _framework density 20.261586000000001
#
# number of rings (size 3 to 8) (size 9 to 14) (size 15 to 20)
#    0.000    1.750    1.250    5.250    0.000    6.000 
#    0.000    3.125    0.000    3.750    0.000    0.000 
#    0.000    0.000    0.000    0.000    0.000    0.000 
#
# Total GULP energy -793363.456792 kJ/mol
# GULP energy per Si atom -12396.304012 kJ/mol
# Density = 2.021547 g / cm^3
# Si number density = 20.261586 Si / 1000 Ang^3
#
#
#
# Elastic Constant Matrix: (Units=GPa)
#
#
# Indices 1 2 3 4 5 6 
#
# 1 35.9394 14.2245 12.7121 0.0000 0.0000 0.0000
# 2 14.2245 123.9762 10.4246 0.0000 0.0000 0.0000
# 3 12.7121 10.4246 49.9514 0.0000 0.0000 0.0000
# 4 0.0000 0.0000 0.0000 26.2270 0.0000 0.0000
# 5 0.0000 0.0000 0.0000 0.0000 14.7673 0.0000
# 6 0.0000 0.0000 0.0000 0.0000 0.0000 20.8394
#
#
#
# Elastic Compliance Matrix: (Units=1/GPa)
#
#
# Indices 1 2 3 4 5 6 
#
# 1 0.031641 -0.003006 -0.007425 0.000000 0.000000 0.000000
# 2 -0.003006 0.008496 -0.001008 0.000000 0.000000 0.000000
# 3 -0.007425 -0.001008 0.022119 0.000000 0.000000 0.000000
# 4 0.000000 0.000000 0.000000 0.038129 0.000000 0.000000
# 5 0.000000 0.000000 0.000000 0.000000 0.067717 0.000000
# 6 0.000000 0.000000 0.000000 0.000000 0.000000 0.047986
#
#
# Mechanical properties :
#
#
# Convention : Reuss Voigt Hill
#
# Bulk Modulus (GPa) = 25.39493 31.62106 28.50799
# Shear Modulus (GPa) = 19.83409 23.86712 21.85061
#
# Velocity S-wave (km/s) = 3.13213 3.43585 3.28750
# Velocity P-wave (km/s) = 5.06370 5.60182 5.33954
#
# Compressibility (1/GPa) = 0.03937794
#
# Stress axis : x y z
#
# Youngs Moduli (GPa) = 31.60495 117.70634 45.20927
#
# Poissons Ratio (x) = 0.35382 0.33567
# Poissons Ratio (y) = 0.09500 0.04557
# Poissons Ratio (z) = 0.23466 0.11865
#
# Static dielectric constant tensor:
#      x y z
#    x 3.860220 0.000000 0.000000 
#    y 0.000000 4.007160 0.000000 
#    z 0.000000 0.000000 3.515840 
# 
# 
# High freq. dielectric constant tensor:
#      x y z
#    x 1.772920 0.000000 0.000000 
#    y 0.000000 1.802810 0.000000 
#    z 0.000000 0.000000 1.781130 
# 
# From -- ./inp_files/10142.got.cif
#   From: 2010.06.25/outbox.cif.g09.slc.cpg/sg58_6_cif.got.tgz:10142.got - 2010.06.26 21:38:00.
