data_PCOD8236836
_publ_section_title
;
Structure prediction by ZEFSAII (Michael W. Deem and Ramdas Pophale) SiO2 
 PCOD8236836
Probable space group: P N N M
;
_chemical_formula_sum "Si O2"
_cell_formula_units_Z 48
_cell_length_a 9.242171
_cell_length_b 10.949288
_cell_length_c 22.847251
_cell_angle_alpha 90.000000
_cell_angle_beta 90.000000
_cell_angle_gamma 90.000000
_cell_volume 2312.031952
_symmetry_space_group_name_H-M "P N N M"
_symmetry_group_IT_number 58
_symmetry_cell_setting 'orthorhombic'
loop_
_space_group_symop_operation_xyz
x,y,z
-x,-y,z
1/2+x,1/2-y,1/2-z
1/2-x,1/2+y,1/2-z
-x,-y,-z
x,y,-z
1/2-x,1/2+y,1/2+z
1/2+x,1/2-y,1/2+z
loop_
_atom_site_type_symbol
_atom_site_label
_atom_site_fract_x
_atom_site_fract_y
_atom_site_fract_z
Si Si1 0.079137 0.717827 0.351291
Si Si2 0.132352 0.915351 0.562272
Si Si3 0.338500 0.047690 0.349545
Si Si4 0.855294 0.076048 0.263879
Si Si5 0.252394 0.823944 0.852557
Si Si6 0.830789 0.479062 0.434472
O O1 0.055273 0.802696 0.407062
O O2 0.150435 0.793298 0.297909
O O3 0.186348 0.614245 0.378762
O O4 0.919643 0.675961 0.330751
O O5 0.201914 0.875719 0.500000
O O6 0.255900 0.975819 0.600322
O O7 0.000000 0.000000 0.549135
O O8 0.321402 0.192070 0.360557
O O9 0.500000 0.000000 0.352000
O O10 0.274227 0.010923 0.286249
O O11 0.839106 0.102429 0.195698
O O12 0.000000 0.000000 0.277661
O O13 0.246132 0.897980 0.914092
O O14 0.772152 0.440412 0.500000
O O15 0.000000 0.500000 0.441189
#
# Coordination Sequence:
#
# PCOD8236836 Si02
#       6
#     8   8   8   8   8   8
#     4  10  19  39  63  94 125 161 218 269 317 392
#     4  10  19  37  66  91 124 169 209 266 324 383
#     4  11  24  40  60  95 130 168 219 270 326 392
#     4  11  24  41  64  89 130 171 219 265 328 393
#     4  11  23  38  63  92 129 168 212 275 324 384
#     4   9  20  36  60  93 124 163 212 260 318 384
#
# _framework density 20.760960000000001
#
# number of rings (size 3 to 8) (size 9 to 14) (size 15 to 20)
#    0.000    1.667    3.333    1.500    4.667    2.333 
#    3.000    0.000    0.000    0.500    0.000    0.000 
#    0.000    0.000    0.000    0.000    0.000    0.000 
#
# Total GULP energy -594692.607507 kJ/mol
# GULP energy per Si atom -12389.429323 kJ/mol
# Density = 2.071371 g / cm^3
# Si number density = 20.760960 Si / 1000 Ang^3
#
#
#
# Elastic Constant Matrix: (Units=GPa)
#
#
# Indices 1 2 3 4 5 6 
#
# 1 89.3245 29.0585 27.5473 0.0000 0.0000 0.0000
# 2 29.0585 99.9529 30.8087 0.0000 0.0000 0.0000
# 3 27.5473 30.8087 103.8741 0.0000 0.0000 0.0000
# 4 0.0000 0.0000 0.0000 18.3875 0.0000 0.0000
# 5 0.0000 0.0000 0.0000 0.0000 15.5137 0.0000
# 6 0.0000 0.0000 0.0000 0.0000 0.0000 26.6744
#
#
#
# Elastic Compliance Matrix: (Units=1/GPa)
#
#
# Indices 1 2 3 4 5 6 
#
# 1 0.012951 -0.002979 -0.002551 0.000000 0.000000 0.000000
# 2 -0.002979 0.011697 -0.002679 0.000000 0.000000 0.000000
# 3 -0.002551 -0.002679 0.011098 0.000000 0.000000 0.000000
# 4 0.000000 0.000000 0.000000 0.054385 0.000000 0.000000
# 5 0.000000 0.000000 0.000000 0.000000 0.064459 0.000000
# 6 0.000000 0.000000 0.000000 0.000000 0.000000 0.037489
#
#
# Mechanical properties :
#
#
# Convention : Reuss Voigt Hill
#
# Bulk Modulus (GPa) = 51.73956 51.99785 51.86870
# Shear Modulus (GPa) = 23.26238 25.83092 24.54665
#
# Velocity S-wave (km/s) = 3.35100 3.53116 3.44226
# Velocity P-wave (km/s) = 6.32044 6.45955 6.39037
#
# Compressibility (1/GPa) = 0.01932757
#
# Stress axis : x y z
#
# Youngs Moduli (GPa) = 77.21460 85.49552 90.10457
#
# Poissons Ratio (x) = 0.25467 0.22986
# Poissons Ratio (y) = 0.23001 0.24141
# Poissons Ratio (z) = 0.19698 0.22906
#
# Static dielectric constant tensor:
#      x y z
#    x 3.313040 0.000000 0.000000 
#    y 0.000000 4.106560 0.000000 
#    z 0.000000 0.000000 4.011800 
# 
# 
# High freq. dielectric constant tensor:
#      x y z
#    x 1.773780 0.000000 0.000000 
#    y 0.000000 1.824180 0.000000 
#    z 0.000000 0.000000 1.820260 
# 
# From -- ./inp_files/31474.got.cif
#   From: 2010.06.25/outbox.cif.g09.slc.cpg/sg58_16_cif.got.tgz:31474.got - 2010.06.26 21:38:00.
