data_PCOD8236670
_publ_section_title
;
Structure prediction by ZEFSAII (Michael W. Deem and Ramdas Pophale) SiO2 
 PCOD8236670
Probable space group: P N N M
;
_chemical_formula_sum "Si O2"
_cell_formula_units_Z 48
_cell_length_a 18.549518
_cell_length_b 13.948438
_cell_length_c 9.397561
_cell_angle_alpha 90.000000
_cell_angle_beta 90.000000
_cell_angle_gamma 90.000000
_cell_volume 2431.494877
_symmetry_space_group_name_H-M "P N N M"
_symmetry_group_IT_number 58
_symmetry_cell_setting 'orthorhombic'
loop_
_space_group_symop_operation_xyz
x,y,z
-x,-y,z
1/2+x,1/2-y,1/2-z
1/2-x,1/2+y,1/2-z
-x,-y,-z
x,y,-z
1/2-x,1/2+y,1/2+z
1/2+x,1/2-y,1/2+z
loop_
_atom_site_type_symbol
_atom_site_label
_atom_site_fract_x
_atom_site_fract_y
_atom_site_fract_z
Si Si1 0.611322 0.449218 0.162563
Si Si2 0.958312 0.143903 0.661234
Si Si3 0.858880 0.642004 0.168542
Si Si4 0.017672 0.679448 0.162472
Si Si5 0.656983 0.929792 0.663681
Si Si6 0.723418 0.331643 0.669246
O O1 0.601850 0.562721 0.187587
O O2 0.536852 0.397030 0.195276
O O3 0.669717 0.412786 0.273820
O O4 0.636247 0.429766 0.000000
O O5 0.953985 0.180227 0.500000
O O6 0.942210 0.232609 0.762052
O O7 0.828873 0.538539 0.219074
O O8 0.804909 0.726498 0.217833
O O9 0.939385 0.658403 0.232449
O O10 0.866007 0.639460 0.000000
O O11 0.071084 0.588780 0.176761
O O12 0.006685 0.709621 0.000000
O O13 0.682155 0.917627 0.500000
O O14 0.699353 0.853217 0.760714
O O15 0.729250 0.338509 0.500000
#
# Coordination Sequence:
#
# PCOD8236670 Si02
#       6
#     8   8   8   8   8   8
#     4   9  18  34  54  79 112 151 189 220 269 340
#     4   9  18  32  54  83 114 147 182 226 278 330
#     4   9  19  38  61  82 107 147 190 231 278 331
#     4  10  19  35  60  87 111 144 193 239 278 327
#     4  10  22  39  59  82 112 150 190 229 278 346
#     4  11  22  37  58  84 114 146 186 238 290 331
#
# _framework density 19.740940999999999
#
# number of rings (size 3 to 8) (size 9 to 14) (size 15 to 20)
#    0.000    2.333    1.667    2.000    0.000    4.667 
#    0.000    9.167    0.000    2.000    0.000    0.000 
#    0.000    0.000    0.000    0.000    0.000    0.000 
#
# Total GULP energy -595107.465281 kJ/mol
# GULP energy per Si atom -12398.072193 kJ/mol
# Density = 1.969601 g / cm^3
# Si number density = 19.740941 Si / 1000 Ang^3
#
#
#
# Elastic Constant Matrix: (Units=GPa)
#
#
# Indices 1 2 3 4 5 6 
#
# 1 88.4757 46.7812 33.1212 0.0000 0.0000 0.0000
# 2 46.7812 116.7240 38.5046 0.0000 0.0000 0.0000
# 3 33.1212 38.5046 61.9997 0.0000 0.0000 0.0000
# 4 0.0000 0.0000 0.0000 28.4801 0.0000 0.0000
# 5 0.0000 0.0000 0.0000 0.0000 30.4626 0.0000
# 6 0.0000 0.0000 0.0000 0.0000 0.0000 26.4587
#
#
#
# Elastic Compliance Matrix: (Units=1/GPa)
#
#
# Indices 1 2 3 4 5 6 
#
# 1 0.015778 -0.004456 -0.005662 0.000000 0.000000 0.000000
# 2 -0.004456 0.012033 -0.005093 0.000000 0.000000 0.000000
# 3 -0.005662 -0.005093 0.022316 0.000000 0.000000 0.000000
# 4 0.000000 0.000000 0.000000 0.035112 0.000000 0.000000
# 5 0.000000 0.000000 0.000000 0.000000 0.032827 0.000000
# 6 0.000000 0.000000 0.000000 0.000000 0.000000 0.037795
#
#
# Mechanical properties :
#
#
# Convention : Reuss Voigt Hill
#
# Bulk Modulus (GPa) = 50.74290 56.00149 53.37220
# Shear Modulus (GPa) = 25.92679 26.99978 26.46329
#
# Velocity S-wave (km/s) = 3.62795 3.70226 3.66529
# Velocity P-wave (km/s) = 6.58100 6.83414 6.70876
#
# Compressibility (1/GPa) = 0.01970719
#
# Stress axis : x y z
#
# Youngs Moduli (GPa) = 63.37923 83.10453 44.81033
#
# Poissons Ratio (x) = 0.37031 0.25369
# Poissons Ratio (y) = 0.28242 0.22820
# Poissons Ratio (z) = 0.35882 0.42322
#
# Static dielectric constant tensor:
#      x y z
#    x 3.584000 0.000000 0.000000 
#    y 0.000000 3.750900 0.000000 
#    z 0.000000 0.000000 3.326190 
# 
# 
# High freq. dielectric constant tensor:
#      x y z
#    x 1.767490 0.000000 0.000000 
#    y 0.000000 1.774250 0.000000 
#    z 0.000000 0.000000 1.741020 
# 
# From -- ./inp_files/5792.got.cif
#   From: 2010.06.25/outbox.cif.g09.slc.cpg/sg58_3_cif.got.tgz:5792.got - 2010.06.26 21:38:00.
