data_PCOD8236565
_publ_section_title
;
Structure prediction by ZEFSAII (Michael W. Deem and Ramdas Pophale) SiO2 
 PCOD8236565
Probable space group: P N N M
;
_chemical_formula_sum "Si O2"
_cell_formula_units_Z 44
_cell_length_a 19.257640
_cell_length_b 12.950015
_cell_length_c 8.564142
_cell_angle_alpha 90.000000
_cell_angle_beta 90.000000
_cell_angle_gamma 90.000000
_cell_volume 2135.783342
_symmetry_space_group_name_H-M "P N N M"
_symmetry_group_IT_number 58
_symmetry_cell_setting 'orthorhombic'
loop_
_space_group_symop_operation_xyz
x,y,z
-x,-y,z
1/2+x,1/2-y,1/2-z
1/2-x,1/2+y,1/2-z
-x,-y,-z
x,y,-z
1/2-x,1/2+y,1/2+z
1/2+x,1/2-y,1/2+z
loop_
_atom_site_type_symbol
_atom_site_label
_atom_site_fract_x
_atom_site_fract_y
_atom_site_fract_z
Si Si1 0.016228 0.615268 0.680695
Si Si2 0.435850 0.698937 0.315471
Si Si3 0.800959 0.875013 0.682053
Si Si4 0.163319 0.707573 0.320414
Si Si5 0.500000 0.500000 0.285322
Si Si6 0.146899 0.923318 0.168448
O O1 0.996879 0.630799 0.500000
O O2 0.968447 0.690629 0.781746
O O3 0.000000 0.500000 0.737542
O O4 0.096878 0.636415 0.712207
O O5 0.445838 0.672944 0.500000
O O6 0.354728 0.700673 0.271228
O O7 0.473307 0.608206 0.206887
O O8 0.817588 0.873653 0.500000
O O9 0.724164 0.833603 0.711316
O O10 0.806774 0.991276 0.745548
O O11 0.186559 0.701788 0.500000
O O12 0.143946 0.824451 0.278786
O O13 0.569745 0.535662 0.373113
O O14 0.181174 0.897001 0.000000
#
# Coordination Sequence:
#
# PCOD8236565 Si02
#       6
#     8   8   8   8   4   8
#     4  10  23  42  63  90 127 169 214 262 317 382
#     4  11  21  38  63  94 127 162 210 265 323 384
#     4  11  24  41  61  90 127 168 213 262 321 382
#     4  11  23  41  63  91 125 168 217 265 321 387
#     4  10  19  34  61  94 125 156 199 260 325 380
#     4  11  21  38  63  93 126 162 205 263 324 381
#
# _framework density 20.601341000000001
#
# number of rings (size 3 to 8) (size 9 to 14) (size 15 to 20)
#    0.000    1.273    1.818    6.000    0.000    2.545 
#    0.000    8.182    0.000    0.000    0.000    0.000 
#    0.000    0.000    0.000    0.000    0.000    0.000 
#
# Total GULP energy -545127.657917 kJ/mol
# GULP energy per Si atom -12389.264953 kJ/mol
# Density = 2.055445 g / cm^3
# Si number density = 20.601341 Si / 1000 Ang^3
#
#
#
# Elastic Constant Matrix: (Units=GPa)
#
#
# Indices 1 2 3 4 5 6 
#
# 1 104.4445 62.8557 33.4481 0.0000 0.0000 0.0000
# 2 62.8557 146.4230 35.3021 0.0000 0.0000 0.0000
# 3 33.4481 35.3021 79.2627 0.0000 0.0000 0.0000
# 4 0.0000 0.0000 0.0000 18.4263 0.0000 0.0000
# 5 0.0000 0.0000 0.0000 0.0000 16.4896 0.0000
# 6 0.0000 0.0000 0.0000 0.0000 0.0000 29.6043
#
#
#
# Elastic Compliance Matrix: (Units=1/GPa)
#
#
# Indices 1 2 3 4 5 6 
#
# 1 0.013749 -0.005045 -0.003555 0.000000 0.000000 0.000000
# 2 -0.005045 0.009502 -0.002103 0.000000 0.000000 0.000000
# 3 -0.003555 -0.002103 0.015053 0.000000 0.000000 0.000000
# 4 0.000000 0.000000 0.000000 0.054270 0.000000 0.000000
# 5 0.000000 0.000000 0.000000 0.000000 0.060644 0.000000
# 6 0.000000 0.000000 0.000000 0.000000 0.000000 0.033779
#
#
# Mechanical properties :
#
#
# Convention : Reuss Voigt Hill
#
# Bulk Modulus (GPa) = 59.17831 65.92689 62.55260
# Shear Modulus (GPa) = 23.36042 26.13899 24.74971
#
# Velocity S-wave (km/s) = 3.37104 3.56589 3.46983
# Velocity P-wave (km/s) = 6.62870 7.00177 6.81779
#
# Compressibility (1/GPa) = 0.01689808
#
# Stress axis : x y z
#
# Youngs Moduli (GPa) = 72.73208 105.23760 66.43115
#
# Poissons Ratio (x) = 0.53093 0.23616
# Poissons Ratio (y) = 0.36694 0.13972
# Poissons Ratio (z) = 0.25856 0.22134
#
# Static dielectric constant tensor:
#      x y z
#    x 3.691840 0.000000 0.000000 
#    y 0.000000 3.835340 0.000000 
#    z 0.000000 0.000000 3.502400 
# 
# 
# High freq. dielectric constant tensor:
#      x y z
#    x 1.807060 0.000000 0.000000 
#    y 0.000000 1.813070 0.000000 
#    z 0.000000 0.000000 1.794690 
# 
# From -- ./inp_files/7659.got.cif
#   From: 2010.06.25/outbox.cif.g09.slc.cpg/sg58_4_cif.got.tgz:7659.got - 2010.06.26 21:38:00.
