data_PCOD8236965
_publ_section_title
;
Structure prediction by ZEFSAII (Michael W. Deem and Ramdas Pophale) SiO2 
 PCOD8236965
Probable space group: P N N M
;
_chemical_formula_sum "Si O2"
_cell_formula_units_Z 64
_cell_length_a 17.381319
_cell_length_b 14.105371
_cell_length_c 13.840691
_cell_angle_alpha 90.000000
_cell_angle_beta 90.000000
_cell_angle_gamma 90.000000
_cell_volume 3393.321561
_symmetry_space_group_name_H-M "P N N M"
_symmetry_group_IT_number 58
_symmetry_cell_setting 'orthorhombic'
loop_
_space_group_symop_operation_xyz
x,y,z
-x,-y,z
1/2+x,1/2-y,1/2-z
1/2-x,1/2+y,1/2-z
-x,-y,-z
x,y,-z
1/2-x,1/2+y,1/2+z
1/2+x,1/2-y,1/2+z
loop_
_atom_site_type_symbol
_atom_site_label
_atom_site_fract_x
_atom_site_fract_y
_atom_site_fract_z
Si Si1 0.685966 0.351546 0.222216
Si Si2 0.841217 0.303811 0.287696
Si Si3 0.864989 0.121512 0.608257
Si Si4 0.781533 0.503616 0.109998
Si Si5 0.084939 0.984662 0.212666
Si Si6 0.910094 0.503697 0.263852
Si Si7 0.832170 0.177577 0.891356
Si Si8 0.152686 0.328389 0.388864
O O1 0.748667 0.312454 0.298639
O O2 0.736435 0.409616 0.143743
O O3 0.626983 0.414629 0.282203
O O4 0.636858 0.269822 0.168410
O O5 0.871771 0.232844 0.369651
O O6 0.884909 0.402033 0.306197
O O7 0.858681 0.261519 0.180344
O O8 0.893700 0.100506 0.500000
O O9 0.775904 0.092197 0.623351
O O10 0.918156 0.062244 0.680894
O O11 0.858868 0.525163 0.169449
O O12 0.806483 0.488721 0.000000
O O13 0.125994 0.919655 0.134302
O O14 0.000000 0.000000 0.173810
O O15 0.895262 0.585262 0.342885
O O16 0.000000 0.500000 0.236237
O O17 0.742974 0.151320 0.880405
O O18 0.852813 0.209570 0.000000
O O19 0.126344 0.317290 0.500000
#
# Coordination Sequence:
#
# PCOD8236965 Si02
#       8
#     8   8   8   8   8   8   8   8
#     4   9  17  33  56  77 100 131 173 217 258 306
#     4   9  18  34  54  73  97 135 177 218 258 300
#     4   9  18  34  55  77 101 131 172 219 261 303
#     4   9  17  33  57  80  99 125 168 219 265 310
#     4  10  20  33  52  81 114 139 161 202 264 325
#     4  11  23  35  49  74 110 144 174 210 257 310
#     4   9  18  35  58  80 100 130 176 221 260 306
#     4  10  20  35  55  75  98 135 183 226 256 294
#
# _framework density 18.860576999999999
#
# number of rings (size 3 to 8) (size 9 to 14) (size 15 to 20)
#    0.000    2.500    0.000    4.125    0.000    7.000 
#    0.000    1.875    0.000    2.250    0.000    0.000 
#    0.000    0.000    0.000    0.000    0.000    0.000 
#
# Total GULP energy -793506.777753 kJ/mol
# GULP energy per Si atom -12398.543402 kJ/mol
# Density = 1.881765 g / cm^3
# Si number density = 18.860577 Si / 1000 Ang^3
#
#
#
# Elastic Constant Matrix: (Units=GPa)
#
#
# Indices 1 2 3 4 5 6 
#
# 1 58.8093 22.3352 4.1284 0.0000 0.0000 0.0000
# 2 22.3352 106.7295 8.4644 0.0000 0.0000 0.0000
# 3 4.1284 8.4644 38.3145 0.0000 0.0000 0.0000
# 4 0.0000 0.0000 0.0000 19.7616 0.0000 0.0000
# 5 0.0000 0.0000 0.0000 0.0000 17.0755 0.0000
# 6 0.0000 0.0000 0.0000 0.0000 0.0000 10.3820
#
#
#
# Elastic Compliance Matrix: (Units=1/GPa)
#
#
# Indices 1 2 3 4 5 6 
#
# 1 0.018523 -0.003784 -0.001160 0.000000 0.000000 0.000000
# 2 -0.003784 0.010310 -0.001870 0.000000 0.000000 0.000000
# 3 -0.001160 -0.001870 0.026638 0.000000 0.000000 0.000000
# 4 0.000000 0.000000 0.000000 0.050603 0.000000 0.000000
# 5 0.000000 0.000000 0.000000 0.000000 0.058563 0.000000
# 6 0.000000 0.000000 0.000000 0.000000 0.000000 0.096320
#
#
# Mechanical properties :
#
#
# Convention : Reuss Voigt Hill
#
# Bulk Modulus (GPa) = 23.89918 30.41214 27.15566
# Shear Modulus (GPa) = 17.32907 20.70553 19.01730
#
# Velocity S-wave (km/s) = 3.03446 3.31693 3.17883
# Velocity P-wave (km/s) = 4.99762 5.55240 5.28230
#
# Compressibility (1/GPa) = 0.04184244
#
# Stress axis : x y z
#
# Youngs Moduli (GPa) = 53.98762 96.99606 37.54062
#
# Poissons Ratio (x) = 0.36706 0.04354
# Poissons Ratio (y) = 0.20430 0.07020
# Poissons Ratio (z) = 0.06262 0.18137
#
# Static dielectric constant tensor:
#      x y z
#    x 3.218550 0.000000 0.000000 
#    y 0.000000 3.579380 0.000000 
#    z 0.000000 0.000000 3.367660 
# 
# 
# High freq. dielectric constant tensor:
#      x y z
#    x 1.708390 0.000000 0.000000 
#    y 0.000000 1.743590 0.000000 
#    z 0.000000 0.000000 1.717970 
# 
# From -- ./inp_files/23040.got.cif
#   From: 2010.06.25/outbox.cif.g09.slc.cpg/sg58_12_cif.got.tgz:23040.got - 2010.06.26 21:38:00.
