data_PCOD8236182
_publ_section_title
;
Structure prediction by ZEFSAII (Michael W. Deem and Ramdas Pophale) SiO2 
 PCOD8236182
Probable space group: P N N M
;
_chemical_formula_sum "Si O2"
_cell_formula_units_Z 40
_cell_length_a 21.308541
_cell_length_b 13.404005
_cell_length_c 7.790404
_cell_angle_alpha 90.000000
_cell_angle_beta 90.000000
_cell_angle_gamma 90.000000
_cell_volume 2225.093555
_symmetry_space_group_name_H-M "P N N M"
_symmetry_group_IT_number 58
_symmetry_cell_setting 'orthorhombic'
loop_
_space_group_symop_operation_xyz
x,y,z
-x,-y,z
1/2+x,1/2-y,1/2-z
1/2-x,1/2+y,1/2-z
-x,-y,-z
x,y,-z
1/2-x,1/2+y,1/2+z
1/2+x,1/2-y,1/2+z
loop_
_atom_site_type_symbol
_atom_site_label
_atom_site_fract_x
_atom_site_fract_y
_atom_site_fract_z
Si Si1 0.286785 0.111942 0.697684
Si Si2 0.926750 0.883938 0.000000
Si Si3 0.348979 0.303618 0.811601
Si Si4 0.276941 0.894881 0.802956
Si Si5 0.925772 0.114867 0.000000
Si Si6 0.346238 0.695486 0.802532
O O1 0.296179 0.138860 0.500000
O O2 0.332111 0.186481 0.799403
O O3 0.214271 0.129404 0.747826
O O4 0.305906 0.998905 0.738960
O O5 0.901447 0.832934 0.826663
O O6 0.000509 0.868599 0.000000
O O7 0.907231 0.999217 0.000000
O O8 0.285755 0.368747 0.799939
O O9 0.399370 0.333787 0.670403
O O10 0.378272 0.323011 0.000000
O O11 0.330301 0.811968 0.775369
O O12 0.256547 0.900991 0.000000
O O13 0.366938 0.675226 0.000000
#
# Coordination Sequence:
#
# PCOD8236182 Si02
#       6
#     8   4   8   8   4   8
#     4  10  19  32  55  88 119 144 180 225 282 344
#     4  11  24  38  63  73 111 155 187 232 280 326
#     4  11  21  36  56  81 116 149 183 231 282 325
#     4  10  19  32  54  87 120 143 179 227 278 341
#     4  11  24  42  53  85 107 147 199 232 270 336
#     4   9  21  36  52  84 115 143 185 228 275 333
#
# _framework density 17.976773999999999
#
# number of rings (size 3 to 8) (size 9 to 14) (size 15 to 20)
#    0.000    1.800    2.000    3.600    8.400    3.200 
#    0.000    2.000    0.000    2.400    0.000    4.200 
#    0.000    0.000    0.000    0.000    0.000    0.000 
#
# Total GULP energy -496086.666923 kJ/mol
# GULP energy per Si atom -12402.166673 kJ/mol
# Density = 1.793586 g / cm^3
# Si number density = 17.976774 Si / 1000 Ang^3
#
#
#
# Elastic Constant Matrix: (Units=GPa)
#
#
# Indices 1 2 3 4 5 6 
#
# 1 66.9514 39.0315 50.0066 0.0000 0.0000 0.0000
# 2 39.0315 109.3185 30.2352 0.0000 0.0000 0.0000
# 3 50.0066 30.2352 126.5755 0.0000 0.0000 0.0000
# 4 0.0000 0.0000 0.0000 29.2642 0.0000 0.0000
# 5 0.0000 0.0000 0.0000 0.0000 19.9878 0.0000
# 6 0.0000 0.0000 0.0000 0.0000 0.0000 20.7155
#
#
#
# Elastic Compliance Matrix: (Units=1/GPa)
#
#
# Indices 1 2 3 4 5 6 
#
# 1 0.024994 -0.006631 -0.008291 0.000000 0.000000 0.000000
# 2 -0.006631 0.011554 -0.000140 0.000000 0.000000 0.000000
# 3 -0.008291 -0.000140 0.011209 0.000000 0.000000 0.000000
# 4 0.000000 0.000000 0.000000 0.034171 0.000000 0.000000
# 5 0.000000 0.000000 0.000000 0.000000 0.050031 0.000000
# 6 0.000000 0.000000 0.000000 0.000000 0.000000 0.048273
#
#
# Mechanical properties :
#
#
# Convention : Reuss Voigt Hill
#
# Bulk Modulus (GPa) = 56.70895 60.15469 58.43182
# Shear Modulus (GPa) = 23.12307 26.23163 24.67735
#
# Velocity S-wave (km/s) = 3.59036 3.82409 3.70906
# Velocity P-wave (km/s) = 6.98582 7.28240 7.13565
#
# Compressibility (1/GPa) = 0.01763390
#
# Stress axis : x y z
#
# Youngs Moduli (GPa) = 40.00898 86.55059 89.21151
#
# Poissons Ratio (x) = 0.57392 0.73962
# Poissons Ratio (y) = 0.26530 0.01250
# Poissons Ratio (z) = 0.33170 0.01213
#
# Static dielectric constant tensor:
#      x y z
#    x 2.893540 0.000000 0.000000 
#    y 0.000000 3.611630 0.000000 
#    z 0.000000 0.000000 3.419480 
# 
# 
# High freq. dielectric constant tensor:
#      x y z
#    x 1.646510 0.000000 0.000000 
#    y 0.000000 1.707820 0.000000 
#    z 0.000000 0.000000 1.715270 
# 
# From -- ./inp_files/3822.got.cif
#   From: 2010.06.25/outbox.cif.g09.slc.cpg/sg58_2_cif.got.tgz:3822.got - 2010.06.26 21:38:00.
