data_PCOD8236299
_publ_section_title
;
Structure prediction by ZEFSAII (Michael W. Deem and Ramdas Pophale) SiO2 
 PCOD8236299
Probable space group: P N N M
;
_chemical_formula_sum "Si O2"
_cell_formula_units_Z 56
_cell_length_a 22.017021
_cell_length_b 14.650730
_cell_length_c 9.047826
_cell_angle_alpha 90.000000
_cell_angle_beta 90.000000
_cell_angle_gamma 90.000000
_cell_volume 2918.515885
_symmetry_space_group_name_H-M "P N N M"
_symmetry_group_IT_number 58
_symmetry_cell_setting 'orthorhombic'
loop_
_space_group_symop_operation_xyz
x,y,z
-x,-y,z
1/2+x,1/2-y,1/2-z
1/2-x,1/2+y,1/2-z
-x,-y,-z
x,y,-z
1/2-x,1/2+y,1/2+z
1/2+x,1/2-y,1/2+z
loop_
_atom_site_type_symbol
_atom_site_label
_atom_site_fract_x
_atom_site_fract_y
_atom_site_fract_z
Si Si1 0.430113 0.492391 0.676387
Si Si2 0.719469 0.834775 0.675243
Si Si3 0.862513 0.469839 0.668290
Si Si4 0.642337 0.346556 0.172296
Si Si5 0.619964 0.697428 0.330296
Si Si6 0.583636 0.155075 0.167254
Si Si7 0.962745 0.365307 0.830583
O O1 0.500000 0.500000 0.732244
O O2 0.429056 0.493631 0.500000
O O3 0.390511 0.575565 0.735494
O O4 0.398735 0.399783 0.741659
O O5 0.712255 0.837336 0.500000
O O6 0.692386 0.929154 0.736848
O O7 0.788737 0.831439 0.726804
O O8 0.680350 0.747471 0.737192
O O9 0.854338 0.437749 0.500000
O O10 0.862768 0.579874 0.681100
O O11 0.927090 0.435450 0.727827
O O12 0.609660 0.252708 0.208230
O O13 0.640282 0.372338 0.000000
O O14 0.633775 0.677859 0.500000
O O15 0.562490 0.763317 0.308657
O O16 0.532252 0.132201 0.284740
O O17 0.557414 0.154291 0.000000
O O18 0.956287 0.396718 0.000000
#
# Coordination Sequence:
#
# PCOD8236299 Si02
#       7
#     8   8   8   8   8   8   8
#     4  10  20  35  56  82 109 138 178 225 270 322
#     4   9  19  37  56  75 103 140 181 220 263 317
#     4  10  20  34  54  79 107 139 174 213 258 311
#     4  10  22  38  54  75 106 141 178 224 270 312
#     4   8  16  32  54  76 101 137 175 212 259 315
#     4  10  21  35  51  75 108 142 172 208 260 315
#     4  10  19  33  55  81 108 138 172 211 256 309
#
# _framework density 19.187836000000001
#
# number of rings (size 3 to 8) (size 9 to 14) (size 15 to 20)
#    0.000    2.429    0.000    3.000    0.000    6.571 
#    0.000    6.429    0.000    0.000    0.000    0.000 
#    0.000    0.000    0.000    0.000    0.000    0.000 
#
# Total GULP energy -694228.120098 kJ/mol
# GULP energy per Si atom -12396.930716 kJ/mol
# Density = 1.914416 g / cm^3
# Si number density = 19.187836 Si / 1000 Ang^3
#
#
#
# Elastic Constant Matrix: (Units=GPa)
#
#
# Indices 1 2 3 4 5 6 
#
# 1 79.4830 10.2791 15.6362 0.0000 0.0000 0.0000
# 2 10.2791 102.5365 18.6167 0.0000 0.0000 0.0000
# 3 15.6362 18.6167 28.3457 0.0000 0.0000 0.0000
# 4 0.0000 0.0000 0.0000 26.3311 0.0000 0.0000
# 5 0.0000 0.0000 0.0000 0.0000 24.1189 0.0000
# 6 0.0000 0.0000 0.0000 0.0000 0.0000 16.5653
#
#
#
# Elastic Compliance Matrix: (Units=1/GPa)
#
#
# Indices 1 2 3 4 5 6 
#
# 1 0.014113 -0.000002 -0.007784 0.000000 0.000000 0.000000
# 2 -0.000002 0.011073 -0.007272 0.000000 0.000000 0.000000
# 3 -0.007784 -0.007272 0.044348 0.000000 0.000000 0.000000
# 4 0.000000 0.000000 0.000000 0.037978 0.000000 0.000000
# 5 0.000000 0.000000 0.000000 0.000000 0.041461 0.000000
# 6 0.000000 0.000000 0.000000 0.000000 0.000000 0.060367
#
#
# Mechanical properties :
#
#
# Convention : Reuss Voigt Hill
#
# Bulk Modulus (GPa) = 25.36788 33.26993 29.31890
# Shear Modulus (GPa) = 19.79455 24.45860 22.12658
#
# Velocity S-wave (km/s) = 3.21537 3.57416 3.39950
# Velocity P-wave (km/s) = 5.19945 5.86596 5.54274
#
# Compressibility (1/GPa) = 0.03941993
#
# Stress axis : x y z
#
# Youngs Moduli (GPa) = 70.85775 90.30952 22.54875
#
# Poissons Ratio (x) = 0.00014 0.17552
# Poissons Ratio (y) = 0.00011 0.16397
# Poissons Ratio (z) = 0.55155 0.65670
#
# Static dielectric constant tensor:
#      x y z
#    x 3.555960 0.000000 0.000000 
#    y 0.000000 3.701930 0.000000 
#    z 0.000000 0.000000 3.318070 
# 
# 
# High freq. dielectric constant tensor:
#      x y z
#    x 1.742580 0.000000 0.000000 
#    y 0.000000 1.756160 0.000000 
#    z 0.000000 0.000000 1.726510 
# 
# From -- ./inp_files/6396.got.cif
#   From: 2010.06.25/outbox.cif.g09.slc.cpg/sg58_4_cif.got.tgz:6396.got - 2010.06.26 21:38:00.
