data_PCOD8236720
_publ_section_title
;
Structure prediction by ZEFSAII (Michael W. Deem and Ramdas Pophale) SiO2 
 PCOD8236720
Probable space group: P N N M
;
_chemical_formula_sum "Si O2"
_cell_formula_units_Z 48
_cell_length_a 14.892043
_cell_length_b 19.640355
_cell_length_c 8.796935
_cell_angle_alpha 90.000000
_cell_angle_beta 90.000000
_cell_angle_gamma 90.000000
_cell_volume 2572.971632
_symmetry_space_group_name_H-M "P N N M"
_symmetry_group_IT_number 58
_symmetry_cell_setting 'orthorhombic'
loop_
_space_group_symop_operation_xyz
x,y,z
-x,-y,z
1/2+x,1/2-y,1/2-z
1/2-x,1/2+y,1/2-z
-x,-y,-z
x,y,-z
1/2-x,1/2+y,1/2+z
1/2+x,1/2-y,1/2+z
loop_
_atom_site_type_symbol
_atom_site_label
_atom_site_fract_x
_atom_site_fract_y
_atom_site_fract_z
Si Si1 0.913696 0.962231 0.821306
Si Si2 0.195552 0.669551 0.179062
Si Si3 0.264990 0.016823 0.326241
Si Si4 0.009104 0.697234 0.679151
Si Si5 0.060630 0.436791 0.175791
Si Si6 0.380930 0.691328 0.319667
O O1 0.911598 0.883982 0.768249
O O2 0.823399 0.000538 0.769587
O O3 0.918278 0.967126 0.000000
O O4 0.000000 0.000000 0.748718
O O5 0.191881 0.589362 0.220732
O O6 0.106010 0.703928 0.243127
O O7 0.280433 0.705044 0.259622
O O8 0.201426 0.682389 0.000000
O O9 0.235014 0.020622 0.500000
O O10 0.335904 0.956809 0.298140
O O11 0.020614 0.703257 0.500000
O O12 0.960977 0.626558 0.718705
O O13 0.948628 0.757848 0.740282
O O14 0.000000 0.500000 0.226060
O O15 0.040916 0.417799 0.000000
O O16 0.383136 0.701463 0.500000
#
# Coordination Sequence:
#
# PCOD8236720 Si02
#       6
#     8   8   8   8   8   8
#     4   9  19  37  60  84 111 145 185 232 284 336
#     4  10  19  37  61  83 110 148 189 234 288 345
#     4   9  18  33  57  84 110 144 183 228 282 339
#     4  12  24  37  56  85 117 154 195 237 284 342
#     4  10  19  36  58  83 115 150 186 231 291 344
#     4  10  21  39  60  83 113 151 191 237 289 345
#
# _framework density 18.655472
#
# number of rings (size 3 to 8) (size 9 to 14) (size 15 to 20)
#    0.000    2.000    1.667    2.500    0.000    2.667 
#    3.000    0.000    0.000    0.000    0.000    0.000 
#    0.000    0.000    0.000    0.000    0.000    0.000 
#
# Total GULP energy -595335.179593 kJ/mol
# GULP energy per Si atom -12402.816242 kJ/mol
# Density = 1.861301 g / cm^3
# Si number density = 18.655472 Si / 1000 Ang^3
#
#
#
# Elastic Constant Matrix: (Units=GPa)
#
#
# Indices 1 2 3 4 5 6 
#
# 1 97.5999 48.0731 2.4346 0.0000 0.0000 0.0000
# 2 48.0731 62.1134 20.1676 0.0000 0.0000 0.0000
# 3 2.4346 20.1676 35.5071 0.0000 0.0000 0.0000
# 4 0.0000 0.0000 0.0000 22.7942 0.0000 0.0000
# 5 0.0000 0.0000 0.0000 0.0000 36.6063 0.0000
# 6 0.0000 0.0000 0.0000 0.0000 0.0000 33.3374
#
#
#
# Elastic Compliance Matrix: (Units=1/GPa)
#
#
# Indices 1 2 3 4 5 6 
#
# 1 0.018382 -0.016942 0.008363 0.000000 0.000000 0.000000
# 2 -0.016942 0.035355 -0.018920 0.000000 0.000000 0.000000
# 3 0.008363 -0.018920 0.038336 0.000000 0.000000 0.000000
# 4 0.000000 0.000000 0.000000 0.043871 0.000000 0.000000
# 5 0.000000 0.000000 0.000000 0.000000 0.027318 0.000000
# 6 0.000000 0.000000 0.000000 0.000000 0.000000 0.029996
#
#
# Mechanical properties :
#
#
# Convention : Reuss Voigt Hill
#
# Bulk Modulus (GPa) = 26.97246 37.39681 32.18464
# Shear Modulus (GPa) = 19.18531 26.85059 23.01795
#
# Velocity S-wave (km/s) = 3.21035 3.79791 3.51642
# Velocity P-wave (km/s) = 5.31332 6.27070 5.81176
#
# Compressibility (1/GPa) = 0.03707485
#
# Stress axis : x y z
#
# Youngs Moduli (GPa) = 54.39996 28.28424 26.08506
#
# Poissons Ratio (x) = 0.47920 -0.21814
# Poissons Ratio (y) = 0.92167 0.49352
# Poissons Ratio (z) = -0.45493 0.53513
#
# Static dielectric constant tensor:
#      x y z
#    x 3.660540 0.000000 0.000000 
#    y 0.000000 3.389090 0.000000 
#    z 0.000000 0.000000 3.384030 
# 
# 
# High freq. dielectric constant tensor:
#      x y z
#    x 1.738310 0.000000 0.000000 
#    y 0.000000 1.705900 0.000000 
#    z 0.000000 0.000000 1.724100 
# 
# From -- ./inp_files/5897.got.cif
#   From: 2010.06.25/outbox.cif.g09.slc.cpg/sg58_3_cif.got.tgz:5897.got - 2010.06.26 21:38:00.
