data_PCOD8236848
_publ_section_title
;
Structure prediction by ZEFSAII (Michael W. Deem and Ramdas Pophale) SiO2 
 PCOD8236848
Probable space group: P N N M
;
_chemical_formula_sum "Si O2"
_cell_formula_units_Z 56
_cell_length_a 14.603208
_cell_length_b 21.914842
_cell_length_c 8.826513
_cell_angle_alpha 90.000000
_cell_angle_beta 90.000000
_cell_angle_gamma 90.000000
_cell_volume 2824.722441
_symmetry_space_group_name_H-M "P N N M"
_symmetry_group_IT_number 58
_symmetry_cell_setting 'orthorhombic'
loop_
_space_group_symop_operation_xyz
x,y,z
-x,-y,z
1/2+x,1/2-y,1/2-z
1/2-x,1/2+y,1/2-z
-x,-y,-z
x,y,-z
1/2-x,1/2+y,1/2+z
1/2+x,1/2-y,1/2+z
loop_
_atom_site_type_symbol
_atom_site_label
_atom_site_fract_x
_atom_site_fract_y
_atom_site_fract_z
Si Si1 0.608403 0.242884 0.321769
Si Si2 0.690040 0.775194 0.178323
Si Si3 0.936032 0.181398 0.180038
Si Si4 0.086568 0.393398 0.176333
Si Si5 0.219186 0.490905 0.320758
Si Si6 0.623471 0.896989 0.675586
Si Si7 0.080056 0.957210 0.820250
O O1 0.597218 0.236681 0.500000
O O2 0.703165 0.275104 0.277739
O O3 0.527550 0.285502 0.259105
O O4 0.601209 0.174444 0.255154
O O5 0.649920 0.711130 0.235244
O O6 0.639308 0.828944 0.265821
O O7 0.675243 0.782993 0.000000
O O8 0.940695 0.111491 0.231810
O O9 0.923478 0.187840 0.000000
O O10 0.151408 0.438748 0.265561
O O11 0.982207 0.414469 0.201810
O O12 0.112931 0.396316 0.000000
O O13 0.218619 0.491094 0.500000
O O14 0.188194 0.556960 0.264700
O O15 0.321223 0.478403 0.257442
O O16 0.648916 0.900002 0.500000
O O17 0.080142 0.961993 0.000000
O O18 0.000000 0.000000 0.752084
#
# Coordination Sequence:
#
# PCOD8236848 Si02
#       7
#     8   8   8   8   8   8   8
#     4   9  19  35  59  86 113 154 195 233 287 352
#     4  11  22  36  59  91 121 150 192 250 300 337
#     4  10  19  38  63  85 115 158 200 234 282 356
#     4  10  20  39  61  83 114 156 199 232 285 362
#     4  11  23  37  58  90 120 150 193 248 298 335
#     4  11  23  40  61  84 115 160 201 235 289 359
#     4   9  20  37  61  88 117 157 201 241 286 347
#
# _framework density 19.824957000000001
#
# number of rings (size 3 to 8) (size 9 to 14) (size 15 to 20)
#    0.000    1.857    1.429    2.571    2.000    2.857 
#    0.000    2.857    0.000    2.143    0.000    0.000 
#    0.000    0.000    0.000    0.000    0.000    0.000 
#
# Total GULP energy -694571.250277 kJ/mol
# GULP energy per Si atom -12403.058041 kJ/mol
# Density = 1.977983 g / cm^3
# Si number density = 19.824957 Si / 1000 Ang^3
#
#
#
# Elastic Constant Matrix: (Units=GPa)
#
#
# Indices 1 2 3 4 5 6 
#
# 1 110.3655 53.5179 40.4685 0.0000 0.0000 0.0000
# 2 53.5179 126.9259 20.9049 0.0000 0.0000 0.0000
# 3 40.4685 20.9049 44.4395 0.0000 0.0000 0.0000
# 4 0.0000 0.0000 0.0000 24.5605 0.0000 0.0000
# 5 0.0000 0.0000 0.0000 0.0000 20.8573 0.0000
# 6 0.0000 0.0000 0.0000 0.0000 0.0000 34.8992
#
#
#
# Elastic Compliance Matrix: (Units=1/GPa)
#
#
# Indices 1 2 3 4 5 6 
#
# 1 0.015783 -0.004648 -0.012186 0.000000 0.000000 0.000000
# 2 -0.004648 0.009909 -0.000429 0.000000 0.000000 0.000000
# 3 -0.012186 -0.000429 0.033802 0.000000 0.000000 0.000000
# 4 0.000000 0.000000 0.000000 0.040716 0.000000 0.000000
# 5 0.000000 0.000000 0.000000 0.000000 0.047945 0.000000
# 6 0.000000 0.000000 0.000000 0.000000 0.000000 0.028654
#
#
# Mechanical properties :
#
#
# Convention : Reuss Voigt Hill
#
# Bulk Modulus (GPa) = 40.05172 56.83485 48.44329
# Shear Modulus (GPa) = 22.76281 27.18605 24.97443
#
# Velocity S-wave (km/s) = 3.39217 3.70713 3.55314
# Velocity P-wave (km/s) = 5.96565 6.85962 6.42819
#
# Compressibility (1/GPa) = 0.02496772
#
# Stress axis : x y z
#
# Youngs Moduli (GPa) = 63.35929 100.91887 29.58437
#
# Poissons Ratio (x) = 0.46904 0.36052
# Poissons Ratio (y) = 0.29448 0.01269
# Poissons Ratio (z) = 0.77212 0.04328
#
# Static dielectric constant tensor:
#      x y z
#    x 3.859870 0.000000 0.000000 
#    y 0.000000 3.745300 0.000000 
#    z 0.000000 0.000000 3.303880 
# 
# 
# High freq. dielectric constant tensor:
#      x y z
#    x 1.787350 0.000000 0.000000 
#    y 0.000000 1.786840 0.000000 
#    z 0.000000 0.000000 1.743330 
# 
# From -- ./inp_files/6235.got.cif
#   From: 2010.06.25/outbox.cif.g09.slc.cpg/sg58_4_cif.got.tgz:6235.got - 2010.06.26 21:38:00.
