data_PCOD8236624
_publ_section_title
;
Structure prediction by ZEFSAII (Michael W. Deem and Ramdas Pophale) SiO2 
 PCOD8236624
Probable space group: P N N M
;
_chemical_formula_sum "Si O2"
_cell_formula_units_Z 64
_cell_length_a 23.110136
_cell_length_b 15.571331
_cell_length_c 9.063638
_cell_angle_alpha 90.000000
_cell_angle_beta 90.000000
_cell_angle_gamma 90.000000
_cell_volume 3261.600683
_symmetry_space_group_name_H-M "P N N M"
_symmetry_group_IT_number 58
_symmetry_cell_setting 'orthorhombic'
loop_
_space_group_symop_operation_xyz
x,y,z
-x,-y,z
1/2+x,1/2-y,1/2-z
1/2-x,1/2+y,1/2-z
-x,-y,-z
x,y,-z
1/2-x,1/2+y,1/2+z
1/2+x,1/2-y,1/2+z
loop_
_atom_site_type_symbol
_atom_site_label
_atom_site_fract_x
_atom_site_fract_y
_atom_site_fract_z
Si Si1 0.447530 0.437897 0.673233
Si Si2 0.307441 0.685350 0.666711
Si Si3 0.857473 0.626404 0.833015
Si Si4 0.748410 0.067266 0.832114
Si Si5 0.431190 0.245340 0.674558
Si Si6 0.156330 0.029283 0.325836
Si Si7 0.800234 0.255008 0.168920
Si Si8 0.986520 0.595283 0.175365
O O1 0.500000 0.500000 0.720478
O O2 0.434353 0.446640 0.500000
O O3 0.459199 0.338215 0.716990
O O4 0.391539 0.466539 0.761438
O O5 0.302698 0.650933 0.500000
O O6 0.338153 0.776059 0.671928
O O7 0.350243 0.625004 0.761357
O O8 0.242809 0.687221 0.734132
O O9 0.817183 0.571119 0.725643
O O10 0.922413 0.619955 0.772505
O O11 0.853041 0.590245 0.000000
O O12 0.781375 0.156861 0.818405
O O13 0.780576 0.000345 0.727337
O O14 0.747991 0.034488 0.000000
O O15 0.429371 0.238663 0.500000
O O16 0.365317 0.236637 0.733294
O O17 0.469563 0.167342 0.741063
O O18 0.151751 0.029842 0.500000
O O19 0.796452 0.286734 0.000000
O O20 0.000000 0.500000 0.237022
O O21 0.991568 0.596461 0.000000
#
# Coordination Sequence:
#
# PCOD8236624 Si02
#       8
#     8   8   8   8   8   8   8   8
#     4  10  21  37  60  85 114 157 203 243 290 350
#     4  10  21  35  54  82 115 150 192 236 287 350
#     4   9  19  35  57  84 114 150 192 237 288 342
#     4  10  19  35  58  82 112 149 189 235 288 346
#     4   9  17  32  55  82 115 156 197 239 285 341
#     4  12  24  37  56  84 120 151 190 241 298 354
#     4   9  17  33  55  80 110 146 192 236 286 342
#     4   9  18  32  53  84 117 147 188 239 284 337
#
# _framework density 19.622267000000001
#
# number of rings (size 3 to 8) (size 9 to 14) (size 15 to 20)
#    0.000    2.250    1.250    1.875    1.750    2.250 
#    0.000    2.500    0.000    1.125    0.000    0.000 
#    0.000    0.000    0.000    0.000    0.000    0.000 
#
# Total GULP energy -793531.208784 kJ/mol
# GULP energy per Si atom -12398.925137 kJ/mol
# Density = 1.957761 g / cm^3
# Si number density = 19.622267 Si / 1000 Ang^3
#
#
#
# Elastic Constant Matrix: (Units=GPa)
#
#
# Indices 1 2 3 4 5 6 
#
# 1 143.2054 53.6390 31.8261 0.0000 0.0000 0.0000
# 2 53.6390 95.3088 29.0859 0.0000 0.0000 0.0000
# 3 31.8261 29.0859 63.0992 0.0000 0.0000 0.0000
# 4 0.0000 0.0000 0.0000 17.5930 0.0000 0.0000
# 5 0.0000 0.0000 0.0000 0.0000 27.4376 0.0000
# 6 0.0000 0.0000 0.0000 0.0000 0.0000 25.0147
#
#
#
# Elastic Compliance Matrix: (Units=1/GPa)
#
#
# Indices 1 2 3 4 5 6 
#
# 1 0.009207 -0.004381 -0.002625 0.000000 0.000000 0.000000
# 2 -0.004381 0.014294 -0.004379 0.000000 0.000000 0.000000
# 3 -0.002625 -0.004379 0.019191 0.000000 0.000000 0.000000
# 4 0.000000 0.000000 0.000000 0.056841 0.000000 0.000000
# 5 0.000000 0.000000 0.000000 0.000000 0.036446 0.000000
# 6 0.000000 0.000000 0.000000 0.000000 0.000000 0.039977
#
#
# Mechanical properties :
#
#
# Convention : Reuss Voigt Hill
#
# Bulk Modulus (GPa) = 50.19478 58.96838 54.58158
# Shear Modulus (GPa) = 24.34683 26.47990 25.41337
#
# Velocity S-wave (km/s) = 3.52629 3.67752 3.60269
# Velocity P-wave (km/s) = 6.49736 6.93896 6.72179
#
# Compressibility (1/GPa) = 0.01992239
#
# Stress axis : x y z
#
# Youngs Moduli (GPa) = 108.61175 69.95878 52.10894
#
# Poissons Ratio (x) = 0.30647 0.13676
# Poissons Ratio (y) = 0.47580 0.22821
# Poissons Ratio (z) = 0.28506 0.30638
#
# Static dielectric constant tensor:
#      x y z
#    x 3.694370 0.000000 0.000000 
#    y 0.000000 3.712890 0.000000 
#    z 0.000000 0.000000 3.351910 
# 
# 
# High freq. dielectric constant tensor:
#      x y z
#    x 1.767800 0.000000 0.000000 
#    y 0.000000 1.768440 0.000000 
#    z 0.000000 0.000000 1.731270 
# 
# From -- ./inp_files/9935.got.cif
#   From: 2010.06.25/outbox.cif.g09.slc.cpg/sg58_5_cif.got.tgz:9935.got - 2010.06.26 21:38:00.
