data_PCOD8236588
_publ_section_title
;
Structure prediction by ZEFSAII (Michael W. Deem and Ramdas Pophale) SiO2 
 PCOD8236588
Probable space group: P N N M
;
_chemical_formula_sum "Si O2"
_cell_formula_units_Z 64
_cell_length_a 12.597061
_cell_length_b 29.232206
_cell_length_c 8.518283
_cell_angle_alpha 90.000000
_cell_angle_beta 90.000000
_cell_angle_gamma 90.000000
_cell_volume 3136.771528
_symmetry_space_group_name_H-M "P N N M"
_symmetry_group_IT_number 58
_symmetry_cell_setting 'orthorhombic'
loop_
_space_group_symop_operation_xyz
x,y,z
-x,-y,z
1/2+x,1/2-y,1/2-z
1/2-x,1/2+y,1/2-z
-x,-y,-z
x,y,-z
1/2-x,1/2+y,1/2+z
1/2+x,1/2-y,1/2+z
loop_
_atom_site_type_symbol
_atom_site_label
_atom_site_fract_x
_atom_site_fract_y
_atom_site_fract_z
Si Si1 0.166434 0.825107 0.676636
Si Si2 0.329050 0.065632 0.816183
Si Si3 0.368119 0.614188 0.185297
Si Si4 0.426278 0.412976 0.319591
Si Si5 0.118145 0.308502 0.681857
Si Si6 0.554825 0.288653 0.820093
Si Si7 0.778539 0.535704 0.681285
Si Si8 0.454257 0.900807 0.682367
O O1 0.213612 0.823372 0.500000
O O2 0.117432 0.874573 0.704071
O O3 0.256163 0.815234 0.803561
O O4 0.072340 0.788627 0.698011
O O5 0.251462 0.100672 0.727792
O O6 0.450297 0.077241 0.780238
O O7 0.305895 0.014476 0.754372
O O8 0.306798 0.069315 0.000000
O O9 0.451564 0.578435 0.266374
O O10 0.391208 0.665593 0.253040
O O11 0.385586 0.612562 0.000000
O O12 0.424053 0.396775 0.500000
O O13 0.348473 0.456568 0.297105
O O14 0.084757 0.311727 0.500000
O O15 0.055180 0.347361 0.776325
O O16 0.092468 0.258868 0.758305
O O17 0.590586 0.287354 0.000000
O O18 0.811883 0.540680 0.500000
O O19 0.844719 0.573623 0.776253
O O20 0.479391 0.906465 0.500000
#
# Coordination Sequence:
#
# PCOD8236588 Si02
#       8
#     8   8   8   8   8   8   8   8
#     4  10  19  35  56  83 115 149 190 247 300 345
#     4  11  24  42  62  86 121 164 203 244 298 362
#     4  10  21  40  61  87 123 158 197 250 303 352
#     4  10  19  35  61  88 115 154 199 242 291 352
#     4  11  21  37  60  86 115 154 198 242 295 360
#     4   8  19  37  58  83 116 154 195 242 296 353
#     4  10  22  40  63  89 119 157 203 249 295 356
#     4  12  25  40  60  88 121 155 198 253 305 357
#
# _framework density 20.403144000000001
#
# number of rings (size 3 to 8) (size 9 to 14) (size 15 to 20)
#    0.000    1.750    1.250    4.125    0.000    4.500 
#    0.000   12.500    0.000    0.000    0.000    0.000 
#    0.000    0.000    0.000    0.000    0.000    0.000 
#
# Total GULP energy -793594.443046 kJ/mol
# GULP energy per Si atom -12399.913173 kJ/mol
# Density = 2.035671 g / cm^3
# Si number density = 20.403144 Si / 1000 Ang^3
#
#
#
# Elastic Constant Matrix: (Units=GPa)
#
#
# Indices 1 2 3 4 5 6 
#
# 1 62.5883 18.3148 16.3720 0.0000 0.0000 0.0000
# 2 18.3148 98.5598 26.0354 0.0000 0.0000 0.0000
# 3 16.3720 26.0354 57.1220 0.0000 0.0000 0.0000
# 4 0.0000 0.0000 0.0000 20.0564 0.0000 0.0000
# 5 0.0000 0.0000 0.0000 0.0000 35.6835 0.0000
# 6 0.0000 0.0000 0.0000 0.0000 0.0000 23.5820
#
#
#
# Elastic Compliance Matrix: (Units=1/GPa)
#
#
# Indices 1 2 3 4 5 6 
#
# 1 0.017687 -0.002214 -0.004060 0.000000 0.000000 0.000000
# 2 -0.002214 0.011812 -0.004749 0.000000 0.000000 0.000000
# 3 -0.004060 -0.004749 0.020835 0.000000 0.000000 0.000000
# 4 0.000000 0.000000 0.000000 0.049860 0.000000 0.000000
# 5 0.000000 0.000000 0.000000 0.000000 0.028024 0.000000
# 6 0.000000 0.000000 0.000000 0.000000 0.000000 0.042405
#
#
# Mechanical properties :
#
#
# Convention : Reuss Voigt Hill
#
# Bulk Modulus (GPa) = 35.35193 37.74606 36.54900
# Shear Modulus (GPa) = 24.74028 26.36756 25.55392
#
# Velocity S-wave (km/s) = 3.48598 3.59880 3.54284
# Velocity P-wave (km/s) = 5.79371 5.98404 5.88964
#
# Compressibility (1/GPa) = 0.02828700
#
# Stress axis : x y z
#
# Youngs Moduli (GPa) = 56.53728 84.65890 47.99677
#
# Poissons Ratio (x) = 0.18745 0.19488
# Poissons Ratio (y) = 0.12519 0.22794
# Poissons Ratio (z) = 0.22956 0.40206
#
# Static dielectric constant tensor:
#      x y z
#    x 3.781050 0.000000 0.000000 
#    y 0.000000 3.815050 0.000000 
#    z 0.000000 0.000000 3.522700 
# 
# 
# High freq. dielectric constant tensor:
#      x y z
#    x 1.800800 0.000000 0.000000 
#    y 0.000000 1.791470 0.000000 
#    z 0.000000 0.000000 1.788950 
# 
# From -- ./inp_files/4715.got.cif
#   From: 2010.06.25/outbox.cif.g09.slc.cpg/sg58_3_cif.got.tgz:4715.got - 2010.06.26 21:38:00.
