data_PCOD8236040
_publ_section_title
;
Structure prediction by ZEFSAII (Michael W. Deem and Ramdas Pophale) SiO2 
 PCOD8236040
Probable space group: P N N M
;
_chemical_formula_sum "Si O2"
_cell_formula_units_Z 56
_cell_length_a 14.536015
_cell_length_b 22.053077
_cell_length_c 9.450490
_cell_angle_alpha 90.000000
_cell_angle_beta 90.000000
_cell_angle_gamma 90.000000
_cell_volume 3029.485535
_symmetry_space_group_name_H-M "P N N M"
_symmetry_group_IT_number 58
_symmetry_cell_setting 'orthorhombic'
loop_
_space_group_symop_operation_xyz
x,y,z
-x,-y,z
1/2+x,1/2-y,1/2-z
1/2-x,1/2+y,1/2-z
-x,-y,-z
x,y,-z
1/2-x,1/2+y,1/2+z
1/2+x,1/2-y,1/2+z
loop_
_atom_site_type_symbol
_atom_site_label
_atom_site_fract_x
_atom_site_fract_y
_atom_site_fract_z
Si Si1 0.223433 0.018840 0.831242
Si Si2 0.369870 0.396456 0.666250
Si Si3 0.073732 0.548353 0.668293
Si Si4 0.017926 0.681749 0.666819
Si Si5 0.621197 0.253525 0.662592
Si Si6 0.577100 0.386001 0.333432
Si Si7 0.170781 0.778438 0.661058
O O1 0.191029 0.952671 0.779832
O O2 0.325411 0.031572 0.771755
O O3 0.153215 0.068871 0.767669
O O4 0.221225 0.021453 0.000000
O O5 0.358733 0.385698 0.500000
O O6 0.475917 0.410361 0.705057
O O7 0.334023 0.336814 0.741667
O O8 0.076384 0.546081 0.500000
O O9 0.046194 0.615144 0.720645
O O10 0.000000 0.500000 0.727667
O O11 0.999362 0.681624 0.500000
O O12 0.097961 0.728182 0.710871
O O13 0.924415 0.700247 0.745731
O O14 0.589919 0.245723 0.500000
O O15 0.588886 0.318095 0.726759
O O16 0.730232 0.251689 0.677419
O O17 0.593041 0.383140 0.500000
O O18 0.151538 0.798170 0.500000
#
# Coordination Sequence:
#
# PCOD8236040 Si02
#       7
#     8   8   8   8   8   8   8
#     4   9  17  29  49  76 105 134 170 217 264 306
#     4  10  19  31  53  81 103 129 173 224 262 300
#     4   9  18  31  48  74 106 136 168 212 262 308
#     4  10  20  35  55  78 106 138 174 216 261 309
#     4  10  20  34  54  77 105 141 175 210 258 316
#     4   9  16  30  50  75 103 131 168 213 261 305
#     4  10  21  35  51  75 109 145 174 206 261 322
#
# _framework density 18.484985999999999
#
# number of rings (size 3 to 8) (size 9 to 14) (size 15 to 20)
#    0.000    2.429    1.429    1.286    2.000    5.714 
#    0.000    0.000    0.000    3.857    0.000    0.000 
#    0.000    0.000    0.000    0.000    0.000    0.000 
#
# Total GULP energy -694448.609936 kJ/mol
# GULP energy per Si atom -12400.868035 kJ/mol
# Density = 1.844291 g / cm^3
# Si number density = 18.484986 Si / 1000 Ang^3
#
#
#
# Elastic Constant Matrix: (Units=GPa)
#
#
# Indices 1 2 3 4 5 6 
#
# 1 85.0857 42.6371 17.1955 0.0000 0.0000 0.0000
# 2 42.6371 138.9651 24.3970 0.0000 0.0000 0.0000
# 3 17.1955 24.3970 22.8076 0.0000 0.0000 0.0000
# 4 0.0000 0.0000 0.0000 22.8198 0.0000 0.0000
# 5 0.0000 0.0000 0.0000 0.0000 19.5186 0.0000
# 6 0.0000 0.0000 0.0000 0.0000 0.0000 37.5100
#
#
#
# Elastic Compliance Matrix: (Units=1/GPa)
#
#
# Indices 1 2 3 4 5 6 
#
# 1 0.014945 -0.003210 -0.007834 0.000000 0.000000 0.000000
# 2 -0.003210 0.009549 -0.007795 0.000000 0.000000 0.000000
# 3 -0.007834 -0.007795 0.058089 0.000000 0.000000 0.000000
# 4 0.000000 0.000000 0.000000 0.043822 0.000000 0.000000
# 5 0.000000 0.000000 0.000000 0.000000 0.051233 0.000000
# 6 0.000000 0.000000 0.000000 0.000000 0.000000 0.026660
#
#
# Mechanical properties :
#
#
# Convention : Reuss Voigt Hill
#
# Bulk Modulus (GPa) = 22.26858 46.14641 34.20750
# Shear Modulus (GPa) = 19.45959 26.81160 23.13560
#
# Velocity S-wave (km/s) = 3.24809 3.81261 3.54162
# Velocity P-wave (km/s) = 5.11271 6.66332 5.93884
#
# Compressibility (1/GPa) = 0.04490632
#
# Stress axis : x y z
#
# Youngs Moduli (GPa) = 66.91407 104.71867 17.21495
#
# Poissons Ratio (x) = 0.33614 0.13486
# Poissons Ratio (y) = 0.21479 0.13419
# Poissons Ratio (z) = 0.52418 0.81626
#
# Static dielectric constant tensor:
#      x y z
#    x 3.564130 0.000000 0.000000 
#    y 0.000000 3.561560 0.000000 
#    z 0.000000 0.000000 2.904400 
# 
# 
# High freq. dielectric constant tensor:
#      x y z
#    x 1.732450 0.000000 0.000000 
#    y 0.000000 1.730180 0.000000 
#    z 0.000000 0.000000 1.656780 
# 
# From -- ./inp_files/6282.got.cif
#   From: 2010.06.25/outbox.cif.g09.slc.cpg/sg58_4_cif.got.tgz:6282.got - 2010.06.26 21:38:00.
