data_PCOD8236688
_publ_section_title
;
Structure prediction by ZEFSAII (Michael W. Deem and Ramdas Pophale) SiO2 
 PCOD8236688
Probable space group: P N N M
;
_chemical_formula_sum "Si O2"
_cell_formula_units_Z 64
_cell_length_a 15.367139
_cell_length_b 23.600716
_cell_length_c 8.560918
_cell_angle_alpha 90.000000
_cell_angle_beta 90.000000
_cell_angle_gamma 90.000000
_cell_volume 3104.835073
_symmetry_space_group_name_H-M "P N N M"
_symmetry_group_IT_number 58
_symmetry_cell_setting 'orthorhombic'
loop_
_space_group_symop_operation_xyz
x,y,z
-x,-y,z
1/2+x,1/2-y,1/2-z
1/2-x,1/2+y,1/2-z
-x,-y,-z
x,y,-z
1/2-x,1/2+y,1/2+z
1/2+x,1/2-y,1/2+z
loop_
_atom_site_type_symbol
_atom_site_label
_atom_site_fract_x
_atom_site_fract_y
_atom_site_fract_z
Si Si1 0.102983 0.867034 0.319509
Si Si2 0.587491 0.874078 0.183885
Si Si3 0.341695 0.243829 0.183792
Si Si4 0.753814 0.054621 0.818715
Si Si5 0.094971 0.378397 0.815936
Si Si6 0.589697 0.356624 0.819072
Si Si7 0.248415 0.066000 0.683097
Si Si8 0.351074 0.755580 0.316098
O O1 0.131176 0.875079 0.500000
O O2 0.107477 0.800878 0.272232
O O3 0.167735 0.902050 0.211925
O O4 0.003629 0.886782 0.290112
O O5 0.608696 0.811171 0.251116
O O6 0.502290 0.897348 0.271457
O O7 0.666739 0.915790 0.221614
O O8 0.569965 0.873988 0.000000
O O9 0.244935 0.246610 0.256974
O O10 0.333855 0.235558 0.000000
O O11 0.661845 0.080611 0.770171
O O12 0.772775 0.998941 0.718025
O O13 0.751549 0.038878 0.000000
O O14 0.109449 0.314433 0.752769
O O15 0.110273 0.383919 0.000000
O O16 0.665918 0.397393 0.757155
O O17 0.588709 0.296734 0.731131
O O18 0.602171 0.343049 0.000000
O O19 0.264278 0.074758 0.500000
O O20 0.344753 0.759903 0.500000
#
# Coordination Sequence:
#
# PCOD8236688 Si02
#       8
#     8   8   8   8   8   8   8   8
#     4  10  20  40  64  89 124 163 200 242 300 361
#     4  11  22  39  64  94 126 160 202 251 300 356
#     4   9  17  33  60  90 124 163 195 236 299 358
#     4  12  26  43  63  89 117 156 208 258 304 354
#     4  11  23  41  64  91 125 163 200 245 303 364
#     4  10  22  38  63  94 123 159 203 249 298 359
#     4  11  24  43  63  88 121 161 206 252 305 363
#     4  10  19  35  61  91 124 163 199 240 301 362
#
# _framework density 20.613012000000001
#
# number of rings (size 3 to 8) (size 9 to 14) (size 15 to 20)
#    0.000    1.500    2.500    3.000    0.000    4.000 
#    0.000    6.250    0.000    0.000    0.000    0.000 
#    0.000    0.000    0.000    0.000    0.000    0.000 
#
# Total GULP energy -793845.479675 kJ/mol
# GULP energy per Si atom -12403.835620 kJ/mol
# Density = 2.056610 g / cm^3
# Si number density = 20.613012 Si / 1000 Ang^3
#
#
#
# Elastic Constant Matrix: (Units=GPa)
#
#
# Indices 1 2 3 4 5 6 
#
# 1 122.6000 16.9962 19.6773 0.0000 0.0000 0.0000
# 2 16.9962 81.6504 13.0492 0.0000 0.0000 0.0000
# 3 19.6773 13.0492 43.2571 0.0000 0.0000 0.0000
# 4 0.0000 0.0000 0.0000 29.9159 0.0000 0.0000
# 5 0.0000 0.0000 0.0000 0.0000 24.0575 0.0000
# 6 0.0000 0.0000 0.0000 0.0000 0.0000 11.8688
#
#
#
# Elastic Compliance Matrix: (Units=1/GPa)
#
#
# Indices 1 2 3 4 5 6 
#
# 1 0.008923 -0.001270 -0.003676 0.000000 0.000000 0.000000
# 2 -0.001270 0.013048 -0.003359 0.000000 0.000000 0.000000
# 3 -0.003676 -0.003359 0.025803 0.000000 0.000000 0.000000
# 4 0.000000 0.000000 0.000000 0.033427 0.000000 0.000000
# 5 0.000000 0.000000 0.000000 0.000000 0.041567 0.000000
# 6 0.000000 0.000000 0.000000 0.000000 0.000000 0.084255
#
#
# Mechanical properties :
#
#
# Convention : Reuss Voigt Hill
#
# Bulk Modulus (GPa) = 32.08684 38.55033 35.31859
# Shear Modulus (GPa) = 21.36574 26.35409 23.85991
#
# Velocity S-wave (km/s) = 3.22299 3.57951 3.40592
# Velocity P-wave (km/s) = 5.42682 5.98552 5.71300
#
# Compressibility (1/GPa) = 0.03116542
#
# Stress axis : x y z
#
# Youngs Moduli (GPa) = 112.07491 76.63749 38.75543
#
# Poissons Ratio (x) = 0.09732 0.14245
# Poissons Ratio (y) = 0.14232 0.13017
# Poissons Ratio (z) = 0.41196 0.25740
#
# Static dielectric constant tensor:
#      x y z
#    x 3.845110 0.000000 0.000000 
#    y 0.000000 3.711070 0.000000 
#    z 0.000000 0.000000 3.451320 
# 
# 
# High freq. dielectric constant tensor:
#      x y z
#    x 1.820280 0.000000 0.000000 
#    y 0.000000 1.802990 0.000000 
#    z 0.000000 0.000000 1.787450 
# 
# From -- ./inp_files/6940.got.cif
#   From: 2010.06.25/outbox.cif.g09.slc.cpg/sg58_4_cif.got.tgz:6940.got - 2010.06.26 21:38:00.
