data_PCOD8236967
_publ_section_title
;
Structure prediction by ZEFSAII (Michael W. Deem and Ramdas Pophale) SiO2 
 PCOD8236967
Probable space group: P N N M
;
_chemical_formula_sum "Si O2"
_cell_formula_units_Z 40
_cell_length_a 13.469864
_cell_length_b 18.150134
_cell_length_c 8.978531
_cell_angle_alpha 90.000000
_cell_angle_beta 90.000000
_cell_angle_gamma 90.000000
_cell_volume 2195.069791
_symmetry_space_group_name_H-M "P N N M"
_symmetry_group_IT_number 58
_symmetry_cell_setting 'orthorhombic'
loop_
_space_group_symop_operation_xyz
x,y,z
-x,-y,z
1/2+x,1/2-y,1/2-z
1/2-x,1/2+y,1/2-z
-x,-y,-z
x,y,-z
1/2-x,1/2+y,1/2+z
1/2+x,1/2-y,1/2+z
loop_
_atom_site_type_symbol
_atom_site_label
_atom_site_fract_x
_atom_site_fract_y
_atom_site_fract_z
Si Si1 0.900690 0.034089 0.175231
Si Si2 0.312339 0.315178 0.675685
Si Si3 0.596958 0.839944 0.672100
Si Si4 0.373302 0.877201 0.326885
Si Si5 0.689870 0.977718 0.824844
O O1 0.882767 0.117758 0.230663
O O2 0.805792 0.984583 0.218988
O O3 0.915599 0.035027 0.000000
O O4 0.000000 0.000000 0.250905
O O5 0.293846 0.320700 0.500000
O O6 0.364132 0.239655 0.722755
O O7 0.205910 0.321790 0.754570
O O8 0.621485 0.856104 0.500000
O O9 0.479980 0.841177 0.701302
O O10 0.652755 0.898949 0.772431
O O11 0.349520 0.886471 0.500000
O O12 0.372764 0.957868 0.253343
O O13 0.673919 0.986359 0.000000
#
# Coordination Sequence:
#
# PCOD8236967 Si02
#       5
#     8   8   8   8   8
#     4   8  15  30  52  74  97 129 168 209 252 300
#     4   9  19  35  52  74 104 134 168 213 260 303
#     4  10  21  35  52  75 105 139 171 210 261 311
#     4  10  20  35  54  75 103 138 172 208 257 312
#     4  10  20  33  53  79 103 133 176 218 254 301
#
# _framework density 18.222656000000001
#
# number of rings (size 3 to 8) (size 9 to 14) (size 15 to 20)
#    0.000    2.600    0.000    3.000    0.000    6.400 
#    0.000    4.000    0.000   17.400    0.000    0.000 
#    0.000    0.000    0.000    0.000    0.000    0.000 
#
# Total GULP energy -496009.836975 kJ/mol
# GULP energy per Si atom -12400.245924 kJ/mol
# Density = 1.818118 g / cm^3
# Si number density = 18.222656 Si / 1000 Ang^3
#
#
#
# Elastic Constant Matrix: (Units=GPa)
#
#
# Indices 1 2 3 4 5 6 
#
# 1 123.7992 91.7953 51.5533 0.0000 0.0000 0.0000
# 2 91.7953 149.2036 55.2557 0.0000 0.0000 0.0000
# 3 51.5533 55.2557 64.7658 0.0000 0.0000 0.0000
# 4 0.0000 0.0000 0.0000 25.5197 0.0000 0.0000
# 5 0.0000 0.0000 0.0000 0.0000 24.2280 0.0000
# 6 0.0000 0.0000 0.0000 0.0000 0.0000 29.7219
#
#
#
# Elastic Compliance Matrix: (Units=1/GPa)
#
#
# Indices 1 2 3 4 5 6 
#
# 1 0.016566 -0.007761 -0.006565 0.000000 0.000000 0.000000
# 2 -0.007761 0.013434 -0.005284 0.000000 0.000000 0.000000
# 3 -0.006565 -0.005284 0.025174 0.000000 0.000000 0.000000
# 4 0.000000 0.000000 0.000000 0.039185 0.000000 0.000000
# 5 0.000000 0.000000 0.000000 0.000000 0.041275 0.000000
# 6 0.000000 0.000000 0.000000 0.000000 0.000000 0.033645
#
#
# Mechanical properties :
#
#
# Convention : Reuss Voigt Hill
#
# Bulk Modulus (GPa) = 62.67869 81.66415 72.17142
# Shear Modulus (GPa) = 23.38460 25.17155 24.27807
#
# Velocity S-wave (km/s) = 3.58616 3.72066 3.65403
# Velocity P-wave (km/s) = 7.18457 7.96051 7.58247
#
# Compressibility (1/GPa) = 0.01595439
#
# Stress axis : x y z
#
# Youngs Moduli (GPa) = 60.36487 74.44060 39.72340
#
# Poissons Ratio (x) = 0.57770 0.26080
# Poissons Ratio (y) = 0.46846 0.20988
# Poissons Ratio (z) = 0.39632 0.39332
#
# Static dielectric constant tensor:
#      x y z
#    x 3.537790 0.000000 0.000000 
#    y 0.000000 3.444310 0.000000 
#    z 0.000000 0.000000 3.214170 
# 
# 
# High freq. dielectric constant tensor:
#      x y z
#    x 1.713280 0.000000 0.000000 
#    y 0.000000 1.707350 0.000000 
#    z 0.000000 0.000000 1.690720 
# 
# From -- ./inp_files/3783.got.cif
#   From: 2010.06.25/outbox.cif.g09.slc.cpg/sg58_2_cif.got.tgz:3783.got - 2010.06.26 21:38:00.
