data_PCOD8236702
_publ_section_title
;
Structure prediction by ZEFSAII (Michael W. Deem and Ramdas Pophale) SiO2 
 PCOD8236702
Probable space group: P N N M
;
_chemical_formula_sum "Si O2"
_cell_formula_units_Z 64
_cell_length_a 33.004147
_cell_length_b 10.710912
_cell_length_c 9.339068
_cell_angle_alpha 90.000000
_cell_angle_beta 90.000000
_cell_angle_gamma 90.000000
_cell_volume 3301.402696
_symmetry_space_group_name_H-M "P N N M"
_symmetry_group_IT_number 58
_symmetry_cell_setting 'orthorhombic'
loop_
_space_group_symop_operation_xyz
x,y,z
-x,-y,z
1/2+x,1/2-y,1/2-z
1/2-x,1/2+y,1/2-z
-x,-y,-z
x,y,-z
1/2-x,1/2+y,1/2+z
1/2+x,1/2-y,1/2+z
loop_
_atom_site_type_symbol
_atom_site_label
_atom_site_fract_x
_atom_site_fract_y
_atom_site_fract_z
Si Si1 0.663190 0.268028 0.169032
Si Si2 0.660974 0.747282 0.167079
Si Si3 0.419147 0.248888 0.337760
Si Si4 0.572587 0.245736 0.168932
Si Si5 0.501596 0.356566 0.343077
Si Si6 0.785893 0.006836 0.331154
Si Si7 0.298276 0.992007 0.829926
Si Si8 0.546812 0.018959 0.340028
O O1 0.617041 0.290011 0.219034
O O2 0.688754 0.386605 0.224590
O O3 0.679289 0.133718 0.226070
O O4 0.665083 0.262696 0.000000
O O5 0.619418 0.713352 0.245481
O O6 0.692198 0.637153 0.206434
O O7 0.677493 0.882844 0.216519
O O8 0.651463 0.747937 0.000000
O O9 0.412075 0.296032 0.500000
O O10 0.459583 0.311741 0.271546
O O11 0.425864 0.102301 0.332229
O O12 0.539161 0.332182 0.240787
O O13 0.566578 0.105429 0.220876
O O14 0.567385 0.252493 0.000000
O O15 0.500000 0.500000 0.371125
O O16 0.506524 0.289371 0.500000
O O17 0.777433 0.996894 0.500000
O O18 0.744607 0.003836 0.245720
O O19 0.291885 0.990178 0.000000
O O20 0.549234 0.076551 0.500000
O O21 0.500000 0.000000 0.298104
#
# Coordination Sequence:
#
# PCOD8236702 Si02
#       8
#     8   8   8   8   8   8   8   8
#     4   9  20  37  56  80 116 152 179 223 286 340
#     4  10  22  37  57  85 117 147 183 237 289 333
#     4  10  21  37  58  83 111 150 194 232 280 340
#     4  11  22  36  58  86 114 148 194 236 282 344
#     4  10  22  40  58  78 113 157 195 237 287 334
#     4  10  21  38  59  83 112 148 184 226 284 342
#     4  10  20  38  60  83 112 146 183 228 281 337
#     4  10  19  36  57  77 110 148 185 234 287 333
#
# _framework density 19.3857
#
# number of rings (size 3 to 8) (size 9 to 14) (size 15 to 20)
#    0.000    2.000    1.250    1.875    1.750    3.500 
#    0.000    2.500    0.000    0.000    0.000    0.000 
#    0.000    0.000    0.000    0.000    0.000    0.000 
#
# Total GULP energy -793460.123014 kJ/mol
# GULP energy per Si atom -12397.814422 kJ/mol
# Density = 1.934158 g / cm^3
# Si number density = 19.385700 Si / 1000 Ang^3
#
#
#
# Elastic Constant Matrix: (Units=GPa)
#
#
# Indices 1 2 3 4 5 6 
#
# 1 164.0957 52.1185 59.9814 0.0000 0.0000 0.0000
# 2 52.1185 117.1365 27.7346 0.0000 0.0000 0.0000
# 3 59.9814 27.7346 56.0916 0.0000 0.0000 0.0000
# 4 0.0000 0.0000 0.0000 19.4736 0.0000 0.0000
# 5 0.0000 0.0000 0.0000 0.0000 39.7303 0.0000
# 6 0.0000 0.0000 0.0000 0.0000 0.0000 11.5072
#
#
#
# Elastic Compliance Matrix: (Units=1/GPa)
#
#
# Indices 1 2 3 4 5 6 
#
# 1 0.010518 -0.002284 -0.010118 0.000000 0.000000 0.000000
# 2 -0.002284 0.010165 -0.002584 0.000000 0.000000 0.000000
# 3 -0.010118 -0.002584 0.029925 0.000000 0.000000 0.000000
# 4 0.000000 0.000000 0.000000 0.051352 0.000000 0.000000
# 5 0.000000 0.000000 0.000000 0.000000 0.025170 0.000000
# 6 0.000000 0.000000 0.000000 0.000000 0.000000 0.086902
#
#
# Mechanical properties :
#
#
# Convention : Reuss Voigt Hill
#
# Bulk Modulus (GPa) = 48.45734 68.55475 58.50605
# Shear Modulus (GPa) = 19.92976 27.30816 23.61896
#
# Velocity S-wave (km/s) = 3.20982 3.75730 3.49430
# Velocity P-wave (km/s) = 6.22800 7.36637 6.82098
#
# Compressibility (1/GPa) = 0.02063671
#
# Stress axis : x y z
#
# Youngs Moduli (GPa) = 95.07695 98.37606 33.41704
#
# Poissons Ratio (x) = 0.22471 0.33811
# Poissons Ratio (y) = 0.21717 0.08634
# Poissons Ratio (z) = 0.96197 0.25416
#
# Static dielectric constant tensor:
#      x y z
#    x 3.367440 0.000000 0.000000 
#    y 0.000000 3.798320 0.000000 
#    z 0.000000 0.000000 3.341940 
# 
# 
# High freq. dielectric constant tensor:
#      x y z
#    x 1.764410 0.000000 0.000000 
#    y 0.000000 1.767610 0.000000 
#    z 0.000000 0.000000 1.733730 
# 
# From -- ./inp_files/11028.got.cif
#   From: 2010.06.25/outbox.cif.g09.slc.cpg/sg58_6_cif.got.tgz:11028.got - 2010.06.26 21:38:00.
