data_PCOD8236526
_publ_section_title
;
Structure prediction by ZEFSAII (Michael W. Deem and Ramdas Pophale) SiO2 
 PCOD8236526
Probable space group: P N N M
;
_chemical_formula_sum "Si O2"
_cell_formula_units_Z 48
_cell_length_a 17.812185
_cell_length_b 16.363105
_cell_length_c 8.729400
_cell_angle_alpha 90.000000
_cell_angle_beta 90.000000
_cell_angle_gamma 90.000000
_cell_volume 2544.294087
_symmetry_space_group_name_H-M "P N N M"
_symmetry_group_IT_number 58
_symmetry_cell_setting 'orthorhombic'
loop_
_space_group_symop_operation_xyz
x,y,z
-x,-y,z
1/2+x,1/2-y,1/2-z
1/2-x,1/2+y,1/2-z
-x,-y,-z
x,y,-z
1/2-x,1/2+y,1/2+z
1/2+x,1/2-y,1/2+z
loop_
_atom_site_type_symbol
_atom_site_label
_atom_site_fract_x
_atom_site_fract_y
_atom_site_fract_z
Si Si1 0.173215 0.834233 0.177816
Si Si2 0.467096 0.414018 0.177709
Si Si3 0.168249 0.349852 0.821170
Si Si4 0.952967 0.749846 0.677285
Si Si5 0.407161 0.168266 0.321960
Si Si6 0.911894 0.498058 0.677196
O O1 0.106462 0.895224 0.223933
O O2 0.245190 0.856303 0.276570
O O3 0.150081 0.741331 0.214879
O O4 0.191186 0.846673 0.000000
O O5 0.500000 0.500000 0.234396
O O6 0.530926 0.345433 0.206058
O O7 0.443830 0.417278 0.000000
O O8 0.130487 0.272664 0.733846
O O9 0.127927 0.433605 0.777365
O O10 0.160854 0.334473 0.000000
O O11 0.962220 0.726638 0.500000
O O12 0.009560 0.693328 0.771739
O O13 0.408925 0.146315 0.500000
O O14 0.379298 0.089777 0.227562
O O15 0.893609 0.513803 0.500000
O O16 0.000000 0.500000 0.711424
#
# Coordination Sequence:
#
# PCOD8236526 Si02
#       6
#     8   8   8   8   8   8
#     4  10  22  40  60  84 117 153 191 239 291 340
#     4   9  19  38  63  88 114 151 195 238 285 341
#     4  12  24  38  58  84 117 154 194 239 290 345
#     4  10  19  34  58  84 113 149 188 234 286 340
#     4  10  20  36  59  85 112 149 191 231 279 342
#     4  11  22  36  59  88 118 152 189 235 288 343
#
# _framework density 18.865742999999998
#
# number of rings (size 3 to 8) (size 9 to 14) (size 15 to 20)
#    0.000    1.667    1.667    3.500    0.000    3.667 
#    3.000    0.000    0.000    0.000    0.000    0.000 
#    0.000    0.000    0.000    0.000    0.000    0.000 
#
# Total GULP energy -595431.740785 kJ/mol
# GULP energy per Si atom -12404.827933 kJ/mol
# Density = 1.882280 g / cm^3
# Si number density = 18.865743 Si / 1000 Ang^3
#
#
#
# Elastic Constant Matrix: (Units=GPa)
#
#
# Indices 1 2 3 4 5 6 
#
# 1 87.4290 43.5215 32.6511 0.0000 0.0000 0.0000
# 2 43.5215 119.2679 33.3892 0.0000 0.0000 0.0000
# 3 32.6511 33.3892 59.2607 0.0000 0.0000 0.0000
# 4 0.0000 0.0000 0.0000 30.1191 0.0000 0.0000
# 5 0.0000 0.0000 0.0000 0.0000 31.9453 0.0000
# 6 0.0000 0.0000 0.0000 0.0000 0.0000 19.4350
#
#
#
# Elastic Compliance Matrix: (Units=1/GPa)
#
#
# Indices 1 2 3 4 5 6 
#
# 1 0.015834 -0.003960 -0.006493 0.000000 0.000000 0.000000
# 2 -0.003960 0.010945 -0.003985 0.000000 0.000000 0.000000
# 3 -0.006493 -0.003985 0.022697 0.000000 0.000000 0.000000
# 4 0.000000 0.000000 0.000000 0.033202 0.000000 0.000000
# 5 0.000000 0.000000 0.000000 0.000000 0.031303 0.000000
# 6 0.000000 0.000000 0.000000 0.000000 0.000000 0.051454
#
#
# Mechanical properties :
#
#
# Convention : Reuss Voigt Hill
#
# Bulk Modulus (GPa) = 48.54243 53.89791 51.22017
# Shear Modulus (GPa) = 24.85366 26.72626 25.78996
#
# Velocity S-wave (km/s) = 3.63353 3.76793 3.70134
# Velocity P-wave (km/s) = 6.58709 6.89645 6.74354
#
# Compressibility (1/GPa) = 0.02060053
#
# Stress axis : x y z
#
# Youngs Moduli (GPa) = 63.15503 91.36465 44.05841
#
# Poissons Ratio (x) = 0.36183 0.28606
# Poissons Ratio (y) = 0.25011 0.17556
# Poissons Ratio (z) = 0.41006 0.36407
#
# Static dielectric constant tensor:
#      x y z
#    x 3.378020 0.000000 0.000000 
#    y 0.000000 3.612070 0.000000 
#    z 0.000000 0.000000 3.506860 
# 
# 
# High freq. dielectric constant tensor:
#      x y z
#    x 1.717560 0.000000 0.000000 
#    y 0.000000 1.738200 0.000000 
#    z 0.000000 0.000000 1.744860 
# 
# From -- ./inp_files/7833.got.cif
#   From: 2010.06.25/outbox.cif.g09.slc.cpg/sg58_4_cif.got.tgz:7833.got - 2010.06.26 21:38:00.
