data_PCOD8236888
_publ_section_title
;
Structure prediction by ZEFSAII (Michael W. Deem and Ramdas Pophale) SiO2 
 PCOD8236888
Probable space group: P N N M
;
_chemical_formula_sum "Si O2"
_cell_formula_units_Z 40
_cell_length_a 9.494765
_cell_length_b 25.841564
_cell_length_c 9.315137
_cell_angle_alpha 90.000000
_cell_angle_beta 90.000000
_cell_angle_gamma 90.000000
_cell_volume 2285.558078
_symmetry_space_group_name_H-M "P N N M"
_symmetry_group_IT_number 58
_symmetry_cell_setting 'orthorhombic'
loop_
_space_group_symop_operation_xyz
x,y,z
-x,-y,z
1/2+x,1/2-y,1/2-z
1/2-x,1/2+y,1/2-z
-x,-y,-z
x,y,-z
1/2-x,1/2+y,1/2+z
1/2+x,1/2-y,1/2+z
loop_
_atom_site_type_symbol
_atom_site_label
_atom_site_fract_x
_atom_site_fract_y
_atom_site_fract_z
Si Si1 0.011673 0.559304 0.332795
Si Si2 0.194234 0.637333 0.168100
Si Si3 0.491525 0.215818 0.831614
Si Si4 0.229898 0.362773 0.335947
Si Si5 0.993080 0.166316 0.334265
O O1 0.051515 0.565574 0.500000
O O2 0.134241 0.585318 0.239255
O O3 0.000000 0.500000 0.286195
O O4 0.863135 0.586778 0.299983
O O5 0.130538 0.688398 0.241214
O O6 0.360969 0.637209 0.194869
O O7 0.157256 0.638558 0.000000
O O8 0.640795 0.188617 0.798392
O O9 0.502535 0.274674 0.778836
O O10 0.455679 0.210198 0.000000
O O11 0.277230 0.362580 0.500000
O O12 0.371191 0.365275 0.244264
O O13 0.954027 0.166733 0.500000
#
# Coordination Sequence:
#
# PCOD8236888 Si02
#       5
#     8   8   8   8   8
#     4   9  19  38  59  74  92 123 164 208 251 296
#     4  10  20  33  50  75 103 130 164 203 243 289
#     4   9  18  33  50  70 100 138 174 201 232 282
#     4   9  18  32  51  74  97 125 165 207 243 286
#     4  10  20  32  47  72 107 138 162 197 243 289
#
# _framework density 17.501197000000001
#
# number of rings (size 3 to 8) (size 9 to 14) (size 15 to 20)
#    0.000    2.600    0.000    3.000    0.000    7.600 
#    0.000    1.000    0.000    6.000    0.000    0.000 
#    0.000    0.000    0.000    0.000    0.000    0.000 
#
# Total GULP energy -496077.211154 kJ/mol
# GULP energy per Si atom -12401.930279 kJ/mol
# Density = 1.746136 g / cm^3
# Si number density = 17.501197 Si / 1000 Ang^3
#
#
#
# Elastic Constant Matrix: (Units=GPa)
#
#
# Indices 1 2 3 4 5 6 
#
# 1 119.7350 54.4641 64.6964 0.0000 0.0000 0.0000
# 2 54.4641 118.8355 43.5605 0.0000 0.0000 0.0000
# 3 64.6964 43.5605 72.0326 0.0000 0.0000 0.0000
# 4 0.0000 0.0000 0.0000 2.5937 0.0000 0.0000
# 5 0.0000 0.0000 0.0000 0.0000 35.0310 0.0000
# 6 0.0000 0.0000 0.0000 0.0000 0.0000 12.0231
#
#
#
# Elastic Compliance Matrix: (Units=1/GPa)
#
#
# Indices 1 2 3 4 5 6 
#
# 1 0.016925 -0.002807 -0.013504 0.000000 0.000000 0.000000
# 2 -0.002807 0.011277 -0.004299 0.000000 0.000000 0.000000
# 3 -0.013504 -0.004299 0.028611 0.000000 0.000000 0.000000
# 4 0.000000 0.000000 0.000000 0.385546 0.000000 0.000000
# 5 0.000000 0.000000 0.000000 0.000000 0.028546 0.000000
# 6 0.000000 0.000000 0.000000 0.000000 0.000000 0.083174
#
#
# Mechanical properties :
#
#
# Convention : Reuss Voigt Hill
#
# Bulk Modulus (GPa) = 64.12700 70.67168 67.39934
# Shear Modulus (GPa) = 8.32646 19.78837 14.05741
#
# Velocity S-wave (km/s) = 2.18357 3.36622 2.83720
# Velocity P-wave (km/s) = 6.56341 7.45502 7.02338
#
# Compressibility (1/GPa) = 0.01559406
#
# Stress axis : x y z
#
# Youngs Moduli (GPa) = 59.08353 88.67475 34.95202
#
# Poissons Ratio (x) = 0.24891 0.47199
# Poissons Ratio (y) = 0.16585 0.15024
# Poissons Ratio (z) = 0.79786 0.38117
#
# Static dielectric constant tensor:
#      x y z
#    x 3.132980 0.000000 0.000000 
#    y 0.000000 3.216990 0.000000 
#    z 0.000000 0.000000 3.214880 
# 
# 
# High freq. dielectric constant tensor:
#      x y z
#    x 1.673670 0.000000 0.000000 
#    y 0.000000 1.665450 0.000000 
#    z 0.000000 0.000000 1.676340 
# 
# From -- ./inp_files/2402.got.cif
#   From: 2010.06.25/outbox.cif.g09.slc.cpg/sg58_2_cif.got.tgz:2402.got - 2010.06.26 21:38:00.
